# generated using pymatgen
data_SmTm11(Si3Au)4
_symmetry_space_group_name_H-M   'P 1'
_cell_length_a   4.19067700
_cell_length_b   10.84697204
_cell_length_c   12.19751000
_cell_angle_alpha   90.00477510
_cell_angle_beta   90.00000000
_cell_angle_gamma   90.00000000
_symmetry_Int_Tables_number   1
_chemical_formula_structural   SmTm11(Si3Au)4
_chemical_formula_sum   'Sm1 Tm11 Si12 Au4'
_cell_volume   554.45191835
_cell_formula_units_Z   1
loop_
 _symmetry_equiv_pos_site_id
 _symmetry_equiv_pos_as_xyz
  1  'x, y, z'
loop_
 _atom_site_type_symbol
 _atom_site_label
 _atom_site_symmetry_multiplicity
 _atom_site_fract_x
 _atom_site_fract_y
 _atom_site_fract_z
 _atom_site_occupancy
  Sm  Sm0  1  0.750000  0.163933  0.696559  1
  Tm  Tm1  1  0.250000  0.874636  0.021164  1
  Tm  Tm2  1  0.250000  0.625017  0.520064  1
  Tm  Tm3  1  0.750000  0.124718  0.981214  1
  Tm  Tm4  1  0.750000  0.375724  0.478597  1
  Tm  Tm5  1  0.250000  0.922100  0.600767  1
  Tm  Tm6  1  0.250000  0.577110  0.101342  1
  Tm  Tm7  1  0.750000  0.076234  0.396368  1
  Tm  Tm8  1  0.750000  0.424180  0.900778  1
  Tm  Tm9  1  0.250000  0.664383  0.802730  1
  Tm  Tm10  1  0.250000  0.835327  0.302488  1
  Tm  Tm11  1  0.750000  0.336577  0.197261  1
  Si  Si12  1  0.250000  0.025310  0.828821  1
  Si  Si13  1  0.250000  0.473334  0.326189  1
  Si  Si14  1  0.750000  0.972308  0.173394  1
  Si  Si15  1  0.750000  0.526844  0.673468  1
  Si  Si16  1  0.250000  0.249434  0.849816  1
  Si  Si17  1  0.250000  0.252217  0.345414  1
  Si  Si18  1  0.750000  0.751401  0.152538  1
  Si  Si19  1  0.750000  0.748127  0.652408  1
  Si  Si20  1  0.250000  0.182280  0.531286  1
  Si  Si21  1  0.250000  0.317631  0.037653  1
  Si  Si22  1  0.750000  0.817261  0.463094  1
  Si  Si23  1  0.750000  0.682955  0.963604  1
  Au  Au24  1  0.250000  0.394208  0.682848  1
  Au  Au25  1  0.250000  0.109112  0.181178  1
  Au  Au26  1  0.750000  0.609814  0.318426  1
  Au  Au27  1  0.750000  0.887825  0.820533  1
