# generated using pymatgen
data_Dy3YSc4(CrB6)4
_symmetry_space_group_name_H-M   'P 1'
_cell_length_a   3.46795800
_cell_length_b   9.01203400
_cell_length_c   11.37480500
_cell_angle_alpha   89.99863972
_cell_angle_beta   90.00000000
_cell_angle_gamma   90.00000000
_symmetry_Int_Tables_number   1
_chemical_formula_structural   Dy3YSc4(CrB6)4
_chemical_formula_sum   'Dy3 Y1 Sc4 Cr4 B24'
_cell_volume   355.50082330
_cell_formula_units_Z   1
loop_
 _symmetry_equiv_pos_site_id
 _symmetry_equiv_pos_as_xyz
  1  'x, y, z'
loop_
 _atom_site_type_symbol
 _atom_site_label
 _atom_site_symmetry_multiplicity
 _atom_site_fract_x
 _atom_site_fract_y
 _atom_site_fract_z
 _atom_site_occupancy
  Dy  Dy0  1  0.000000  0.822809  0.085292  1
  Dy  Dy1  1  0.000000  0.177187  0.914574  1
  Dy  Dy2  1  0.000000  0.322737  0.414704  1
  Y  Y3  1  0.000000  0.677237  0.585433  1
  Sc  Sc4  1  0.000000  0.443227  0.130780  1
  Sc  Sc5  1  0.000000  0.556768  0.869120  1
  Sc  Sc6  1  0.000000  0.943369  0.369204  1
  Sc  Sc7  1  0.000000  0.056804  0.630889  1
  Cr  Cr8  1  0.000000  0.141590  0.182023  1
  Cr  Cr9  1  0.000000  0.858393  0.818014  1
  Cr  Cr10  1  0.000000  0.641600  0.317830  1
  Cr  Cr11  1  0.000000  0.358291  0.682042  1
  B  B12  1  0.500000  0.054839  0.067794  1
  B  B13  1  0.500000  0.945123  0.932179  1
  B  B14  1  0.500000  0.554719  0.432157  1
  B  B15  1  0.500000  0.444978  0.567801  1
  B  B16  1  0.500000  0.253216  0.082608  1
  B  B17  1  0.500000  0.746851  0.917375  1
  B  B18  1  0.500000  0.753320  0.417316  1
  B  B19  1  0.500000  0.246854  0.582641  1
  B  B20  1  0.500000  0.294617  0.235512  1
  B  B21  1  0.500000  0.705453  0.764625  1
  B  B22  1  0.500000  0.794656  0.264485  1
  B  B23  1  0.500000  0.205473  0.735496  1
  B  B24  1  0.500000  0.129591  0.316529  1
  B  B25  1  0.500000  0.870526  0.683578  1
  B  B26  1  0.500000  0.629593  0.183444  1
  B  B27  1  0.500000  0.370384  0.816482  1
  B  B28  1  0.500000  0.482595  0.286524  1
  B  B29  1  0.500000  0.517195  0.713551  1
  B  B30  1  0.500000  0.982628  0.213470  1
  B  B31  1  0.500000  0.017294  0.786549  1
  B  B32  1  0.500000  0.095954  0.473897  1
  B  B33  1  0.500000  0.904137  0.526055  1
  B  B34  1  0.500000  0.595946  0.026109  1
  B  B35  1  0.500000  0.404047  0.973919  1
