# generated using pymatgen
data_Dy4HoCr3(P3Ir4)4
_symmetry_space_group_name_H-M   'P 1'
_cell_length_a   12.62996200
_cell_length_b   12.62996155
_cell_length_c   3.95598800
_cell_angle_alpha   90.00000000
_cell_angle_beta   90.00000000
_cell_angle_gamma   119.99999594
_symmetry_Int_Tables_number   1
_chemical_formula_structural   Dy4HoCr3(P3Ir4)4
_chemical_formula_sum   'Dy4 Ho1 Cr3 P12 Ir16'
_cell_volume   546.49939735
_cell_formula_units_Z   1
loop_
 _symmetry_equiv_pos_site_id
 _symmetry_equiv_pos_as_xyz
  1  'x, y, z'
loop_
 _atom_site_type_symbol
 _atom_site_label
 _atom_site_symmetry_multiplicity
 _atom_site_fract_x
 _atom_site_fract_y
 _atom_site_fract_z
 _atom_site_occupancy
  Dy  Dy0  1  0.666667  0.333333  0.500000  1
  Dy  Dy1  1  0.999998  0.810638  0.000000  1
  Dy  Dy2  1  0.189362  0.189361  0.000000  1
  Dy  Dy3  1  0.810639  0.000002  0.000000  1
  Ho  Ho4  1  0.333333  0.666667  0.500000  1
  Cr  Cr5  1  0.000000  0.453434  0.500000  1
  Cr  Cr6  1  0.546566  0.546566  0.500000  1
  Cr  Cr7  1  0.453434  0.000000  0.500000  1
  P  P8  1  0.999989  0.632275  0.500000  1
  P  P9  1  0.367725  0.367715  0.500000  1
  P  P10  1  0.632285  0.000011  0.500000  1
  P  P11  1  0.516173  0.684160  0.000000  1
  P  P12  1  0.315840  0.832013  0.000000  1
  P  P13  1  0.167987  0.483827  0.000000  1
  P  P14  1  0.483747  0.167917  0.000000  1
  P  P15  1  0.684170  0.516253  0.000000  1
  P  P16  1  0.832083  0.315830  0.000000  1
  P  P17  1  0.000001  0.177709  0.500000  1
  P  P18  1  0.822291  0.822293  0.500000  1
  P  P19  1  0.177707  0.999999  0.500000  1
  Ir  Ir20  1  0.509268  0.868481  0.000000  1
  Ir  Ir21  1  0.131519  0.640787  0.000000  1
  Ir  Ir22  1  0.359213  0.490732  0.000000  1
  Ir  Ir23  1  0.490615  0.359224  0.000000  1
  Ir  Ir24  1  0.868610  0.509385  0.000000  1
  Ir  Ir25  1  0.640776  0.131390  0.000000  1
  Ir  Ir26  1  0.000004  0.287294  0.000000  1
  Ir  Ir27  1  0.712706  0.712710  0.000000  1
  Ir  Ir28  1  0.287290  0.999996  0.000000  1
  Ir  Ir29  1  0.623680  0.802644  0.500000  1
  Ir  Ir30  1  0.197356  0.821036  0.500000  1
  Ir  Ir31  1  0.178964  0.376320  0.500000  1
  Ir  Ir32  1  0.376274  0.178935  0.500000  1
  Ir  Ir33  1  0.802661  0.623726  0.500000  1
  Ir  Ir34  1  0.821065  0.197339  0.500000  1
  Ir  Ir35  1  0.000000  0.000000  0.500000  1
