# generated using pymatgen
data_SmY3(Si5Pt3)2
_symmetry_space_group_name_H-M   'P 1'
_cell_length_a   8.18239904
_cell_length_b   8.18827844
_cell_length_c   8.18827797
_cell_angle_alpha   136.28882141
_cell_angle_beta   104.82847681
_cell_angle_gamma   91.22855050
_symmetry_Int_Tables_number   1
_chemical_formula_structural   SmY3(Si5Pt3)2
_chemical_formula_sum   'Sm1 Y3 Si10 Pt6'
_cell_volume   348.54084230
_cell_formula_units_Z   1
loop_
 _symmetry_equiv_pos_site_id
 _symmetry_equiv_pos_as_xyz
  1  'x, y, z'
loop_
 _atom_site_type_symbol
 _atom_site_label
 _atom_site_symmetry_multiplicity
 _atom_site_fract_x
 _atom_site_fract_y
 _atom_site_fract_z
 _atom_site_occupancy
  Sm  Sm0  1  0.899335  0.129705  0.769629  1
  Y  Y1  1  0.640567  0.370167  0.270400  1
  Y  Y2  1  0.359576  0.629814  0.729762  1
  Y  Y3  1  0.099994  0.870263  0.229731  1
  Si  Si4  1  0.272539  0.522325  0.250476  1
  Si  Si5  1  0.727963  0.478130  0.749924  1
  Si  Si6  1  0.727963  0.978038  0.249833  1
  Si  Si7  1  0.272539  0.022063  0.750214  1
  Si  Si8  1  0.460445  0.111667  0.348778  1
  Si  Si9  1  0.538380  0.887294  0.651086  1
  Si  Si10  1  0.763118  0.611687  0.151431  1
  Si  Si11  1  0.237427  0.388940  0.848487  1
  Si  Si12  1  0.000077  0.249740  0.250114  1
  Si  Si13  1  0.000077  0.749963  0.750337  1
  Pt  Pt14  1  0.249398  0.137325  0.112072  1
  Pt  Pt15  1  0.750241  0.861948  0.888293  1
  Pt  Pt16  1  0.026020  0.637293  0.388727  1
  Pt  Pt17  1  0.975130  0.363842  0.611288  1
  Pt  Pt18  1  0.499606  0.250161  0.749970  1
  Pt  Pt19  1  0.499606  0.749636  0.249445  1
