# generated using pymatgen
data_K4Fe3CoF14
_symmetry_space_group_name_H-M   'P 1'
_cell_length_a   7.82719041
_cell_length_b   7.82718949
_cell_length_c   7.79789300
_cell_angle_alpha   120.45764195
_cell_angle_beta   116.92209370
_cell_angle_gamma   92.51680223
_symmetry_Int_Tables_number   1
_chemical_formula_structural   K4Fe3CoF14
_chemical_formula_sum   'K4 Fe3 Co1 F14'
_cell_volume   343.15943804
_cell_formula_units_Z   1
loop_
 _symmetry_equiv_pos_site_id
 _symmetry_equiv_pos_as_xyz
  1  'x, y, z'
loop_
 _atom_site_type_symbol
 _atom_site_label
 _atom_site_symmetry_multiplicity
 _atom_site_fract_x
 _atom_site_fract_y
 _atom_site_fract_z
 _atom_site_occupancy
  K  K0  1  0.500000  0.500000  0.000000  1
  K  K1  1  0.000000  0.000000  0.000000  1
  K  K2  1  0.000000  0.500000  0.000000  1
  K  K3  1  0.000000  0.000000  0.500000  1
  Fe  Fe4  1  0.500000  0.000000  0.000000  1
  Fe  Fe5  1  0.000000  0.500000  0.500000  1
  Fe  Fe6  1  0.500000  0.000000  0.500000  1
  Co  Co7  1  0.500000  0.500000  0.500000  1
  F  F8  1  0.878600  0.584527  0.289116  1
  F  F9  1  0.204588  0.910515  0.289116  1
  F  F10  1  0.180929  0.799433  0.757626  1
  F  F11  1  0.462543  0.701003  0.394139  1
  F  F12  1  0.458194  0.076700  0.757626  1
  F  F13  1  0.193137  0.431596  0.394139  1
  F  F14  1  0.806863  0.568404  0.605861  1
  F  F15  1  0.541806  0.923300  0.242374  1
  F  F16  1  0.537457  0.298997  0.605861  1
  F  F17  1  0.819071  0.200567  0.242374  1
  F  F18  1  0.406742  0.247872  0.154614  1
  F  F19  1  0.121400  0.415473  0.710884  1
  F  F20  1  0.795412  0.089485  0.710884  1
  F  F21  1  0.593258  0.752128  0.845386  1
