# generated using pymatgen
data_YPa3Ir3Rh
_symmetry_space_group_name_H-M   'P 1'
_cell_length_a   3.78371400
_cell_length_b   4.15099900
_cell_length_c   10.97298900
_cell_angle_alpha   90.00000000
_cell_angle_beta   90.00000000
_cell_angle_gamma   90.00000000
_symmetry_Int_Tables_number   1
_chemical_formula_structural   YPa3Ir3Rh
_chemical_formula_sum   'Y1 Pa3 Ir3 Rh1'
_cell_volume   172.34388335
_cell_formula_units_Z   1
loop_
 _symmetry_equiv_pos_site_id
 _symmetry_equiv_pos_as_xyz
  1  'x, y, z'
loop_
 _atom_site_type_symbol
 _atom_site_label
 _atom_site_symmetry_multiplicity
 _atom_site_fract_x
 _atom_site_fract_y
 _atom_site_fract_z
 _atom_site_occupancy
  Y  Y0  1  0.500000  0.750000  0.360085  1
  Pa  Pa1  1  0.000000  0.750000  0.863371  1
  Pa  Pa2  1  0.000000  0.250000  0.147739  1
  Pa  Pa3  1  0.500000  0.250000  0.630480  1
  Ir  Ir4  1  0.500000  0.750000  0.092687  1
  Ir  Ir5  1  0.000000  0.750000  0.602480  1
  Ir  Ir6  1  0.500000  0.250000  0.897202  1
  Rh  Rh7  1  0.000000  0.250000  0.405957  1
