# generated using pymatgen
data_NpU2F12
_symmetry_space_group_name_H-M   'P 1'
_cell_length_a   8.42284000
_cell_length_b   8.39492217
_cell_length_c   8.41194096
_cell_angle_alpha   62.97421583
_cell_angle_beta   62.82661296
_cell_angle_gamma   80.32827796
_symmetry_Int_Tables_number   1
_chemical_formula_structural   NpU2F12
_chemical_formula_sum   'Np2 U4 F24'
_cell_volume   470.78322792
_cell_formula_units_Z   2
loop_
 _symmetry_equiv_pos_site_id
 _symmetry_equiv_pos_as_xyz
  1  'x, y, z'
loop_
 _atom_site_type_symbol
 _atom_site_label
 _atom_site_symmetry_multiplicity
 _atom_site_fract_x
 _atom_site_fract_y
 _atom_site_fract_z
 _atom_site_occupancy
  Np  Np0  1  0.788557  0.212182  0.249255  1
  Np  Np1  1  0.211443  0.787818  0.750745  1
  U  U2  1  0.632185  0.776406  0.170646  1
  U  U3  1  0.776129  0.632860  0.670244  1
  U  U4  1  0.367815  0.223594  0.829354  1
  U  U5  1  0.223871  0.367140  0.329756  1
  F  F6  1  0.741700  0.681448  0.393126  1
  F  F7  1  0.595574  0.187490  0.574948  1
  F  F8  1  0.736317  0.500522  0.215813  1
  F  F9  1  0.318987  0.257541  0.106814  1
  F  F10  1  0.071046  0.173014  0.042498  1
  F  F11  1  0.187474  0.595234  0.074729  1
  F  F12  1  0.404426  0.812510  0.425052  1
  F  F13  1  0.393324  0.606048  0.249835  1
  F  F14  1  0.606676  0.393952  0.750165  1
  F  F15  1  0.499810  0.736683  0.715885  1
  F  F16  1  0.827276  0.929370  0.457258  1
  F  F17  1  0.172724  0.070630  0.542742  1
  F  F18  1  0.263683  0.499478  0.784187  1
  F  F19  1  0.258300  0.318552  0.606874  1
  F  F20  1  0.723720  0.030213  0.149395  1
  F  F21  1  0.000000  0.500000  0.500000  1
  F  F22  1  0.970008  0.276362  0.349963  1
  F  F23  1  0.812526  0.404766  0.925271  1
  F  F24  1  0.500190  0.263317  0.284115  1
  F  F25  1  0.928954  0.826986  0.957502  1
  F  F26  1  0.276280  0.969787  0.850605  1
  F  F27  1  0.681013  0.742459  0.893186  1
  F  F28  1  0.029992  0.723638  0.650037  1
  F  F29  1  0.500000  0.000000  0.000000  1
