# generated using pymatgen
data_Zr8In4Cu4Rh3Au
_symmetry_space_group_name_H-M   'P 1'
_cell_length_a   7.41814394
_cell_length_b   7.40800635
_cell_length_c   6.90409434
_cell_angle_alpha   90.07158918
_cell_angle_beta   89.97523195
_cell_angle_gamma   90.07122100
_symmetry_Int_Tables_number   1
_chemical_formula_structural   Zr8In4Cu4Rh3Au
_chemical_formula_sum   'Zr8 In4 Cu4 Rh3 Au1'
_cell_volume   379.40461051
_cell_formula_units_Z   1
loop_
 _symmetry_equiv_pos_site_id
 _symmetry_equiv_pos_as_xyz
  1  'x, y, z'
loop_
 _atom_site_type_symbol
 _atom_site_label
 _atom_site_symmetry_multiplicity
 _atom_site_fract_x
 _atom_site_fract_y
 _atom_site_fract_z
 _atom_site_occupancy
  Zr  Zr0  1  0.149028  0.154006  0.006355  1
  Zr  Zr1  1  0.837805  0.842067  0.999057  1
  Zr  Zr2  1  0.655354  0.347526  0.495776  1
  Zr  Zr3  1  0.353505  0.649955  0.493292  1
  Zr  Zr4  1  0.684434  0.320900  0.003677  1
  Zr  Zr5  1  0.324488  0.681797  0.005787  1
  Zr  Zr6  1  0.805206  0.810786  0.499627  1
  Zr  Zr7  1  0.190659  0.195716  0.494389  1
  In  In8  1  0.500514  0.003316  0.246770  1
  In  In9  1  0.504651  0.005651  0.751784  1
  In  In10  1  0.002780  0.502171  0.246141  1
  In  In11  1  0.000308  0.491438  0.752092  1
  Cu  Cu12  1  0.871591  0.128958  0.708295  1
  Cu  Cu13  1  0.877539  0.121396  0.290839  1
  Cu  Cu14  1  0.369932  0.369147  0.792411  1
  Cu  Cu15  1  0.121667  0.877156  0.290002  1
  Rh  Rh16  1  0.367745  0.366941  0.219181  1
  Rh  Rh17  1  0.623704  0.622993  0.772624  1
  Rh  Rh18  1  0.634217  0.632477  0.222177  1
  Au  Au19  1  0.124871  0.875600  0.709726  1
