# generated using pymatgen
data_Y4Ga18(PdRu)3
_symmetry_space_group_name_H-M   'P 1'
_cell_length_a   7.58049285
_cell_length_b   7.58038719
_cell_length_c   9.56777660
_cell_angle_alpha   89.87717874
_cell_angle_beta   89.87531096
_cell_angle_gamma   119.51587498
_symmetry_Int_Tables_number   1
_chemical_formula_structural   Y4Ga18(PdRu)3
_chemical_formula_sum   'Y4 Ga18 Pd3 Ru3'
_cell_volume   478.43675757
_cell_formula_units_Z   1
loop_
 _symmetry_equiv_pos_site_id
 _symmetry_equiv_pos_as_xyz
  1  'x, y, z'
loop_
 _atom_site_type_symbol
 _atom_site_label
 _atom_site_symmetry_multiplicity
 _atom_site_fract_x
 _atom_site_fract_y
 _atom_site_fract_z
 _atom_site_occupancy
  Y  Y0  1  0.996343  0.670348  0.250976  1
  Y  Y1  1  0.002177  0.328960  0.748745  1
  Y  Y2  1  0.671041  0.997825  0.251257  1
  Y  Y3  1  0.329651  0.003654  0.749024  1
  Ga  Ga4  1  0.131536  0.129401  0.249953  1
  Ga  Ga5  1  0.870599  0.868464  0.750047  1
  Ga  Ga6  1  0.006950  0.339489  0.080859  1
  Ga  Ga7  1  0.001266  0.664250  0.919277  1
  Ga  Ga8  1  0.997959  0.660310  0.578580  1
  Ga  Ga9  1  0.339688  0.002041  0.421422  1
  Ga  Ga10  1  0.003155  0.339965  0.420214  1
  Ga  Ga11  1  0.660038  0.996846  0.579785  1
  Ga  Ga12  1  0.660512  0.993050  0.919141  1
  Ga  Ga13  1  0.335751  0.998737  0.080723  1
  Ga  Ga14  1  0.339957  0.339561  0.563002  1
  Ga  Ga15  1  0.660438  0.660046  0.437000  1
  Ga  Ga16  1  0.660261  0.665323  0.066397  1
  Ga  Ga17  1  0.334677  0.339741  0.933603  1
  Ga  Ga18  1  0.337475  0.551412  0.250441  1
  Ga  Ga19  1  0.664206  0.452886  0.746685  1
  Ga  Ga20  1  0.547114  0.335795  0.253315  1
  Ga  Ga21  1  0.448589  0.662526  0.749559  1
  Pd  Pd22  1  0.672581  0.327420  0.999999  1
  Pd  Pd23  1  0.000383  0.999617  0.999999  1
  Pd  Pd24  1  0.999635  0.000366  0.500001  1
  Ru  Ru25  1  0.327229  0.672762  0.999997  1
  Ru  Ru26  1  0.327167  0.672829  0.500001  1
  Ru  Ru27  1  0.673624  0.326376  0.499998  1
