# generated using pymatgen
data_Re23TcMo5
_symmetry_space_group_name_H-M   'P 1'
_cell_length_a   8.36309789
_cell_length_b   8.36309858
_cell_length_c   8.36165284
_cell_angle_alpha   109.52260442
_cell_angle_beta   109.52260961
_cell_angle_gamma   109.48433723
_symmetry_Int_Tables_number   1
_chemical_formula_structural   Re23TcMo5
_chemical_formula_sum   'Re23 Tc1 Mo5'
_cell_volume   449.55402488
_cell_formula_units_Z   1
loop_
 _symmetry_equiv_pos_site_id
 _symmetry_equiv_pos_as_xyz
  1  'x, y, z'
loop_
 _atom_site_type_symbol
 _atom_site_label
 _atom_site_symmetry_multiplicity
 _atom_site_fract_x
 _atom_site_fract_y
 _atom_site_fract_z
 _atom_site_occupancy
  Re  Re0  1  0.401964  0.685414  0.001191  1
  Re  Re1  1  0.685414  0.401964  0.001191  1
  Re  Re2  1  0.598361  0.282265  0.599026  1
  Re  Re3  1  0.401384  0.001571  0.685626  1
  Re  Re4  1  0.001571  0.401384  0.685626  1
  Re  Re5  1  0.282265  0.598361  0.599026  1
  Re  Re6  1  0.718383  0.315140  0.315625  1
  Re  Re7  1  0.315140  0.718383  0.315625  1
  Re  Re8  1  0.685989  0.000882  0.401963  1
  Re  Re9  1  0.000882  0.685989  0.401963  1
  Re  Re10  1  0.598949  0.598949  0.282430  1
  Re  Re11  1  0.805670  0.805670  0.180334  1
  Re  Re12  1  0.376487  0.194090  0.000818  1
  Re  Re13  1  0.194090  0.376487  0.000818  1
  Re  Re14  1  0.623053  0.816573  0.623340  1
  Re  Re15  1  0.376365  0.000632  0.193663  1
  Re  Re16  1  0.000632  0.376365  0.193663  1
  Re  Re17  1  0.816573  0.623053  0.623340  1
  Re  Re18  1  0.181295  0.806213  0.806314  1
  Re  Re19  1  0.806213  0.181295  0.806314  1
  Re  Re20  1  0.193838  0.000723  0.375748  1
  Re  Re21  1  0.000723  0.193838  0.375748  1
  Re  Re22  1  0.621844  0.621844  0.815249  1
  Tc  Tc23  1  0.315286  0.315286  0.717499  1
  Mo  Mo24  1  0.000305  0.000305  0.000446  1
  Mo  Mo25  1  0.998899  0.998899  0.641898  1
  Mo  Mo26  1  0.641269  0.998907  0.998439  1
  Mo  Mo27  1  0.998907  0.641269  0.998439  1
  Mo  Mo28  1  0.358249  0.358249  0.358640  1
