# generated using pymatgen
data_GdLu2Al3SiAu2
_symmetry_space_group_name_H-M   'P 1'
_cell_length_a   6.97285974
_cell_length_b   7.00638207
_cell_length_c   4.28817600
_cell_angle_alpha   90.00000000
_cell_angle_beta   90.00000000
_cell_angle_gamma   120.48901376
_symmetry_Int_Tables_number   1
_chemical_formula_structural   GdLu2Al3SiAu2
_chemical_formula_sum   'Gd1 Lu2 Al3 Si1 Au2'
_cell_volume   180.52891729
_cell_formula_units_Z   1
loop_
 _symmetry_equiv_pos_site_id
 _symmetry_equiv_pos_as_xyz
  1  'x, y, z'
loop_
 _atom_site_type_symbol
 _atom_site_label
 _atom_site_symmetry_multiplicity
 _atom_site_fract_x
 _atom_site_fract_y
 _atom_site_fract_z
 _atom_site_occupancy
  Gd  Gd0  1  0.429298  0.423082  0.500000  1
  Lu  Lu1  1  0.578631  0.002838  0.500000  1
  Lu  Lu2  1  0.000565  0.577556  0.500000  1
  Al  Al3  1  0.751595  0.759710  0.000000  1
  Al  Al4  1  0.242199  0.994890  0.000000  1
  Al  Al5  1  0.005264  0.247678  0.000000  1
  Si  Si6  1  0.669784  0.330384  0.000000  1
  Au  Au7  1  0.330170  0.671931  0.000000  1
  Au  Au8  1  0.992493  0.991933  0.500000  1
