# generated using pymatgen
data_LiPmGe2Pt
_symmetry_space_group_name_H-M   'P 1'
_cell_length_a   6.13271503
_cell_length_b   6.13271672
_cell_length_c   6.13271624
_cell_angle_alpha   140.39784548
_cell_angle_beta   140.39785031
_cell_angle_gamma   57.24971351
_symmetry_Int_Tables_number   1
_chemical_formula_structural   LiPmGe2Pt
_chemical_formula_sum   'Li1 Pm1 Ge2 Pt1'
_cell_volume   92.93403843
_cell_formula_units_Z   1
loop_
 _symmetry_equiv_pos_site_id
 _symmetry_equiv_pos_as_xyz
  1  'x, y, z'
loop_
 _atom_site_type_symbol
 _atom_site_label
 _atom_site_symmetry_multiplicity
 _atom_site_fract_x
 _atom_site_fract_y
 _atom_site_fract_z
 _atom_site_occupancy
  Li  Li0  1  0.750000  0.250000  0.500000  1
  Pm  Pm1  1  0.000000  0.000000  0.000000  1
  Ge  Ge2  1  0.384079  0.384079  0.000000  1
  Ge  Ge3  1  0.615920  0.615920  0.000000  1
  Pt  Pt4  1  0.250000  0.750000  0.500000  1
