# generated using pymatgen
data_DyHo(FeOs)2
_symmetry_space_group_name_H-M   'P 1'
_cell_length_a   5.21467668
_cell_length_b   5.27216994
_cell_length_c   5.27216909
_cell_angle_alpha   59.80845267
_cell_angle_beta   60.36007944
_cell_angle_gamma   60.36008797
_symmetry_Int_Tables_number   1
_chemical_formula_structural   DyHo(FeOs)2
_chemical_formula_sum   'Dy1 Ho1 Fe2 Os2'
_cell_volume   102.89497408
_cell_formula_units_Z   1
loop_
 _symmetry_equiv_pos_site_id
 _symmetry_equiv_pos_as_xyz
  1  'x, y, z'
loop_
 _atom_site_type_symbol
 _atom_site_label
 _atom_site_symmetry_multiplicity
 _atom_site_fract_x
 _atom_site_fract_y
 _atom_site_fract_z
 _atom_site_occupancy
  Dy  Dy0  1  0.997810  0.002190  0.002190  1
  Ho  Ho1  1  0.252260  0.247740  0.247740  1
  Fe  Fe2  1  0.125341  0.624963  0.624963  1
  Fe  Fe3  1  0.624733  0.624963  0.624963  1
  Os  Os4  1  0.624928  0.625151  0.124992  1
  Os  Os5  1  0.624928  0.124992  0.625151  1
