# generated using pymatgen
data_Dy5Y3(MnS4)4
_symmetry_space_group_name_H-M   'P 1'
_cell_length_a   6.41900500
_cell_length_b   7.93018600
_cell_length_c   13.55230500
_cell_angle_alpha   90.00000000
_cell_angle_beta   90.00214074
_cell_angle_gamma   90.00000000
_symmetry_Int_Tables_number   1
_chemical_formula_structural   Dy5Y3(MnS4)4
_chemical_formula_sum   'Dy5 Y3 Mn4 S16'
_cell_volume   689.86522683
_cell_formula_units_Z   1
loop_
 _symmetry_equiv_pos_site_id
 _symmetry_equiv_pos_as_xyz
  1  'x, y, z'
loop_
 _atom_site_type_symbol
 _atom_site_label
 _atom_site_symmetry_multiplicity
 _atom_site_fract_x
 _atom_site_fract_y
 _atom_site_fract_z
 _atom_site_occupancy
  Dy  Dy0  1  0.000001  0.499998  0.999999  1
  Dy  Dy1  1  0.499994  0.999977  0.500024  1
  Dy  Dy2  1  0.000001  0.000002  0.999999  1
  Dy  Dy3  1  0.499994  0.500023  0.500024  1
  Dy  Dy4  1  0.494735  0.250000  0.233991  1
  Y  Y5  1  0.994709  0.750000  0.265996  1
  Y  Y6  1  0.505310  0.750000  0.766001  1
  Y  Y7  1  0.005302  0.250000  0.734005  1
  Mn  Mn8  1  0.411206  0.750000  0.092303  1
  Mn  Mn9  1  0.088784  0.750000  0.592344  1
  Mn  Mn10  1  0.588662  0.250000  0.907691  1
  Mn  Mn11  1  0.911268  0.250000  0.407642  1
  S  S12  1  0.778641  0.750000  0.090034  1
  S  S13  1  0.721364  0.750000  0.590025  1
  S  S14  1  0.221366  0.250000  0.909967  1
  S  S15  1  0.278813  0.250000  0.409833  1
  S  S16  1  0.244302  0.750000  0.430271  1
  S  S17  1  0.255712  0.750000  0.930272  1
  S  S18  1  0.755709  0.250000  0.569734  1
  S  S19  1  0.744142  0.250000  0.069868  1
  S  S20  1  0.742216  0.486660  0.331253  1
  S  S21  1  0.757570  0.013137  0.831346  1
  S  S22  1  0.257571  0.986860  0.668657  1
  S  S23  1  0.242636  0.512920  0.168733  1
  S  S24  1  0.257571  0.513140  0.668657  1
  S  S25  1  0.242636  0.987080  0.168733  1
  S  S26  1  0.742216  0.013340  0.331253  1
  S  S27  1  0.757570  0.486863  0.831346  1
