# generated using pymatgen
data_NaPrY5RhBr12
_symmetry_space_group_name_H-M   'P 1'
_cell_length_a   9.39033315
_cell_length_b   9.33539423
_cell_length_c   9.25755586
_cell_angle_alpha   106.21391579
_cell_angle_beta   106.79674342
_cell_angle_gamma   107.67667312
_symmetry_Int_Tables_number   1
_chemical_formula_structural   NaPrY5RhBr12
_chemical_formula_sum   'Na1 Pr1 Y5 Rh1 Br12'
_cell_volume   677.68387253
_cell_formula_units_Z   1
loop_
 _symmetry_equiv_pos_site_id
 _symmetry_equiv_pos_as_xyz
  1  'x, y, z'
loop_
 _atom_site_type_symbol
 _atom_site_label
 _atom_site_symmetry_multiplicity
 _atom_site_fract_x
 _atom_site_fract_y
 _atom_site_fract_z
 _atom_site_occupancy
  Na  Na0  1  0.499692  0.501773  0.497465  1
  Pr  Pr1  1  0.889865  0.679165  0.973162  1
  Y  Y2  1  0.107946  0.310687  0.027545  1
  Y  Y3  1  0.325330  0.030188  0.111744  1
  Y  Y4  1  0.029028  0.109634  0.314144  1
  Y  Y5  1  0.972654  0.896072  0.689002  1
  Y  Y6  1  0.674059  0.966736  0.889038  1
  Rh  Rh7  1  0.000068  0.998288  0.001866  1
  Br  Br8  1  0.228686  0.682150  0.078429  1
  Br  Br9  1  0.448367  0.366189  0.145196  1
  Br  Br10  1  0.681149  0.074331  0.218052  1
  Br  Br11  1  0.929259  0.791486  0.332115  1
  Br  Br12  1  0.146139  0.447225  0.363718  1
  Br  Br13  1  0.365821  0.147227  0.447485  1
  Br  Br14  1  0.635328  0.857463  0.554266  1
  Br  Br15  1  0.851891  0.554312  0.623439  1
  Br  Br16  1  0.075141  0.219773  0.682540  1
  Br  Br17  1  0.320297  0.929845  0.784276  1
  Br  Br18  1  0.538407  0.630658  0.845745  1
  Br  Br19  1  0.780876  0.306799  0.920777  1
