# generated using pymatgen
data_Ho4Al4Ru3Rh
_symmetry_space_group_name_H-M   'P 1'
_cell_length_a   4.03362500
_cell_length_b   7.00790102
_cell_length_c   8.05780302
_cell_angle_alpha   90.00784095
_cell_angle_beta   90.00000000
_cell_angle_gamma   90.00000000
_symmetry_Int_Tables_number   1
_chemical_formula_structural   Ho4Al4Ru3Rh
_chemical_formula_sum   'Ho4 Al4 Ru3 Rh1'
_cell_volume   227.77188785
_cell_formula_units_Z   1
loop_
 _symmetry_equiv_pos_site_id
 _symmetry_equiv_pos_as_xyz
  1  'x, y, z'
loop_
 _atom_site_type_symbol
 _atom_site_label
 _atom_site_symmetry_multiplicity
 _atom_site_fract_x
 _atom_site_fract_y
 _atom_site_fract_z
 _atom_site_occupancy
  Ho  Ho0  1  0.250000  0.532681  0.178527  1
  Ho  Ho1  1  0.750000  0.468849  0.822541  1
  Ho  Ho2  1  0.750000  0.964410  0.679782  1
  Ho  Ho3  1  0.250000  0.031951  0.319300  1
  Al  Al4  1  0.250000  0.639210  0.559097  1
  Al  Al5  1  0.750000  0.363427  0.439561  1
  Al  Al6  1  0.750000  0.862689  0.058774  1
  Al  Al7  1  0.250000  0.136658  0.942048  1
  Ru  Ru8  1  0.250000  0.767316  0.875743  1
  Ru  Ru9  1  0.750000  0.231860  0.124375  1
  Ru  Ru10  1  0.750000  0.730937  0.376965  1
  Rh  Rh11  1  0.250000  0.270013  0.623286  1
