# generated using pymatgen
data_Li6Sc12RuRh5
_symmetry_space_group_name_H-M   'P 1'
_cell_length_a   4.73174600
_cell_length_b   6.51628500
_cell_length_c   13.81641300
_cell_angle_alpha   90.00000000
_cell_angle_beta   89.99898484
_cell_angle_gamma   90.00000000
_symmetry_Int_Tables_number   1
_chemical_formula_structural   Li6Sc12RuRh5
_chemical_formula_sum   'Li6 Sc12 Ru1 Rh5'
_cell_volume   426.00706432
_cell_formula_units_Z   1
loop_
 _symmetry_equiv_pos_site_id
 _symmetry_equiv_pos_as_xyz
  1  'x, y, z'
loop_
 _atom_site_type_symbol
 _atom_site_label
 _atom_site_symmetry_multiplicity
 _atom_site_fract_x
 _atom_site_fract_y
 _atom_site_fract_z
 _atom_site_occupancy
  Li  Li0  1  0.999998  0.500000  0.000056  1
  Li  Li1  1  0.499885  0.000000  0.165807  1
  Li  Li2  1  0.999870  0.500000  0.333343  1
  Li  Li3  1  0.499991  0.000000  0.500894  1
  Li  Li4  1  0.000158  0.500000  0.666587  1
  Li  Li5  1  0.500117  0.000000  0.833316  1
  Sc  Sc6  1  0.499994  0.255015  0.998243  1
  Sc  Sc7  1  0.499994  0.744985  0.998243  1
  Sc  Sc8  1  0.999915  0.246801  0.166440  1
  Sc  Sc9  1  0.999915  0.753200  0.166440  1
  Sc  Sc10  1  0.499911  0.253218  0.333339  1
  Sc  Sc11  1  0.499911  0.746781  0.333339  1
  Sc  Sc12  1  0.999995  0.246781  0.500228  1
  Sc  Sc13  1  0.999995  0.753216  0.500228  1
  Sc  Sc14  1  0.500097  0.255028  0.668425  1
  Sc  Sc15  1  0.500097  0.744971  0.668425  1
  Sc  Sc16  1  0.000077  0.250872  0.833329  1
  Sc  Sc17  1  0.000077  0.749129  0.833329  1
  Ru  Ru18  1  0.500146  0.500000  0.833311  1
  Rh  Rh19  1  0.999993  0.000000  0.001539  1
  Rh  Rh20  1  0.499851  0.500000  0.167445  1
  Rh  Rh21  1  0.999892  0.000000  0.333358  1
  Rh  Rh22  1  0.500000  0.500000  0.499248  1
  Rh  Rh23  1  0.000128  0.000000  0.665091  1
