# generated using pymatgen
data_Zr12Al9Co(NiC2)2
_symmetry_space_group_name_H-M   'P 1'
_cell_length_a   8.67932313
_cell_length_b   8.68545251
_cell_length_c   8.67932318
_cell_angle_alpha   59.63498586
_cell_angle_beta   59.61026700
_cell_angle_gamma   59.63498149
_symmetry_Int_Tables_number   1
_chemical_formula_structural   Zr12Al9Co(NiC2)2
_chemical_formula_sum   'Zr12 Al9 Co1 Ni2 C4'
_cell_volume   458.72203240
_cell_formula_units_Z   1
loop_
 _symmetry_equiv_pos_site_id
 _symmetry_equiv_pos_as_xyz
  1  'x, y, z'
loop_
 _atom_site_type_symbol
 _atom_site_label
 _atom_site_symmetry_multiplicity
 _atom_site_fract_x
 _atom_site_fract_y
 _atom_site_fract_z
 _atom_site_occupancy
  Zr  Zr0  1  0.690351  0.308414  0.690351  1
  Zr  Zr1  1  0.941587  0.560598  0.557983  1
  Zr  Zr2  1  0.560941  0.941661  0.941207  1
  Zr  Zr3  1  0.941893  0.561863  0.941893  1
  Zr  Zr4  1  0.557983  0.560598  0.941587  1
  Zr  Zr5  1  0.941207  0.941661  0.560941  1
  Zr  Zr6  1  0.692017  0.689402  0.308413  1
  Zr  Zr7  1  0.308413  0.689402  0.692017  1
  Zr  Zr8  1  0.689059  0.308339  0.308793  1
  Zr  Zr9  1  0.308793  0.308339  0.689059  1
  Zr  Zr10  1  0.559649  0.941586  0.559649  1
  Zr  Zr11  1  0.308107  0.688137  0.308107  1
  Al  Al12  1  0.125000  0.125000  0.125000  1
  Al  Al13  1  0.329630  0.333643  0.329630  1
  Al  Al14  1  0.237094  0.909837  0.914050  1
  Al  Al15  1  0.912177  0.237457  0.912177  1
  Al  Al16  1  0.914050  0.909837  0.237094  1
  Al  Al17  1  0.337823  0.012543  0.337823  1
  Al  Al18  1  0.335950  0.340163  0.012906  1
  Al  Al19  1  0.012906  0.340163  0.335950  1
  Al  Al20  1  0.920370  0.916357  0.920370  1
  Co  Co21  1  0.125000  0.625000  0.125000  1
  Ni  Ni22  1  0.625000  0.125000  0.125000  1
  Ni  Ni23  1  0.125000  0.125000  0.625000  1
  C  C24  1  0.625000  0.625000  0.625000  1
  C  C25  1  0.125000  0.625000  0.625000  1
  C  C26  1  0.625000  0.125000  0.625000  1
  C  C27  1  0.625000  0.625000  0.125000  1
