# generated using pymatgen
data_PrHo2(SiIr2)3
_symmetry_space_group_name_H-M   'P 1'
_cell_length_a   5.61350100
_cell_length_b   5.61350307
_cell_length_c   15.12755100
_cell_angle_alpha   90.00000000
_cell_angle_beta   90.00000000
_cell_angle_gamma   120.00000545
_symmetry_Int_Tables_number   1
_chemical_formula_structural   PrHo2(SiIr2)3
_chemical_formula_sum   'Pr2 Ho4 Si6 Ir12'
_cell_volume   412.82596316
_cell_formula_units_Z   2
loop_
 _symmetry_equiv_pos_site_id
 _symmetry_equiv_pos_as_xyz
  1  'x, y, z'
loop_
 _atom_site_type_symbol
 _atom_site_label
 _atom_site_symmetry_multiplicity
 _atom_site_fract_x
 _atom_site_fract_y
 _atom_site_fract_z
 _atom_site_occupancy
  Pr  Pr0  1  0.333333  0.666667  0.750000  1
  Pr  Pr1  1  0.666667  0.333333  0.250000  1
  Ho  Ho2  1  0.333333  0.666667  0.538255  1
  Ho  Ho3  1  0.666667  0.333333  0.461745  1
  Ho  Ho4  1  0.666667  0.333333  0.038255  1
  Ho  Ho5  1  0.333333  0.666667  0.961745  1
  Si  Si6  1  0.000000  0.000000  0.250000  1
  Si  Si7  1  0.000000  0.000000  0.750000  1
  Si  Si8  1  0.333333  0.666667  0.250000  1
  Si  Si9  1  0.666667  0.333333  0.750000  1
  Si  Si10  1  0.000000  0.000000  0.000000  1
  Si  Si11  1  0.000000  0.000000  0.500000  1
  Ir  Ir12  1  0.167462  0.334923  0.129277  1
  Ir  Ir13  1  0.832538  0.665077  0.870723  1
  Ir  Ir14  1  0.665077  0.832538  0.129277  1
  Ir  Ir15  1  0.832538  0.665077  0.629277  1
  Ir  Ir16  1  0.334923  0.167462  0.870723  1
  Ir  Ir17  1  0.167462  0.334923  0.370723  1
  Ir  Ir18  1  0.167462  0.832538  0.129277  1
  Ir  Ir19  1  0.334923  0.167462  0.629277  1
  Ir  Ir20  1  0.832538  0.167462  0.870723  1
  Ir  Ir21  1  0.665077  0.832538  0.370723  1
  Ir  Ir22  1  0.832538  0.167462  0.629277  1
  Ir  Ir23  1  0.167462  0.832538  0.370723  1
