# generated using pymatgen
data_Yb3(MnC3)2
_symmetry_space_group_name_H-M   'P 1'
_cell_length_a   8.04501800
_cell_length_b   8.04501753
_cell_length_c   4.98587300
_cell_angle_alpha   90.00000000
_cell_angle_beta   90.00000000
_cell_angle_gamma   119.99999370
_symmetry_Int_Tables_number   1
_chemical_formula_structural   Yb3(MnC3)2
_chemical_formula_sum   'Yb6 Mn4 C12'
_cell_volume   279.46400993
_cell_formula_units_Z   2
loop_
 _symmetry_equiv_pos_site_id
 _symmetry_equiv_pos_as_xyz
  1  'x, y, z'
loop_
 _atom_site_type_symbol
 _atom_site_label
 _atom_site_symmetry_multiplicity
 _atom_site_fract_x
 _atom_site_fract_y
 _atom_site_fract_z
 _atom_site_occupancy
  Yb  Yb0  1  0.610054  0.685419  0.750000  1
  Yb  Yb1  1  0.924635  0.610054  0.250000  1
  Yb  Yb2  1  0.685419  0.075365  0.250000  1
  Yb  Yb3  1  0.314581  0.924635  0.750000  1
  Yb  Yb4  1  0.075365  0.389946  0.750000  1
  Yb  Yb5  1  0.389946  0.314581  0.250000  1
  Mn  Mn6  1  0.000000  0.000000  0.500000  1
  Mn  Mn7  1  0.000000  0.000000  0.000000  1
  Mn  Mn8  1  0.666667  0.333333  0.750000  1
  Mn  Mn9  1  0.333333  0.666667  0.250000  1
  C  C10  1  0.953892  0.774615  0.750000  1
  C  C11  1  0.179278  0.953892  0.250000  1
  C  C12  1  0.774615  0.820722  0.250000  1
  C  C13  1  0.225385  0.179278  0.750000  1
  C  C14  1  0.820722  0.046108  0.750000  1
  C  C15  1  0.046108  0.225385  0.250000  1
  C  C16  1  0.857623  0.581204  0.750000  1
  C  C17  1  0.276420  0.857623  0.250000  1
  C  C18  1  0.581204  0.723580  0.250000  1
  C  C19  1  0.418796  0.276420  0.750000  1
  C  C20  1  0.142377  0.418796  0.250000  1
  C  C21  1  0.723580  0.142377  0.750000  1
