# generated using pymatgen
data_Cd(TcO4)2
_symmetry_space_group_name_H-M   'P 1'
_cell_length_a   5.20839800
_cell_length_b   10.86810163
_cell_length_c   10.86810300
_cell_angle_alpha   59.99999889
_cell_angle_beta   90.00000000
_cell_angle_gamma   90.00000000
_symmetry_Int_Tables_number   1
_chemical_formula_structural   Cd(TcO4)2
_chemical_formula_sum   'Cd3 Tc6 O24'
_cell_volume   532.77302408
_cell_formula_units_Z   3
loop_
 _symmetry_equiv_pos_site_id
 _symmetry_equiv_pos_as_xyz
  1  'x, y, z'
loop_
 _atom_site_type_symbol
 _atom_site_label
 _atom_site_symmetry_multiplicity
 _atom_site_fract_x
 _atom_site_fract_y
 _atom_site_fract_z
 _atom_site_occupancy
  Cd  Cd0  1  0.878214  0.000000  0.000000  1
  Cd  Cd1  1  0.366912  0.333333  0.333333  1
  Cd  Cd2  1  0.366912  0.666667  0.666666  1
  Tc  Tc3  1  0.487456  0.321882  0.000000  1
  Tc  Tc4  1  0.000836  0.656026  0.000000  1
  Tc  Tc5  1  0.487456  0.678119  0.321882  1
  Tc  Tc6  1  0.000836  0.000000  0.343973  1
  Tc  Tc7  1  0.000836  0.343973  0.656027  1
  Tc  Tc8  1  0.487456  0.000000  0.678119  1
  O  O9  1  0.615871  0.173327  0.000000  1
  O  O10  1  0.159062  0.313750  0.000000  1
  O  O11  1  0.672655  0.646072  0.000000  1
  O  O12  1  0.085824  0.812356  0.000000  1
  O  O13  1  0.585205  0.325228  0.152936  1
  O  O14  1  0.119510  0.507603  0.152370  1
  O  O15  1  0.615871  0.826672  0.173328  1
  O  O16  1  0.085824  0.000000  0.187646  1
  O  O17  1  0.585205  0.521837  0.325227  1
  O  O18  1  0.159062  0.686249  0.313750  1
  O  O19  1  0.119510  0.152369  0.340028  1
  O  O20  1  0.672655  0.000000  0.353928  1
  O  O21  1  0.585205  0.674773  0.478163  1
  O  O22  1  0.119510  0.340027  0.507603  1
  O  O23  1  0.119510  0.847631  0.492397  1
  O  O24  1  0.585205  0.152935  0.521838  1
  O  O25  1  0.672655  0.353928  0.646072  1
  O  O26  1  0.119510  0.492397  0.659973  1
  O  O27  1  0.159062  0.000000  0.686251  1
  O  O28  1  0.585205  0.847064  0.674773  1
  O  O29  1  0.085824  0.187645  0.812355  1
  O  O30  1  0.615871  0.000000  0.826672  1
  O  O31  1  0.119510  0.659972  0.847631  1
  O  O32  1  0.585205  0.478163  0.847065  1
