# generated using pymatgen
data_Dy3Ho4Er13Bi12
_symmetry_space_group_name_H-M   'P 1'
_cell_length_a   8.22269566
_cell_length_b   9.48143600
_cell_length_c   11.98569911
_cell_angle_alpha   90.00000000
_cell_angle_beta   90.03076353
_cell_angle_gamma   90.00000000
_symmetry_Int_Tables_number   1
_chemical_formula_structural   Dy3Ho4Er13Bi12
_chemical_formula_sum   'Dy3 Ho4 Er13 Bi12'
_cell_volume   934.44047708
_cell_formula_units_Z   1
loop_
 _symmetry_equiv_pos_site_id
 _symmetry_equiv_pos_as_xyz
  1  'x, y, z'
loop_
 _atom_site_type_symbol
 _atom_site_label
 _atom_site_symmetry_multiplicity
 _atom_site_fract_x
 _atom_site_fract_y
 _atom_site_fract_z
 _atom_site_occupancy
  Dy  Dy0  1  0.812877  0.250000  0.281723  1
  Dy  Dy1  1  0.686881  0.750000  0.781828  1
  Dy  Dy2  1  0.186816  0.750000  0.718219  1
  Ho  Ho3  1  0.353076  0.750000  0.216705  1
  Ho  Ho4  1  0.852987  0.750000  0.283238  1
  Ho  Ho5  1  0.646916  0.250000  0.783553  1
  Ho  Ho6  1  0.147221  0.250000  0.716610  1
  Er  Er7  1  0.692355  0.565008  0.059104  1
  Er  Er8  1  0.192028  0.935022  0.440790  1
  Er  Er9  1  0.307814  0.065040  0.941022  1
  Er  Er10  1  0.808054  0.434970  0.559075  1
  Er  Er11  1  0.307814  0.434960  0.941022  1
  Er  Er12  1  0.808054  0.065030  0.559075  1
  Er  Er13  1  0.692355  0.934992  0.059104  1
  Er  Er14  1  0.192028  0.564978  0.440790  1
  Er  Er15  1  0.475976  0.250000  0.488292  1
  Er  Er16  1  0.976072  0.250000  0.011803  1
  Er  Er17  1  0.523940  0.750000  0.511468  1
  Er  Er18  1  0.024068  0.750000  0.988636  1
  Er  Er19  1  0.312625  0.250000  0.217711  1
  Bi  Bi20  1  0.405727  0.750000  0.958037  1
  Bi  Bi21  1  0.905514  0.750000  0.541932  1
  Bi  Bi22  1  0.593773  0.250000  0.042628  1
  Bi  Bi23  1  0.094859  0.250000  0.457679  1
  Bi  Bi24  1  0.565144  0.995536  0.325623  1
  Bi  Bi25  1  0.066469  0.504524  0.174152  1
  Bi  Bi26  1  0.434310  0.495147  0.674048  1
  Bi  Bi27  1  0.934161  0.004985  0.826154  1
  Bi  Bi28  1  0.434310  0.004853  0.674048  1
  Bi  Bi29  1  0.934161  0.495015  0.826154  1
  Bi  Bi30  1  0.565144  0.504464  0.325623  1
  Bi  Bi31  1  0.066469  0.995476  0.174152  1
