# generated using pymatgen
data_Lu8Sc4Co4SnRu
_symmetry_space_group_name_H-M   'P 1'
_cell_length_a   7.95398876
_cell_length_b   7.95398805
_cell_length_c   7.95398837
_cell_angle_alpha   111.03732022
_cell_angle_beta   111.51937167
_cell_angle_gamma   105.91484091
_symmetry_Int_Tables_number   1
_chemical_formula_structural   Lu8Sc4Co4SnRu
_chemical_formula_sum   'Lu8 Sc4 Co4 Sn1 Ru1'
_cell_volume   386.25849585
_cell_formula_units_Z   1
loop_
 _symmetry_equiv_pos_site_id
 _symmetry_equiv_pos_as_xyz
  1  'x, y, z'
loop_
 _atom_site_type_symbol
 _atom_site_label
 _atom_site_symmetry_multiplicity
 _atom_site_fract_x
 _atom_site_fract_y
 _atom_site_fract_z
 _atom_site_occupancy
  Lu  Lu0  1  0.186231  0.280115  0.466346  1
  Lu  Lu1  1  0.813769  0.719885  0.533654  1
  Lu  Lu2  1  0.186231  0.719885  0.906116  1
  Lu  Lu3  1  0.813769  0.280115  0.093884  1
  Lu  Lu4  1  0.312083  0.616181  0.304097  1
  Lu  Lu5  1  0.687917  0.383819  0.695903  1
  Lu  Lu6  1  0.312083  0.007985  0.695903  1
  Lu  Lu7  1  0.687917  0.992015  0.304097  1
  Sc  Sc8  1  0.412895  0.218242  0.194652  1
  Sc  Sc9  1  0.587105  0.781758  0.805348  1
  Sc  Sc10  1  0.023590  0.218242  0.805348  1
  Sc  Sc11  1  0.976410  0.781758  0.194652  1
  Co  Co12  1  0.368557  0.000000  0.368557  1
  Co  Co13  1  0.631443  0.000000  0.631443  1
  Co  Co14  1  0.113656  0.613656  0.500000  1
  Co  Co15  1  0.886344  0.386344  0.500000  1
  Sn  Sn16  1  0.500000  0.500000  0.000000  1
  Ru  Ru17  1  0.000000  0.000000  0.000000  1
