# generated using pymatgen
data_Ba2Sc3Fe(SeO3)8
_symmetry_space_group_name_H-M   'P 1'
_cell_length_a   5.40769514
_cell_length_b   10.49213817
_cell_length_c   14.43084757
_cell_angle_alpha   49.24438920
_cell_angle_beta   90.02073055
_cell_angle_gamma   90.00104390
_symmetry_Int_Tables_number   1
_chemical_formula_structural   Ba2Sc3Fe(SeO3)8
_chemical_formula_sum   'Ba2 Sc3 Fe1 Se8 O24'
_cell_volume   620.22781386
_cell_formula_units_Z   1
loop_
 _symmetry_equiv_pos_site_id
 _symmetry_equiv_pos_as_xyz
  1  'x, y, z'
loop_
 _atom_site_type_symbol
 _atom_site_label
 _atom_site_symmetry_multiplicity
 _atom_site_fract_x
 _atom_site_fract_y
 _atom_site_fract_z
 _atom_site_occupancy
  Ba  Ba0  1  0.057075  0.996014  0.751572  1
  Ba  Ba1  1  0.942925  0.003986  0.248428  1
  Sc  Sc2  1  0.000000  0.500000  0.500000  1
  Sc  Sc3  1  0.500000  0.000000  0.000000  1
  Sc  Sc4  1  0.500000  0.000000  0.500000  1
  Fe  Fe5  1  0.000000  0.500000  0.000000  1
  Se  Se6  1  0.498522  0.341490  0.178212  1
  Se  Se7  1  0.010487  0.744443  0.595244  1
  Se  Se8  1  0.013125  0.260843  0.905302  1
  Se  Se9  1  0.989513  0.255557  0.404756  1
  Se  Se10  1  0.504058  0.333923  0.683969  1
  Se  Se11  1  0.501478  0.658510  0.821788  1
  Se  Se12  1  0.495942  0.666077  0.316031  1
  Se  Se13  1  0.986875  0.739157  0.094698  1
  O  O14  1  0.214082  0.710051  0.346469  1
  O  O15  1  0.282707  0.805553  0.037972  1
  O  O16  1  0.782144  0.701436  0.854614  1
  O  O17  1  0.816250  0.904620  0.968900  1
  O  O18  1  0.716645  0.808118  0.534996  1
  O  O19  1  0.309743  0.344337  0.584326  1
  O  O20  1  0.183750  0.095380  0.031100  1
  O  O21  1  0.701697  0.347437  0.082128  1
  O  O22  1  0.785918  0.289949  0.653531  1
  O  O23  1  0.580910  0.141199  0.311035  1
  O  O24  1  0.690257  0.655663  0.415674  1
  O  O25  1  0.283355  0.191882  0.465004  1
  O  O26  1  0.588449  0.864978  0.185468  1
  O  O27  1  0.816892  0.092592  0.531036  1
  O  O28  1  0.411551  0.135022  0.814532  1
  O  O29  1  0.055136  0.423592  0.905279  1
  O  O30  1  0.717293  0.194447  0.962028  1
  O  O31  1  0.942478  0.418659  0.403106  1
  O  O32  1  0.057522  0.581341  0.596894  1
  O  O33  1  0.419090  0.858801  0.688965  1
  O  O34  1  0.298303  0.652563  0.917872  1
  O  O35  1  0.183108  0.907408  0.468964  1
  O  O36  1  0.944864  0.576408  0.094721  1
  O  O37  1  0.217856  0.298564  0.145386  1
