# generated using pymatgen
data_TbZr2Sn3IrRh2
_symmetry_space_group_name_H-M   'P 1'
_cell_length_a   7.50959459
_cell_length_b   7.53510183
_cell_length_c   7.39969600
_cell_angle_alpha   90.00000000
_cell_angle_beta   90.00000000
_cell_angle_gamma   120.23189884
_symmetry_Int_Tables_number   1
_chemical_formula_structural   TbZr2Sn3IrRh2
_chemical_formula_sum   'Tb2 Zr4 Sn6 Ir2 Rh4'
_cell_volume   361.76831980
_cell_formula_units_Z   2
loop_
 _symmetry_equiv_pos_site_id
 _symmetry_equiv_pos_as_xyz
  1  'x, y, z'
loop_
 _atom_site_type_symbol
 _atom_site_label
 _atom_site_symmetry_multiplicity
 _atom_site_fract_x
 _atom_site_fract_y
 _atom_site_fract_z
 _atom_site_occupancy
  Tb  Tb0  1  0.595371  0.000445  0.250000  1
  Tb  Tb1  1  0.406927  0.402597  0.250000  1
  Zr  Zr2  1  0.609742  0.006051  0.750000  1
  Zr  Zr3  1  0.392963  0.394092  0.750000  1
  Zr  Zr4  1  0.999575  0.602194  0.750000  1
  Zr  Zr5  1  0.988923  0.593005  0.250000  1
  Sn  Sn6  1  0.264254  0.995065  0.992540  1
  Sn  Sn7  1  0.732242  0.735325  0.509028  1
  Sn  Sn8  1  0.003568  0.269151  0.496679  1
  Sn  Sn9  1  0.003568  0.269151  0.003321  1
  Sn  Sn10  1  0.732242  0.735325  0.990972  1
  Sn  Sn11  1  0.264254  0.995065  0.507460  1
  Ir  Ir12  1  0.673181  0.338788  0.973439  1
  Ir  Ir13  1  0.673181  0.338788  0.526561  1
  Rh  Rh14  1  0.329661  0.666462  0.973526  1
  Rh  Rh15  1  0.329661  0.666462  0.526474  1
  Rh  Rh16  1  0.001092  0.005113  0.750000  1
  Rh  Rh17  1  0.999595  0.986921  0.250000  1
