# generated using pymatgen
data_Rb8TbNp3Br20
_symmetry_space_group_name_H-M   'P 1'
_cell_length_a   8.81001873
_cell_length_b   9.36970400
_cell_length_c   14.19406980
_cell_angle_alpha   90.00000000
_cell_angle_beta   90.19686300
_cell_angle_gamma   90.00000000
_symmetry_Int_Tables_number   1
_chemical_formula_structural   Rb8TbNp3Br20
_chemical_formula_sum   'Rb8 Tb1 Np3 Br20'
_cell_volume   1171.67476417
_cell_formula_units_Z   1
loop_
 _symmetry_equiv_pos_site_id
 _symmetry_equiv_pos_as_xyz
  1  'x, y, z'
loop_
 _atom_site_type_symbol
 _atom_site_label
 _atom_site_symmetry_multiplicity
 _atom_site_fract_x
 _atom_site_fract_y
 _atom_site_fract_z
 _atom_site_occupancy
  Rb  Rb0  1  0.542345  0.500663  0.828081  1
  Rb  Rb1  1  0.456845  0.500046  0.171939  1
  Rb  Rb2  1  0.042645  0.500377  0.674370  1
  Rb  Rb3  1  0.456845  0.999954  0.171939  1
  Rb  Rb4  1  0.957639  0.500163  0.325924  1
  Rb  Rb5  1  0.542345  0.999337  0.828081  1
  Rb  Rb6  1  0.957639  0.999837  0.325924  1
  Rb  Rb7  1  0.042645  0.999623  0.674370  1
  Tb  Tb8  1  0.930624  0.750000  0.001786  1
  Np  Np9  1  0.567014  0.750000  0.501569  1
  Np  Np10  1  0.431853  0.250000  0.498156  1
  Np  Np11  1  0.067425  0.250000  0.997219  1
  Br  Br12  1  0.840086  0.750000  0.807363  1
  Br  Br13  1  0.163292  0.250000  0.196654  1
  Br  Br14  1  0.336822  0.250000  0.696611  1
  Br  Br15  1  0.661549  0.750000  0.303681  1
  Br  Br16  1  0.372399  0.750000  0.668608  1
  Br  Br17  1  0.631654  0.250000  0.331480  1
  Br  Br18  1  0.868456  0.250000  0.830172  1
  Br  Br19  1  0.124821  0.750000  0.164577  1
  Br  Br20  1  0.906409  0.750000  0.512566  1
  Br  Br21  1  0.093067  0.250000  0.487953  1
  Br  Br22  1  0.406056  0.250000  0.986923  1
  Br  Br23  1  0.601220  0.750000  0.014210  1
  Br  Br24  1  0.654123  0.039333  0.578674  1
  Br  Br25  1  0.343909  0.961140  0.421232  1
  Br  Br26  1  0.154999  0.955182  0.924503  1
  Br  Br27  1  0.343909  0.538860  0.421232  1
  Br  Br28  1  0.846121  0.035433  0.075513  1
  Br  Br29  1  0.654123  0.460667  0.578674  1
  Br  Br30  1  0.846121  0.464567  0.075513  1
  Br  Br31  1  0.154999  0.544818  0.924503  1
