# generated using pymatgen
data_Tm7Lu(Ga3Pt)4
_symmetry_space_group_name_H-M   'P 1'
_cell_length_a   8.81325585
_cell_length_b   8.81904408
_cell_length_c   6.94736400
_cell_angle_alpha   90.00000000
_cell_angle_beta   90.00000000
_cell_angle_gamma   120.02939759
_symmetry_Int_Tables_number   1
_chemical_formula_structural   Tm7Lu(Ga3Pt)4
_chemical_formula_sum   'Tm7 Lu1 Ga12 Pt4'
_cell_volume   467.49809940
_cell_formula_units_Z   1
loop_
 _symmetry_equiv_pos_site_id
 _symmetry_equiv_pos_as_xyz
  1  'x, y, z'
loop_
 _atom_site_type_symbol
 _atom_site_label
 _atom_site_symmetry_multiplicity
 _atom_site_fract_x
 _atom_site_fract_y
 _atom_site_fract_z
 _atom_site_occupancy
  Tm  Tm0  1  0.000149  0.999864  0.250000  1
  Tm  Tm1  1  0.999815  0.000123  0.750000  1
  Tm  Tm2  1  0.520437  0.040982  0.250000  1
  Tm  Tm3  1  0.520291  0.479675  0.250000  1
  Tm  Tm4  1  0.959101  0.479594  0.250000  1
  Tm  Tm5  1  0.479466  0.958923  0.750000  1
  Tm  Tm6  1  0.479612  0.520319  0.750000  1
  Lu  Lu7  1  0.041205  0.520564  0.750000  1
  Ga  Ga8  1  0.166328  0.332963  0.047400  1
  Ga  Ga9  1  0.166576  0.833279  0.452602  1
  Ga  Ga10  1  0.666994  0.833578  0.452451  1
  Ga  Ga11  1  0.666994  0.833578  0.047549  1
  Ga  Ga12  1  0.166576  0.833279  0.047398  1
  Ga  Ga13  1  0.833749  0.666991  0.952334  1
  Ga  Ga14  1  0.833504  0.166839  0.952331  1
  Ga  Ga15  1  0.332992  0.166415  0.952513  1
  Ga  Ga16  1  0.166328  0.332963  0.452600  1
  Ga  Ga17  1  0.332992  0.166415  0.547487  1
  Ga  Ga18  1  0.833749  0.666991  0.547666  1
  Ga  Ga19  1  0.833504  0.166839  0.547669  1
  Pt  Pt20  1  0.332981  0.666407  0.028285  1
  Pt  Pt21  1  0.332981  0.666407  0.471715  1
  Pt  Pt22  1  0.666838  0.333506  0.971142  1
  Pt  Pt23  1  0.666838  0.333506  0.528858  1
