# generated using pymatgen
data_HfMoN2
_symmetry_space_group_name_H-M   'P 1'
_cell_length_a   3.03052500
_cell_length_b   5.48115500
_cell_length_c   10.57820400
_cell_angle_alpha   90.00000000
_cell_angle_beta   90.00000000
_cell_angle_gamma   90.00000000
_symmetry_Int_Tables_number   1
_chemical_formula_structural   HfMoN2
_chemical_formula_sum   'Hf4 Mo4 N8'
_cell_volume   175.71219042
_cell_formula_units_Z   4
loop_
 _symmetry_equiv_pos_site_id
 _symmetry_equiv_pos_as_xyz
  1  'x, y, z'
loop_
 _atom_site_type_symbol
 _atom_site_label
 _atom_site_symmetry_multiplicity
 _atom_site_fract_x
 _atom_site_fract_y
 _atom_site_fract_z
 _atom_site_occupancy
  Hf  Hf0  1  0.750000  0.088429  0.849279  1
  Hf  Hf1  1  0.750000  0.588429  0.650721  1
  Hf  Hf2  1  0.250000  0.911571  0.150721  1
  Hf  Hf3  1  0.250000  0.411571  0.349279  1
  Mo  Mo4  1  0.250000  0.070607  0.595991  1
  Mo  Mo5  1  0.750000  0.429393  0.095991  1
  Mo  Mo6  1  0.250000  0.570607  0.904009  1
  Mo  Mo7  1  0.750000  0.929393  0.404009  1
  N  N8  1  0.250000  0.342318  0.744176  1
  N  N9  1  0.750000  0.157682  0.244176  1
  N  N10  1  0.250000  0.218964  0.997316  1
  N  N11  1  0.750000  0.657682  0.255824  1
  N  N12  1  0.250000  0.842318  0.755824  1
  N  N13  1  0.750000  0.781036  0.002684  1
  N  N14  1  0.750000  0.281036  0.497316  1
  N  N15  1  0.250000  0.718964  0.502684  1
