# generated using pymatgen
data_Li2MnH9
_symmetry_space_group_name_H-M   'P 1'
_cell_length_a   7.70552800
_cell_length_b   7.70552900
_cell_length_c   4.55228900
_cell_angle_alpha   90.00000000
_cell_angle_beta   90.00000000
_cell_angle_gamma   120.00001287
_symmetry_Int_Tables_number   1
_chemical_formula_structural   Li2MnH9
_chemical_formula_sum   'Li6 Mn3 H27'
_cell_volume   234.08051427
_cell_formula_units_Z   3
loop_
 _symmetry_equiv_pos_site_id
 _symmetry_equiv_pos_as_xyz
  1  'x, y, z'
loop_
 _atom_site_type_symbol
 _atom_site_label
 _atom_site_symmetry_multiplicity
 _atom_site_fract_x
 _atom_site_fract_y
 _atom_site_fract_z
 _atom_site_occupancy
  Li  Li0  1  0.000000  0.275826  0.500000  1
  Li  Li1  1  0.724174  0.724174  0.500000  1
  Li  Li2  1  0.275826  0.000000  0.500000  1
  Li  Li3  1  0.000000  0.618815  0.000000  1
  Li  Li4  1  0.381185  0.381185  0.000000  1
  Li  Li5  1  0.618815  0.000000  0.000000  1
  Mn  Mn6  1  0.666667  0.333333  0.500000  1
  Mn  Mn7  1  0.333333  0.666667  0.500000  1
  Mn  Mn8  1  0.000000  0.000000  0.000000  1
  H  H9  1  0.816965  0.354087  0.743212  1
  H  H10  1  0.645913  0.462877  0.743212  1
  H  H11  1  0.537123  0.183035  0.743212  1
  H  H12  1  0.183035  0.537123  0.256788  1
  H  H13  1  0.537123  0.183035  0.256788  1
  H  H14  1  0.816965  0.354087  0.256788  1
  H  H15  1  0.645913  0.462877  0.256788  1
  H  H16  1  0.354087  0.816965  0.743212  1
  H  H17  1  0.462877  0.645913  0.743212  1
  H  H18  1  0.198118  0.000000  0.000000  1
  H  H19  1  0.801882  0.801882  0.000000  1
  H  H20  1  0.000000  0.198118  0.000000  1
  H  H21  1  0.856709  0.000000  0.239215  1
  H  H22  1  0.143291  0.143291  0.760785  1
  H  H23  1  0.000000  0.856709  0.760785  1
  H  H24  1  0.000000  0.856709  0.239215  1
  H  H25  1  0.143291  0.143291  0.239215  1
  H  H26  1  0.856709  0.000000  0.760785  1
  H  H27  1  0.150214  0.692778  0.500000  1
  H  H28  1  0.542564  0.849786  0.500000  1
  H  H29  1  0.307222  0.457436  0.500000  1
  H  H30  1  0.457436  0.307222  0.500000  1
  H  H31  1  0.849786  0.542564  0.500000  1
  H  H32  1  0.692778  0.150214  0.500000  1
  H  H33  1  0.183035  0.537123  0.743212  1
  H  H34  1  0.354087  0.816965  0.256788  1
  H  H35  1  0.462877  0.645913  0.256788  1
