# generated using pymatgen
data_LiLa3Au5
_symmetry_space_group_name_H-M   'P 1'
_cell_length_a   8.70094000
_cell_length_b   8.70094057
_cell_length_c   13.84042800
_cell_angle_alpha   90.00000000
_cell_angle_beta   90.00000000
_cell_angle_gamma   127.65486855
_symmetry_Int_Tables_number   1
_chemical_formula_structural   LiLa3Au5
_chemical_formula_sum   'Li4 La12 Au20'
_cell_volume   829.55517055
_cell_formula_units_Z   4
loop_
 _symmetry_equiv_pos_site_id
 _symmetry_equiv_pos_as_xyz
  1  'x, y, z'
loop_
 _atom_site_type_symbol
 _atom_site_label
 _atom_site_symmetry_multiplicity
 _atom_site_fract_x
 _atom_site_fract_y
 _atom_site_fract_z
 _atom_site_occupancy
  Li  Li0  1  0.720331  0.279669  0.250000  1
  Li  Li1  1  0.279669  0.720331  0.750000  1
  Li  Li2  1  0.532221  0.467779  0.250000  1
  Li  Li3  1  0.467779  0.532221  0.750000  1
  La  La4  1  0.929022  0.070978  0.250000  1
  La  La5  1  0.070978  0.929022  0.750000  1
  La  La6  1  0.318007  0.681993  0.250000  1
  La  La7  1  0.681993  0.318007  0.750000  1
  La  La8  1  0.629644  0.370356  0.463737  1
  La  La9  1  0.370356  0.629644  0.536263  1
  La  La10  1  0.629644  0.370356  0.036263  1
  La  La11  1  0.370356  0.629644  0.963737  1
  La  La12  1  0.881640  0.118360  0.949020  1
  La  La13  1  0.118360  0.881640  0.050980  1
  La  La14  1  0.881640  0.118360  0.550980  1
  La  La15  1  0.118360  0.881640  0.449020  1
  Au  Au16  1  0.326764  0.071453  0.250000  1
  Au  Au17  1  0.071453  0.326764  0.750000  1
  Au  Au18  1  0.673236  0.928547  0.750000  1
  Au  Au19  1  0.928547  0.673236  0.250000  1
  Au  Au20  1  0.574627  0.008039  0.392994  1
  Au  Au21  1  0.008039  0.574627  0.607006  1
  Au  Au22  1  0.574627  0.008039  0.107006  1
  Au  Au23  1  0.008039  0.574627  0.892994  1
  Au  Au24  1  0.425373  0.991961  0.607006  1
  Au  Au25  1  0.991961  0.425373  0.392994  1
  Au  Au26  1  0.425373  0.991961  0.892994  1
  Au  Au27  1  0.991961  0.425373  0.107006  1
  Au  Au28  1  0.683621  0.736410  0.390452  1
  Au  Au29  1  0.736410  0.683621  0.609548  1
  Au  Au30  1  0.683621  0.736410  0.109548  1
  Au  Au31  1  0.736410  0.683621  0.890452  1
  Au  Au32  1  0.316379  0.263590  0.609548  1
  Au  Au33  1  0.263590  0.316379  0.390452  1
  Au  Au34  1  0.316379  0.263590  0.890452  1
  Au  Au35  1  0.263590  0.316379  0.109548  1
