# generated using pymatgen
data_Cs(PbO2)4
_symmetry_space_group_name_H-M   'P 1'
_cell_length_a   8.19551238
_cell_length_b   8.19551283
_cell_length_c   11.24362021
_cell_angle_alpha   47.36483738
_cell_angle_beta   47.36483403
_cell_angle_gamma   24.69227094
_symmetry_Int_Tables_number   1
_chemical_formula_structural   Cs(PbO2)4
_chemical_formula_sum   'Cs1 Pb4 O8'
_cell_volume   227.33000863
_cell_formula_units_Z   1
loop_
 _symmetry_equiv_pos_site_id
 _symmetry_equiv_pos_as_xyz
  1  'x, y, z'
loop_
 _atom_site_type_symbol
 _atom_site_label
 _atom_site_symmetry_multiplicity
 _atom_site_fract_x
 _atom_site_fract_y
 _atom_site_fract_z
 _atom_site_occupancy
  Cs  Cs0  1  0.500000  0.500000  0.000000  1
  Pb  Pb1  1  0.837300  0.837300  0.815673  1
  Pb  Pb2  1  0.162700  0.162700  0.184327  1
  Pb  Pb3  1  0.648294  0.648294  0.518089  1
  Pb  Pb4  1  0.351706  0.351706  0.481911  1
  O  O5  1  0.791950  0.791950  0.056343  1
  O  O6  1  0.208050  0.208050  0.943657  1
  O  O7  1  0.841993  0.841993  0.359377  1
  O  O8  1  0.158007  0.158007  0.640623  1
  O  O9  1  0.844270  0.844270  0.613682  1
  O  O10  1  0.155730  0.155730  0.386318  1
  O  O11  1  0.457283  0.457283  0.719929  1
  O  O12  1  0.542717  0.542717  0.280071  1
