# generated using pymatgen
data_Y11Ho5(AlRh)4
_symmetry_space_group_name_H-M   'P 1'
_cell_length_a   9.53215215
_cell_length_b   9.54454188
_cell_length_c   9.54454910
_cell_angle_alpha   60.08600996
_cell_angle_beta   60.13424827
_cell_angle_gamma   60.13417635
_symmetry_Int_Tables_number   1
_chemical_formula_structural   Y11Ho5(AlRh)4
_chemical_formula_sum   'Y11 Ho5 Al4 Rh4'
_cell_volume   615.66882602
_cell_formula_units_Z   1
loop_
 _symmetry_equiv_pos_site_id
 _symmetry_equiv_pos_as_xyz
  1  'x, y, z'
loop_
 _atom_site_type_symbol
 _atom_site_label
 _atom_site_symmetry_multiplicity
 _atom_site_fract_x
 _atom_site_fract_y
 _atom_site_fract_z
 _atom_site_occupancy
  Y  Y0  1  0.442228  0.058107  0.058107  1
  Y  Y1  1  0.442306  0.057268  0.442580  1
  Y  Y2  1  0.058260  0.442262  0.058185  1
  Y  Y3  1  0.442304  0.442579  0.057271  1
  Y  Y4  1  0.058254  0.058184  0.442267  1
  Y  Y5  1  0.187315  0.813471  0.813467  1
  Y  Y6  1  0.812982  0.188119  0.188121  1
  Y  Y7  1  0.813810  0.187650  0.812981  1
  Y  Y8  1  0.188044  0.812436  0.188522  1
  Y  Y9  1  0.813811  0.812976  0.187651  1
  Y  Y10  1  0.188040  0.188525  0.812434  1
  Ho  Ho11  1  0.600662  0.600104  0.600104  1
  Ho  Ho12  1  0.604077  0.603858  0.191233  1
  Ho  Ho13  1  0.604074  0.191233  0.603860  1
  Ho  Ho14  1  0.190648  0.604021  0.604020  1
  Ho  Ho15  1  0.057649  0.442151  0.442152  1
  Al  Al16  1  0.828336  0.828324  0.828323  1
  Al  Al17  1  0.826589  0.826797  0.516837  1
  Al  Al18  1  0.826590  0.516839  0.826795  1
  Al  Al19  1  0.516816  0.826678  0.826677  1
  Rh  Rh20  1  0.392587  0.395024  0.395020  1
  Rh  Rh21  1  0.392303  0.392186  0.818569  1
  Rh  Rh22  1  0.392297  0.818575  0.392186  1
  Rh  Rh23  1  0.820018  0.392637  0.392639  1
