# generated using pymatgen
data_CaEu(SnPd2)4
_symmetry_space_group_name_H-M   'P 1'
_cell_length_a   7.21341404
_cell_length_b   7.21341288
_cell_length_c   7.21341400
_cell_angle_alpha   110.75038615
_cell_angle_beta   110.75039117
_cell_angle_gamma   106.94209934
_symmetry_Int_Tables_number   1
_chemical_formula_structural   CaEu(SnPd2)4
_chemical_formula_sum   'Ca1 Eu1 Sn4 Pd8'
_cell_volume   288.51543370
_cell_formula_units_Z   1
loop_
 _symmetry_equiv_pos_site_id
 _symmetry_equiv_pos_as_xyz
  1  'x, y, z'
loop_
 _atom_site_type_symbol
 _atom_site_label
 _atom_site_symmetry_multiplicity
 _atom_site_fract_x
 _atom_site_fract_y
 _atom_site_fract_z
 _atom_site_occupancy
  Ca  Ca0  1  0.500000  0.500000  0.000000  1
  Eu  Eu1  1  0.000000  0.000000  0.000000  1
  Sn  Sn2  1  0.598182  0.401818  0.500000  1
  Sn  Sn3  1  0.901818  0.098182  0.500000  1
  Sn  Sn4  1  0.098182  0.598182  0.196363  1
  Sn  Sn5  1  0.401818  0.901818  0.803637  1
  Pd  Pd6  1  0.938054  0.731724  0.495065  1
  Pd  Pd7  1  0.236659  0.442989  0.504935  1
  Pd  Pd8  1  0.442989  0.938054  0.206330  1
  Pd  Pd9  1  0.731724  0.236659  0.793670  1
  Pd  Pd10  1  0.557011  0.763341  0.495065  1
  Pd  Pd11  1  0.268276  0.061946  0.504935  1
  Pd  Pd12  1  0.061946  0.557011  0.793670  1
  Pd  Pd13  1  0.763341  0.268276  0.206330  1
