# generated using pymatgen
data_Yb15Er4LuPt16
_symmetry_space_group_name_H-M   'P 1'
_cell_length_a   7.46335295
_cell_length_b   7.54489092
_cell_length_c   14.51969267
_cell_angle_alpha   90.05687394
_cell_angle_beta   90.01441708
_cell_angle_gamma   90.01432704
_symmetry_Int_Tables_number   1
_chemical_formula_structural   Yb15Er4LuPt16
_chemical_formula_sum   'Yb15 Er4 Lu1 Pt16'
_cell_volume   817.60611026
_cell_formula_units_Z   1
loop_
 _symmetry_equiv_pos_site_id
 _symmetry_equiv_pos_as_xyz
  1  'x, y, z'
loop_
 _atom_site_type_symbol
 _atom_site_label
 _atom_site_symmetry_multiplicity
 _atom_site_fract_x
 _atom_site_fract_y
 _atom_site_fract_z
 _atom_site_occupancy
  Yb  Yb0  1  0.851170  0.665845  0.122042  1
  Yb  Yb1  1  0.647766  0.166134  0.878141  1
  Yb  Yb2  1  0.147762  0.333660  0.621132  1
  Yb  Yb3  1  0.490896  0.675408  0.594869  1
  Yb  Yb4  1  0.990693  0.823288  0.905688  1
  Yb  Yb5  1  0.509515  0.322218  0.093648  1
  Yb  Yb6  1  0.007643  0.177986  0.405716  1
  Yb  Yb7  1  0.508573  0.322515  0.404896  1
  Yb  Yb8  1  0.007095  0.180179  0.094083  1
  Yb  Yb9  1  0.491421  0.679063  0.904740  1
  Yb  Yb10  1  0.991622  0.820203  0.595790  1
  Yb  Yb11  1  0.809178  0.506217  0.750171  1
  Yb  Yb12  1  0.308484  0.992265  0.750037  1
  Yb  Yb13  1  0.189335  0.489914  0.249135  1
  Yb  Yb14  1  0.694621  0.008614  0.249422  1
  Er  Er15  1  0.648747  0.162136  0.623036  1
  Er  Er16  1  0.149387  0.335993  0.876224  1
  Er  Er17  1  0.351897  0.835922  0.124113  1
  Er  Er18  1  0.852215  0.664682  0.376919  1
  Lu  Lu19  1  0.352032  0.834135  0.376828  1
  Pt  Pt20  1  0.682431  0.958048  0.458844  1
  Pt  Pt21  1  0.189377  0.540355  0.039251  1
  Pt  Pt22  1  0.310115  0.040651  0.961277  1
  Pt  Pt23  1  0.812670  0.457796  0.538680  1
  Pt  Pt24  1  0.324320  0.030369  0.540169  1
  Pt  Pt25  1  0.828240  0.466295  0.956852  1
  Pt  Pt26  1  0.672471  0.966278  0.043811  1
  Pt  Pt27  1  0.177917  0.544284  0.456539  1
  Pt  Pt28  1  0.443595  0.378125  0.747118  1
  Pt  Pt29  1  0.943407  0.119973  0.751368  1
  Pt  Pt30  1  0.552682  0.624189  0.252595  1
  Pt  Pt31  1  0.060453  0.878045  0.254037  1
  Pt  Pt32  1  0.680091  0.863538  0.746566  1
  Pt  Pt33  1  0.180583  0.635642  0.753524  1
  Pt  Pt34  1  0.324990  0.133386  0.249845  1
  Pt  Pt35  1  0.816607  0.366650  0.252894  1
