# generated using pymatgen
data_CaYMgAlIr2
_symmetry_space_group_name_H-M   'P 1'
_cell_length_a   7.18543900
_cell_length_b   4.11853400
_cell_length_c   8.24584200
_cell_angle_alpha   90.00000000
_cell_angle_beta   90.00000000
_cell_angle_gamma   90.00000000
_symmetry_Int_Tables_number   1
_chemical_formula_structural   CaYMgAlIr2
_chemical_formula_sum   'Ca2 Y2 Mg2 Al2 Ir4'
_cell_volume   244.02311765
_cell_formula_units_Z   2
loop_
 _symmetry_equiv_pos_site_id
 _symmetry_equiv_pos_as_xyz
  1  'x, y, z'
loop_
 _atom_site_type_symbol
 _atom_site_label
 _atom_site_symmetry_multiplicity
 _atom_site_fract_x
 _atom_site_fract_y
 _atom_site_fract_z
 _atom_site_occupancy
  Ca  Ca0  1  0.968155  0.250000  0.177257  1
  Ca  Ca1  1  0.468155  0.250000  0.322743  1
  Y  Y2  1  0.031391  0.750000  0.823011  1
  Y  Y3  1  0.531391  0.750000  0.676989  1
  Mg  Mg4  1  0.142263  0.750000  0.434890  1
  Mg  Mg5  1  0.642263  0.750000  0.065110  1
  Al  Al6  1  0.862973  0.250000  0.563578  1
  Al  Al7  1  0.362973  0.250000  0.936422  1
  Ir  Ir8  1  0.725490  0.250000  0.860010  1
  Ir  Ir9  1  0.225490  0.250000  0.639990  1
  Ir  Ir10  1  0.269726  0.750000  0.101058  1
  Ir  Ir11  1  0.769726  0.750000  0.398942  1
