# generated using pymatgen
data_Mg4AlAsPd10
_symmetry_space_group_name_H-M   'P 1'
_cell_length_a   4.17097200
_cell_length_b   5.52742339
_cell_length_c   10.73362465
_cell_angle_alpha   89.11591863
_cell_angle_beta   90.00000000
_cell_angle_gamma   90.00000000
_symmetry_Int_Tables_number   1
_chemical_formula_structural   Mg4AlAsPd10
_chemical_formula_sum   'Mg4 Al1 As1 Pd10'
_cell_volume   247.43134079
_cell_formula_units_Z   1
loop_
 _symmetry_equiv_pos_site_id
 _symmetry_equiv_pos_as_xyz
  1  'x, y, z'
loop_
 _atom_site_type_symbol
 _atom_site_label
 _atom_site_symmetry_multiplicity
 _atom_site_fract_x
 _atom_site_fract_y
 _atom_site_fract_z
 _atom_site_occupancy
  Mg  Mg0  1  0.500000  0.164827  0.360932  1
  Mg  Mg1  1  0.500000  0.835173  0.639068  1
  Mg  Mg2  1  0.500000  0.660012  0.144256  1
  Mg  Mg3  1  0.500000  0.339988  0.855744  1
  Al  Al4  1  0.000000  0.500000  0.500000  1
  As  As5  1  0.000000  0.000000  0.000000  1
  Pd  Pd6  1  0.500000  0.181592  0.105646  1
  Pd  Pd7  1  0.500000  0.818408  0.894354  1
  Pd  Pd8  1  0.500000  0.677994  0.394668  1
  Pd  Pd9  1  0.500000  0.322006  0.605332  1
  Pd  Pd10  1  0.000000  0.000000  0.500000  1
  Pd  Pd11  1  0.000000  0.500000  0.000000  1
  Pd  Pd12  1  0.000000  0.916584  0.238294  1
  Pd  Pd13  1  0.000000  0.083416  0.761706  1
  Pd  Pd14  1  0.000000  0.413607  0.263525  1
  Pd  Pd15  1  0.000000  0.586393  0.736475  1
