# generated using pymatgen
data_Pu4B16Ir3Ru
_symmetry_space_group_name_H-M   'P 1'
_cell_length_a   6.01384709
_cell_length_b   11.64989311
_cell_length_c   3.54437300
_cell_angle_alpha   90.00000000
_cell_angle_beta   90.00000000
_cell_angle_gamma   90.06909502
_symmetry_Int_Tables_number   1
_chemical_formula_structural   Pu4B16Ir3Ru
_chemical_formula_sum   'Pu4 B16 Ir3 Ru1'
_cell_volume   248.32098733
_cell_formula_units_Z   1
loop_
 _symmetry_equiv_pos_site_id
 _symmetry_equiv_pos_as_xyz
  1  'x, y, z'
loop_
 _atom_site_type_symbol
 _atom_site_label
 _atom_site_symmetry_multiplicity
 _atom_site_fract_x
 _atom_site_fract_y
 _atom_site_fract_z
 _atom_site_occupancy
  Pu  Pu0  1  0.128731  0.147442  0.000000  1
  Pu  Pu1  1  0.628582  0.351182  0.000000  1
  Pu  Pu2  1  0.371018  0.650535  0.000000  1
  Pu  Pu3  1  0.872961  0.851638  0.000000  1
  B  B4  1  0.864837  0.030918  0.500001  1
  B  B5  1  0.384396  0.045319  0.500001  1
  B  B6  1  0.788651  0.187488  0.500001  1
  B  B7  1  0.471190  0.191310  0.500001  1
  B  B8  1  0.973230  0.307577  0.500001  1
  B  B9  1  0.288100  0.311413  0.500001  1
  B  B10  1  0.885489  0.453020  0.500001  1
  B  B11  1  0.364925  0.468915  0.500001  1
  B  B12  1  0.634893  0.531718  0.500001  1
  B  B13  1  0.114474  0.547498  0.500001  1
  B  B14  1  0.712159  0.688472  0.500001  1
  B  B15  1  0.026248  0.692516  0.500001  1
  B  B16  1  0.525298  0.808154  0.500001  1
  B  B17  1  0.213601  0.813225  0.500001  1
  B  B18  1  0.612360  0.952366  0.500001  1
  B  B19  1  0.135128  0.967531  0.500001  1
  Ir  Ir20  1  0.641100  0.094458  0.000000  1
  Ir  Ir21  1  0.141902  0.405234  0.000000  1
  Ir  Ir22  1  0.858882  0.594104  0.000000  1
  Ru  Ru23  1  0.361844  0.907970  0.000000  1
