# generated using pymatgen
data_Pm4Te7Au
_symmetry_space_group_name_H-M   'P 1'
_cell_length_a   4.37308034
_cell_length_b   8.86733512
_cell_length_c   9.16410993
_cell_angle_alpha   90.03590327
_cell_angle_beta   90.01184459
_cell_angle_gamma   90.06392318
_symmetry_Int_Tables_number   1
_chemical_formula_structural   Pm4Te7Au
_chemical_formula_sum   'Pm4 Te7 Au1'
_cell_volume   355.36160581
_cell_formula_units_Z   1
loop_
 _symmetry_equiv_pos_site_id
 _symmetry_equiv_pos_as_xyz
  1  'x, y, z'
loop_
 _atom_site_type_symbol
 _atom_site_label
 _atom_site_symmetry_multiplicity
 _atom_site_fract_x
 _atom_site_fract_y
 _atom_site_fract_z
 _atom_site_occupancy
  Pm  Pm0  1  0.250496  0.619860  0.730832  1
  Pm  Pm1  1  0.751365  0.375158  0.256895  1
  Pm  Pm2  1  0.247497  0.130267  0.731742  1
  Pm  Pm3  1  0.750214  0.875204  0.285862  1
  Te  Te4  1  0.250465  0.374857  0.995763  1
  Te  Te5  1  0.748325  0.875222  0.638350  1
  Te  Te6  1  0.250243  0.126062  0.369254  1
  Te  Te7  1  0.250636  0.624828  0.368666  1
  Te  Te8  1  0.747194  0.090233  0.003304  1
  Te  Te9  1  0.748940  0.374772  0.623003  1
  Te  Te10  1  0.753591  0.658895  0.002848  1
  Au  Au11  1  0.251034  0.874644  0.993482  1
