# generated using pymatgen
data_EuMn(FeSb4)3
_symmetry_space_group_name_H-M   'P 1'
_cell_length_a   8.03888677
_cell_length_b   8.03888804
_cell_length_c   8.00099500
_cell_angle_alpha   109.37575987
_cell_angle_beta   109.37576307
_cell_angle_gamma   109.56650962
_symmetry_Int_Tables_number   1
_chemical_formula_structural   EuMn(FeSb4)3
_chemical_formula_sum   'Eu1 Mn1 Fe3 Sb12'
_cell_volume   398.49629771
_cell_formula_units_Z   1
loop_
 _symmetry_equiv_pos_site_id
 _symmetry_equiv_pos_as_xyz
  1  'x, y, z'
loop_
 _atom_site_type_symbol
 _atom_site_label
 _atom_site_symmetry_multiplicity
 _atom_site_fract_x
 _atom_site_fract_y
 _atom_site_fract_z
 _atom_site_occupancy
  Eu  Eu0  1  0.000000  0.000000  0.000000  1
  Mn  Mn1  1  0.000000  0.000000  0.500000  1
  Fe  Fe2  1  0.000000  0.500000  0.000000  1
  Fe  Fe3  1  0.500000  0.500000  0.500000  1
  Fe  Fe4  1  0.500000  0.000000  0.000000  1
  Sb  Sb5  1  0.653957  0.820270  0.151178  1
  Sb  Sb6  1  0.837846  0.333052  0.170368  1
  Sb  Sb7  1  0.504794  0.837846  0.667478  1
  Sb  Sb8  1  0.833688  0.653957  0.502779  1
  Sb  Sb9  1  0.495206  0.162154  0.332522  1
  Sb  Sb10  1  0.162154  0.666948  0.829632  1
  Sb  Sb11  1  0.820270  0.166312  0.669091  1
  Sb  Sb12  1  0.179730  0.833688  0.330909  1
  Sb  Sb13  1  0.166312  0.346043  0.497221  1
  Sb  Sb14  1  0.666948  0.504794  0.837316  1
  Sb  Sb15  1  0.333052  0.495206  0.162684  1
  Sb  Sb16  1  0.346043  0.179730  0.848822  1
