# generated using pymatgen
data_Na4Zn7Ag2
_symmetry_space_group_name_H-M   'P 1'
_cell_length_a   10.43968832
_cell_length_b   10.43968761
_cell_length_c   10.43968955
_cell_angle_alpha   29.38445028
_cell_angle_beta   29.38444316
_cell_angle_gamma   29.38445039
_symmetry_Int_Tables_number   1
_chemical_formula_structural   Na4Zn7Ag2
_chemical_formula_sum   'Na4 Zn7 Ag2'
_cell_volume   242.42149678
_cell_formula_units_Z   1
loop_
 _symmetry_equiv_pos_site_id
 _symmetry_equiv_pos_as_xyz
  1  'x, y, z'
loop_
 _atom_site_type_symbol
 _atom_site_label
 _atom_site_symmetry_multiplicity
 _atom_site_fract_x
 _atom_site_fract_y
 _atom_site_fract_z
 _atom_site_occupancy
  Na  Na0  1  0.833252  0.833252  0.833252  1
  Na  Na1  1  0.166748  0.166748  0.166748  1
  Na  Na2  1  0.649424  0.649424  0.649424  1
  Na  Na3  1  0.350576  0.350576  0.350576  1
  Zn  Zn4  1  0.000000  0.000000  0.000000  1
  Zn  Zn5  1  0.908729  0.411526  0.908729  1
  Zn  Zn6  1  0.908729  0.908729  0.411526  1
  Zn  Zn7  1  0.411526  0.908729  0.908729  1
  Zn  Zn8  1  0.091271  0.588474  0.091271  1
  Zn  Zn9  1  0.091271  0.091271  0.588474  1
  Zn  Zn10  1  0.588474  0.091271  0.091271  1
  Ag  Ag11  1  0.551005  0.551005  0.551005  1
  Ag  Ag12  1  0.448995  0.448995  0.448995  1
