# generated using pymatgen
data_LiTl2Si(PPd4)5
_symmetry_space_group_name_H-M   'P 1'
_cell_length_a   8.62818679
_cell_length_b   8.63523803
_cell_length_c   8.63523713
_cell_angle_alpha   59.94598967
_cell_angle_beta   60.02700597
_cell_angle_gamma   60.02700475
_symmetry_Int_Tables_number   1
_chemical_formula_structural   LiTl2Si(PPd4)5
_chemical_formula_sum   'Li1 Tl2 Si1 P5 Pd20'
_cell_volume   454.93834635
_cell_formula_units_Z   1
loop_
 _symmetry_equiv_pos_site_id
 _symmetry_equiv_pos_as_xyz
  1  'x, y, z'
loop_
 _atom_site_type_symbol
 _atom_site_label
 _atom_site_symmetry_multiplicity
 _atom_site_fract_x
 _atom_site_fract_y
 _atom_site_fract_z
 _atom_site_occupancy
  Li  Li0  1  0.999312  0.000688  0.000688  1
  Tl  Tl1  1  0.250545  0.249455  0.249455  1
  Tl  Tl2  1  0.750545  0.749455  0.749455  1
  Si  Si3  1  0.734603  0.265397  0.265397  1
  P  P4  1  0.264397  0.735603  0.735603  1
  P  P5  1  0.265424  0.734576  0.263685  1
  P  P6  1  0.736315  0.263685  0.734576  1
  P  P7  1  0.265424  0.263685  0.734576  1
  P  P8  1  0.736315  0.734576  0.263685  1
  Pd  Pd9  1  0.382002  0.384115  0.384115  1
  Pd  Pd10  1  0.615896  0.615822  0.615822  1
  Pd  Pd11  1  0.384178  0.384104  0.847541  1
  Pd  Pd12  1  0.384178  0.847541  0.384104  1
  Pd  Pd13  1  0.615885  0.617998  0.150230  1
  Pd  Pd14  1  0.615885  0.150230  0.617998  1
  Pd  Pd15  1  0.849770  0.384115  0.384115  1
  Pd  Pd16  1  0.152459  0.615822  0.615822  1
  Pd  Pd17  1  0.340801  0.001039  0.001039  1
  Pd  Pd18  1  0.657120  0.001039  0.001039  1
  Pd  Pd19  1  0.998961  0.342880  0.659199  1
  Pd  Pd20  1  0.998961  0.659199  0.342880  1
  Pd  Pd21  1  0.001688  0.343018  0.998312  1
  Pd  Pd22  1  0.656982  0.998312  0.343018  1
  Pd  Pd23  1  0.999983  0.658142  0.000017  1
  Pd  Pd24  1  0.341858  0.000017  0.658142  1
  Pd  Pd25  1  0.001688  0.998312  0.343018  1
  Pd  Pd26  1  0.999983  0.000017  0.658142  1
  Pd  Pd27  1  0.656982  0.343018  0.998312  1
  Pd  Pd28  1  0.341858  0.658142  0.000017  1
