# generated using pymatgen
data_ThBeZnIr2
_symmetry_space_group_name_H-M   'P 1'
_cell_length_a   4.09414500
_cell_length_b   4.09414500
_cell_length_c   10.16353700
_cell_angle_alpha   90.00000000
_cell_angle_beta   90.00000000
_cell_angle_gamma   90.00000000
_symmetry_Int_Tables_number   1
_chemical_formula_structural   ThBeZnIr2
_chemical_formula_sum   'Th2 Be2 Zn2 Ir4'
_cell_volume   170.36144381
_cell_formula_units_Z   2
loop_
 _symmetry_equiv_pos_site_id
 _symmetry_equiv_pos_as_xyz
  1  'x, y, z'
loop_
 _atom_site_type_symbol
 _atom_site_label
 _atom_site_symmetry_multiplicity
 _atom_site_fract_x
 _atom_site_fract_y
 _atom_site_fract_z
 _atom_site_occupancy
  Th  Th0  1  0.000000  0.500000  0.226650  1
  Th  Th1  1  0.500000  0.000000  0.773350  1
  Be  Be2  1  0.000000  0.500000  0.893513  1
  Be  Be3  1  0.500000  0.000000  0.106487  1
  Zn  Zn4  1  0.000000  0.000000  0.500000  1
  Zn  Zn5  1  0.500000  0.500000  0.500000  1
  Ir  Ir6  1  0.000000  0.000000  0.000000  1
  Ir  Ir7  1  0.500000  0.500000  0.000000  1
  Ir  Ir8  1  0.000000  0.500000  0.663750  1
  Ir  Ir9  1  0.500000  0.000000  0.336250  1
