# generated using pymatgen
data_Pr5Bi3(SeO5)4
_symmetry_space_group_name_H-M   'P 1'
_cell_length_a   8.86875369
_cell_length_b   8.93174426
_cell_length_c   11.32726366
_cell_angle_alpha   91.33765254
_cell_angle_beta   88.59595582
_cell_angle_gamma   142.71929654
_symmetry_Int_Tables_number   1
_chemical_formula_structural   Pr5Bi3(SeO5)4
_chemical_formula_sum   'Pr5 Bi3 Se4 O20'
_cell_volume   543.32156839
_cell_formula_units_Z   1
loop_
 _symmetry_equiv_pos_site_id
 _symmetry_equiv_pos_as_xyz
  1  'x, y, z'
loop_
 _atom_site_type_symbol
 _atom_site_label
 _atom_site_symmetry_multiplicity
 _atom_site_fract_x
 _atom_site_fract_y
 _atom_site_fract_z
 _atom_site_occupancy
  Pr  Pr0  1  0.740037  0.245611  0.616514  1
  Pr  Pr1  1  0.247140  0.749653  0.384939  1
  Pr  Pr2  1  0.250374  0.749880  0.883401  1
  Pr  Pr3  1  0.752040  0.248260  0.119307  1
  Pr  Pr4  1  0.886784  0.068823  0.372065  1
  Bi  Bi5  1  0.058848  0.914582  0.596466  1
  Bi  Bi6  1  0.363514  0.571293  0.612677  1
  Bi  Bi7  1  0.568359  0.409302  0.401890  1
  Se  Se8  1  0.389888  0.577052  0.121843  1
  Se  Se9  1  0.581892  0.388788  0.870280  1
  Se  Se10  1  0.885389  0.076324  0.870616  1
  Se  Se11  1  0.067275  0.877348  0.137348  1
  O  O12  1  0.146731  0.450336  0.214817  1
  O  O13  1  0.468462  0.139900  0.792713  1
  O  O14  1  0.652459  0.976801  0.787863  1
  O  O15  1  0.978438  0.644713  0.213566  1
  O  O16  1  0.565655  0.901842  0.511353  1
  O  O17  1  0.895784  0.578621  0.504474  1
  O  O18  1  0.071188  0.405992  0.487263  1
  O  O19  1  0.395935  0.080513  0.499939  1
  O  O20  1  0.134982  0.580958  0.707930  1
  O  O21  1  0.636948  0.080577  0.292195  1
  O  O22  1  0.481318  0.813922  0.050024  1
  O  O23  1  0.834007  0.507773  0.945678  1
  O  O24  1  0.166948  0.070630  0.250065  1
  O  O25  1  0.107515  0.213857  0.767142  1
  O  O26  1  0.723404  0.595435  0.761459  1
  O  O27  1  0.620095  0.729829  0.220647  1
  O  O28  1  0.244238  0.254245  0.495509  1
  O  O29  1  0.748997  0.752540  0.489065  1
  O  O30  1  0.340380  0.026173  0.068301  1
  O  O31  1  0.000020  0.323470  0.952655  1
