# generated using pymatgen
data_Hf4Zr6Al12Ir6Rh
_symmetry_space_group_name_H-M   'P 1'
_cell_length_a   8.92661990
_cell_length_b   8.92662120
_cell_length_c   8.92662000
_cell_angle_alpha   59.99999703
_cell_angle_beta   59.99999223
_cell_angle_gamma   60.00000604
_symmetry_Int_Tables_number   1
_chemical_formula_structural   Hf4Zr6Al12Ir6Rh
_chemical_formula_sum   'Hf4 Zr6 Al12 Ir6 Rh1'
_cell_volume   502.97474946
_cell_formula_units_Z   1
loop_
 _symmetry_equiv_pos_site_id
 _symmetry_equiv_pos_as_xyz
  1  'x, y, z'
loop_
 _atom_site_type_symbol
 _atom_site_label
 _atom_site_symmetry_multiplicity
 _atom_site_fract_x
 _atom_site_fract_y
 _atom_site_fract_z
 _atom_site_occupancy
  Hf  Hf0  1  0.880245  0.880245  0.359264  1
  Hf  Hf1  1  0.880245  0.359264  0.880245  1
  Hf  Hf2  1  0.359264  0.880245  0.880245  1
  Hf  Hf3  1  0.880245  0.880245  0.880245  1
  Zr  Zr4  1  0.687289  0.687289  0.312711  1
  Zr  Zr5  1  0.312711  0.687289  0.312711  1
  Zr  Zr6  1  0.687289  0.312711  0.312711  1
  Zr  Zr7  1  0.312711  0.312711  0.687289  1
  Zr  Zr8  1  0.687289  0.312711  0.687289  1
  Zr  Zr9  1  0.312711  0.687289  0.687289  1
  Al  Al10  1  0.122022  0.122022  0.633934  1
  Al  Al11  1  0.122022  0.633934  0.122022  1
  Al  Al12  1  0.633934  0.122022  0.122022  1
  Al  Al13  1  0.122022  0.122022  0.122022  1
  Al  Al14  1  0.660071  0.660071  0.019788  1
  Al  Al15  1  0.660071  0.019788  0.660071  1
  Al  Al16  1  0.019788  0.660071  0.660071  1
  Al  Al17  1  0.660071  0.660071  0.660071  1
  Al  Al18  1  0.336770  0.336770  0.989691  1
  Al  Al19  1  0.336770  0.989691  0.336770  1
  Al  Al20  1  0.989691  0.336770  0.336770  1
  Al  Al21  1  0.336770  0.336770  0.336770  1
  Ir  Ir22  1  0.998983  0.998983  0.501017  1
  Ir  Ir23  1  0.501017  0.998983  0.501017  1
  Ir  Ir24  1  0.998983  0.501017  0.501017  1
  Ir  Ir25  1  0.501017  0.501017  0.998983  1
  Ir  Ir26  1  0.998983  0.501017  0.998983  1
  Ir  Ir27  1  0.501017  0.998983  0.998983  1
  Rh  Rh28  1  0.000000  0.000000  0.000000  1
