# generated using pymatgen
data_Si12P12IrRh3
_symmetry_space_group_name_H-M   'P 1'
_cell_length_a   5.90386462
_cell_length_b   6.10984274
_cell_length_c   13.06144819
_cell_angle_alpha   90.08163138
_cell_angle_beta   89.93820032
_cell_angle_gamma   89.90115175
_symmetry_Int_Tables_number   1
_chemical_formula_structural   Si12P12IrRh3
_chemical_formula_sum   'Si12 P12 Ir1 Rh3'
_cell_volume   471.14698174
_cell_formula_units_Z   1
loop_
 _symmetry_equiv_pos_site_id
 _symmetry_equiv_pos_as_xyz
  1  'x, y, z'
loop_
 _atom_site_type_symbol
 _atom_site_label
 _atom_site_symmetry_multiplicity
 _atom_site_fract_x
 _atom_site_fract_y
 _atom_site_fract_z
 _atom_site_occupancy
  Si  Si0  1  0.964165  0.159727  0.318755  1
  Si  Si1  1  0.467573  0.838794  0.681617  1
  Si  Si2  1  0.929665  0.629629  0.214255  1
  Si  Si3  1  0.431647  0.373238  0.785483  1
  Si  Si4  1  0.340444  0.915969  0.950668  1
  Si  Si5  1  0.840564  0.084898  0.049869  1
  Si  Si6  1  0.914782  0.531666  0.672751  1
  Si  Si7  1  0.415583  0.468652  0.327163  1
  Si  Si8  1  0.997162  0.062435  0.570124  1
  Si  Si9  1  0.498781  0.935878  0.429156  1
  Si  Si10  1  0.911437  0.627234  0.928280  1
  Si  Si11  1  0.410875  0.373504  0.072503  1
  P  P12  1  0.578315  0.029574  0.825097  1
  P  P13  1  0.077865  0.971792  0.175155  1
  P  P14  1  0.519188  0.562035  0.930203  1
  P  P15  1  0.018860  0.438223  0.070485  1
  P  P16  1  0.610000  0.112711  0.573000  1
  P  P17  1  0.111384  0.886153  0.426460  1
  P  P18  1  0.543125  0.643524  0.181428  1
  P  P19  1  0.044371  0.357809  0.818379  1
  P  P20  1  0.577686  0.130201  0.288961  1
  P  P21  1  0.078729  0.869083  0.710628  1
  P  P22  1  0.153536  0.403766  0.552908  1
  P  P23  1  0.654682  0.593899  0.446695  1
  Ir  Ir24  1  0.036149  0.515374  0.380455  1
  Rh  Rh25  1  0.965411  0.987617  0.879370  1
  Rh  Rh26  1  0.464776  0.012877  0.120986  1
  Rh  Rh27  1  0.537048  0.483735  0.619168  1
