# generated using pymatgen
data_TbEuAl4NiGe2
_symmetry_space_group_name_H-M   'P 1'
_cell_length_a   4.19984362
_cell_length_b   4.19984415
_cell_length_c   10.31815491
_cell_angle_alpha   101.74202597
_cell_angle_beta   101.74200676
_cell_angle_gamma   89.99573513
_symmetry_Int_Tables_number   1
_chemical_formula_structural   TbEuAl4NiGe2
_chemical_formula_sum   'Tb1 Eu1 Al4 Ni1 Ge2'
_cell_volume   174.29903880
_cell_formula_units_Z   1
loop_
 _symmetry_equiv_pos_site_id
 _symmetry_equiv_pos_as_xyz
  1  'x, y, z'
loop_
 _atom_site_type_symbol
 _atom_site_label
 _atom_site_symmetry_multiplicity
 _atom_site_fract_x
 _atom_site_fract_y
 _atom_site_fract_z
 _atom_site_occupancy
  Tb  Tb0  1  0.816322  0.816321  0.632647  1
  Eu  Eu1  1  0.185880  0.185880  0.371761  1
  Al  Al2  1  0.567093  0.067093  0.134090  1
  Al  Al3  1  0.067093  0.567093  0.134090  1
  Al  Al4  1  0.933815  0.433824  0.867725  1
  Al  Al5  1  0.433824  0.933815  0.867725  1
  Ni  Ni6  1  0.998824  0.998824  0.997638  1
  Ge  Ge7  1  0.656863  0.656862  0.313758  1
  Ge  Ge8  1  0.340291  0.340291  0.680568  1
