# generated using pymatgen
data_Tb4Yb3Er(Si3Pd)4
_symmetry_space_group_name_H-M   'P 1'
_cell_length_a   8.22126800
_cell_length_b   8.21758512
_cell_length_c   8.04059200
_cell_angle_alpha   90.00000000
_cell_angle_beta   90.00000000
_cell_angle_gamma   120.01482646
_symmetry_Int_Tables_number   1
_chemical_formula_structural   Tb4Yb3Er(Si3Pd)4
_chemical_formula_sum   'Tb4 Yb3 Er1 Si12 Pd4'
_cell_volume   470.36691969
_cell_formula_units_Z   1
loop_
 _symmetry_equiv_pos_site_id
 _symmetry_equiv_pos_as_xyz
  1  'x, y, z'
loop_
 _atom_site_type_symbol
 _atom_site_label
 _atom_site_symmetry_multiplicity
 _atom_site_fract_x
 _atom_site_fract_y
 _atom_site_fract_z
 _atom_site_occupancy
  Tb  Tb0  1  0.985471  0.492656  0.250000  1
  Tb  Tb1  1  0.507186  0.492656  0.250000  1
  Tb  Tb2  1  0.999978  0.999956  0.250000  1
  Tb  Tb3  1  0.000159  0.000319  0.750000  1
  Yb  Yb4  1  0.492127  0.984256  0.750000  1
  Yb  Yb5  1  0.015698  0.507782  0.750000  1
  Yb  Yb6  1  0.492082  0.507782  0.750000  1
  Er  Er7  1  0.506838  0.013675  0.250000  1
  Si  Si8  1  0.165041  0.330081  0.003075  1
  Si  Si9  1  0.834944  0.669887  0.003127  1
  Si  Si10  1  0.670317  0.835282  0.003199  1
  Si  Si11  1  0.834944  0.669887  0.496873  1
  Si  Si12  1  0.330060  0.164755  0.004682  1
  Si  Si13  1  0.165041  0.330081  0.496925  1
  Si  Si14  1  0.164964  0.835282  0.003199  1
  Si  Si15  1  0.330060  0.164755  0.495318  1
  Si  Si16  1  0.834695  0.164755  0.004682  1
  Si  Si17  1  0.670317  0.835282  0.496801  1
  Si  Si18  1  0.834695  0.164755  0.495318  1
  Si  Si19  1  0.164964  0.835282  0.496801  1
  Pd  Pd20  1  0.333933  0.667868  0.030558  1
  Pd  Pd21  1  0.666276  0.332551  0.974203  1
  Pd  Pd22  1  0.666276  0.332551  0.525797  1
  Pd  Pd23  1  0.333933  0.667868  0.469442  1
