# generated using pymatgen
data_Sc12CdCo4Tc
_symmetry_space_group_name_H-M   'P 1'
_cell_length_a   7.73896282
_cell_length_b   7.73896279
_cell_length_c   7.73896276
_cell_angle_alpha   111.91694584
_cell_angle_beta   111.23990438
_cell_angle_gamma   105.33510321
_symmetry_Int_Tables_number   1
_chemical_formula_structural   Sc12CdCo4Tc
_chemical_formula_sum   'Sc12 Cd1 Co4 Tc1'
_cell_volume   355.40647040
_cell_formula_units_Z   1
loop_
 _symmetry_equiv_pos_site_id
 _symmetry_equiv_pos_as_xyz
  1  'x, y, z'
loop_
 _atom_site_type_symbol
 _atom_site_label
 _atom_site_symmetry_multiplicity
 _atom_site_fract_x
 _atom_site_fract_y
 _atom_site_fract_z
 _atom_site_occupancy
  Sc  Sc0  1  0.425854  0.227269  0.198584  1
  Sc  Sc1  1  0.574146  0.772731  0.801416  1
  Sc  Sc2  1  0.028685  0.227269  0.801416  1
  Sc  Sc3  1  0.971315  0.772731  0.198584  1
  Sc  Sc4  1  0.310644  0.613095  0.302451  1
  Sc  Sc5  1  0.689356  0.386905  0.697549  1
  Sc  Sc6  1  0.310644  0.008192  0.697549  1
  Sc  Sc7  1  0.689356  0.991808  0.302451  1
  Sc  Sc8  1  0.182926  0.273845  0.456772  1
  Sc  Sc9  1  0.817074  0.726154  0.543228  1
  Sc  Sc10  1  0.182926  0.726154  0.909081  1
  Sc  Sc11  1  0.817074  0.273845  0.090919  1
  Cd  Cd12  1  0.500000  0.500000  0.000000  1
  Co  Co13  1  0.367389  0.000000  0.367389  1
  Co  Co14  1  0.632611  0.000000  0.632611  1
  Co  Co15  1  0.118121  0.618121  0.500000  1
  Co  Co16  1  0.881879  0.381879  0.500000  1
  Tc  Tc17  1  0.000000  0.000000  0.000000  1
