# generated using pymatgen
data_Yb2Ga9CuIr2
_symmetry_space_group_name_H-M   'P 1'
_cell_length_a   7.59821186
_cell_length_b   7.59821219
_cell_length_c   9.50890300
_cell_angle_alpha   90.00000000
_cell_angle_beta   90.00000000
_cell_angle_gamma   120.51677399
_symmetry_Int_Tables_number   1
_chemical_formula_structural   Yb2Ga9CuIr2
_chemical_formula_sum   'Yb4 Ga18 Cu2 Ir4'
_cell_volume   472.93200284
_cell_formula_units_Z   2
loop_
 _symmetry_equiv_pos_site_id
 _symmetry_equiv_pos_as_xyz
  1  'x, y, z'
loop_
 _atom_site_type_symbol
 _atom_site_label
 _atom_site_symmetry_multiplicity
 _atom_site_fract_x
 _atom_site_fract_y
 _atom_site_fract_z
 _atom_site_occupancy
  Yb  Yb0  1  0.997071  0.664375  0.250000  1
  Yb  Yb1  1  0.002929  0.335625  0.750000  1
  Yb  Yb2  1  0.664375  0.997071  0.250000  1
  Yb  Yb3  1  0.335625  0.002929  0.750000  1
  Ga  Ga4  1  0.121356  0.121356  0.250000  1
  Ga  Ga5  1  0.878644  0.878644  0.750000  1
  Ga  Ga6  1  0.997153  0.333133  0.078881  1
  Ga  Ga7  1  0.002847  0.666867  0.921119  1
  Ga  Ga8  1  0.002847  0.666867  0.578881  1
  Ga  Ga9  1  0.333133  0.997153  0.421119  1
  Ga  Ga10  1  0.997153  0.333133  0.421119  1
  Ga  Ga11  1  0.666867  0.002847  0.578881  1
  Ga  Ga12  1  0.666867  0.002847  0.921119  1
  Ga  Ga13  1  0.333133  0.997153  0.078881  1
  Ga  Ga14  1  0.332238  0.332238  0.565567  1
  Ga  Ga15  1  0.667762  0.667762  0.434433  1
  Ga  Ga16  1  0.667762  0.667762  0.065567  1
  Ga  Ga17  1  0.332238  0.332238  0.934433  1
  Ga  Ga18  1  0.337114  0.546659  0.250000  1
  Ga  Ga19  1  0.662886  0.453341  0.750000  1
  Ga  Ga20  1  0.546659  0.337114  0.250000  1
  Ga  Ga21  1  0.453341  0.662886  0.750000  1
  Cu  Cu22  1  0.000000  0.000000  0.000000  1
  Cu  Cu23  1  0.000000  0.000000  0.500000  1
  Ir  Ir24  1  0.670318  0.329682  0.000000  1
  Ir  Ir25  1  0.329682  0.670318  0.000000  1
  Ir  Ir26  1  0.329682  0.670318  0.500000  1
  Ir  Ir27  1  0.670318  0.329682  0.500000  1
