# generated using pymatgen
data_IrRhI18
_symmetry_space_group_name_H-M   'P 1'
_cell_length_a   9.95253693
_cell_length_b   9.98590554
_cell_length_c   9.94718786
_cell_angle_alpha   92.71623274
_cell_angle_beta   92.79143768
_cell_angle_gamma   92.67737413
_symmetry_Int_Tables_number   1
_chemical_formula_structural   IrRhI18
_chemical_formula_sum   'Ir1 Rh1 I18'
_cell_volume   985.12851197
_cell_formula_units_Z   1
loop_
 _symmetry_equiv_pos_site_id
 _symmetry_equiv_pos_as_xyz
  1  'x, y, z'
loop_
 _atom_site_type_symbol
 _atom_site_label
 _atom_site_symmetry_multiplicity
 _atom_site_fract_x
 _atom_site_fract_y
 _atom_site_fract_z
 _atom_site_occupancy
  Ir  Ir0  1  0.000000  0.000000  0.000000  1
  Rh  Rh1  1  0.500000  0.500000  0.500000  1
  I  I2  1  0.770630  0.491322  0.515408  1
  I  I3  1  0.514589  0.769762  0.490193  1
  I  I4  1  0.491154  0.515587  0.771177  1
  I  I5  1  0.229370  0.508678  0.484592  1
  I  I6  1  0.485411  0.230238  0.509807  1
  I  I7  1  0.508846  0.484413  0.228823  1
  I  I8  1  0.883764  0.370169  0.757685  1
  I  I9  1  0.756620  0.882323  0.369529  1
  I  I10  1  0.370153  0.756911  0.883498  1
  I  I11  1  0.116236  0.629831  0.242315  1
  I  I12  1  0.243380  0.117677  0.630471  1
  I  I13  1  0.629847  0.243089  0.116502  1
  I  I14  1  0.008222  0.968876  0.730253  1
  I  I15  1  0.730909  0.008680  0.967417  1
  I  I16  1  0.967295  0.731728  0.006944  1
  I  I17  1  0.991778  0.031124  0.269747  1
  I  I18  1  0.269091  0.991320  0.032583  1
  I  I19  1  0.032705  0.268272  0.993056  1
