# generated using pymatgen
data_Li2LaNdAu4
_symmetry_space_group_name_H-M   'P 1'
_cell_length_a   4.80966700
_cell_length_b   4.80966742
_cell_length_c   9.44289700
_cell_angle_alpha   90.00000000
_cell_angle_beta   90.00000000
_cell_angle_gamma   120.00000400
_symmetry_Int_Tables_number   1
_chemical_formula_structural   Li2LaNdAu4
_chemical_formula_sum   'Li2 La1 Nd1 Au4'
_cell_volume   189.17594936
_cell_formula_units_Z   1
loop_
 _symmetry_equiv_pos_site_id
 _symmetry_equiv_pos_as_xyz
  1  'x, y, z'
loop_
 _atom_site_type_symbol
 _atom_site_label
 _atom_site_symmetry_multiplicity
 _atom_site_fract_x
 _atom_site_fract_y
 _atom_site_fract_z
 _atom_site_occupancy
  Li  Li0  1  0.000000  0.000000  0.005220  1
  Li  Li1  1  0.000000  0.000000  0.494780  1
  La  La2  1  0.666668  0.333334  0.750001  1
  Nd  Nd3  1  0.333334  0.666668  0.250001  1
  Au  Au4  1  0.666668  0.333334  0.086101  1
  Au  Au5  1  0.666668  0.333334  0.413899  1
  Au  Au6  1  0.333334  0.666668  0.580088  1
  Au  Au7  1  0.333334  0.666668  0.919912  1
