# generated using pymatgen
data_DyEr(MgRh)2
_symmetry_space_group_name_H-M   'P 1'
_cell_length_a   4.09679200
_cell_length_b   7.08446043
_cell_length_c   8.52012904
_cell_angle_alpha   90.14177203
_cell_angle_beta   90.00000000
_cell_angle_gamma   90.00000000
_symmetry_Int_Tables_number   1
_chemical_formula_structural   DyEr(MgRh)2
_chemical_formula_sum   'Dy2 Er2 Mg4 Rh4'
_cell_volume   247.28372622
_cell_formula_units_Z   2
loop_
 _symmetry_equiv_pos_site_id
 _symmetry_equiv_pos_as_xyz
  1  'x, y, z'
loop_
 _atom_site_type_symbol
 _atom_site_label
 _atom_site_symmetry_multiplicity
 _atom_site_fract_x
 _atom_site_fract_y
 _atom_site_fract_z
 _atom_site_occupancy
  Dy  Dy0  1  0.750000  0.964188  0.677248  1
  Dy  Dy1  1  0.250000  0.035812  0.322752  1
  Er  Er2  1  0.250000  0.537211  0.174844  1
  Er  Er3  1  0.750000  0.462789  0.825156  1
  Mg  Mg4  1  0.250000  0.636440  0.560023  1
  Mg  Mg5  1  0.750000  0.363560  0.439977  1
  Mg  Mg6  1  0.750000  0.862491  0.059429  1
  Mg  Mg7  1  0.250000  0.137509  0.940571  1
  Rh  Rh8  1  0.250000  0.748355  0.871926  1
  Rh  Rh9  1  0.750000  0.251645  0.128074  1
  Rh  Rh10  1  0.750000  0.745628  0.369510  1
  Rh  Rh11  1  0.250000  0.254372  0.630490  1
