# generated using pymatgen
data_Hf5(Re7Tc)3
_symmetry_space_group_name_H-M   'P 1'
_cell_length_a   8.47284806
_cell_length_b   8.46732081
_cell_length_c   8.46732123
_cell_angle_alpha   109.45799476
_cell_angle_beta   109.48443784
_cell_angle_gamma   109.48444852
_symmetry_Int_Tables_number   1
_chemical_formula_structural   Hf5(Re7Tc)3
_chemical_formula_sum   'Hf5 Re21 Tc3'
_cell_volume   467.55066923
_cell_formula_units_Z   1
loop_
 _symmetry_equiv_pos_site_id
 _symmetry_equiv_pos_as_xyz
  1  'x, y, z'
loop_
 _atom_site_type_symbol
 _atom_site_label
 _atom_site_symmetry_multiplicity
 _atom_site_fract_x
 _atom_site_fract_y
 _atom_site_fract_z
 _atom_site_occupancy
  Hf  Hf0  1  0.999829  0.000000  0.000000  1
  Hf  Hf1  1  0.627327  0.000000  0.000000  1
  Hf  Hf2  1  0.000014  0.628803  0.000000  1
  Hf  Hf3  1  0.000014  0.000000  0.628803  1
  Hf  Hf4  1  0.371210  0.371197  0.371197  1
  Re  Re5  1  0.676410  0.395906  0.000000  1
  Re  Re6  1  0.000515  0.396343  0.676988  1
  Re  Re7  1  0.323527  0.719356  0.323012  1
  Re  Re8  1  0.323527  0.323012  0.719356  1
  Re  Re9  1  0.000515  0.676988  0.396343  1
  Re  Re10  1  0.676410  0.000000  0.395906  1
  Re  Re11  1  0.604172  0.603657  0.280644  1
  Re  Re12  1  0.280503  0.604094  0.604094  1
  Re  Re13  1  0.604172  0.280644  0.603657  1
  Re  Re14  1  0.375260  0.194536  0.000000  1
  Re  Re15  1  0.180724  0.805464  0.805464  1
  Re  Re16  1  0.375260  0.000000  0.194536  1
  Re  Re17  1  0.193974  0.375960  0.000000  1
  Re  Re18  1  0.000292  0.375634  0.193689  1
  Re  Re19  1  0.806603  0.181945  0.806311  1
  Re  Re20  1  0.806603  0.806311  0.181945  1
  Re  Re21  1  0.000292  0.193689  0.375634  1
  Re  Re22  1  0.193974  0.000000  0.375960  1
  Re  Re23  1  0.624658  0.624366  0.818055  1
  Re  Re24  1  0.818014  0.624040  0.624040  1
  Re  Re25  1  0.624658  0.818055  0.624366  1
  Tc  Tc26  1  0.396376  0.677586  0.000000  1
  Tc  Tc27  1  0.718792  0.322414  0.322414  1
  Tc  Tc28  1  0.396376  0.000000  0.677586  1
