# generated using pymatgen
data_CaGd6IrCl12
_symmetry_space_group_name_H-M   'P 1'
_cell_length_a   9.02661072
_cell_length_b   9.00070854
_cell_length_c   9.03385589
_cell_angle_alpha   107.10904810
_cell_angle_beta   107.03015669
_cell_angle_gamma   106.85949528
_symmetry_Int_Tables_number   1
_chemical_formula_structural   CaGd6IrCl12
_chemical_formula_sum   'Ca1 Gd6 Ir1 Cl12'
_cell_volume   611.25686084
_cell_formula_units_Z   1
loop_
 _symmetry_equiv_pos_site_id
 _symmetry_equiv_pos_as_xyz
  1  'x, y, z'
loop_
 _atom_site_type_symbol
 _atom_site_label
 _atom_site_symmetry_multiplicity
 _atom_site_fract_x
 _atom_site_fract_y
 _atom_site_fract_z
 _atom_site_occupancy
  Ca  Ca0  1  0.500000  0.500000  0.500000  1
  Gd  Gd1  1  0.111459  0.324511  0.024393  1
  Gd  Gd2  1  0.324705  0.023403  0.111668  1
  Gd  Gd3  1  0.024167  0.112364  0.325690  1
  Gd  Gd4  1  0.975834  0.887636  0.674311  1
  Gd  Gd5  1  0.675295  0.976598  0.888332  1
  Gd  Gd6  1  0.888541  0.675489  0.975607  1
  Ir  Ir7  1  0.000000  0.000000  0.000000  1
  Cl  Cl8  1  0.215323  0.681205  0.072150  1
  Cl  Cl9  1  0.455444  0.375382  0.166300  1
  Cl  Cl10  1  0.681639  0.072389  0.215378  1
  Cl  Cl11  1  0.927732  0.784532  0.317917  1
  Cl  Cl12  1  0.166361  0.456370  0.376138  1
  Cl  Cl13  1  0.375477  0.165973  0.455488  1
  Cl  Cl14  1  0.624523  0.834027  0.544513  1
  Cl  Cl15  1  0.833640  0.543630  0.623862  1
  Cl  Cl16  1  0.072269  0.215468  0.682084  1
  Cl  Cl17  1  0.318362  0.927612  0.784622  1
  Cl  Cl18  1  0.544556  0.624618  0.833701  1
  Cl  Cl19  1  0.784677  0.318795  0.927850  1
