# generated using pymatgen
data_LiTb3YAl17Pd6
_symmetry_space_group_name_H-M   'P 1'
_cell_length_a   7.62862361
_cell_length_b   7.62688898
_cell_length_c   9.49347200
_cell_angle_alpha   90.00000000
_cell_angle_beta   90.00000000
_cell_angle_gamma   119.33239875
_symmetry_Int_Tables_number   1
_chemical_formula_structural   LiTb3YAl17Pd6
_chemical_formula_sum   'Li1 Tb3 Y1 Al17 Pd6'
_cell_volume   481.53933295
_cell_formula_units_Z   1
loop_
 _symmetry_equiv_pos_site_id
 _symmetry_equiv_pos_as_xyz
  1  'x, y, z'
loop_
 _atom_site_type_symbol
 _atom_site_label
 _atom_site_symmetry_multiplicity
 _atom_site_fract_x
 _atom_site_fract_y
 _atom_site_fract_z
 _atom_site_occupancy
  Li  Li0  1  0.129228  0.129279  0.250000  1
  Tb  Tb1  1  0.994614  0.664545  0.250000  1
  Tb  Tb2  1  0.007475  0.330790  0.750000  1
  Tb  Tb3  1  0.330795  0.007462  0.750000  1
  Y  Y4  1  0.664563  0.994616  0.250000  1
  Al  Al5  1  0.866660  0.866682  0.750000  1
  Al  Al6  1  0.001716  0.328584  0.079598  1
  Al  Al7  1  0.000221  0.665118  0.924867  1
  Al  Al8  1  0.000221  0.665118  0.575133  1
  Al  Al9  1  0.328806  0.001855  0.420386  1
  Al  Al10  1  0.001716  0.328584  0.420402  1
  Al  Al11  1  0.665132  0.000258  0.575141  1
  Al  Al12  1  0.665132  0.000258  0.924859  1
  Al  Al13  1  0.328806  0.001855  0.079614  1
  Al  Al14  1  0.334861  0.334851  0.547902  1
  Al  Al15  1  0.670673  0.670758  0.440544  1
  Al  Al16  1  0.670673  0.670758  0.059456  1
  Al  Al17  1  0.334861  0.334851  0.952098  1
  Al  Al18  1  0.339901  0.541814  0.250000  1
  Al  Al19  1  0.659792  0.452817  0.750000  1
  Al  Al20  1  0.541782  0.339911  0.250000  1
  Al  Al21  1  0.452842  0.659822  0.750000  1
  Pd  Pd22  1  0.674867  0.329728  0.000110  1
  Pd  Pd23  1  0.329865  0.674918  0.000122  1
  Pd  Pd24  1  0.329865  0.674918  0.499878  1
  Pd  Pd25  1  0.674867  0.329728  0.499890  1
  Pd  Pd26  1  0.000033  0.000061  0.993347  1
  Pd  Pd27  1  0.000033  0.000061  0.506653  1
