# generated using pymatgen
data_ErTm2ZnCd3Ga2
_symmetry_space_group_name_H-M   'P 1'
_cell_length_a   7.20557350
_cell_length_b   7.20091411
_cell_length_c   4.34005800
_cell_angle_alpha   90.00000000
_cell_angle_beta   90.00000000
_cell_angle_gamma   119.97861892
_symmetry_Int_Tables_number   1
_chemical_formula_structural   ErTm2ZnCd3Ga2
_chemical_formula_sum   'Er1 Tm2 Zn1 Cd3 Ga2'
_cell_volume   195.06343908
_cell_formula_units_Z   1
loop_
 _symmetry_equiv_pos_site_id
 _symmetry_equiv_pos_as_xyz
  1  'x, y, z'
loop_
 _atom_site_type_symbol
 _atom_site_label
 _atom_site_symmetry_multiplicity
 _atom_site_fract_x
 _atom_site_fract_y
 _atom_site_fract_z
 _atom_site_occupancy
  Er  Er0  1  0.000000  0.576609  0.500000  1
  Tm  Tm1  1  0.423287  0.423255  0.500000  1
  Tm  Tm2  1  0.576713  0.999968  0.500000  1
  Zn  Zn3  1  0.000000  0.000192  0.500000  1
  Cd  Cd4  1  0.754016  0.754135  0.000000  1
  Cd  Cd5  1  0.245984  0.000119  0.000000  1
  Cd  Cd6  1  0.000000  0.245777  0.000000  1
  Ga  Ga7  1  0.666389  0.333166  0.000000  1
  Ga  Ga8  1  0.333611  0.666779  0.000000  1
