# generated using pymatgen
data_Tb2Lu5Sn23Ru6
_symmetry_space_group_name_H-M   'P 1'
_cell_length_a   9.82076981
_cell_length_b   9.89414747
_cell_length_c   10.01402715
_cell_angle_alpha   89.99999918
_cell_angle_beta   89.87242577
_cell_angle_gamma   120.24748003
_symmetry_Int_Tables_number   1
_chemical_formula_structural   Tb2Lu5Sn23Ru6
_chemical_formula_sum   'Tb2 Lu5 Sn23 Ru6'
_cell_volume   840.56910194
_cell_formula_units_Z   1
loop_
 _symmetry_equiv_pos_site_id
 _symmetry_equiv_pos_as_xyz
  1  'x, y, z'
loop_
 _atom_site_type_symbol
 _atom_site_label
 _atom_site_symmetry_multiplicity
 _atom_site_fract_x
 _atom_site_fract_y
 _atom_site_fract_z
 _atom_site_occupancy
  Tb  Tb0  1  0.001687  0.000843  0.000796  1
  Tb  Tb1  1  0.969233  0.484617  0.694609  1
  Lu  Lu2  1  0.487560  0.511545  0.302736  1
  Lu  Lu3  1  0.513160  0.489179  0.696975  1
  Lu  Lu4  1  0.487560  0.976016  0.302736  1
  Lu  Lu5  1  0.513160  0.023979  0.696975  1
  Lu  Lu6  1  0.024927  0.512463  0.303942  1
  Sn  Sn7  1  0.349865  0.000761  0.000420  1
  Sn  Sn8  1  0.650720  0.998776  0.000208  1
  Sn  Sn9  1  0.000032  0.348764  0.999642  1
  Sn  Sn10  1  0.000032  0.651269  0.999642  1
  Sn  Sn11  1  0.650720  0.651944  0.000208  1
  Sn  Sn12  1  0.349865  0.349105  0.000420  1
  Sn  Sn13  1  0.332330  0.666166  0.824416  1
  Sn  Sn14  1  0.667293  0.333647  0.176047  1
  Sn  Sn15  1  0.001266  0.000633  0.499800  1
  Sn  Sn16  1  0.777456  0.221570  0.464992  1
  Sn  Sn17  1  0.222757  0.777528  0.533409  1
  Sn  Sn18  1  0.777456  0.555886  0.464992  1
  Sn  Sn19  1  0.222757  0.445230  0.533409  1
  Sn  Sn20  1  0.445808  0.222903  0.466973  1
  Sn  Sn21  1  0.554877  0.777438  0.532720  1
  Sn  Sn22  1  0.333470  0.666736  0.135751  1
  Sn  Sn23  1  0.660633  0.330317  0.867178  1
  Sn  Sn24  1  0.118359  0.880065  0.277601  1
  Sn  Sn25  1  0.882546  0.118121  0.722851  1
  Sn  Sn26  1  0.118359  0.238294  0.277601  1
  Sn  Sn27  1  0.882546  0.764424  0.722851  1
  Sn  Sn28  1  0.760085  0.880043  0.274449  1
  Sn  Sn29  1  0.241785  0.120892  0.725590  1
  Ru  Ru30  1  0.828281  0.170413  0.203584  1
  Ru  Ru31  1  0.173030  0.831527  0.796308  1
  Ru  Ru32  1  0.828281  0.657867  0.203584  1
  Ru  Ru33  1  0.173030  0.341503  0.796308  1
  Ru  Ru34  1  0.340907  0.170453  0.204563  1
  Ru  Ru35  1  0.658169  0.829084  0.795720  1
