# generated using pymatgen
data_LaDy(YB5)2
_symmetry_space_group_name_H-M   'P 1'
_cell_length_a   7.18654700
_cell_length_b   7.17482605
_cell_length_c   7.20347900
_cell_angle_alpha   76.86660061
_cell_angle_beta   90.00000000
_cell_angle_gamma   90.00000000
_symmetry_Int_Tables_number   1
_chemical_formula_structural   LaDy(YB5)2
_chemical_formula_sum   'La2 Dy2 Y4 B20'
_cell_volume   361.71222809
_cell_formula_units_Z   2
loop_
 _symmetry_equiv_pos_site_id
 _symmetry_equiv_pos_as_xyz
  1  'x, y, z'
loop_
 _atom_site_type_symbol
 _atom_site_label
 _atom_site_symmetry_multiplicity
 _atom_site_fract_x
 _atom_site_fract_y
 _atom_site_fract_z
 _atom_site_occupancy
  La  La0  1  0.687518  0.785457  0.620627  1
  La  La1  1  0.187518  0.214543  0.879373  1
  Dy  Dy2  1  0.306058  0.236377  0.371245  1
  Dy  Dy3  1  0.806058  0.763623  0.128755  1
  Y  Y4  1  0.315447  0.753734  0.255455  1
  Y  Y5  1  0.815447  0.246266  0.244545  1
  Y  Y6  1  0.683844  0.248688  0.746845  1
  Y  Y7  1  0.183844  0.751312  0.753155  1
  B  B8  1  0.503614  0.313566  0.043306  1
  B  B9  1  0.003614  0.686434  0.456694  1
  B  B10  1  0.496693  0.684226  0.963552  1
  B  B11  1  0.996693  0.315774  0.536448  1
  B  B12  1  0.492913  0.922119  0.936209  1
  B  B13  1  0.992913  0.077881  0.563791  1
  B  B14  1  0.519381  0.072543  0.080984  1
  B  B15  1  0.019381  0.927457  0.419016  1
  B  B16  1  0.326175  0.494690  0.041508  1
  B  B17  1  0.826175  0.505310  0.458492  1
  B  B18  1  0.672248  0.503908  0.961326  1
  B  B19  1  0.172248  0.496092  0.538674  1
  B  B20  1  0.908871  0.501718  0.909794  1
  B  B21  1  0.408871  0.498282  0.590206  1
  B  B22  1  0.088730  0.502131  0.089406  1
  B  B23  1  0.588730  0.497869  0.410594  1
  B  B24  1  0.960516  0.497414  0.671755  1
  B  B25  1  0.460516  0.502586  0.828245  1
  B  B26  1  0.037989  0.504091  0.324833  1
  B  B27  1  0.537989  0.495909  0.175167  1
