# generated using pymatgen
data_Dy3Al12Ir3Os
_symmetry_space_group_name_H-M   'P 1'
_cell_length_a   8.84790300
_cell_length_b   8.84790382
_cell_length_c   9.51510900
_cell_angle_alpha   90.00000000
_cell_angle_beta   90.00000000
_cell_angle_gamma   119.99999321
_symmetry_Int_Tables_number   1
_chemical_formula_structural   Dy3Al12Ir3Os
_chemical_formula_sum   'Dy6 Al24 Ir6 Os2'
_cell_volume   645.09722662
_cell_formula_units_Z   2
loop_
 _symmetry_equiv_pos_site_id
 _symmetry_equiv_pos_as_xyz
  1  'x, y, z'
loop_
 _atom_site_type_symbol
 _atom_site_label
 _atom_site_symmetry_multiplicity
 _atom_site_fract_x
 _atom_site_fract_y
 _atom_site_fract_z
 _atom_site_occupancy
  Dy  Dy0  1  0.192233  0.384468  0.250000  1
  Dy  Dy1  1  0.807767  0.615532  0.750000  1
  Dy  Dy2  1  0.615532  0.807767  0.250000  1
  Dy  Dy3  1  0.384468  0.192233  0.750000  1
  Dy  Dy4  1  0.192233  0.807767  0.250000  1
  Dy  Dy5  1  0.807767  0.192233  0.750000  1
  Al  Al6  1  0.333333  0.666667  0.030458  1
  Al  Al7  1  0.666667  0.333333  0.969542  1
  Al  Al8  1  0.666667  0.333333  0.530458  1
  Al  Al9  1  0.333333  0.666667  0.469542  1
  Al  Al10  1  0.163461  0.326923  0.574516  1
  Al  Al11  1  0.836539  0.673077  0.425484  1
  Al  Al12  1  0.673077  0.836539  0.574516  1
  Al  Al13  1  0.836539  0.673077  0.074516  1
  Al  Al14  1  0.326923  0.163461  0.425484  1
  Al  Al15  1  0.163461  0.326923  0.925484  1
  Al  Al16  1  0.163461  0.836539  0.574516  1
  Al  Al17  1  0.326923  0.163461  0.074516  1
  Al  Al18  1  0.836539  0.163461  0.425484  1
  Al  Al19  1  0.673077  0.836539  0.925484  1
  Al  Al20  1  0.836539  0.163461  0.074516  1
  Al  Al21  1  0.163461  0.836539  0.925484  1
  Al  Al22  1  0.562066  0.124132  0.250000  1
  Al  Al23  1  0.437934  0.875868  0.750000  1
  Al  Al24  1  0.875868  0.437934  0.250000  1
  Al  Al25  1  0.124132  0.562066  0.750000  1
  Al  Al26  1  0.562066  0.437934  0.250000  1
  Al  Al27  1  0.437934  0.562066  0.750000  1
  Al  Al28  1  0.000000  0.000000  0.250000  1
  Al  Al29  1  0.000000  0.000000  0.750000  1
  Ir  Ir30  1  0.500000  0.000000  0.000000  1
  Ir  Ir31  1  0.000000  0.500000  0.000000  1
  Ir  Ir32  1  0.500000  0.000000  0.500000  1
  Ir  Ir33  1  0.500000  0.500000  0.000000  1
  Ir  Ir34  1  0.000000  0.500000  0.500000  1
  Ir  Ir35  1  0.500000  0.500000  0.500000  1
  Os  Os36  1  0.000000  0.000000  0.000000  1
  Os  Os37  1  0.000000  0.000000  0.500000  1
