# generated using pymatgen
data_HoLuAs4O9
_symmetry_space_group_name_H-M   'P 1'
_cell_length_a   6.67168632
_cell_length_b   7.47374818
_cell_length_c   9.79739662
_cell_angle_alpha   94.35627886
_cell_angle_beta   104.00607874
_cell_angle_gamma   104.97559772
_symmetry_Int_Tables_number   1
_chemical_formula_structural   HoLuAs4O9
_chemical_formula_sum   'Ho2 Lu2 As8 O18'
_cell_volume   452.87369106
_cell_formula_units_Z   2
loop_
 _symmetry_equiv_pos_site_id
 _symmetry_equiv_pos_as_xyz
  1  'x, y, z'
loop_
 _atom_site_type_symbol
 _atom_site_label
 _atom_site_symmetry_multiplicity
 _atom_site_fract_x
 _atom_site_fract_y
 _atom_site_fract_z
 _atom_site_occupancy
  Ho  Ho0  1  0.240933  0.938670  0.614316  1
  Ho  Ho1  1  0.759067  0.061330  0.385684  1
  Lu  Lu2  1  0.720504  0.527222  0.410578  1
  Lu  Lu3  1  0.279496  0.472778  0.589422  1
  As  As4  1  0.683767  0.772427  0.081416  1
  As  As5  1  0.316233  0.227573  0.918584  1
  As  As6  1  0.169015  0.750480  0.912275  1
  As  As7  1  0.830985  0.249520  0.087725  1
  As  As8  1  0.741138  0.913437  0.709945  1
  As  As9  1  0.258862  0.086563  0.290055  1
  As  As10  1  0.810012  0.352946  0.701036  1
  As  As11  1  0.189988  0.647054  0.298964  1
  O  O12  1  0.721609  0.744469  0.262040  1
  O  O13  1  0.278391  0.255531  0.737960  1
  O  O14  1  0.315767  0.978757  0.867605  1
  O  O15  1  0.684233  0.021243  0.132395  1
  O  O16  1  0.608763  0.327716  0.985305  1
  O  O17  1  0.391237  0.672284  0.014695  1
  O  O18  1  0.124617  0.641850  0.737962  1
  O  O19  1  0.875383  0.358150  0.262038  1
  O  O20  1  0.847263  0.875360  0.560264  1
  O  O21  1  0.152737  0.124640  0.439736  1
  O  O22  1  0.477734  0.763638  0.665424  1
  O  O23  1  0.522266  0.236362  0.334576  1
  O  O24  1  0.373928  0.531452  0.382975  1
  O  O25  1  0.626072  0.468548  0.617025  1
  O  O26  1  0.086613  0.667209  0.454237  1
  O  O27  1  0.913387  0.332791  0.545763  1
  O  O28  1  0.380636  0.900200  0.358864  1
  O  O29  1  0.619364  0.099800  0.641136  1
