# generated using pymatgen
data_Sm3Dy2(FeB3)2
_symmetry_space_group_name_H-M   'P 1'
_cell_length_a   5.43841163
_cell_length_b   5.43841271
_cell_length_c   8.44163407
_cell_angle_alpha   71.20891113
_cell_angle_beta   71.20890708
_cell_angle_gamma   59.99998639
_symmetry_Int_Tables_number   1
_chemical_formula_structural   Sm3Dy2(FeB3)2
_chemical_formula_sum   'Sm3 Dy2 Fe2 B6'
_cell_volume   200.70930859
_cell_formula_units_Z   1
loop_
 _symmetry_equiv_pos_site_id
 _symmetry_equiv_pos_as_xyz
  1  'x, y, z'
loop_
 _atom_site_type_symbol
 _atom_site_label
 _atom_site_symmetry_multiplicity
 _atom_site_fract_x
 _atom_site_fract_y
 _atom_site_fract_z
 _atom_site_occupancy
  Sm  Sm0  1  0.000000  0.000000  0.000000  1
  Sm  Sm1  1  0.252656  0.252656  0.242031  1
  Sm  Sm2  1  0.747344  0.747344  0.757969  1
  Dy  Dy3  1  0.418785  0.418785  0.743644  1
  Dy  Dy4  1  0.581215  0.581215  0.256356  1
  Fe  Fe5  1  0.119266  0.119266  0.642203  1
  Fe  Fe6  1  0.880734  0.880734  0.357797  1
  B  B7  1  0.167451  0.832549  0.500000  1
  B  B8  1  0.832549  0.500000  0.500000  1
  B  B9  1  0.500000  0.167451  0.500000  1
  B  B10  1  0.167451  0.500000  0.500000  1
  B  B11  1  0.500000  0.832549  0.500000  1
  B  B12  1  0.832549  0.167451  0.500000  1
