# generated using pymatgen
data_Dy16Cd2Co3NiAg2
_symmetry_space_group_name_H-M   'P 1'
_cell_length_a   9.45495744
_cell_length_b   9.45965795
_cell_length_c   9.45754700
_cell_angle_alpha   60.00737805
_cell_angle_beta   59.99093609
_cell_angle_gamma   60.11516265
_symmetry_Int_Tables_number   1
_chemical_formula_structural   Dy16Cd2Co3NiAg2
_chemical_formula_sum   'Dy16 Cd2 Co3 Ni1 Ag2'
_cell_volume   598.64522144
_cell_formula_units_Z   1
loop_
 _symmetry_equiv_pos_site_id
 _symmetry_equiv_pos_as_xyz
  1  'x, y, z'
loop_
 _atom_site_type_symbol
 _atom_site_label
 _atom_site_symmetry_multiplicity
 _atom_site_fract_x
 _atom_site_fract_y
 _atom_site_fract_z
 _atom_site_occupancy
  Dy  Dy0  1  0.594415  0.598201  0.597791  1
  Dy  Dy1  1  0.594415  0.598201  0.209595  1
  Dy  Dy2  1  0.597011  0.205901  0.598545  1
  Dy  Dy3  1  0.208487  0.597804  0.596855  1
  Dy  Dy4  1  0.064339  0.437618  0.439323  1
  Dy  Dy5  1  0.436899  0.061864  0.062493  1
  Dy  Dy6  1  0.436899  0.061864  0.438744  1
  Dy  Dy7  1  0.064339  0.437618  0.058720  1
  Dy  Dy8  1  0.438004  0.437848  0.062074  1
  Dy  Dy9  1  0.064158  0.057465  0.439189  1
  Dy  Dy10  1  0.184750  0.812339  0.813391  1
  Dy  Dy11  1  0.811299  0.185164  0.189000  1
  Dy  Dy12  1  0.811299  0.185164  0.814535  1
  Dy  Dy13  1  0.184750  0.812339  0.189520  1
  Dy  Dy14  1  0.810042  0.813489  0.188235  1
  Dy  Dy15  1  0.186294  0.186749  0.813478  1
  Cd  Cd16  1  0.831337  0.510897  0.828883  1
  Cd  Cd17  1  0.510837  0.831364  0.828899  1
  Co  Co18  1  0.392821  0.391926  0.389824  1
  Co  Co19  1  0.392821  0.391926  0.825429  1
  Co  Co20  1  0.393351  0.826161  0.390244  1
  Ni  Ni21  1  0.824970  0.391703  0.391663  1
  Ag  Ag22  1  0.833232  0.833198  0.831519  1
  Ag  Ag23  1  0.833232  0.833198  0.502052  1
