# generated using pymatgen
data_Ce6SmYF30
_symmetry_space_group_name_H-M   'P 1'
_cell_length_a   8.63916060
_cell_length_b   8.63916003
_cell_length_c   8.62705635
_cell_angle_alpha   79.72440050
_cell_angle_beta   79.72440315
_cell_angle_gamma   100.34236840
_symmetry_Int_Tables_number   1
_chemical_formula_structural   Ce6SmYF30
_chemical_formula_sum   'Ce6 Sm1 Y1 F30'
_cell_volume   608.35779395
_cell_formula_units_Z   1
loop_
 _symmetry_equiv_pos_site_id
 _symmetry_equiv_pos_as_xyz
  1  'x, y, z'
loop_
 _atom_site_type_symbol
 _atom_site_label
 _atom_site_symmetry_multiplicity
 _atom_site_fract_x
 _atom_site_fract_y
 _atom_site_fract_z
 _atom_site_occupancy
  Ce  Ce0  1  0.749660  0.250340  0.250000  1
  Ce  Ce1  1  0.250479  0.749521  0.750000  1
  Ce  Ce2  1  0.753313  0.678141  0.674328  1
  Ce  Ce3  1  0.321859  0.246687  0.825672  1
  Ce  Ce4  1  0.246025  0.321494  0.327002  1
  Ce  Ce5  1  0.678506  0.753975  0.172998  1
  Sm  Sm6  1  0.178449  0.821551  0.250000  1
  Y  Y7  1  0.821433  0.178567  0.750000  1
  F  F8  1  0.317624  0.349620  0.053135  1
  F  F9  1  0.941177  0.814761  0.153909  1
  F  F10  1  0.844497  0.451519  0.683204  1
  F  F11  1  0.455064  0.845181  0.182132  1
  F  F12  1  0.814624  0.943501  0.655362  1
  F  F13  1  0.349668  0.317666  0.553151  1
  F  F14  1  0.682334  0.650332  0.946848  1
  F  F15  1  0.056499  0.185376  0.844638  1
  F  F16  1  0.154819  0.544936  0.317868  1
  F  F17  1  0.548481  0.155503  0.816796  1
  F  F18  1  0.185239  0.058823  0.346091  1
  F  F19  1  0.650380  0.682376  0.446865  1
  F  F20  1  0.776370  0.276387  0.990848  1
  F  F21  1  0.010438  0.276020  0.216835  1
  F  F22  1  0.779608  0.509877  0.223442  1
  F  F23  1  0.509975  0.779510  0.723436  1
  F  F24  1  0.276092  0.010523  0.716885  1
  F  F25  1  0.277515  0.776001  0.492089  1
  F  F26  1  0.223999  0.722485  0.007911  1
  F  F27  1  0.989477  0.723908  0.783115  1
  F  F28  1  0.220490  0.490025  0.776564  1
  F  F29  1  0.490123  0.220392  0.276558  1
  F  F30  1  0.723980  0.989562  0.283165  1
  F  F31  1  0.723613  0.223630  0.509152  1
  F  F32  1  0.466123  0.533877  0.250000  1
  F  F33  1  0.749913  0.962961  0.964794  1
  F  F34  1  0.037039  0.250087  0.535206  1
  F  F35  1  0.250936  0.039608  0.032607  1
  F  F36  1  0.960392  0.749064  0.467393  1
  F  F37  1  0.533788  0.466212  0.750000  1
