# generated using pymatgen
data_Dy16Cd4CoTcNi2
_symmetry_space_group_name_H-M   'P 1'
_cell_length_a   9.60496246
_cell_length_b   9.60496247
_cell_length_c   9.59318898
_cell_angle_alpha   59.27942817
_cell_angle_beta   59.27942766
_cell_angle_gamma   59.41507823
_symmetry_Int_Tables_number   1
_chemical_formula_structural   Dy16Cd4CoTcNi2
_chemical_formula_sum   'Dy16 Cd4 Co1 Tc1 Ni2'
_cell_volume   616.18095073
_cell_formula_units_Z   1
loop_
 _symmetry_equiv_pos_site_id
 _symmetry_equiv_pos_as_xyz
  1  'x, y, z'
loop_
 _atom_site_type_symbol
 _atom_site_label
 _atom_site_symmetry_multiplicity
 _atom_site_fract_x
 _atom_site_fract_y
 _atom_site_fract_z
 _atom_site_occupancy
  Dy  Dy0  1  0.594923  0.594923  0.599725  1
  Dy  Dy1  1  0.601611  0.601611  0.204982  1
  Dy  Dy2  1  0.599384  0.207421  0.602575  1
  Dy  Dy3  1  0.207421  0.599384  0.602575  1
  Dy  Dy4  1  0.060451  0.437634  0.437988  1
  Dy  Dy5  1  0.435783  0.065071  0.058079  1
  Dy  Dy6  1  0.437634  0.060451  0.437988  1
  Dy  Dy7  1  0.065071  0.435783  0.058079  1
  Dy  Dy8  1  0.437523  0.437523  0.057951  1
  Dy  Dy9  1  0.060687  0.060687  0.437105  1
  Dy  Dy10  1  0.186292  0.812839  0.815428  1
  Dy  Dy11  1  0.805026  0.189376  0.189652  1
  Dy  Dy12  1  0.812839  0.186292  0.815428  1
  Dy  Dy13  1  0.189376  0.805026  0.189652  1
  Dy  Dy14  1  0.813906  0.813906  0.187285  1
  Dy  Dy15  1  0.189670  0.189670  0.806451  1
  Cd  Cd16  1  0.829742  0.829742  0.829937  1
  Cd  Cd17  1  0.829659  0.829659  0.507084  1
  Cd  Cd18  1  0.830188  0.506469  0.829707  1
  Cd  Cd19  1  0.506469  0.830188  0.829707  1
  Co  Co20  1  0.393143  0.393143  0.826738  1
  Tc  Tc21  1  0.393680  0.393680  0.391285  1
  Ni  Ni22  1  0.392858  0.826664  0.392300  1
  Ni  Ni23  1  0.826664  0.392858  0.392300  1
