# generated using pymatgen
data_Gd3Lu(WN2)4
_symmetry_space_group_name_H-M   'P 1'
_cell_length_a   3.21982400
_cell_length_b   5.73959146
_cell_length_c   10.58551996
_cell_angle_alpha   90.23872891
_cell_angle_beta   90.00000000
_cell_angle_gamma   90.00000000
_symmetry_Int_Tables_number   1
_chemical_formula_structural   Gd3Lu(WN2)4
_chemical_formula_sum   'Gd3 Lu1 W4 N8'
_cell_volume   195.62373189
_cell_formula_units_Z   1
loop_
 _symmetry_equiv_pos_site_id
 _symmetry_equiv_pos_as_xyz
  1  'x, y, z'
loop_
 _atom_site_type_symbol
 _atom_site_label
 _atom_site_symmetry_multiplicity
 _atom_site_fract_x
 _atom_site_fract_y
 _atom_site_fract_z
 _atom_site_occupancy
  Gd  Gd0  1  0.750000  0.421917  0.143131  1
  Gd  Gd1  1  0.750000  0.921550  0.355341  1
  Gd  Gd2  1  0.250000  0.078895  0.646341  1
  Lu  Lu3  1  0.250000  0.576782  0.854719  1
  W  W4  1  0.250000  0.933788  0.094336  1
  W  W5  1  0.750000  0.063908  0.905089  1
  W  W6  1  0.750000  0.567730  0.597116  1
  W  W7  1  0.250000  0.433763  0.404616  1
  N  N8  1  0.250000  0.666473  0.249226  1
  N  N9  1  0.750000  0.340568  0.754404  1
  N  N10  1  0.750000  0.828905  0.751897  1
  N  N11  1  0.250000  0.165773  0.249455  1
  N  N12  1  0.250000  0.756880  0.509202  1
  N  N13  1  0.750000  0.244303  0.492610  1
  N  N14  1  0.750000  0.738218  0.003790  1
  N  N15  1  0.250000  0.260547  0.988729  1
