# generated using pymatgen
data_Y3Er9In2Fe2Os
_symmetry_space_group_name_H-M   'P 1'
_cell_length_a   8.33175676
_cell_length_b   8.33168593
_cell_length_c   8.34288255
_cell_angle_alpha   108.68631087
_cell_angle_beta   108.68739032
_cell_angle_gamma   110.99933822
_symmetry_Int_Tables_number   1
_chemical_formula_structural   Y3Er9In2Fe2Os
_chemical_formula_sum   'Y3 Er9 In2 Fe2 Os1'
_cell_volume   445.86480549
_cell_formula_units_Z   1
loop_
 _symmetry_equiv_pos_site_id
 _symmetry_equiv_pos_as_xyz
  1  'x, y, z'
loop_
 _atom_site_type_symbol
 _atom_site_label
 _atom_site_symmetry_multiplicity
 _atom_site_fract_x
 _atom_site_fract_y
 _atom_site_fract_z
 _atom_site_occupancy
  Y  Y0  1  0.307054  0.306748  0.613805  1
  Y  Y1  1  0.693256  0.692940  0.386198  1
  Y  Y2  1  0.306783  0.693221  0.000002  1
  Er  Er3  1  0.692228  0.307769  0.000004  1
  Er  Er4  1  0.429770  0.191796  0.237463  1
  Er  Er5  1  0.570620  0.808839  0.762516  1
  Er  Er6  1  0.953694  0.191892  0.762532  1
  Er  Er7  1  0.192310  0.954330  0.762529  1
  Er  Er8  1  0.045688  0.807698  0.237490  1
  Er  Er9  1  0.808107  0.046327  0.237483  1
  Er  Er10  1  0.191160  0.429371  0.237469  1
  Er  Er11  1  0.808202  0.570211  0.762512  1
  In  In12  1  0.499959  0.000037  0.499987  1
  In  In13  1  0.999969  0.500048  0.500011  1
  Fe  Fe14  1  0.385852  0.384704  0.000000  1
  Fe  Fe15  1  0.615288  0.614146  0.000002  1
  Os  Os16  1  0.000059  0.999924  0.999998  1
