# generated using pymatgen
data_Dy5CSe4
_symmetry_space_group_name_H-M   'P 1'
_cell_length_a   6.93144600
_cell_length_b   6.93144629
_cell_length_c   6.93144632
_cell_angle_alpha   99.57891960
_cell_angle_beta   99.57891624
_cell_angle_gamma   131.85041061
_symmetry_Int_Tables_number   1
_chemical_formula_structural   Dy5CSe4
_chemical_formula_sum   'Dy5 C1 Se4'
_cell_volume   226.48560363
_cell_formula_units_Z   1
loop_
 _symmetry_equiv_pos_site_id
 _symmetry_equiv_pos_as_xyz
  1  'x, y, z'
loop_
 _atom_site_type_symbol
 _atom_site_label
 _atom_site_symmetry_multiplicity
 _atom_site_fract_x
 _atom_site_fract_y
 _atom_site_fract_z
 _atom_site_occupancy
  Dy  Dy0  1  0.409514  0.760899  0.170413  1
  Dy  Dy1  1  0.000000  0.000000  0.000000  1
  Dy  Dy2  1  0.590486  0.239101  0.829587  1
  Dy  Dy3  1  0.239101  0.409514  0.648615  1
  Dy  Dy4  1  0.760899  0.590486  0.351385  1
  C  C5  1  0.500000  0.500000  0.000000  1
  Se  Se6  1  0.092147  0.694663  0.786809  1
  Se  Se7  1  0.694663  0.907853  0.602517  1
  Se  Se8  1  0.305337  0.092147  0.397483  1
  Se  Se9  1  0.907853  0.305337  0.213191  1
