# generated using pymatgen
data_EuThZn22
_symmetry_space_group_name_H-M   'P 1'
_cell_length_a   8.23294313
_cell_length_b   8.23294284
_cell_length_c   8.23294327
_cell_angle_alpha   99.93862349
_cell_angle_beta   99.93862276
_cell_angle_gamma   130.90552267
_symmetry_Int_Tables_number   1
_chemical_formula_structural   EuThZn22
_chemical_formula_sum   'Eu1 Th1 Zn22'
_cell_volume   383.64209889
_cell_formula_units_Z   1
loop_
 _symmetry_equiv_pos_site_id
 _symmetry_equiv_pos_as_xyz
  1  'x, y, z'
loop_
 _atom_site_type_symbol
 _atom_site_label
 _atom_site_symmetry_multiplicity
 _atom_site_fract_x
 _atom_site_fract_y
 _atom_site_fract_z
 _atom_site_occupancy
  Eu  Eu0  1  0.250000  0.750000  0.500000  1
  Th  Th1  1  0.000000  0.000000  0.000000  1
  Zn  Zn2  1  0.750000  0.250000  0.500000  1
  Zn  Zn3  1  0.500000  0.500000  0.000000  1
  Zn  Zn4  1  0.123106  0.373684  0.749422  1
  Zn  Zn5  1  0.626316  0.876894  0.250578  1
  Zn  Zn6  1  0.626316  0.375738  0.749422  1
  Zn  Zn7  1  0.624262  0.373684  0.250578  1
  Zn  Zn8  1  0.180772  0.507766  0.084644  1
  Zn  Zn9  1  0.180772  0.096128  0.673006  1
  Zn  Zn10  1  0.757514  0.929828  0.584489  1
  Zn  Zn11  1  0.757514  0.173025  0.827686  1
  Zn  Zn12  1  0.423122  0.507766  0.326994  1
  Zn  Zn13  1  0.423122  0.096128  0.915356  1
  Zn  Zn14  1  0.345339  0.929828  0.172314  1
  Zn  Zn15  1  0.345339  0.173025  0.415511  1
  Zn  Zn16  1  0.070172  0.242486  0.415511  1
  Zn  Zn17  1  0.070172  0.654661  0.827686  1
  Zn  Zn18  1  0.492234  0.819228  0.915356  1
  Zn  Zn19  1  0.492234  0.576878  0.673006  1
  Zn  Zn20  1  0.826975  0.242486  0.172314  1
  Zn  Zn21  1  0.826975  0.654661  0.584489  1
  Zn  Zn22  1  0.903872  0.819228  0.326994  1
  Zn  Zn23  1  0.903872  0.576878  0.084644  1
