# generated using pymatgen
data_BeAlCrO4
_symmetry_space_group_name_H-M   'P 1'
_cell_length_a   4.51887800
_cell_length_b   5.65284900
_cell_length_c   9.82911600
_cell_angle_alpha   90.00069846
_cell_angle_beta   90.00037294
_cell_angle_gamma   89.99764786
_symmetry_Int_Tables_number   1
_chemical_formula_structural   BeAlCrO4
_chemical_formula_sum   'Be4 Al4 Cr4 O16'
_cell_volume   251.08019741
_cell_formula_units_Z   4
loop_
 _symmetry_equiv_pos_site_id
 _symmetry_equiv_pos_as_xyz
  1  'x, y, z'
loop_
 _atom_site_type_symbol
 _atom_site_label
 _atom_site_symmetry_multiplicity
 _atom_site_fract_x
 _atom_site_fract_y
 _atom_site_fract_z
 _atom_site_occupancy
  Be  Be0  1  0.929327  0.749957  0.412592  1
  Be  Be1  1  0.570666  0.750052  0.912589  1
  Be  Be2  1  0.070663  0.250040  0.587417  1
  Be  Be3  1  0.429332  0.249943  0.087415  1
  Al  Al4  1  0.500003  0.499989  0.500009  1
  Al  Al5  1  0.999994  0.999994  0.999999  1
  Al  Al6  1  0.500005  0.000006  0.500007  1
  Al  Al7  1  0.999994  0.500002  0.999998  1
  Cr  Cr8  1  0.498706  0.749915  0.231963  1
  Cr  Cr9  1  0.001292  0.750077  0.731960  1
  Cr  Cr10  1  0.501304  0.250079  0.768054  1
  Cr  Cr11  1  0.998712  0.249921  0.268044  1
  O  O12  1  0.279366  0.749969  0.415304  1
  O  O13  1  0.220656  0.750031  0.915323  1
  O  O14  1  0.720669  0.250032  0.584670  1
  O  O15  1  0.779346  0.249971  0.084681  1
  O  O16  1  0.751120  0.749981  0.062866  1
  O  O17  1  0.748905  0.750018  0.562900  1
  O  O18  1  0.248918  0.250021  0.937090  1
  O  O19  1  0.251099  0.249982  0.437117  1
  O  O20  1  0.755011  0.979738  0.343222  1
  O  O21  1  0.744972  0.520260  0.843204  1
  O  O22  1  0.244931  0.479923  0.656764  1
  O  O23  1  0.255041  0.020085  0.156759  1
  O  O24  1  0.244982  0.020272  0.656779  1
  O  O25  1  0.255008  0.479738  0.156797  1
  O  O26  1  0.755051  0.520077  0.343236  1
  O  O27  1  0.744927  0.979929  0.843242  1
