# generated using pymatgen
data_Er16In4NiRu3
_symmetry_space_group_name_H-M   'P 1'
_cell_length_a   9.57165596
_cell_length_b   9.57165551
_cell_length_c   9.57165652
_cell_angle_alpha   59.83144926
_cell_angle_beta   59.83144949
_cell_angle_gamma   59.83144636
_symmetry_Int_Tables_number   1
_chemical_formula_structural   Er16In4NiRu3
_chemical_formula_sum   'Er16 In4 Ni1 Ru3'
_cell_volume   617.70577273
_cell_formula_units_Z   1
loop_
 _symmetry_equiv_pos_site_id
 _symmetry_equiv_pos_as_xyz
  1  'x, y, z'
loop_
 _atom_site_type_symbol
 _atom_site_label
 _atom_site_symmetry_multiplicity
 _atom_site_fract_x
 _atom_site_fract_y
 _atom_site_fract_z
 _atom_site_occupancy
  Er  Er0  1  0.097567  0.706170  0.097567  1
  Er  Er1  1  0.940746  0.940746  0.558817  1
  Er  Er2  1  0.940746  0.558817  0.940746  1
  Er  Er3  1  0.307151  0.692445  0.307151  1
  Er  Er4  1  0.939705  0.557818  0.557818  1
  Er  Er5  1  0.307151  0.307151  0.692445  1
  Er  Er6  1  0.100119  0.100119  0.100119  1
  Er  Er7  1  0.557818  0.557818  0.939705  1
  Er  Er8  1  0.097567  0.097567  0.706170  1
  Er  Er9  1  0.688623  0.312772  0.688623  1
  Er  Er10  1  0.688623  0.688623  0.312772  1
  Er  Er11  1  0.692445  0.307151  0.307151  1
  Er  Er12  1  0.312772  0.688623  0.688623  1
  Er  Er13  1  0.557818  0.939705  0.557818  1
  Er  Er14  1  0.706170  0.097567  0.097567  1
  Er  Er15  1  0.558817  0.940746  0.940746  1
  In  In16  1  0.332531  0.332531  0.332531  1
  In  In17  1  0.000802  0.334179  0.334179  1
  In  In18  1  0.334179  0.000802  0.334179  1
  In  In19  1  0.334179  0.334179  0.000802  1
  Ni  Ni20  1  0.890631  0.890631  0.890631  1
  Ru  Ru21  1  0.892274  0.892274  0.329289  1
  Ru  Ru22  1  0.329289  0.892274  0.892274  1
  Ru  Ru23  1  0.892274  0.329289  0.892274  1
