# generated using pymatgen
data_Y4Lu6Ga5Si3
_symmetry_space_group_name_H-M   'P 1'
_cell_length_a   7.38338700
_cell_length_b   7.70228138
_cell_length_c   14.66146200
_cell_angle_alpha   89.98188651
_cell_angle_beta   90.00000000
_cell_angle_gamma   90.00000000
_symmetry_Int_Tables_number   1
_chemical_formula_structural   Y4Lu6Ga5Si3
_chemical_formula_sum   'Y8 Lu12 Ga10 Si6'
_cell_volume   833.78153017
_cell_formula_units_Z   2
loop_
 _symmetry_equiv_pos_site_id
 _symmetry_equiv_pos_as_xyz
  1  'x, y, z'
loop_
 _atom_site_type_symbol
 _atom_site_label
 _atom_site_symmetry_multiplicity
 _atom_site_fract_x
 _atom_site_fract_y
 _atom_site_fract_z
 _atom_site_occupancy
  Y  Y0  1  0.516301  0.682679  0.594346  1
  Y  Y1  1  0.016301  0.817321  0.905654  1
  Y  Y2  1  0.485043  0.319238  0.095199  1
  Y  Y3  1  0.985043  0.180762  0.404801  1
  Y  Y4  1  0.482661  0.321504  0.404691  1
  Y  Y5  1  0.982661  0.178496  0.095309  1
  Y  Y6  1  0.517025  0.681571  0.905296  1
  Y  Y7  1  0.017025  0.818429  0.594704  1
  Lu  Lu8  1  0.675257  0.172221  0.621695  1
  Lu  Lu9  1  0.175257  0.327779  0.878305  1
  Lu  Lu10  1  0.326382  0.824885  0.122577  1
  Lu  Lu11  1  0.826382  0.675115  0.377423  1
  Lu  Lu12  1  0.324975  0.823987  0.378403  1
  Lu  Lu13  1  0.824975  0.676013  0.121597  1
  Lu  Lu14  1  0.674423  0.174306  0.878669  1
  Lu  Lu15  1  0.174423  0.325694  0.621331  1
  Lu  Lu16  1  0.840772  0.512496  0.750249  1
  Lu  Lu17  1  0.340772  0.987504  0.749751  1
  Lu  Lu18  1  0.159324  0.487362  0.250548  1
  Lu  Lu19  1  0.659324  0.012638  0.249452  1
  Ga  Ga20  1  0.658948  0.968320  0.457669  1
  Ga  Ga21  1  0.158948  0.531680  0.042331  1
  Ga  Ga22  1  0.341932  0.032145  0.959284  1
  Ga  Ga23  1  0.841932  0.467855  0.540716  1
  Ga  Ga24  1  0.341234  0.032563  0.540581  1
  Ga  Ga25  1  0.841234  0.467437  0.959419  1
  Ga  Ga26  1  0.471044  0.394411  0.748621  1
  Ga  Ga27  1  0.971044  0.105589  0.751379  1
  Ga  Ga28  1  0.530397  0.606469  0.249490  1
  Ga  Ga29  1  0.030397  0.893531  0.250510  1
  Si  Si30  1  0.654188  0.969780  0.041840  1
  Si  Si31  1  0.154188  0.530220  0.458160  1
  Si  Si32  1  0.723022  0.874867  0.750672  1
  Si  Si33  1  0.223022  0.625133  0.749328  1
  Si  Si34  1  0.277074  0.125266  0.249794  1
  Si  Si35  1  0.777074  0.374734  0.250206  1
