# generated using pymatgen
data_Sr2YbWN4
_symmetry_space_group_name_H-M   'P 1'
_cell_length_a   10.52867045
_cell_length_b   10.21103661
_cell_length_c   7.89361816
_cell_angle_alpha   69.77799042
_cell_angle_beta   65.51246110
_cell_angle_gamma   44.70954586
_symmetry_Int_Tables_number   1
_chemical_formula_structural   Sr2YbWN4
_chemical_formula_sum   'Sr8 Yb4 W4 N16'
_cell_volume   541.59013508
_cell_formula_units_Z   4
loop_
 _symmetry_equiv_pos_site_id
 _symmetry_equiv_pos_as_xyz
  1  'x, y, z'
loop_
 _atom_site_type_symbol
 _atom_site_label
 _atom_site_symmetry_multiplicity
 _atom_site_fract_x
 _atom_site_fract_y
 _atom_site_fract_z
 _atom_site_occupancy
  Sr  Sr0  1  0.566998  0.933002  0.933002  1
  Sr  Sr1  1  0.933002  0.566998  0.566998  1
  Sr  Sr2  1  0.316998  0.683002  0.683002  1
  Sr  Sr3  1  0.113455  0.113455  0.886545  1
  Sr  Sr4  1  0.136545  0.136545  0.363455  1
  Sr  Sr5  1  0.363455  0.363455  0.136545  1
  Sr  Sr6  1  0.683002  0.316998  0.316998  1
  Sr  Sr7  1  0.886545  0.886545  0.113455  1
  Yb  Yb8  1  0.338874  0.338874  0.661126  1
  Yb  Yb9  1  0.911126  0.911126  0.588874  1
  Yb  Yb10  1  0.661126  0.661126  0.338874  1
  Yb  Yb11  1  0.588874  0.588874  0.911126  1
  W  W12  1  0.488438  0.011562  0.488438  1
  W  W13  1  0.011562  0.488438  0.011562  1
  W  W14  1  0.761562  0.238438  0.761562  1
  W  W15  1  0.238438  0.761562  0.238438  1
  N  N16  1  0.017958  0.655688  0.818043  1
  N  N17  1  0.697999  0.278246  0.011630  1
  N  N18  1  0.655688  0.017958  0.508311  1
  N  N19  1  0.508311  0.818043  0.655688  1
  N  N20  1  0.232042  0.594312  0.431957  1
  N  N21  1  0.741689  0.431957  0.594312  1
  N  N22  1  0.011630  0.012125  0.697999  1
  N  N23  1  0.552001  0.971754  0.238370  1
  N  N24  1  0.431957  0.741689  0.232042  1
  N  N25  1  0.971754  0.552001  0.237875  1
  N  N26  1  0.278246  0.697999  0.012125  1
  N  N27  1  0.818043  0.508311  0.017958  1
  N  N28  1  0.237875  0.238370  0.971754  1
  N  N29  1  0.594312  0.232042  0.741689  1
  N  N30  1  0.238370  0.237875  0.552001  1
  N  N31  1  0.012125  0.011630  0.278246  1
