# generated using pymatgen
data_Zr13Ti3(Ir2C)4
_symmetry_space_group_name_H-M   'P 1'
_cell_length_a   8.75799102
_cell_length_b   8.75783689
_cell_length_c   8.75799100
_cell_angle_alpha   59.99942169
_cell_angle_beta   60.00000384
_cell_angle_gamma   59.99941605
_symmetry_Int_Tables_number   1
_chemical_formula_structural   Zr13Ti3(Ir2C)4
_chemical_formula_sum   'Zr13 Ti3 Ir8 C4'
_cell_volume   474.99281746
_cell_formula_units_Z   1
loop_
 _symmetry_equiv_pos_site_id
 _symmetry_equiv_pos_as_xyz
  1  'x, y, z'
loop_
 _atom_site_type_symbol
 _atom_site_label
 _atom_site_symmetry_multiplicity
 _atom_site_fract_x
 _atom_site_fract_y
 _atom_site_fract_z
 _atom_site_occupancy
  Zr  Zr0  1  0.625000  0.125000  0.625000  1
  Zr  Zr1  1  0.810454  0.809556  0.189995  1
  Zr  Zr2  1  0.185381  0.189953  0.812333  1
  Zr  Zr3  1  0.812333  0.189953  0.812333  1
  Zr  Zr4  1  0.189995  0.809556  0.189995  1
  Zr  Zr5  1  0.189995  0.809556  0.810454  1
  Zr  Zr6  1  0.812333  0.189953  0.185381  1
  Zr  Zr7  1  0.439546  0.440444  0.060005  1
  Zr  Zr8  1  0.064619  0.060047  0.437667  1
  Zr  Zr9  1  0.437667  0.060047  0.437667  1
  Zr  Zr10  1  0.060005  0.440444  0.060005  1
  Zr  Zr11  1  0.060005  0.440444  0.439546  1
  Zr  Zr12  1  0.437667  0.060047  0.064619  1
  Ti  Ti13  1  0.125000  0.625000  0.625000  1
  Ti  Ti14  1  0.625000  0.625000  0.125000  1
  Ti  Ti15  1  0.625000  0.625000  0.625000  1
  Ir  Ir16  1  0.749468  0.425500  0.412517  1
  Ir  Ir17  1  0.417484  0.747549  0.417484  1
  Ir  Ir18  1  0.412517  0.425500  0.749468  1
  Ir  Ir19  1  0.412517  0.425500  0.412517  1
  Ir  Ir20  1  0.500532  0.824500  0.837483  1
  Ir  Ir21  1  0.832516  0.502451  0.832516  1
  Ir  Ir22  1  0.837483  0.824500  0.500532  1
  Ir  Ir23  1  0.837483  0.824500  0.837483  1
  C  C24  1  0.625000  0.125000  0.125000  1
  C  C25  1  0.125000  0.625000  0.125000  1
  C  C26  1  0.125000  0.125000  0.625000  1
  C  C27  1  0.125000  0.125000  0.125000  1
