# generated using pymatgen
data_CuGeBi2(TeO6)2
_symmetry_space_group_name_H-M   'P 1'
_cell_length_a   5.17626520
_cell_length_b   9.15930838
_cell_length_c   10.10551875
_cell_angle_alpha   89.95828278
_cell_angle_beta   90.58639334
_cell_angle_gamma   90.06769385
_symmetry_Int_Tables_number   1
_chemical_formula_structural   CuGeBi2(TeO6)2
_chemical_formula_sum   'Cu2 Ge2 Bi4 Te4 O24'
_cell_volume   479.08729324
_cell_formula_units_Z   2
loop_
 _symmetry_equiv_pos_site_id
 _symmetry_equiv_pos_as_xyz
  1  'x, y, z'
loop_
 _atom_site_type_symbol
 _atom_site_label
 _atom_site_symmetry_multiplicity
 _atom_site_fract_x
 _atom_site_fract_y
 _atom_site_fract_z
 _atom_site_occupancy
  Cu  Cu0  1  0.000366  0.329741  0.749874  1
  Cu  Cu1  1  0.999634  0.670259  0.250126  1
  Ge  Ge2  1  0.500462  0.837239  0.750054  1
  Ge  Ge3  1  0.499538  0.162761  0.249946  1
  Bi  Bi4  1  0.000000  0.000000  0.500000  1
  Bi  Bi5  1  0.500000  0.500000  0.500000  1
  Bi  Bi6  1  0.000000  0.000000  0.000000  1
  Bi  Bi7  1  0.500000  0.500000  0.000000  1
  Te  Te8  1  0.500315  0.167885  0.749863  1
  Te  Te9  1  0.000057  0.664773  0.750153  1
  Te  Te10  1  0.999943  0.335227  0.249847  1
  Te  Te11  1  0.499685  0.832115  0.250137  1
  O  O12  1  0.631169  0.995074  0.645623  1
  O  O13  1  0.131056  0.516532  0.636707  1
  O  O14  1  0.680677  0.310396  0.640847  1
  O  O15  1  0.186560  0.818237  0.646646  1
  O  O16  1  0.200392  0.173492  0.636282  1
  O  O17  1  0.679868  0.692237  0.643198  1
  O  O18  1  0.185995  0.181579  0.146784  1
  O  O19  1  0.679967  0.689829  0.141302  1
  O  O20  1  0.131360  0.483051  0.135948  1
  O  O21  1  0.630268  0.004924  0.145316  1
  O  O22  1  0.679443  0.307700  0.143140  1
  O  O23  1  0.198438  0.825841  0.137042  1
  O  O24  1  0.868944  0.483468  0.363293  1
  O  O25  1  0.368831  0.004926  0.354377  1
  O  O26  1  0.813440  0.181763  0.353354  1
  O  O27  1  0.319323  0.689604  0.359153  1
  O  O28  1  0.320132  0.307763  0.356802  1
  O  O29  1  0.799608  0.826508  0.363718  1
  O  O30  1  0.320033  0.310171  0.858698  1
  O  O31  1  0.814005  0.818421  0.853216  1
  O  O32  1  0.369732  0.995076  0.854684  1
  O  O33  1  0.868640  0.516949  0.864052  1
  O  O34  1  0.801562  0.174159  0.862958  1
  O  O35  1  0.320557  0.692300  0.856860  1
