# generated using pymatgen
data_Gd2Lu3Os2
_symmetry_space_group_name_H-M   'P 1'
_cell_length_a   6.24899267
_cell_length_b   7.33111647
_cell_length_c   8.26118400
_cell_angle_alpha   97.11939994
_cell_angle_beta   112.22310230
_cell_angle_gamma   89.99999832
_symmetry_Int_Tables_number   1
_chemical_formula_structural   Gd2Lu3Os2
_chemical_formula_sum   'Gd4 Lu6 Os4'
_cell_volume   347.19514785
_cell_formula_units_Z   2
loop_
 _symmetry_equiv_pos_site_id
 _symmetry_equiv_pos_as_xyz
  1  'x, y, z'
loop_
 _atom_site_type_symbol
 _atom_site_label
 _atom_site_symmetry_multiplicity
 _atom_site_fract_x
 _atom_site_fract_y
 _atom_site_fract_z
 _atom_site_occupancy
  Gd  Gd0  1  0.527245  0.080799  0.812812  1
  Gd  Gd1  1  0.472755  0.919201  0.187188  1
  Gd  Gd2  1  0.714432  0.419201  0.187188  1
  Gd  Gd3  1  0.285568  0.580799  0.812812  1
  Lu  Lu4  1  0.299339  0.317982  0.435954  1
  Lu  Lu5  1  0.700661  0.682018  0.564046  1
  Lu  Lu6  1  0.863385  0.182018  0.564046  1
  Lu  Lu7  1  0.136615  0.817982  0.435954  1
  Lu  Lu8  1  0.081095  0.250000  0.000000  1
  Lu  Lu9  1  0.918905  0.750000  0.000000  1
  Os  Os10  1  0.316686  0.578200  0.221064  1
  Os  Os11  1  0.683314  0.421800  0.778936  1
  Os  Os12  1  0.095623  0.921800  0.778936  1
  Os  Os13  1  0.904377  0.078200  0.221064  1
