# generated using pymatgen
data_Sr2ZnCu18Si7
_symmetry_space_group_name_H-M   'P 1'
_cell_length_a   8.21596662
_cell_length_b   8.21659712
_cell_length_c   8.24415504
_cell_angle_alpha   120.58623022
_cell_angle_beta   120.59422642
_cell_angle_gamma   89.10559131
_symmetry_Int_Tables_number   1
_chemical_formula_structural   Sr2ZnCu18Si7
_chemical_formula_sum   'Sr2 Zn1 Cu18 Si7'
_cell_volume   389.53620492
_cell_formula_units_Z   1
loop_
 _symmetry_equiv_pos_site_id
 _symmetry_equiv_pos_as_xyz
  1  'x, y, z'
loop_
 _atom_site_type_symbol
 _atom_site_label
 _atom_site_symmetry_multiplicity
 _atom_site_fract_x
 _atom_site_fract_y
 _atom_site_fract_z
 _atom_site_occupancy
  Sr  Sr0  1  0.750415  0.749339  0.998514  1
  Sr  Sr1  1  0.249483  0.250466  0.998540  1
  Zn  Zn2  1  0.798271  0.298029  0.855274  1
  Cu  Cu3  1  0.934490  0.202031  0.141548  1
  Cu  Cu4  1  0.203225  0.063459  0.268284  1
  Cu  Cu5  1  0.795095  0.930044  0.730171  1
  Cu  Cu6  1  0.430089  0.295116  0.730028  1
  Cu  Cu7  1  0.067601  0.796466  0.861531  1
  Cu  Cu8  1  0.805470  0.056185  0.495797  1
  Cu  Cu9  1  0.555901  0.305187  0.495323  1
  Cu  Cu10  1  0.192447  0.942868  0.501714  1
  Cu  Cu11  1  0.442684  0.692211  0.501273  1
  Cu  Cu12  1  0.941230  0.441101  0.739018  1
  Cu  Cu13  1  0.692097  0.192279  0.251935  1
  Cu  Cu14  1  0.066918  0.566790  0.267775  1
  Cu  Cu15  1  0.702096  0.434659  0.141451  1
  Cu  Cu16  1  0.563633  0.703451  0.268397  1
  Cu  Cu17  1  0.497362  0.997377  0.496918  1
  Cu  Cu18  1  0.001027  0.501081  0.498975  1
  Cu  Cu19  1  0.310704  0.810972  0.751245  1
  Cu  Cu20  1  0.296607  0.567667  0.861502  1
  Si  Si21  1  0.563217  0.063320  0.850242  1
  Si  Si22  1  0.057760  0.207923  0.499236  1
  Si  Si23  1  0.291633  0.438581  0.499549  1
  Si  Si24  1  0.938672  0.791755  0.499755  1
  Si  Si25  1  0.440437  0.940528  0.150249  1
  Si  Si26  1  0.203555  0.703394  0.146596  1
  Si  Si27  1  0.707875  0.557721  0.499165  1
