# generated using pymatgen
data_Y2Ho2Pd3PtO14
_symmetry_space_group_name_H-M   'P 1'
_cell_length_a   7.24466158
_cell_length_b   7.25395027
_cell_length_c   7.25394902
_cell_angle_alpha   60.00696787
_cell_angle_beta   59.96511191
_cell_angle_gamma   59.96511310
_symmetry_Int_Tables_number   1
_chemical_formula_structural   Y2Ho2Pd3PtO14
_chemical_formula_sum   'Y2 Ho2 Pd3 Pt1 O14'
_cell_volume   269.42990860
_cell_formula_units_Z   1
loop_
 _symmetry_equiv_pos_site_id
 _symmetry_equiv_pos_as_xyz
  1  'x, y, z'
loop_
 _atom_site_type_symbol
 _atom_site_label
 _atom_site_symmetry_multiplicity
 _atom_site_fract_x
 _atom_site_fract_y
 _atom_site_fract_z
 _atom_site_occupancy
  Y  Y0  1  0.625000  0.625000  0.625000  1
  Y  Y1  1  0.125000  0.625000  0.625000  1
  Ho  Ho2  1  0.625000  0.625000  0.125000  1
  Ho  Ho3  1  0.625000  0.125000  0.625000  1
  Pd  Pd4  1  0.125000  0.125000  0.125000  1
  Pd  Pd5  1  0.125000  0.625000  0.125000  1
  Pd  Pd6  1  0.125000  0.125000  0.625000  1
  Pt  Pt7  1  0.625000  0.125000  0.125000  1
  O  O8  1  0.034696  0.465235  0.465235  1
  O  O9  1  0.782904  0.785109  0.215264  1
  O  O10  1  0.782558  0.216329  0.216329  1
  O  O11  1  0.467096  0.034736  0.464891  1
  O  O12  1  0.748482  0.751294  0.751294  1
  O  O13  1  0.033605  0.035214  0.465578  1
  O  O14  1  0.033605  0.465578  0.035214  1
  O  O15  1  0.782904  0.215264  0.785109  1
  O  O16  1  0.216395  0.784422  0.214786  1
  O  O17  1  0.216395  0.214786  0.784422  1
  O  O18  1  0.501518  0.498706  0.498706  1
  O  O19  1  0.467442  0.033671  0.033671  1
  O  O20  1  0.467096  0.464891  0.034736  1
  O  O21  1  0.215304  0.784765  0.784765  1
