# generated using pymatgen
data_YbLuIr2O7
_symmetry_space_group_name_H-M   'P 1'
_cell_length_a   7.16190282
_cell_length_b   7.19369557
_cell_length_c   7.19369498
_cell_angle_alpha   60.17746206
_cell_angle_beta   60.14609486
_cell_angle_gamma   60.14609588
_symmetry_Int_Tables_number   1
_chemical_formula_structural   YbLuIr2O7
_chemical_formula_sum   'Yb2 Lu2 Ir4 O14'
_cell_volume   262.99933249
_cell_formula_units_Z   2
loop_
 _symmetry_equiv_pos_site_id
 _symmetry_equiv_pos_as_xyz
  1  'x, y, z'
loop_
 _atom_site_type_symbol
 _atom_site_label
 _atom_site_symmetry_multiplicity
 _atom_site_fract_x
 _atom_site_fract_y
 _atom_site_fract_z
 _atom_site_occupancy
  Yb  Yb0  1  0.625000  0.625000  0.125000  1
  Yb  Yb1  1  0.625000  0.125000  0.625000  1
  Lu  Lu2  1  0.625000  0.625000  0.625000  1
  Lu  Lu3  1  0.125000  0.625000  0.625000  1
  Ir  Ir4  1  0.125000  0.125000  0.125000  1
  Ir  Ir5  1  0.625000  0.125000  0.125000  1
  Ir  Ir6  1  0.125000  0.125000  0.625000  1
  Ir  Ir7  1  0.125000  0.625000  0.125000  1
  O  O8  1  0.041791  0.458209  0.458209  1
  O  O9  1  0.792678  0.791311  0.217167  1
  O  O10  1  0.793617  0.206383  0.206383  1
  O  O11  1  0.457322  0.032833  0.458689  1
  O  O12  1  0.759632  0.740368  0.740368  1
  O  O13  1  0.051156  0.458689  0.032833  1
  O  O14  1  0.051156  0.032833  0.458689  1
  O  O15  1  0.198844  0.791311  0.217167  1
  O  O16  1  0.198844  0.217167  0.791311  1
  O  O17  1  0.792678  0.217167  0.791311  1
  O  O18  1  0.490368  0.509632  0.509632  1
  O  O19  1  0.456383  0.043617  0.043617  1
  O  O20  1  0.457322  0.458689  0.032833  1
  O  O21  1  0.208209  0.791791  0.791791  1
