# generated using pymatgen
data_Y7ErSc11Si16Mo
_symmetry_space_group_name_H-M   'P 1'
_cell_length_a   7.07661860
_cell_length_b   7.32502627
_cell_length_c   13.89810143
_cell_angle_alpha   90.12485514
_cell_angle_beta   89.68416454
_cell_angle_gamma   89.74138638
_symmetry_Int_Tables_number   1
_chemical_formula_structural   Y7ErSc11Si16Mo
_chemical_formula_sum   'Y7 Er1 Sc11 Si16 Mo1'
_cell_volume   720.40774940
_cell_formula_units_Z   1
loop_
 _symmetry_equiv_pos_site_id
 _symmetry_equiv_pos_as_xyz
  1  'x, y, z'
loop_
 _atom_site_type_symbol
 _atom_site_label
 _atom_site_symmetry_multiplicity
 _atom_site_fract_x
 _atom_site_fract_y
 _atom_site_fract_z
 _atom_site_occupancy
  Y  Y0  1  0.011279  0.174213  0.097240  1
  Y  Y1  1  0.989971  0.825845  0.898267  1
  Y  Y2  1  0.487856  0.677273  0.899186  1
  Y  Y3  1  0.992922  0.829115  0.595983  1
  Y  Y4  1  0.512569  0.324224  0.096578  1
  Y  Y5  1  0.009756  0.174988  0.403946  1
  Y  Y6  1  0.506695  0.324069  0.409956  1
  Er  Er7  1  0.488106  0.676015  0.596536  1
  Sc  Sc8  1  0.164112  0.494970  0.744645  1
  Sc  Sc9  1  0.837040  0.498384  0.252018  1
  Sc  Sc10  1  0.336170  0.002473  0.252465  1
  Sc  Sc11  1  0.658810  0.001814  0.747003  1
  Sc  Sc12  1  0.664314  0.825368  0.379290  1
  Sc  Sc13  1  0.168024  0.678172  0.378319  1
  Sc  Sc14  1  0.668577  0.824035  0.124684  1
  Sc  Sc15  1  0.833416  0.323507  0.623526  1
  Sc  Sc16  1  0.333253  0.177015  0.874845  1
  Sc  Sc17  1  0.830971  0.322582  0.871471  1
  Sc  Sc18  1  0.169390  0.677058  0.125778  1
  Si  Si19  1  0.043710  0.120922  0.744988  1
  Si  Si20  1  0.962927  0.884113  0.251733  1
  Si  Si21  1  0.466024  0.617998  0.251121  1
  Si  Si22  1  0.532032  0.375003  0.745235  1
  Si  Si23  1  0.288251  0.880524  0.745361  1
  Si  Si24  1  0.710430  0.126283  0.251160  1
  Si  Si25  1  0.214725  0.374046  0.250836  1
  Si  Si26  1  0.784073  0.623379  0.746245  1
  Si  Si27  1  0.175518  0.452028  0.541157  1
  Si  Si28  1  0.842600  0.532952  0.460877  1
  Si  Si29  1  0.334079  0.968431  0.471512  1
  Si  Si30  1  0.845373  0.535789  0.038694  1
  Si  Si31  1  0.646249  0.034554  0.545223  1
  Si  Si32  1  0.154505  0.466147  0.958906  1
  Si  Si33  1  0.661037  0.036311  0.958835  1
  Si  Si34  1  0.341689  0.962809  0.038380  1
  Mo  Mo35  1  0.333543  0.177590  0.628002  1
