# generated using pymatgen
data_Eu2ZrVO6
_symmetry_space_group_name_H-M   'P 1'
_cell_length_a   5.63279511
_cell_length_b   5.79422100
_cell_length_c   8.02833355
_cell_angle_alpha   90.00000000
_cell_angle_beta   90.42340933
_cell_angle_gamma   90.00000000
_symmetry_Int_Tables_number   1
_chemical_formula_structural   Eu2ZrVO6
_chemical_formula_sum   'Eu4 Zr2 V2 O12'
_cell_volume   262.01886382
_cell_formula_units_Z   2
loop_
 _symmetry_equiv_pos_site_id
 _symmetry_equiv_pos_as_xyz
  1  'x, y, z'
loop_
 _atom_site_type_symbol
 _atom_site_label
 _atom_site_symmetry_multiplicity
 _atom_site_fract_x
 _atom_site_fract_y
 _atom_site_fract_z
 _atom_site_occupancy
  Eu  Eu0  1  0.511274  0.546412  0.248956  1
  Eu  Eu1  1  0.988726  0.046412  0.251044  1
  Eu  Eu2  1  0.488726  0.453588  0.751044  1
  Eu  Eu3  1  0.011274  0.953588  0.748956  1
  Zr  Zr4  1  0.000000  0.500000  0.000000  1
  Zr  Zr5  1  0.500000  0.000000  0.500000  1
  V  V6  1  0.000000  0.500000  0.500000  1
  V  V7  1  0.500000  0.000000  0.000000  1
  O  O8  1  0.407234  0.968945  0.244643  1
  O  O9  1  0.092766  0.468945  0.255357  1
  O  O10  1  0.592766  0.031055  0.755357  1
  O  O11  1  0.907234  0.531055  0.744643  1
  O  O12  1  0.790878  0.799376  0.048581  1
  O  O13  1  0.709122  0.299376  0.451419  1
  O  O14  1  0.199703  0.205022  0.547837  1
  O  O15  1  0.300297  0.705022  0.952163  1
  O  O16  1  0.209122  0.200624  0.951419  1
  O  O17  1  0.290878  0.700624  0.548581  1
  O  O18  1  0.800297  0.794978  0.452163  1
  O  O19  1  0.699703  0.294978  0.047837  1
