# generated using pymatgen
data_Dy2Ho2GeSe3
_symmetry_space_group_name_H-M   'P 1'
_cell_length_a   7.06443249
_cell_length_b   7.06443234
_cell_length_c   7.06443300
_cell_angle_alpha   131.92623458
_cell_angle_beta   131.92623345
_cell_angle_gamma   70.34555586
_symmetry_Int_Tables_number   1
_chemical_formula_structural   Dy2Ho2GeSe3
_chemical_formula_sum   'Dy2 Ho2 Ge1 Se3'
_cell_volume   191.25718614
_cell_formula_units_Z   1
loop_
 _symmetry_equiv_pos_site_id
 _symmetry_equiv_pos_as_xyz
  1  'x, y, z'
loop_
 _atom_site_type_symbol
 _atom_site_label
 _atom_site_symmetry_multiplicity
 _atom_site_fract_x
 _atom_site_fract_y
 _atom_site_fract_z
 _atom_site_occupancy
  Dy  Dy0  1  0.242907  0.242907  0.000000  1
  Dy  Dy1  1  0.757093  0.757093  0.000000  1
  Ho  Ho2  1  0.500000  0.000000  0.500000  1
  Ho  Ho3  1  0.000000  0.500000  0.500000  1
  Ge  Ge4  1  0.000000  0.000000  0.000000  1
  Se  Se5  1  0.500000  0.500000  0.000000  1
  Se  Se6  1  0.750000  0.250000  0.500000  1
  Se  Se7  1  0.250000  0.750000  0.500000  1
