# generated using pymatgen
data_Tb13Ho7(SiBi2)4
_symmetry_space_group_name_H-M   'P 1'
_cell_length_a   12.11854518
_cell_length_b   9.19276103
_cell_length_c   8.08751113
_cell_angle_alpha   90.00787067
_cell_angle_beta   89.98062098
_cell_angle_gamma   89.99667230
_symmetry_Int_Tables_number   1
_chemical_formula_structural   Tb13Ho7(SiBi2)4
_chemical_formula_sum   'Tb13 Ho7 Si4 Bi8'
_cell_volume   900.97205016
_cell_formula_units_Z   1
loop_
 _symmetry_equiv_pos_site_id
 _symmetry_equiv_pos_as_xyz
  1  'x, y, z'
loop_
 _atom_site_type_symbol
 _atom_site_label
 _atom_site_symmetry_multiplicity
 _atom_site_fract_x
 _atom_site_fract_y
 _atom_site_fract_z
 _atom_site_occupancy
  Tb  Tb0  1  0.436523  0.448288  0.319305  1
  Tb  Tb1  1  0.936591  0.448102  0.181157  1
  Tb  Tb2  1  0.436566  0.051586  0.319032  1
  Tb  Tb3  1  0.063398  0.948051  0.818867  1
  Tb  Tb4  1  0.563500  0.552012  0.681084  1
  Tb  Tb5  1  0.211618  0.749769  0.164496  1
  Tb  Tb6  1  0.711696  0.750298  0.335394  1
  Tb  Tb7  1  0.788348  0.249685  0.835477  1
  Tb  Tb8  1  0.288202  0.250044  0.664903  1
  Tb  Tb9  1  0.295082  0.749947  0.635796  1
  Tb  Tb10  1  0.795154  0.749938  0.864196  1
  Tb  Tb11  1  0.705147  0.249727  0.364465  1
  Tb  Tb12  1  0.204547  0.249824  0.135583  1
  Ho  Ho13  1  0.063366  0.552139  0.820147  1
  Ho  Ho14  1  0.563391  0.947797  0.679846  1
  Ho  Ho15  1  0.936513  0.052334  0.179925  1
  Ho  Ho16  1  0.000750  0.750149  0.459942  1
  Ho  Ho17  1  0.500879  0.750013  0.039831  1
  Ho  Ho18  1  0.999134  0.250113  0.539919  1
  Ho  Ho19  1  0.499252  0.249834  0.959554  1
  Si  Si20  1  0.480233  0.750777  0.413956  1
  Si  Si21  1  0.979890  0.750611  0.086403  1
  Si  Si22  1  0.520304  0.248556  0.587083  1
  Si  Si23  1  0.020095  0.250639  0.913542  1
  Bi  Bi24  1  0.326696  0.510781  0.931546  1
  Bi  Bi25  1  0.826924  0.989196  0.568129  1
  Bi  Bi26  1  0.673158  0.010694  0.068091  1
  Bi  Bi27  1  0.172816  0.489199  0.432152  1
  Bi  Bi28  1  0.673039  0.489279  0.068202  1
  Bi  Bi29  1  0.172856  0.010709  0.431904  1
  Bi  Bi30  1  0.327124  0.989165  0.931901  1
  Bi  Bi31  1  0.827209  0.510744  0.568171  1
