# generated using pymatgen
data_TbGd(SeBr)2
_symmetry_space_group_name_H-M   'P 1'
_cell_length_a   4.14587500
_cell_length_b   5.65872200
_cell_length_c   9.41872500
_cell_angle_alpha   90.00000000
_cell_angle_beta   90.00000000
_cell_angle_gamma   90.00000000
_symmetry_Int_Tables_number   1
_chemical_formula_structural   TbGd(SeBr)2
_chemical_formula_sum   'Tb1 Gd1 Se2 Br2'
_cell_volume   220.96662340
_cell_formula_units_Z   1
loop_
 _symmetry_equiv_pos_site_id
 _symmetry_equiv_pos_as_xyz
  1  'x, y, z'
loop_
 _atom_site_type_symbol
 _atom_site_label
 _atom_site_symmetry_multiplicity
 _atom_site_fract_x
 _atom_site_fract_y
 _atom_site_fract_z
 _atom_site_occupancy
  Tb  Tb0  1  0.500000  0.000000  0.871815  1
  Gd  Gd1  1  0.000000  0.500000  0.128252  1
  Se  Se2  1  0.500000  0.500000  0.913412  1
  Se  Se3  1  0.000000  0.000000  0.085406  1
  Br  Br4  1  0.000000  0.000000  0.665297  1
  Br  Br5  1  0.500000  0.500000  0.335816  1
