# generated using pymatgen
data_Cs5Ag6
_symmetry_space_group_name_H-M   'P 1'
_cell_length_a   16.87400361
_cell_length_b   16.87400351
_cell_length_c   5.64022700
_cell_angle_alpha   90.00000000
_cell_angle_beta   90.00000000
_cell_angle_gamma   162.46119968
_symmetry_Int_Tables_number   1
_chemical_formula_structural   Cs5Ag6
_chemical_formula_sum   'Cs5 Ag6'
_cell_volume   483.95650368
_cell_formula_units_Z   1
loop_
 _symmetry_equiv_pos_site_id
 _symmetry_equiv_pos_as_xyz
  1  'x, y, z'
loop_
 _atom_site_type_symbol
 _atom_site_label
 _atom_site_symmetry_multiplicity
 _atom_site_fract_x
 _atom_site_fract_y
 _atom_site_fract_z
 _atom_site_occupancy
  Cs  Cs0  1  0.000000  0.000000  0.000000  1
  Cs  Cs1  1  0.614366  0.385632  0.000000  1
  Cs  Cs2  1  0.385632  0.614366  0.000000  1
  Cs  Cs3  1  0.807343  0.192655  0.500001  1
  Cs  Cs4  1  0.192655  0.807343  0.500001  1
  Ag  Ag5  1  0.737258  0.262740  0.000000  1
  Ag  Ag6  1  0.262740  0.737258  0.000000  1
  Ag  Ag7  1  0.926058  0.073941  0.500001  1
  Ag  Ag8  1  0.544579  0.455419  0.500001  1
  Ag  Ag9  1  0.455419  0.544579  0.500001  1
  Ag  Ag10  1  0.073941  0.926058  0.500001  1
