# generated using pymatgen
data_Nb2Ni2PtS8
_symmetry_space_group_name_H-M   'P 1'
_cell_length_a   10.35121000
_cell_length_b   14.47270400
_cell_length_c   3.35166800
_cell_angle_alpha   90.00000000
_cell_angle_beta   90.00000000
_cell_angle_gamma   90.00000000
_symmetry_Int_Tables_number   1
_chemical_formula_structural   Nb2Ni2PtS8
_chemical_formula_sum   'Nb4 Ni4 Pt2 S16'
_cell_volume   502.11337762
_cell_formula_units_Z   2
loop_
 _symmetry_equiv_pos_site_id
 _symmetry_equiv_pos_as_xyz
  1  'x, y, z'
loop_
 _atom_site_type_symbol
 _atom_site_label
 _atom_site_symmetry_multiplicity
 _atom_site_fract_x
 _atom_site_fract_y
 _atom_site_fract_z
 _atom_site_occupancy
  Nb  Nb0  1  0.298541  0.122465  0.000000  1
  Nb  Nb1  1  0.798541  0.377535  0.000000  1
  Nb  Nb2  1  0.201458  0.622465  0.000000  1
  Nb  Nb3  1  0.701459  0.877535  0.000000  1
  Ni  Ni4  1  0.130083  0.227261  0.500000  1
  Ni  Ni5  1  0.630082  0.272739  0.500000  1
  Ni  Ni6  1  0.369917  0.727261  0.500000  1
  Ni  Ni7  1  0.869918  0.772739  0.500000  1
  Pt  Pt8  1  0.500000  0.000000  0.500000  1
  Pt  Pt9  1  0.000000  0.500000  0.500000  1
  S  S10  1  0.062875  0.135517  0.000000  1
  S  S11  1  0.748061  0.213520  0.000000  1
  S  S12  1  0.248061  0.286480  0.000000  1
  S  S13  1  0.562875  0.364483  0.000000  1
  S  S14  1  0.437125  0.635517  0.000000  1
  S  S15  1  0.751939  0.713520  0.000000  1
  S  S16  1  0.251939  0.786481  0.000000  1
  S  S17  1  0.937125  0.864483  0.000000  1
  S  S18  1  0.728124  0.002631  0.500000  1
  S  S19  1  0.469916  0.161505  0.500000  1
  S  S20  1  0.969915  0.338495  0.500000  1
  S  S21  1  0.228124  0.497369  0.500000  1
  S  S22  1  0.771876  0.502632  0.500000  1
  S  S23  1  0.030085  0.661505  0.500000  1
  S  S24  1  0.530085  0.838495  0.500000  1
  S  S25  1  0.271876  0.997369  0.500000  1
