# generated using pymatgen
data_Er15Lu(In3Cu)2
_symmetry_space_group_name_H-M   'P 1'
_cell_length_a   10.45744801
_cell_length_b   10.45526600
_cell_length_c   6.78658111
_cell_angle_alpha   89.98104725
_cell_angle_beta   90.00275157
_cell_angle_gamma   120.00949369
_symmetry_Int_Tables_number   1
_chemical_formula_structural   Er15Lu(In3Cu)2
_chemical_formula_sum   'Er15 Lu1 In6 Cu2'
_cell_volume   642.54107206
_cell_formula_units_Z   1
loop_
 _symmetry_equiv_pos_site_id
 _symmetry_equiv_pos_as_xyz
  1  'x, y, z'
loop_
 _atom_site_type_symbol
 _atom_site_label
 _atom_site_symmetry_multiplicity
 _atom_site_fract_x
 _atom_site_fract_y
 _atom_site_fract_z
 _atom_site_occupancy
  Er  Er0  1  0.948253  0.474405  0.796300  1
  Er  Er1  1  0.526137  0.474418  0.796295  1
  Er  Er2  1  0.474029  0.948064  0.296572  1
  Er  Er3  1  0.051923  0.525901  0.296416  1
  Er  Er4  1  0.473988  0.525893  0.296417  1
  Er  Er5  1  0.824480  0.648978  0.507269  1
  Er  Er6  1  0.351110  0.175172  0.507768  1
  Er  Er7  1  0.824048  0.175171  0.507765  1
  Er  Er8  1  0.175361  0.350691  0.007137  1
  Er  Er9  1  0.649142  0.825184  0.006638  1
  Er  Er10  1  0.176063  0.825187  0.006624  1
  Er  Er11  1  0.666214  0.332395  0.167080  1
  Er  Er12  1  0.333843  0.667691  0.668122  1
  Er  Er13  1  0.000066  0.000137  0.775135  1
  Er  Er14  1  0.999920  0.999827  0.275077  1
  Lu  Lu15  1  0.526076  0.052167  0.796780  1
  In  In16  1  0.836359  0.672717  0.031355  1
  In  In17  1  0.327626  0.163527  0.031104  1
  In  In18  1  0.835923  0.163535  0.031117  1
  In  In19  1  0.163629  0.327268  0.531164  1
  In  In20  1  0.672693  0.836279  0.531410  1
  In  In21  1  0.163573  0.836299  0.531366  1
  Cu  Cu22  1  0.666273  0.332535  0.570694  1
  Cu  Cu23  1  0.333272  0.666558  0.070303  1
