# generated using pymatgen
data_Ac2Mn2S2O3
_symmetry_space_group_name_H-M   'P 1'
_cell_length_a   9.80318958
_cell_length_b   4.22767743
_cell_length_c   4.22769600
_cell_angle_alpha   90.00000000
_cell_angle_beta   102.45240822
_cell_angle_gamma   102.45235062
_symmetry_Int_Tables_number   1
_chemical_formula_structural   Ac2Mn2S2O3
_chemical_formula_sum   'Ac2 Mn2 S2 O3'
_cell_volume   166.87020669
_cell_formula_units_Z   1
loop_
 _symmetry_equiv_pos_site_id
 _symmetry_equiv_pos_as_xyz
  1  'x, y, z'
loop_
 _atom_site_type_symbol
 _atom_site_label
 _atom_site_symmetry_multiplicity
 _atom_site_fract_x
 _atom_site_fract_y
 _atom_site_fract_z
 _atom_site_occupancy
  Ac  Ac0  1  0.637085  0.318542  0.318542  1
  Ac  Ac1  1  0.362915  0.681459  0.681459  1
  Mn  Mn2  1  0.000000  0.500000  0.000000  1
  Mn  Mn3  1  0.000000  0.000000  0.500000  1
  S  S4  1  0.188875  0.094437  0.094437  1
  S  S5  1  0.811125  0.905564  0.905564  1
  O  O6  1  0.499998  0.749999  0.249999  1
  O  O7  1  0.000000  0.500000  0.500000  1
  O  O8  1  0.500002  0.250001  0.750001  1
