# generated using pymatgen
data_Tm6ScRhO12
_symmetry_space_group_name_H-M   'P 1'
_cell_length_a   6.47834341
_cell_length_b   6.47834189
_cell_length_c   6.47834309
_cell_angle_alpha   93.40945014
_cell_angle_beta   93.40945481
_cell_angle_gamma   93.40944090
_symmetry_Int_Tables_number   1
_chemical_formula_structural   Tm6ScRhO12
_chemical_formula_sum   'Tm6 Sc1 Rh1 O12'
_cell_volume   270.38531319
_cell_formula_units_Z   1
loop_
 _symmetry_equiv_pos_site_id
 _symmetry_equiv_pos_as_xyz
  1  'x, y, z'
loop_
 _atom_site_type_symbol
 _atom_site_label
 _atom_site_symmetry_multiplicity
 _atom_site_fract_x
 _atom_site_fract_y
 _atom_site_fract_z
 _atom_site_occupancy
  Tm  Tm0  1  0.742081  0.921739  0.432749  1
  Tm  Tm1  1  0.921739  0.432749  0.742081  1
  Tm  Tm2  1  0.432749  0.742081  0.921739  1
  Tm  Tm3  1  0.257919  0.078261  0.567251  1
  Tm  Tm4  1  0.078261  0.567251  0.257919  1
  Tm  Tm5  1  0.567251  0.257919  0.078261  1
  Sc  Sc6  1  0.000000  0.000000  0.000000  1
  Rh  Rh7  1  0.500000  0.500000  0.500000  1
  O  O8  1  0.590854  0.460351  0.808116  1
  O  O9  1  0.460351  0.808116  0.590854  1
  O  O10  1  0.808116  0.590854  0.460351  1
  O  O11  1  0.409146  0.539649  0.191884  1
  O  O12  1  0.539649  0.191884  0.409146  1
  O  O13  1  0.191884  0.409146  0.539649  1
  O  O14  1  0.069113  0.915630  0.310758  1
  O  O15  1  0.915630  0.310758  0.069113  1
  O  O16  1  0.689242  0.930887  0.084370  1
  O  O17  1  0.084370  0.689242  0.930887  1
  O  O18  1  0.930887  0.084370  0.689242  1
  O  O19  1  0.310758  0.069113  0.915630  1
