# generated using pymatgen
data_NdHo3(Tc2Ge)8
_symmetry_space_group_name_H-M   'P 1'
_cell_length_a   4.18278900
_cell_length_b   7.28314265
_cell_length_c   15.50121300
_cell_angle_alpha   89.94261093
_cell_angle_beta   90.00000000
_cell_angle_gamma   90.00000000
_symmetry_Int_Tables_number   1
_chemical_formula_structural   NdHo3(Tc2Ge)8
_chemical_formula_sum   'Nd1 Ho3 Tc16 Ge8'
_cell_volume   472.22637490
_cell_formula_units_Z   1
loop_
 _symmetry_equiv_pos_site_id
 _symmetry_equiv_pos_as_xyz
  1  'x, y, z'
loop_
 _atom_site_type_symbol
 _atom_site_label
 _atom_site_symmetry_multiplicity
 _atom_site_fract_x
 _atom_site_fract_y
 _atom_site_fract_z
 _atom_site_occupancy
  Nd  Nd0  1  0.500000  0.919143  0.618314  1
  Ho  Ho1  1  0.000000  0.582508  0.118441  1
  Ho  Ho2  1  0.000000  0.417413  0.882128  1
  Ho  Ho3  1  0.500000  0.083111  0.380440  1
  Tc  Tc4  1  0.000000  0.137993  0.052640  1
  Tc  Tc5  1  0.000000  0.861672  0.948111  1
  Tc  Tc6  1  0.500000  0.638114  0.446058  1
  Tc  Tc7  1  0.500000  0.365046  0.551795  1
  Tc  Tc8  1  0.000000  0.728188  0.319964  1
  Tc  Tc9  1  0.000000  0.273731  0.679756  1
  Tc  Tc10  1  0.500000  0.228170  0.179123  1
  Tc  Tc11  1  0.500000  0.770176  0.822058  1
  Tc  Tc12  1  0.000000  0.437196  0.419178  1
  Tc  Tc13  1  0.000000  0.562746  0.579355  1
  Tc  Tc14  1  0.500000  0.937243  0.080222  1
  Tc  Tc15  1  0.500000  0.062661  0.920411  1
  Tc  Tc16  1  0.000000  0.985759  0.203546  1
  Tc  Tc17  1  0.000000  0.013813  0.797703  1
  Tc  Tc18  1  0.500000  0.485315  0.295805  1
  Tc  Tc19  1  0.500000  0.511495  0.704369  1
  Ge  Ge20  1  0.000000  0.833693  0.474036  1
  Ge  Ge21  1  0.000000  0.168853  0.523202  1
  Ge  Ge22  1  0.500000  0.333934  0.024295  1
  Ge  Ge23  1  0.500000  0.665814  0.976533  1
  Ge  Ge24  1  0.000000  0.289807  0.273354  1
  Ge  Ge25  1  0.000000  0.706426  0.728141  1
  Ge  Ge26  1  0.500000  0.790057  0.226144  1
  Ge  Ge27  1  0.500000  0.209922  0.774878  1
