# generated using pymatgen
data_AgBiRh4(PbO7)2
_symmetry_space_group_name_H-M   'P 1'
_cell_length_a   7.36794153
_cell_length_b   7.22733814
_cell_length_c   7.36794077
_cell_angle_alpha   58.78367911
_cell_angle_beta   59.41132262
_cell_angle_gamma   58.78367656
_symmetry_Int_Tables_number   1
_chemical_formula_structural   AgBiRh4(PbO7)2
_chemical_formula_sum   'Ag1 Bi1 Rh4 Pb2 O14'
_cell_volume   271.03539648
_cell_formula_units_Z   1
loop_
 _symmetry_equiv_pos_site_id
 _symmetry_equiv_pos_as_xyz
  1  'x, y, z'
loop_
 _atom_site_type_symbol
 _atom_site_label
 _atom_site_symmetry_multiplicity
 _atom_site_fract_x
 _atom_site_fract_y
 _atom_site_fract_z
 _atom_site_occupancy
  Ag  Ag0  1  0.125000  0.625000  0.125000  1
  Bi  Bi1  1  0.125000  0.125000  0.125000  1
  Rh  Rh2  1  0.625000  0.625000  0.625000  1
  Rh  Rh3  1  0.625000  0.625000  0.125000  1
  Rh  Rh4  1  0.125000  0.625000  0.625000  1
  Rh  Rh5  1  0.625000  0.125000  0.625000  1
  Pb  Pb6  1  0.625000  0.125000  0.125000  1
  Pb  Pb7  1  0.125000  0.125000  0.625000  1
  O  O8  1  0.239808  0.268709  0.239808  1
  O  O9  1  0.296911  0.710896  0.296911  1
  O  O10  1  0.957143  0.961416  0.538916  1
  O  O11  1  0.540496  0.962938  0.540496  1
  O  O12  1  0.694684  0.709502  0.297406  1
  O  O13  1  0.952594  0.540498  0.555316  1
  O  O14  1  0.709504  0.287062  0.709504  1
  O  O15  1  0.292857  0.288584  0.711084  1
  O  O16  1  0.711084  0.288584  0.292857  1
  O  O17  1  0.297406  0.709502  0.694684  1
  O  O18  1  0.953089  0.539104  0.953089  1
  O  O19  1  0.555316  0.540498  0.952594  1
  O  O20  1  0.010192  0.981291  0.010192  1
  O  O21  1  0.538916  0.961416  0.957143  1
