# generated using pymatgen
data_NaDy(TaS2)8
_symmetry_space_group_name_H-M   'P 1'
_cell_length_a   6.73239486
_cell_length_b   6.73297309
_cell_length_c   14.41368400
_cell_angle_alpha   90.01699393
_cell_angle_beta   90.02895259
_cell_angle_gamma   119.98708938
_symmetry_Int_Tables_number   1
_chemical_formula_structural   NaDy(TaS2)8
_chemical_formula_sum   'Na1 Dy1 Ta8 S16'
_cell_volume   565.89835209
_cell_formula_units_Z   1
loop_
 _symmetry_equiv_pos_site_id
 _symmetry_equiv_pos_as_xyz
  1  'x, y, z'
loop_
 _atom_site_type_symbol
 _atom_site_label
 _atom_site_symmetry_multiplicity
 _atom_site_fract_x
 _atom_site_fract_y
 _atom_site_fract_z
 _atom_site_occupancy
  Na  Na0  1  0.000000  0.000000  0.500000  1
  Dy  Dy1  1  0.000000  0.000000  0.000000  1
  Ta  Ta2  1  0.504359  0.495579  0.759879  1
  Ta  Ta3  1  0.009082  0.504436  0.240097  1
  Ta  Ta4  1  0.495619  0.990958  0.240146  1
  Ta  Ta5  1  0.504381  0.009042  0.759854  1
  Ta  Ta6  1  0.990918  0.495564  0.759903  1
  Ta  Ta7  1  0.495641  0.504421  0.240121  1
  Ta  Ta8  1  0.999875  0.000031  0.759860  1
  Ta  Ta9  1  0.000125  0.999969  0.240140  1
  S  S10  1  0.832794  0.167709  0.345926  1
  S  S11  1  0.832778  0.665092  0.345918  1
  S  S12  1  0.335381  0.167715  0.345945  1
  S  S13  1  0.663750  0.832081  0.868319  1
  S  S14  1  0.167222  0.334908  0.654082  1
  S  S15  1  0.168260  0.832105  0.868337  1
  S  S16  1  0.168229  0.336503  0.868363  1
  S  S17  1  0.831740  0.167895  0.131663  1
  S  S18  1  0.336250  0.167919  0.131681  1
  S  S19  1  0.664619  0.832285  0.654055  1
  S  S20  1  0.333279  0.666455  0.130386  1
  S  S21  1  0.666431  0.333261  0.651176  1
  S  S22  1  0.666721  0.333545  0.869614  1
  S  S23  1  0.333569  0.666739  0.348824  1
  S  S24  1  0.831771  0.663497  0.131637  1
  S  S25  1  0.167206  0.832291  0.654074  1
