# generated using pymatgen
data_Yb4YIn(SbO6)2
_symmetry_space_group_name_H-M   'P 1'
_cell_length_a   6.53752393
_cell_length_b   6.54556278
_cell_length_c   6.55214328
_cell_angle_alpha   91.62753595
_cell_angle_beta   91.40998541
_cell_angle_gamma   91.26991786
_symmetry_Int_Tables_number   1
_chemical_formula_structural   Yb4YIn(SbO6)2
_chemical_formula_sum   'Yb4 Y1 In1 Sb2 O12'
_cell_volume   280.10653093
_cell_formula_units_Z   1
loop_
 _symmetry_equiv_pos_site_id
 _symmetry_equiv_pos_as_xyz
  1  'x, y, z'
loop_
 _atom_site_type_symbol
 _atom_site_label
 _atom_site_symmetry_multiplicity
 _atom_site_fract_x
 _atom_site_fract_y
 _atom_site_fract_z
 _atom_site_occupancy
  Yb  Yb0  1  0.563341  0.061133  0.753625  1
  Yb  Yb1  1  0.936390  0.248541  0.437705  1
  Yb  Yb2  1  0.249126  0.429947  0.940189  1
  Yb  Yb3  1  0.439466  0.946578  0.249182  1
  Y  Y4  1  0.063820  0.754294  0.563552  1
  In  In5  1  0.748770  0.565274  0.056255  1
  Sb  Sb6  1  0.503417  0.501677  0.499148  1
  Sb  Sb7  1  0.996962  0.999665  0.002790  1
  O  O8  1  0.033895  0.698809  0.916528  1
  O  O9  1  0.707962  0.903057  0.044293  1
  O  O10  1  0.917687  0.035131  0.707171  1
  O  O11  1  0.943116  0.295428  0.084586  1
  O  O12  1  0.286586  0.080328  0.957530  1
  O  O13  1  0.081674  0.955208  0.294877  1
  O  O14  1  0.798748  0.579076  0.421042  1
  O  O15  1  0.578490  0.435689  0.794285  1
  O  O16  1  0.421683  0.792662  0.566477  1
  O  O17  1  0.209598  0.436053  0.571112  1
  O  O18  1  0.445142  0.568301  0.202975  1
  O  O19  1  0.574126  0.213151  0.436677  1
