# generated using pymatgen
data_SmY2PtRh8
_symmetry_space_group_name_H-M   'P 1'
_cell_length_a   5.31730300
_cell_length_b   5.31730284
_cell_length_c   17.60285000
_cell_angle_alpha   90.00000000
_cell_angle_beta   90.00000000
_cell_angle_gamma   120.00000724
_symmetry_Int_Tables_number   1
_chemical_formula_structural   SmY2PtRh8
_chemical_formula_sum   'Sm2 Y4 Pt2 Rh16'
_cell_volume   431.01897758
_cell_formula_units_Z   2
loop_
 _symmetry_equiv_pos_site_id
 _symmetry_equiv_pos_as_xyz
  1  'x, y, z'
loop_
 _atom_site_type_symbol
 _atom_site_label
 _atom_site_symmetry_multiplicity
 _atom_site_fract_x
 _atom_site_fract_y
 _atom_site_fract_z
 _atom_site_occupancy
  Sm  Sm0  1  0.333333  0.666667  0.750000  1
  Sm  Sm1  1  0.666667  0.333333  0.250000  1
  Y  Y2  1  0.333333  0.666667  0.542840  1
  Y  Y3  1  0.666667  0.333333  0.042840  1
  Y  Y4  1  0.666667  0.333333  0.457160  1
  Y  Y5  1  0.333333  0.666667  0.957160  1
  Pt  Pt6  1  0.000000  0.000000  0.000000  1
  Pt  Pt7  1  0.000000  0.000000  0.500000  1
  Rh  Rh8  1  0.167540  0.335079  0.126253  1
  Rh  Rh9  1  0.832460  0.664921  0.626253  1
  Rh  Rh10  1  0.664921  0.832460  0.126253  1
  Rh  Rh11  1  0.167540  0.832460  0.126253  1
  Rh  Rh12  1  0.832460  0.167540  0.626253  1
  Rh  Rh13  1  0.335079  0.167540  0.626253  1
  Rh  Rh14  1  0.832460  0.664921  0.873747  1
  Rh  Rh15  1  0.832460  0.167540  0.873747  1
  Rh  Rh16  1  0.335079  0.167540  0.873747  1
  Rh  Rh17  1  0.664921  0.832460  0.373747  1
  Rh  Rh18  1  0.167540  0.832460  0.373747  1
  Rh  Rh19  1  0.167540  0.335079  0.373747  1
  Rh  Rh20  1  0.000000  0.000000  0.250000  1
  Rh  Rh21  1  0.000000  0.000000  0.750000  1
  Rh  Rh22  1  0.333333  0.666667  0.250000  1
  Rh  Rh23  1  0.666667  0.333333  0.750000  1
