# generated using pymatgen
data_Yb6HfGa6(RhO8)3
_symmetry_space_group_name_H-M   'P 1'
_cell_length_a   10.78982806
_cell_length_b   10.77287490
_cell_length_c   10.77287600
_cell_angle_alpha   109.36792858
_cell_angle_beta   109.53181644
_cell_angle_gamma   109.45015110
_symmetry_Int_Tables_number   1
_chemical_formula_structural   Yb6HfGa6(RhO8)3
_chemical_formula_sum   'Yb12 Hf2 Ga12 Rh6 O48'
_cell_volume   964.70947673
_cell_formula_units_Z   2
loop_
 _symmetry_equiv_pos_site_id
 _symmetry_equiv_pos_as_xyz
  1  'x, y, z'
loop_
 _atom_site_type_symbol
 _atom_site_label
 _atom_site_symmetry_multiplicity
 _atom_site_fract_x
 _atom_site_fract_y
 _atom_site_fract_z
 _atom_site_occupancy
  Yb  Yb0  1  0.250000  0.375795  0.125795  1
  Yb  Yb1  1  0.374765  0.751337  0.126362  1
  Yb  Yb2  1  0.375632  0.125784  0.251257  1
  Yb  Yb3  1  0.875631  0.624375  0.249849  1
  Yb  Yb4  1  0.125235  0.251598  0.376572  1
  Yb  Yb5  1  0.750000  0.125322  0.375323  1
  Yb  Yb6  1  0.250000  0.874676  0.624677  1
  Yb  Yb7  1  0.874765  0.748402  0.623428  1
  Yb  Yb8  1  0.124367  0.375625  0.750151  1
  Yb  Yb9  1  0.624368  0.874216  0.748743  1
  Yb  Yb10  1  0.625235  0.248663  0.873636  1
  Yb  Yb11  1  0.750000  0.624205  0.874205  1
  Hf  Hf12  1  0.000000  0.000000  0.000000  1
  Hf  Hf13  1  0.500000  0.500000  0.000000  1
  Ga  Ga14  1  0.750000  0.873890  0.123890  1
  Ga  Ga15  1  0.876836  0.254738  0.128227  1
  Ga  Ga16  1  0.628499  0.372957  0.251525  1
  Ga  Ga17  1  0.128499  0.876974  0.255542  1
  Ga  Ga18  1  0.623164  0.751391  0.377901  1
  Ga  Ga19  1  0.250000  0.624579  0.374579  1
  Ga  Ga20  1  0.750000  0.375421  0.625421  1
  Ga  Ga21  1  0.376836  0.248609  0.622099  1
  Ga  Ga22  1  0.871501  0.123026  0.744459  1
  Ga  Ga23  1  0.371501  0.627043  0.748475  1
  Ga  Ga24  1  0.250001  0.126110  0.876110  1
  Ga  Ga25  1  0.123164  0.745263  0.871773  1
  Rh  Rh26  1  0.499999  0.000000  0.000000  1
  Rh  Rh27  1  0.000000  0.499999  0.000000  1
  Rh  Rh28  1  0.500000  0.000000  0.500000  1
  Rh  Rh29  1  0.000000  0.500000  0.500000  1
  Rh  Rh30  1  0.000000  0.000000  0.499999  1
  Rh  Rh31  1  0.499999  0.499999  0.499999  1
  O  O32  1  0.320771  0.904231  0.022926  1
  O  O33  1  0.210860  0.123467  0.029181  1
  O  O34  1  0.710861  0.681679  0.087393  1
  O  O35  1  0.879050  0.407299  0.083059  1
  O  O36  1  0.978399  0.679189  0.095430  1
  O  O37  1  0.623295  0.413086  0.097694  1
  O  O38  1  0.594255  0.916894  0.121004  1
  O  O39  1  0.026221  0.210186  0.124601  1
  O  O40  1  0.473778  0.598378  0.183964  1
  O  O41  1  0.203176  0.584524  0.178001  1
  O  O42  1  0.123295  0.025602  0.210208  1
  O  O43  1  0.583260  0.175604  0.205551  1
  O  O44  1  0.478399  0.382970  0.299210  1
  O  O45  1  0.323428  0.914431  0.296190  1
  O  O46  1  0.905745  0.026748  0.322639  1
  O  O47  1  0.912995  0.296815  0.323212  1
  O  O48  1  0.296824  0.474825  0.381348  1
  O  O49  1  0.587004  0.910217  0.383819  1
  O  O50  1  0.823427  0.527237  0.408995  1
  O  O51  1  0.083260  0.877709  0.407656  1
  O  O52  1  0.820771  0.797846  0.416539  1
  O  O53  1  0.093535  0.618275  0.414548  1
  O  O54  1  0.593534  0.178986  0.475258  1
  O  O55  1  0.379050  0.295991  0.471752  1
  O  O56  1  0.620950  0.704009  0.528248  1
  O  O57  1  0.406464  0.821013  0.524741  1
  O  O58  1  0.906465  0.381724  0.585452  1
  O  O59  1  0.179229  0.202154  0.583461  1
  O  O60  1  0.916740  0.122291  0.592344  1
  O  O61  1  0.176572  0.472762  0.591003  1
  O  O62  1  0.412996  0.089783  0.616180  1
  O  O63  1  0.703176  0.525175  0.618652  1
  O  O64  1  0.087004  0.703185  0.676788  1
  O  O65  1  0.094255  0.973252  0.677361  1
  O  O66  1  0.676572  0.085568  0.703810  1
  O  O67  1  0.521601  0.617030  0.700790  1
  O  O68  1  0.416740  0.824396  0.794449  1
  O  O69  1  0.876704  0.974397  0.789790  1
  O  O70  1  0.796824  0.415476  0.821999  1
  O  O71  1  0.526221  0.401620  0.816035  1
  O  O72  1  0.973778  0.789812  0.875398  1
  O  O73  1  0.405745  0.083106  0.878996  1
  O  O74  1  0.376704  0.586914  0.902306  1
  O  O75  1  0.021601  0.320811  0.904570  1
  O  O76  1  0.120950  0.592701  0.916941  1
  O  O77  1  0.289139  0.318321  0.912606  1
  O  O78  1  0.679229  0.095769  0.977074  1
  O  O79  1  0.789138  0.876532  0.970818  1
