# generated using pymatgen
data_Li6Ta5ZnRh12
_symmetry_space_group_name_H-M   'P 1'
_cell_length_a   4.35775700
_cell_length_b   6.08064900
_cell_length_c   12.96835201
_cell_angle_alpha   90.00000000
_cell_angle_beta   89.99514175
_cell_angle_gamma   90.00000000
_symmetry_Int_Tables_number   1
_chemical_formula_structural   Li6Ta5ZnRh12
_chemical_formula_sum   'Li6 Ta5 Zn1 Rh12'
_cell_volume   343.63527065
_cell_formula_units_Z   1
loop_
 _symmetry_equiv_pos_site_id
 _symmetry_equiv_pos_as_xyz
  1  'x, y, z'
loop_
 _atom_site_type_symbol
 _atom_site_label
 _atom_site_symmetry_multiplicity
 _atom_site_fract_x
 _atom_site_fract_y
 _atom_site_fract_z
 _atom_site_occupancy
  Li  Li0  1  0.000000  0.000000  0.000000  1
  Li  Li1  1  0.499737  0.500001  0.163924  1
  Li  Li2  1  0.999811  0.000000  0.330299  1
  Li  Li3  1  0.500001  0.500001  0.500000  1
  Li  Li4  1  0.000189  0.000000  0.669702  1
  Li  Li5  1  0.500264  0.500001  0.836076  1
  Ta  Ta6  1  0.499776  0.000000  0.160756  1
  Ta  Ta7  1  0.999817  0.500001  0.330955  1
  Ta  Ta8  1  0.500001  0.000000  0.500000  1
  Ta  Ta9  1  0.000183  0.500001  0.669045  1
  Ta  Ta10  1  0.500224  0.000000  0.839244  1
  Zn  Zn11  1  0.000000  0.500001  0.000000  1
  Rh  Rh12  1  0.500001  0.252985  0.000000  1
  Rh  Rh13  1  0.500001  0.747013  0.000000  1
  Rh  Rh14  1  0.999748  0.251483  0.166270  1
  Rh  Rh15  1  0.999748  0.748518  0.166270  1
  Rh  Rh16  1  0.499815  0.250134  0.332762  1
  Rh  Rh17  1  0.499815  0.749864  0.332762  1
  Rh  Rh18  1  0.000000  0.248974  0.500000  1
  Rh  Rh19  1  0.000000  0.751025  0.500000  1
  Rh  Rh20  1  0.500183  0.250134  0.667239  1
  Rh  Rh21  1  0.500183  0.749864  0.667239  1
  Rh  Rh22  1  0.000250  0.251483  0.833729  1
  Rh  Rh23  1  0.000250  0.748518  0.833729  1
