# generated using pymatgen
data_Ho5MgRu4
_symmetry_space_group_name_H-M   'P 1'
_cell_length_a   3.40160000
_cell_length_b   3.40160000
_cell_length_c   18.19152000
_cell_angle_alpha   90.00000000
_cell_angle_beta   90.00000000
_cell_angle_gamma   90.00000000
_symmetry_Int_Tables_number   1
_chemical_formula_structural   Ho5MgRu4
_chemical_formula_sum   'Ho5 Mg1 Ru4'
_cell_volume   210.49194151
_cell_formula_units_Z   1
loop_
 _symmetry_equiv_pos_site_id
 _symmetry_equiv_pos_as_xyz
  1  'x, y, z'
loop_
 _atom_site_type_symbol
 _atom_site_label
 _atom_site_symmetry_multiplicity
 _atom_site_fract_x
 _atom_site_fract_y
 _atom_site_fract_z
 _atom_site_occupancy
  Ho  Ho0  1  0.000000  0.000000  0.870812  1
  Ho  Ho1  1  0.000000  0.000000  0.129188  1
  Ho  Ho2  1  0.000000  0.000000  0.312079  1
  Ho  Ho3  1  0.000000  0.000000  0.500000  1
  Ho  Ho4  1  0.000000  0.000000  0.687921  1
  Mg  Mg5  1  0.500000  0.500000  0.000000  1
  Ru  Ru6  1  0.500000  0.500000  0.214558  1
  Ru  Ru7  1  0.500000  0.500000  0.405107  1
  Ru  Ru8  1  0.500000  0.500000  0.594893  1
  Ru  Ru9  1  0.500000  0.500000  0.785442  1
