# generated using pymatgen
data_TbEr9(ThCo2)2
_symmetry_space_group_name_H-M   'P 1'
_cell_length_a   6.23585342
_cell_length_b   6.85665392
_cell_length_c   9.46151500
_cell_angle_alpha   90.00000000
_cell_angle_beta   90.00000000
_cell_angle_gamma   90.04772629
_symmetry_Int_Tables_number   1
_chemical_formula_structural   TbEr9(ThCo2)2
_chemical_formula_sum   'Tb1 Er9 Th2 Co4'
_cell_volume   404.54669684
_cell_formula_units_Z   1
loop_
 _symmetry_equiv_pos_site_id
 _symmetry_equiv_pos_as_xyz
  1  'x, y, z'
loop_
 _atom_site_type_symbol
 _atom_site_label
 _atom_site_symmetry_multiplicity
 _atom_site_fract_x
 _atom_site_fract_y
 _atom_site_fract_z
 _atom_site_occupancy
  Tb  Tb0  1  0.858204  0.542298  0.250000  1
  Er  Er1  1  0.325654  0.674262  0.068868  1
  Er  Er2  1  0.175207  0.170471  0.432155  1
  Er  Er3  1  0.674433  0.328411  0.568813  1
  Er  Er4  1  0.823950  0.826523  0.929809  1
  Er  Er5  1  0.674433  0.328411  0.931187  1
  Er  Er6  1  0.823950  0.826523  0.570191  1
  Er  Er7  1  0.325654  0.674262  0.431132  1
  Er  Er8  1  0.175207  0.170471  0.067845  1
  Er  Er9  1  0.355689  0.957327  0.750000  1
  Th  Th10  1  0.654083  0.053592  0.250000  1
  Th  Th11  1  0.154245  0.447844  0.750000  1
  Co  Co12  1  0.033540  0.888922  0.250000  1
  Co  Co13  1  0.456378  0.370099  0.250000  1
  Co  Co14  1  0.958159  0.129199  0.750000  1
  Co  Co15  1  0.531216  0.611384  0.750000  1
