# generated using pymatgen
data_Ca4TmLu3(BO4)4
_symmetry_space_group_name_H-M   'P 1'
_cell_length_a   3.53936100
_cell_length_b   9.57563609
_cell_length_c   10.45099919
_cell_angle_alpha   89.94526522
_cell_angle_beta   90.00000000
_cell_angle_gamma   90.00000000
_symmetry_Int_Tables_number   1
_chemical_formula_structural   Ca4TmLu3(BO4)4
_chemical_formula_sum   'Ca4 Tm1 Lu3 B4 O16'
_cell_volume   354.20126681
_cell_formula_units_Z   1
loop_
 _symmetry_equiv_pos_site_id
 _symmetry_equiv_pos_as_xyz
  1  'x, y, z'
loop_
 _atom_site_type_symbol
 _atom_site_label
 _atom_site_symmetry_multiplicity
 _atom_site_fract_x
 _atom_site_fract_y
 _atom_site_fract_z
 _atom_site_occupancy
  Ca  Ca0  1  0.250000  0.668811  0.084340  1
  Ca  Ca1  1  0.750000  0.331341  0.915159  1
  Ca  Ca2  1  0.750000  0.169073  0.415989  1
  Ca  Ca3  1  0.250000  0.831011  0.584513  1
  Tm  Tm4  1  0.250000  0.085689  0.110793  1
  Lu  Lu5  1  0.750000  0.914362  0.889040  1
  Lu  Lu6  1  0.750000  0.585289  0.389583  1
  Lu  Lu7  1  0.250000  0.414700  0.610533  1
  B  B8  1  0.250000  0.367038  0.200559  1
  B  B9  1  0.750000  0.633310  0.799784  1
  B  B10  1  0.750000  0.866376  0.300026  1
  B  B11  1  0.250000  0.133326  0.700276  1
  O  O12  1  0.250000  0.498775  0.255722  1
  O  O13  1  0.750000  0.501627  0.744243  1
  O  O14  1  0.750000  0.998230  0.244896  1
  O  O15  1  0.250000  0.001526  0.755637  1
  O  O16  1  0.250000  0.245375  0.274013  1
  O  O17  1  0.750000  0.755541  0.726923  1
  O  O18  1  0.750000  0.744400  0.227045  1
  O  O19  1  0.250000  0.255602  0.772913  1
  O  O20  1  0.250000  0.352290  0.067608  1
  O  O21  1  0.750000  0.647516  0.932586  1
  O  O22  1  0.750000  0.852078  0.432883  1
  O  O23  1  0.250000  0.147776  0.567418  1
  O  O24  1  0.250000  0.612605  0.505211  1
  O  O25  1  0.750000  0.387422  0.494835  1
  O  O26  1  0.750000  0.112609  0.992981  1
  O  O27  1  0.250000  0.886301  0.004491  1
