# generated using pymatgen
data_Dy4Ho7Tm9Sn16
_symmetry_space_group_name_H-M   'P 1'
_cell_length_a   7.98381304
_cell_length_b   8.11439939
_cell_length_c   15.34419785
_cell_angle_alpha   90.01218181
_cell_angle_beta   89.99140327
_cell_angle_gamma   90.02395773
_symmetry_Int_Tables_number   1
_chemical_formula_structural   Dy4Ho7Tm9Sn16
_chemical_formula_sum   'Dy4 Ho7 Tm9 Sn16'
_cell_volume   994.05605460
_cell_formula_units_Z   1
loop_
 _symmetry_equiv_pos_site_id
 _symmetry_equiv_pos_as_xyz
  1  'x, y, z'
loop_
 _atom_site_type_symbol
 _atom_site_label
 _atom_site_symmetry_multiplicity
 _atom_site_fract_x
 _atom_site_fract_y
 _atom_site_fract_z
 _atom_site_occupancy
  Dy  Dy0  1  0.479478  0.679211  0.096772  1
  Dy  Dy1  1  0.979133  0.821218  0.402895  1
  Dy  Dy2  1  0.520559  0.320971  0.596840  1
  Dy  Dy3  1  0.021002  0.179125  0.903117  1
  Ho  Ho4  1  0.132256  0.336779  0.377221  1
  Ho  Ho5  1  0.368083  0.836888  0.622421  1
  Ho  Ho6  1  0.867558  0.663310  0.878225  1
  Ho  Ho7  1  0.521269  0.320346  0.903503  1
  Ho  Ho8  1  0.021453  0.179215  0.597221  1
  Ho  Ho9  1  0.478625  0.679250  0.402571  1
  Ho  Ho10  1  0.978630  0.821038  0.097242  1
  Tm  Tm11  1  0.366558  0.837278  0.877124  1
  Tm  Tm12  1  0.866553  0.662702  0.622817  1
  Tm  Tm13  1  0.633344  0.162603  0.377049  1
  Tm  Tm14  1  0.133205  0.337611  0.122544  1
  Tm  Tm15  1  0.632458  0.162575  0.123053  1
  Tm  Tm16  1  0.198129  0.503584  0.750456  1
  Tm  Tm17  1  0.698371  0.996467  0.749865  1
  Tm  Tm18  1  0.801481  0.496218  0.250140  1
  Tm  Tm19  1  0.301723  0.003858  0.249321  1
  Sn  Sn20  1  0.294118  0.037791  0.041443  1
  Sn  Sn21  1  0.792021  0.462864  0.458517  1
  Sn  Sn22  1  0.708068  0.962949  0.541427  1
  Sn  Sn23  1  0.208027  0.537219  0.958553  1
  Sn  Sn24  1  0.704179  0.963806  0.958611  1
  Sn  Sn25  1  0.204471  0.536898  0.542296  1
  Sn  Sn26  1  0.295277  0.036977  0.457512  1
  Sn  Sn27  1  0.794198  0.461243  0.042544  1
  Sn  Sn28  1  0.564230  0.619087  0.750276  1
  Sn  Sn29  1  0.064353  0.880587  0.749993  1
  Sn  Sn30  1  0.436358  0.380008  0.249525  1
  Sn  Sn31  1  0.935238  0.119493  0.249284  1
  Sn  Sn32  1  0.330582  0.148583  0.750382  1
  Sn  Sn33  1  0.830556  0.351803  0.749795  1
  Sn  Sn34  1  0.669147  0.851844  0.249861  1
  Sn  Sn35  1  0.169311  0.648602  0.249578  1
