# generated using pymatgen
data_Tb2DyZn2In3Rh
_symmetry_space_group_name_H-M   'P 1'
_cell_length_a   7.78470979
_cell_length_b   7.77229616
_cell_length_c   3.82420500
_cell_angle_alpha   90.00000000
_cell_angle_beta   90.00000000
_cell_angle_gamma   119.95571258
_symmetry_Int_Tables_number   1
_chemical_formula_structural   Tb2DyZn2In3Rh
_chemical_formula_sum   'Tb2 Dy1 Zn2 In3 Rh1'
_cell_volume   200.47360677
_cell_formula_units_Z   1
loop_
 _symmetry_equiv_pos_site_id
 _symmetry_equiv_pos_as_xyz
  1  'x, y, z'
loop_
 _atom_site_type_symbol
 _atom_site_label
 _atom_site_symmetry_multiplicity
 _atom_site_fract_x
 _atom_site_fract_y
 _atom_site_fract_z
 _atom_site_occupancy
  Tb  Tb0  1  0.025549  0.611876  0.500000  1
  Tb  Tb1  1  0.586435  0.974203  0.500000  1
  Dy  Dy2  1  0.387424  0.414102  0.500000  1
  Zn  Zn3  1  0.000291  0.000337  0.500000  1
  Zn  Zn4  1  0.666260  0.333623  0.000000  1
  In  In5  1  0.992858  0.260899  0.000000  1
  In  In6  1  0.268677  0.008401  0.000000  1
  In  In7  1  0.738725  0.730941  0.000000  1
  Rh  Rh8  1  0.333779  0.665619  0.000000  1
