# generated using pymatgen
data_SrPrTaCoO6
_symmetry_space_group_name_H-M   'P 1'
_cell_length_a   8.08532662
_cell_length_b   8.05725321
_cell_length_c   9.77122718
_cell_angle_alpha   66.45322373
_cell_angle_beta   66.34827203
_cell_angle_gamma   91.40615496
_symmetry_Int_Tables_number   1
_chemical_formula_structural   SrPrTaCoO6
_chemical_formula_sum   'Sr4 Pr4 Ta4 Co4 O24'
_cell_volume   521.42533118
_cell_formula_units_Z   4
loop_
 _symmetry_equiv_pos_site_id
 _symmetry_equiv_pos_as_xyz
  1  'x, y, z'
loop_
 _atom_site_type_symbol
 _atom_site_label
 _atom_site_symmetry_multiplicity
 _atom_site_fract_x
 _atom_site_fract_y
 _atom_site_fract_z
 _atom_site_occupancy
  Sr  Sr0  1  0.390723  0.353719  0.249044  1
  Sr  Sr1  1  0.889201  0.851831  0.250204  1
  Sr  Sr2  1  0.103277  0.639302  0.750280  1
  Sr  Sr3  1  0.602027  0.140034  0.749776  1
  Pr  Pr4  1  0.411180  0.856673  0.245839  1
  Pr  Pr5  1  0.911905  0.355159  0.246959  1
  Pr  Pr6  1  0.104530  0.160185  0.747611  1
  Pr  Pr7  1  0.605635  0.662030  0.746518  1
  Ta  Ta8  1  0.747333  0.253309  0.999700  1
  Ta  Ta9  1  0.247461  0.752814  0.000029  1
  Ta  Ta10  1  0.003578  0.996917  0.499671  1
  Ta  Ta11  1  0.502449  0.497357  0.499895  1
  Co  Co12  1  0.999455  0.502333  0.499247  1
  Co  Co13  1  0.251566  0.248828  0.999354  1
  Co  Co14  1  0.499964  0.002636  0.499089  1
  Co  Co15  1  0.752489  0.749023  0.999471  1
  O  O16  1  0.350656  0.822882  0.757234  1
  O  O17  1  0.850563  0.322029  0.757141  1
  O  O18  1  0.572336  0.601360  0.256975  1
  O  O19  1  0.073410  0.099921  0.256569  1
  O  O20  1  0.760899  0.987965  0.043578  1
  O  O21  1  0.259188  0.487857  0.043804  1
  O  O22  1  0.237952  0.509007  0.544158  1
  O  O23  1  0.738860  0.010170  0.543368  1
  O  O24  1  0.553280  0.760755  0.463590  1
  O  O25  1  0.053551  0.260836  0.462628  1
  O  O26  1  0.009915  0.304224  0.963211  1
  O  O27  1  0.510091  0.802914  0.963155  1
  O  O28  1  0.485127  0.178534  0.046190  1
  O  O29  1  0.984206  0.679586  0.047028  1
  O  O30  1  0.928841  0.733706  0.546093  1
  O  O31  1  0.428454  0.233477  0.546413  1
  O  O32  1  0.263730  0.972285  0.451703  1
  O  O33  1  0.762922  0.471599  0.451661  1
  O  O34  1  0.722617  0.515030  0.950941  1
  O  O35  1  0.223091  0.014800  0.951514  1
  O  O36  1  0.937818  0.915331  0.742616  1
  O  O37  1  0.438106  0.416340  0.742717  1
  O  O38  1  0.165656  0.688510  0.242610  1
  O  O39  1  0.665958  0.188730  0.242411  1
