# generated using pymatgen
data_Na2Ni12P7
_symmetry_space_group_name_H-M   'P 1'
_cell_length_a   9.05608700
_cell_length_b   9.05608777
_cell_length_c   3.59526700
_cell_angle_alpha   90.00000000
_cell_angle_beta   90.00000000
_cell_angle_gamma   120.00000084
_symmetry_Int_Tables_number   1
_chemical_formula_structural   Na2Ni12P7
_chemical_formula_sum   'Na2 Ni12 P7'
_cell_volume   255.35418826
_cell_formula_units_Z   1
loop_
 _symmetry_equiv_pos_site_id
 _symmetry_equiv_pos_as_xyz
  1  'x, y, z'
loop_
 _atom_site_type_symbol
 _atom_site_label
 _atom_site_symmetry_multiplicity
 _atom_site_fract_x
 _atom_site_fract_y
 _atom_site_fract_z
 _atom_site_occupancy
  Na  Na0  1  0.666667  0.333333  0.500000  1
  Na  Na1  1  0.333333  0.666667  0.000000  1
  Ni  Ni2  1  0.724185  0.880517  0.000000  1
  Ni  Ni3  1  0.941039  0.374850  0.000000  1
  Ni  Ni4  1  0.213220  0.091102  0.500000  1
  Ni  Ni5  1  0.908898  0.122118  0.500000  1
  Ni  Ni6  1  0.156332  0.275815  0.000000  1
  Ni  Ni7  1  0.381285  0.431215  0.500000  1
  Ni  Ni8  1  0.119483  0.843668  0.000000  1
  Ni  Ni9  1  0.433811  0.058961  0.000000  1
  Ni  Ni10  1  0.049930  0.618715  0.500000  1
  Ni  Ni11  1  0.568785  0.950070  0.500000  1
  Ni  Ni12  1  0.625150  0.566189  0.000000  1
  Ni  Ni13  1  0.877882  0.786780  0.500000  1
  P  P14  1  0.411421  0.293540  0.000000  1
  P  P15  1  0.294774  0.888224  0.500000  1
  P  P16  1  0.706460  0.117882  0.000000  1
  P  P17  1  0.593451  0.705226  0.500000  1
  P  P18  1  0.882118  0.588579  0.000000  1
  P  P19  1  0.111776  0.406549  0.500000  1
  P  P20  1  0.000000  0.000000  0.000000  1
