# generated using pymatgen
data_AcNd(Al3Ni2)2
_symmetry_space_group_name_H-M   'P 1'
_cell_length_a   6.46721426
_cell_length_b   6.46721532
_cell_length_c   5.13943500
_cell_angle_alpha   90.00000000
_cell_angle_beta   90.00000000
_cell_angle_gamma   104.92488937
_symmetry_Int_Tables_number   1
_chemical_formula_structural   AcNd(Al3Ni2)2
_chemical_formula_sum   'Ac1 Nd1 Al6 Ni4'
_cell_volume   207.70448640
_cell_formula_units_Z   1
loop_
 _symmetry_equiv_pos_site_id
 _symmetry_equiv_pos_as_xyz
  1  'x, y, z'
loop_
 _atom_site_type_symbol
 _atom_site_label
 _atom_site_symmetry_multiplicity
 _atom_site_fract_x
 _atom_site_fract_y
 _atom_site_fract_z
 _atom_site_occupancy
  Ac  Ac0  1  0.647592  0.647592  0.250000  1
  Nd  Nd1  1  0.338157  0.338157  0.750000  1
  Al  Al2  1  0.062431  0.062431  0.250000  1
  Al  Al3  1  0.939995  0.939995  0.750000  1
  Al  Al4  1  0.083070  0.474404  0.250000  1
  Al  Al5  1  0.925396  0.524940  0.750000  1
  Al  Al6  1  0.474404  0.083070  0.250000  1
  Al  Al7  1  0.524940  0.925396  0.750000  1
  Ni  Ni8  1  0.800199  0.201809  0.999997  1
  Ni  Ni9  1  0.201809  0.800199  0.999997  1
  Ni  Ni10  1  0.201809  0.800199  0.500003  1
  Ni  Ni11  1  0.800199  0.201809  0.500003  1
