# generated using pymatgen
data_Ti7NbAl15Ir7
_symmetry_space_group_name_H-M   'P 1'
_cell_length_a   8.66394915
_cell_length_b   8.66826943
_cell_length_c   8.66332760
_cell_angle_alpha   120.02435873
_cell_angle_beta   119.91163330
_cell_angle_gamma   90.06647618
_symmetry_Int_Tables_number   1
_chemical_formula_structural   Ti7NbAl15Ir7
_chemical_formula_sum   'Ti7 Nb1 Al15 Ir7'
_cell_volume   460.24125922
_cell_formula_units_Z   1
loop_
 _symmetry_equiv_pos_site_id
 _symmetry_equiv_pos_as_xyz
  1  'x, y, z'
loop_
 _atom_site_type_symbol
 _atom_site_label
 _atom_site_symmetry_multiplicity
 _atom_site_fract_x
 _atom_site_fract_y
 _atom_site_fract_z
 _atom_site_occupancy
  Ti  Ti0  1  0.215900  0.289873  0.497384  1
  Ti  Ti1  1  0.206970  0.706909  0.498178  1
  Ti  Ti2  1  0.218269  0.719665  0.929047  1
  Ti  Ti3  1  0.791134  0.715438  0.498345  1
  Ti  Ti4  1  0.781712  0.281702  0.497051  1
  Ti  Ti5  1  0.379328  0.123442  0.744850  1
  Ti  Ti6  1  0.378736  0.635406  0.255463  1
  Nb  Nb7  1  0.794822  0.294645  0.082853  1
  Al  Al8  1  0.001709  0.500802  0.509969  1
  Al  Al9  1  0.155495  0.341811  0.186375  1
  Al  Al10  1  0.153463  0.963960  0.809903  1
  Al  Al11  1  0.149691  0.346731  0.802490  1
  Al  Al12  1  0.537542  0.345192  0.192926  1
  Al  Al13  1  0.845818  0.652077  0.806056  1
  Al  Al14  1  0.844338  0.034647  0.190543  1
  Al  Al15  1  0.841099  0.656537  0.184565  1
  Al  Al16  1  0.466210  0.654593  0.811302  1
  Al  Al17  1  0.379839  0.121673  0.258597  1
  Al  Al18  1  0.864030  0.122064  0.742878  1
  Al  Al19  1  0.621463  0.877577  0.257097  1
  Al  Al20  1  0.620962  0.364755  0.743337  1
  Al  Al21  1  0.621058  0.878199  0.743118  1
  Al  Al22  1  0.135799  0.878323  0.257606  1
  Ir  Ir23  1  0.001175  0.999312  0.501489  1
  Ir  Ir24  1  0.496811  0.998437  0.998654  1
  Ir  Ir25  1  0.496064  0.498271  0.999587  1
  Ir  Ir26  1  0.497860  0.499692  0.498079  1
  Ir  Ir27  1  0.002101  0.500472  0.001394  1
  Ir  Ir28  1  0.000287  0.998069  0.999980  1
  Ir  Ir29  1  0.500309  0.999728  0.500885  1
