# generated using pymatgen
data_La8Pr2Ir5Ru
_symmetry_space_group_name_H-M   'P 1'
_cell_length_a   11.42612500
_cell_length_b   11.42612500
_cell_length_c   6.68041800
_cell_angle_alpha   90.00000000
_cell_angle_beta   90.00000000
_cell_angle_gamma   90.00000000
_symmetry_Int_Tables_number   1
_chemical_formula_structural   La8Pr2Ir5Ru
_chemical_formula_sum   'La16 Pr4 Ir10 Ru2'
_cell_volume   872.17087375
_cell_formula_units_Z   2
loop_
 _symmetry_equiv_pos_site_id
 _symmetry_equiv_pos_as_xyz
  1  'x, y, z'
loop_
 _atom_site_type_symbol
 _atom_site_label
 _atom_site_symmetry_multiplicity
 _atom_site_fract_x
 _atom_site_fract_y
 _atom_site_fract_z
 _atom_site_occupancy
  La  La0  1  0.293964  0.088236  0.388373  1
  La  La1  1  0.293964  0.911764  0.888373  1
  La  La2  1  0.706036  0.088236  0.888373  1
  La  La3  1  0.706036  0.911764  0.388373  1
  La  La4  1  0.588236  0.793964  0.888373  1
  La  La5  1  0.588236  0.206036  0.388373  1
  La  La6  1  0.411764  0.793964  0.388373  1
  La  La7  1  0.411764  0.206036  0.888373  1
  La  La8  1  0.208897  0.408658  0.615917  1
  La  La9  1  0.208897  0.591342  0.115917  1
  La  La10  1  0.791103  0.408658  0.115917  1
  La  La11  1  0.791103  0.591342  0.615917  1
  La  La12  1  0.908658  0.708897  0.115917  1
  La  La13  1  0.908658  0.291103  0.615917  1
  La  La14  1  0.091342  0.708897  0.615917  1
  La  La15  1  0.091342  0.291103  0.115917  1
  Pr  Pr16  1  0.000000  0.000000  0.494374  1
  Pr  Pr17  1  0.000000  0.000000  0.994374  1
  Pr  Pr18  1  0.500000  0.500000  0.994374  1
  Pr  Pr19  1  0.500000  0.500000  0.494374  1
  Ir  Ir20  1  0.847321  0.155116  0.248105  1
  Ir  Ir21  1  0.847321  0.844884  0.748105  1
  Ir  Ir22  1  0.152679  0.155116  0.748105  1
  Ir  Ir23  1  0.152679  0.844884  0.248105  1
  Ir  Ir24  1  0.655116  0.347321  0.748105  1
  Ir  Ir25  1  0.655116  0.652679  0.248105  1
  Ir  Ir26  1  0.344884  0.347321  0.248105  1
  Ir  Ir27  1  0.344884  0.652679  0.748105  1
  Ir  Ir28  1  0.000000  0.500000  0.881296  1
  Ir  Ir29  1  0.000000  0.500000  0.381296  1
  Ru  Ru30  1  0.500000  0.000000  0.120383  1
  Ru  Ru31  1  0.500000  0.000000  0.620383  1
