# generated using pymatgen
data_Rb2Li14Hf3O14
_symmetry_space_group_name_H-M   'P 1'
_cell_length_a   8.26252140
_cell_length_b   8.26252092
_cell_length_c   8.26252097
_cell_angle_alpha   127.53190889
_cell_angle_beta   123.38147164
_cell_angle_gamma   80.82712146
_symmetry_Int_Tables_number   1
_chemical_formula_structural   Rb2Li14Hf3O14
_chemical_formula_sum   'Rb2 Li14 Hf3 O14'
_cell_volume   360.12399045
_cell_formula_units_Z   1
loop_
 _symmetry_equiv_pos_site_id
 _symmetry_equiv_pos_as_xyz
  1  'x, y, z'
loop_
 _atom_site_type_symbol
 _atom_site_label
 _atom_site_symmetry_multiplicity
 _atom_site_fract_x
 _atom_site_fract_y
 _atom_site_fract_z
 _atom_site_occupancy
  Rb  Rb0  1  0.500000  0.768310  0.268310  1
  Rb  Rb1  1  0.500000  0.231690  0.731690  1
  Li  Li2  1  0.705267  0.135972  0.113378  1
  Li  Li3  1  0.977406  0.864028  0.569295  1
  Li  Li4  1  0.022594  0.591889  0.886622  1
  Li  Li5  1  0.294733  0.408111  0.430705  1
  Li  Li6  1  0.022594  0.135972  0.430705  1
  Li  Li7  1  0.844530  0.500000  0.344530  1
  Li  Li8  1  0.155470  0.500000  0.655470  1
  Li  Li9  1  0.413716  0.770635  0.643081  1
  Li  Li10  1  0.586284  0.229365  0.356919  1
  Li  Li11  1  0.872446  0.229365  0.643081  1
  Li  Li12  1  0.127554  0.770635  0.356919  1
  Li  Li13  1  0.705267  0.591889  0.569295  1
  Li  Li14  1  0.294733  0.864028  0.886622  1
  Li  Li15  1  0.977406  0.408111  0.113378  1
  Hf  Hf16  1  0.000000  0.000000  0.000000  1
  Hf  Hf17  1  0.269813  0.269813  0.000000  1
  Hf  Hf18  1  0.730187  0.730187  0.000000  1
  O  O19  1  0.049704  0.872702  0.177002  1
  O  O20  1  0.424028  0.631957  0.792071  1
  O  O21  1  0.839885  0.631957  0.207929  1
  O  O22  1  0.575972  0.368043  0.207929  1
  O  O23  1  0.160115  0.368043  0.792071  1
  O  O24  1  0.745503  0.029743  0.284241  1
  O  O25  1  0.254497  0.538739  0.284241  1
  O  O26  1  0.254497  0.970257  0.715759  1
  O  O27  1  0.745503  0.461261  0.715759  1
  O  O28  1  0.000000  0.714074  0.714074  1
  O  O29  1  0.000000  0.285926  0.285926  1
  O  O30  1  0.695699  0.872702  0.822998  1
  O  O31  1  0.304301  0.127298  0.177002  1
  O  O32  1  0.950296  0.127298  0.822998  1
