# generated using pymatgen
data_Li2Ni9MoAs7Ru2
_symmetry_space_group_name_H-M   'P 1'
_cell_length_a   9.44726477
_cell_length_b   9.44051290
_cell_length_c   3.73573000
_cell_angle_alpha   90.00000000
_cell_angle_beta   90.00000000
_cell_angle_gamma   119.97729371
_symmetry_Int_Tables_number   1
_chemical_formula_structural   Li2Ni9MoAs7Ru2
_chemical_formula_sum   'Li2 Ni9 Mo1 As7 Ru2'
_cell_volume   288.60716707
_cell_formula_units_Z   1
loop_
 _symmetry_equiv_pos_site_id
 _symmetry_equiv_pos_as_xyz
  1  'x, y, z'
loop_
 _atom_site_type_symbol
 _atom_site_label
 _atom_site_symmetry_multiplicity
 _atom_site_fract_x
 _atom_site_fract_y
 _atom_site_fract_z
 _atom_site_occupancy
  Li  Li0  1  0.333881  0.667334  0.000000  1
  Li  Li1  1  0.000056  0.000629  0.500000  1
  Ni  Ni2  1  0.279843  0.380758  0.500000  1
  Ni  Ni3  1  0.613889  0.895663  0.500000  1
  Ni  Ni4  1  0.102080  0.720543  0.500000  1
  Ni  Ni5  1  0.497441  0.454465  0.000000  1
  Ni  Ni6  1  0.545384  0.047954  0.000000  1
  Ni  Ni7  1  0.955433  0.499789  0.000000  1
  Ni  Ni8  1  0.722311  0.764330  0.000000  1
  Ni  Ni9  1  0.233218  0.955283  0.000000  1
  Ni  Ni10  1  0.043321  0.278799  0.000000  1
  Mo  Mo11  1  0.789543  0.239350  0.500000  1
  As  As12  1  0.958837  0.752464  0.000000  1
  As  As13  1  0.247785  0.205504  0.000000  1
  As  As14  1  0.792822  0.037808  0.000000  1
  As  As15  1  0.665126  0.337493  0.000000  1
  As  As16  1  0.540161  0.623506  0.500000  1
  As  As17  1  0.375061  0.915877  0.500000  1
  As  As18  1  0.088047  0.462897  0.500000  1
  Ru  Ru19  1  0.761863  0.549197  0.500000  1
  Ru  Ru20  1  0.453899  0.210357  0.500000  1
