# generated using pymatgen
data_NdAl2Au5
_symmetry_space_group_name_H-M   'P 1'
_cell_length_a   7.34072600
_cell_length_b   8.75997300
_cell_length_c   9.82868000
_cell_angle_alpha   90.00000000
_cell_angle_beta   90.00000000
_cell_angle_gamma   90.00000000
_symmetry_Int_Tables_number   1
_chemical_formula_structural   NdAl2Au5
_chemical_formula_sum   'Nd4 Al8 Au20'
_cell_volume   632.02895812
_cell_formula_units_Z   4
loop_
 _symmetry_equiv_pos_site_id
 _symmetry_equiv_pos_as_xyz
  1  'x, y, z'
loop_
 _atom_site_type_symbol
 _atom_site_label
 _atom_site_symmetry_multiplicity
 _atom_site_fract_x
 _atom_site_fract_y
 _atom_site_fract_z
 _atom_site_occupancy
  Nd  Nd0  1  0.250000  0.252489  0.125626  1
  Nd  Nd1  1  0.250000  0.752489  0.374374  1
  Nd  Nd2  1  0.750000  0.747511  0.874374  1
  Nd  Nd3  1  0.750000  0.247511  0.625626  1
  Al  Al4  1  0.250000  0.045118  0.611490  1
  Al  Al5  1  0.250000  0.545118  0.888510  1
  Al  Al6  1  0.750000  0.954882  0.388510  1
  Al  Al7  1  0.750000  0.454882  0.111490  1
  Al  Al8  1  0.250000  0.354351  0.483290  1
  Al  Al9  1  0.250000  0.854351  0.016710  1
  Al  Al10  1  0.750000  0.645649  0.516710  1
  Al  Al11  1  0.750000  0.145649  0.983290  1
  Au  Au12  1  0.058067  0.107205  0.393616  1
  Au  Au13  1  0.441933  0.607205  0.106384  1
  Au  Au14  1  0.558067  0.892795  0.606384  1
  Au  Au15  1  0.941933  0.392795  0.893616  1
  Au  Au16  1  0.941933  0.892795  0.606384  1
  Au  Au17  1  0.558067  0.392795  0.893616  1
  Au  Au18  1  0.441933  0.107205  0.393616  1
  Au  Au19  1  0.058067  0.607205  0.106384  1
  Au  Au20  1  0.033483  0.054339  0.862848  1
  Au  Au21  1  0.466517  0.554339  0.637152  1
  Au  Au22  1  0.533483  0.945661  0.137152  1
  Au  Au23  1  0.966517  0.445661  0.362848  1
  Au  Au24  1  0.966517  0.945661  0.137152  1
  Au  Au25  1  0.533483  0.445661  0.362848  1
  Au  Au26  1  0.466517  0.054339  0.862848  1
  Au  Au27  1  0.033483  0.554339  0.637152  1
  Au  Au28  1  0.250000  0.293570  0.737847  1
  Au  Au29  1  0.250000  0.793570  0.762153  1
  Au  Au30  1  0.750000  0.706430  0.262153  1
  Au  Au31  1  0.750000  0.206430  0.237847  1
