# generated using pymatgen
data_SrCoP2Os
_symmetry_space_group_name_H-M   'P 1'
_cell_length_a   6.54898704
_cell_length_b   6.54898645
_cell_length_c   6.54898674
_cell_angle_alpha   145.45409901
_cell_angle_beta   145.45409286
_cell_angle_gamma   49.65832170
_symmetry_Int_Tables_number   1
_chemical_formula_structural   SrCoP2Os
_chemical_formula_sum   'Sr1 Co1 P2 Os1'
_cell_volume   89.89809488
_cell_formula_units_Z   1
loop_
 _symmetry_equiv_pos_site_id
 _symmetry_equiv_pos_as_xyz
  1  'x, y, z'
loop_
 _atom_site_type_symbol
 _atom_site_label
 _atom_site_symmetry_multiplicity
 _atom_site_fract_x
 _atom_site_fract_y
 _atom_site_fract_z
 _atom_site_occupancy
  Sr  Sr0  1  0.000000  0.000000  0.000000  1
  Co  Co1  1  0.250000  0.750000  0.500000  1
  P  P2  1  0.647670  0.647670  0.000000  1
  P  P3  1  0.352330  0.352330  0.000000  1
  Os  Os4  1  0.750000  0.250000  0.500000  1
