# generated using pymatgen
data_Tb2PaV(Co4P3)2
_symmetry_space_group_name_H-M   'P 1'
_cell_length_a   3.72549300
_cell_length_b   10.59508600
_cell_length_c   12.18347600
_cell_angle_alpha   90.00000000
_cell_angle_beta   90.00000000
_cell_angle_gamma   90.00000000
_symmetry_Int_Tables_number   1
_chemical_formula_structural   Tb2PaV(Co4P3)2
_chemical_formula_sum   'Tb4 Pa2 V2 Co16 P12'
_cell_volume   480.90517449
_cell_formula_units_Z   2
loop_
 _symmetry_equiv_pos_site_id
 _symmetry_equiv_pos_as_xyz
  1  'x, y, z'
loop_
 _atom_site_type_symbol
 _atom_site_label
 _atom_site_symmetry_multiplicity
 _atom_site_fract_x
 _atom_site_fract_y
 _atom_site_fract_z
 _atom_site_occupancy
  Tb  Tb0  1  0.500000  0.816704  0.203939  1
  Tb  Tb1  1  0.500000  0.183296  0.203939  1
  Tb  Tb2  1  0.000000  0.683296  0.796061  1
  Tb  Tb3  1  0.000000  0.316704  0.796061  1
  Pa  Pa4  1  0.000000  0.500000  0.529074  1
  Pa  Pa5  1  0.500000  0.000000  0.470926  1
  V  V6  1  0.500000  0.500000  0.153552  1
  V  V7  1  0.000000  0.000000  0.846448  1
  Co  Co8  1  0.500000  0.500000  0.695161  1
  Co  Co9  1  0.000000  0.000000  0.304839  1
  Co  Co10  1  0.000000  0.500000  0.986433  1
  Co  Co11  1  0.500000  0.000000  0.013567  1
  Co  Co12  1  0.500000  0.333346  0.992395  1
  Co  Co13  1  0.500000  0.666654  0.992395  1
  Co  Co14  1  0.000000  0.166654  0.007605  1
  Co  Co15  1  0.000000  0.833346  0.007605  1
  Co  Co16  1  0.500000  0.299438  0.433464  1
  Co  Co17  1  0.500000  0.700562  0.433464  1
  Co  Co18  1  0.000000  0.200562  0.566536  1
  Co  Co19  1  0.000000  0.799438  0.566536  1
  Co  Co20  1  0.500000  0.880492  0.707967  1
  Co  Co21  1  0.500000  0.119508  0.707967  1
  Co  Co22  1  0.000000  0.619508  0.292033  1
  Co  Co23  1  0.000000  0.380492  0.292033  1
  P  P24  1  0.500000  0.500000  0.879140  1
  P  P25  1  0.000000  0.000000  0.120860  1
  P  P26  1  0.500000  0.500000  0.344820  1
  P  P27  1  0.000000  0.000000  0.655180  1
  P  P28  1  0.500000  0.307400  0.617153  1
  P  P29  1  0.500000  0.692600  0.617153  1
  P  P30  1  0.000000  0.192600  0.382847  1
  P  P31  1  0.000000  0.807400  0.382847  1
  P  P32  1  0.500000  0.846639  0.893089  1
  P  P33  1  0.500000  0.153361  0.893089  1
  P  P34  1  0.000000  0.653361  0.106911  1
  P  P35  1  0.000000  0.346639  0.106911  1
