# generated using pymatgen
data_Li2TbDySi2Sn
_symmetry_space_group_name_H-M   'P 1'
_cell_length_a   9.57109101
_cell_length_b   9.57109144
_cell_length_c   6.77129300
_cell_angle_alpha   90.00000000
_cell_angle_beta   90.00000000
_cell_angle_gamma   153.48997582
_symmetry_Int_Tables_number   1
_chemical_formula_structural   Li2TbDySi2Sn
_chemical_formula_sum   'Li4 Tb2 Dy2 Si4 Sn2'
_cell_volume   276.86899085
_cell_formula_units_Z   2
loop_
 _symmetry_equiv_pos_site_id
 _symmetry_equiv_pos_as_xyz
  1  'x, y, z'
loop_
 _atom_site_type_symbol
 _atom_site_label
 _atom_site_symmetry_multiplicity
 _atom_site_fract_x
 _atom_site_fract_y
 _atom_site_fract_z
 _atom_site_occupancy
  Li  Li0  1  0.184432  0.815568  0.055203  1
  Li  Li1  1  0.184432  0.815568  0.444797  1
  Li  Li2  1  0.815568  0.184432  0.944797  1
  Li  Li3  1  0.815568  0.184432  0.555203  1
  Tb  Tb4  1  0.548673  0.451327  0.250000  1
  Tb  Tb5  1  0.451327  0.548673  0.750000  1
  Dy  Dy6  1  0.351446  0.648554  0.250000  1
  Dy  Dy7  1  0.648554  0.351446  0.750000  1
  Si  Si8  1  0.057901  0.942099  0.927117  1
  Si  Si9  1  0.942099  0.057901  0.072883  1
  Si  Si10  1  0.942099  0.057901  0.427117  1
  Si  Si11  1  0.057901  0.942099  0.572883  1
  Sn  Sn12  1  0.720331  0.279669  0.250000  1
  Sn  Sn13  1  0.279669  0.720331  0.750000  1
