# generated using pymatgen
data_Y4Mn(Ga8Co)2
_symmetry_space_group_name_H-M   'P 1'
_cell_length_a   6.06409400
_cell_length_b   6.06409400
_cell_length_c   11.18354800
_cell_angle_alpha   90.00000000
_cell_angle_beta   90.00000000
_cell_angle_gamma   90.00000000
_symmetry_Int_Tables_number   1
_chemical_formula_structural   Y4Mn(Ga8Co)2
_chemical_formula_sum   'Y4 Mn1 Ga16 Co2'
_cell_volume   411.25525038
_cell_formula_units_Z   1
loop_
 _symmetry_equiv_pos_site_id
 _symmetry_equiv_pos_as_xyz
  1  'x, y, z'
loop_
 _atom_site_type_symbol
 _atom_site_label
 _atom_site_symmetry_multiplicity
 _atom_site_fract_x
 _atom_site_fract_y
 _atom_site_fract_z
 _atom_site_occupancy
  Y  Y0  1  0.500000  0.000000  0.806528  1
  Y  Y1  1  0.000000  0.500000  0.806528  1
  Y  Y2  1  0.500000  0.000000  0.193472  1
  Y  Y3  1  0.000000  0.500000  0.193472  1
  Mn  Mn4  1  0.000000  0.000000  0.000000  1
  Ga  Ga5  1  0.249370  0.249370  0.614549  1
  Ga  Ga6  1  0.750630  0.750630  0.614549  1
  Ga  Ga7  1  0.750630  0.249370  0.614549  1
  Ga  Ga8  1  0.249370  0.750630  0.614549  1
  Ga  Ga9  1  0.750630  0.750630  0.385451  1
  Ga  Ga10  1  0.249370  0.249370  0.385451  1
  Ga  Ga11  1  0.249370  0.750630  0.385451  1
  Ga  Ga12  1  0.750630  0.249370  0.385451  1
  Ga  Ga13  1  0.284215  0.284215  0.000000  1
  Ga  Ga14  1  0.715785  0.715785  0.000000  1
  Ga  Ga15  1  0.715785  0.284215  0.000000  1
  Ga  Ga16  1  0.284215  0.715785  0.000000  1
  Ga  Ga17  1  0.500000  0.500000  0.802709  1
  Ga  Ga18  1  0.500000  0.500000  0.197291  1
  Ga  Ga19  1  0.000000  0.000000  0.779110  1
  Ga  Ga20  1  0.000000  0.000000  0.220890  1
  Co  Co21  1  0.500000  0.000000  0.500000  1
  Co  Co22  1  0.000000  0.500000  0.500000  1
