# generated using pymatgen
data_Tb5Dy5(Pb3S)2
_symmetry_space_group_name_H-M   'P 1'
_cell_length_a   9.18118200
_cell_length_b   9.18126061
_cell_length_c   6.74185100
_cell_angle_alpha   90.00000000
_cell_angle_beta   90.00000000
_cell_angle_gamma   120.01937643
_symmetry_Int_Tables_number   1
_chemical_formula_structural   Tb5Dy5(Pb3S)2
_chemical_formula_sum   'Tb5 Dy5 Pb6 S2'
_cell_volume   492.06883977
_cell_formula_units_Z   1
loop_
 _symmetry_equiv_pos_site_id
 _symmetry_equiv_pos_as_xyz
  1  'x, y, z'
loop_
 _atom_site_type_symbol
 _atom_site_label
 _atom_site_symmetry_multiplicity
 _atom_site_fract_x
 _atom_site_fract_y
 _atom_site_fract_z
 _atom_site_occupancy
  Tb  Tb0  1  0.243755  0.000550  0.750000  1
  Tb  Tb1  1  0.000578  0.243766  0.750000  1
  Tb  Tb2  1  0.242603  0.242615  0.250000  1
  Tb  Tb3  1  0.756401  0.999530  0.250000  1
  Tb  Tb4  1  0.999554  0.756411  0.250000  1
  Dy  Dy5  1  0.757489  0.757513  0.750000  1
  Dy  Dy6  1  0.666665  0.333221  0.999974  1
  Dy  Dy7  1  0.333231  0.666660  0.999971  1
  Dy  Dy8  1  0.333231  0.666660  0.500029  1
  Dy  Dy9  1  0.666665  0.333221  0.500026  1
  Pb  Pb10  1  0.398289  0.398297  0.750000  1
  Pb  Pb11  1  0.603223  0.999636  0.750000  1
  Pb  Pb12  1  0.999612  0.603207  0.750000  1
  Pb  Pb13  1  0.602368  0.602363  0.250000  1
  Pb  Pb14  1  0.396947  0.999919  0.250000  1
  Pb  Pb15  1  0.999924  0.396958  0.250000  1
  S  S16  1  0.999736  0.999737  0.999732  1
  S  S17  1  0.999736  0.999737  0.500268  1
