# generated using pymatgen
data_Sr2TmOsO6
_symmetry_space_group_name_H-M   'P 1'
_cell_length_a   5.79349566
_cell_length_b   5.84059600
_cell_length_c   10.04051888
_cell_angle_alpha   90.00000000
_cell_angle_beta   125.04322207
_cell_angle_gamma   90.00000000
_symmetry_Int_Tables_number   1
_chemical_formula_structural   Sr2TmOsO6
_chemical_formula_sum   'Sr4 Tm2 Os2 O12'
_cell_volume   278.15632791
_cell_formula_units_Z   2
loop_
 _symmetry_equiv_pos_site_id
 _symmetry_equiv_pos_as_xyz
  1  'x, y, z'
loop_
 _atom_site_type_symbol
 _atom_site_label
 _atom_site_symmetry_multiplicity
 _atom_site_fract_x
 _atom_site_fract_y
 _atom_site_fract_z
 _atom_site_occupancy
  Sr  Sr0  1  0.257374  0.033970  0.750797  1
  Sr  Sr1  1  0.257374  0.466030  0.250797  1
  Sr  Sr2  1  0.742626  0.966030  0.249203  1
  Sr  Sr3  1  0.742626  0.533970  0.749203  1
  Tm  Tm4  1  0.000000  0.500000  0.500000  1
  Tm  Tm5  1  0.000000  0.000000  0.000000  1
  Os  Os6  1  0.500000  0.000000  0.500000  1
  Os  Os7  1  0.500000  0.500000  0.000000  1
  O  O8  1  0.192782  0.483665  0.763218  1
  O  O9  1  0.192782  0.016335  0.263218  1
  O  O10  1  0.807218  0.516335  0.236782  1
  O  O11  1  0.807218  0.983665  0.736782  1
  O  O12  1  0.736186  0.201494  0.463312  1
  O  O13  1  0.736186  0.298506  0.963312  1
  O  O14  1  0.263814  0.798506  0.536688  1
  O  O15  1  0.263814  0.701494  0.036688  1
  O  O16  1  0.661635  0.725708  0.462770  1
  O  O17  1  0.661635  0.774292  0.962770  1
  O  O18  1  0.338365  0.274292  0.537230  1
  O  O19  1  0.338365  0.225708  0.037230  1
