# generated using pymatgen
data_Nd4SmP12Pd3Ru16
_symmetry_space_group_name_H-M   'P 1'
_cell_length_a   12.69740000
_cell_length_b   12.69739917
_cell_length_c   4.01838700
_cell_angle_alpha   90.00000000
_cell_angle_beta   90.00000000
_cell_angle_gamma   120.00000217
_symmetry_Int_Tables_number   1
_chemical_formula_structural   Nd4SmP12Pd3Ru16
_chemical_formula_sum   'Nd4 Sm1 P12 Pd3 Ru16'
_cell_volume   561.06342199
_cell_formula_units_Z   1
loop_
 _symmetry_equiv_pos_site_id
 _symmetry_equiv_pos_as_xyz
  1  'x, y, z'
loop_
 _atom_site_type_symbol
 _atom_site_label
 _atom_site_symmetry_multiplicity
 _atom_site_fract_x
 _atom_site_fract_y
 _atom_site_fract_z
 _atom_site_occupancy
  Nd  Nd0  1  0.181892  0.181850  0.500000  1
  Nd  Nd1  1  0.818150  0.000043  0.500000  1
  Nd  Nd2  1  0.999957  0.818108  0.500000  1
  Nd  Nd3  1  0.333333  0.666667  0.000000  1
  Sm  Sm4  1  0.666667  0.333333  0.000000  1
  P  P5  1  0.811588  0.811295  0.000000  1
  P  P6  1  0.188705  0.000293  0.000000  1
  P  P7  1  0.999707  0.188412  0.000000  1
  P  P8  1  0.178594  0.478043  0.500000  1
  P  P9  1  0.521957  0.700550  0.500000  1
  P  P10  1  0.299450  0.821406  0.500000  1
  P  P11  1  0.700277  0.520617  0.500000  1
  P  P12  1  0.820339  0.299723  0.500000  1
  P  P13  1  0.479383  0.179661  0.500000  1
  P  P14  1  0.368808  0.368827  0.000000  1
  P  P15  1  0.631173  0.999981  0.000000  1
  P  P16  1  0.000019  0.631192  0.000000  1
  Pd  Pd17  1  0.553629  0.553632  0.000000  1
  Pd  Pd18  1  0.446368  0.999997  0.000000  1
  Pd  Pd19  1  0.000003  0.446371  0.000000  1
  Ru  Ru20  1  0.710733  0.710328  0.500000  1
  Ru  Ru21  1  0.289672  0.000405  0.500000  1
  Ru  Ru22  1  0.999595  0.289267  0.500000  1
  Ru  Ru23  1  0.185476  0.379653  0.000000  1
  Ru  Ru24  1  0.620347  0.805822  0.000000  1
  Ru  Ru25  1  0.194178  0.814524  0.000000  1
  Ru  Ru26  1  0.805438  0.619304  0.000000  1
  Ru  Ru27  1  0.813866  0.194562  0.000000  1
  Ru  Ru28  1  0.380696  0.186134  0.000000  1
  Ru  Ru29  1  0.369380  0.491635  0.500000  1
  Ru  Ru30  1  0.508365  0.877745  0.500000  1
  Ru  Ru31  1  0.122255  0.630620  0.500000  1
  Ru  Ru32  1  0.876569  0.506905  0.500000  1
  Ru  Ru33  1  0.630336  0.123431  0.500000  1
  Ru  Ru34  1  0.493095  0.369664  0.500000  1
  Ru  Ru35  1  0.000000  0.000000  0.000000  1
