# generated using pymatgen
data_HoEr3(CuPt)2
_symmetry_space_group_name_H-M   'P 1'
_cell_length_a   4.42960400
_cell_length_b   5.45678323
_cell_length_c   7.08152073
_cell_angle_alpha   90.17684733
_cell_angle_beta   90.00000000
_cell_angle_gamma   90.00000000
_symmetry_Int_Tables_number   1
_chemical_formula_structural   HoEr3(CuPt)2
_chemical_formula_sum   'Ho1 Er3 Cu2 Pt2'
_cell_volume   171.16937565
_cell_formula_units_Z   1
loop_
 _symmetry_equiv_pos_site_id
 _symmetry_equiv_pos_as_xyz
  1  'x, y, z'
loop_
 _atom_site_type_symbol
 _atom_site_label
 _atom_site_symmetry_multiplicity
 _atom_site_fract_x
 _atom_site_fract_y
 _atom_site_fract_z
 _atom_site_occupancy
  Ho  Ho0  1  0.500000  0.605744  0.816028  1
  Er  Er1  1  0.000000  0.116025  0.683800  1
  Er  Er2  1  0.000000  0.884602  0.184636  1
  Er  Er3  1  0.500000  0.394324  0.316101  1
  Cu  Cu4  1  0.500000  0.893662  0.463196  1
  Cu  Cu5  1  0.500000  0.106898  0.964551  1
  Pt  Pt6  1  0.000000  0.614803  0.533931  1
  Pt  Pt7  1  0.000000  0.383942  0.037760  1
