# generated using pymatgen
data_Tb6HfZr3(Sn3O)2
_symmetry_space_group_name_H-M   'P 1'
_cell_length_a   8.78715500
_cell_length_b   8.78715659
_cell_length_c   6.02766800
_cell_angle_alpha   90.00000000
_cell_angle_beta   90.00000000
_cell_angle_gamma   119.99999779
_symmetry_Int_Tables_number   1
_chemical_formula_structural   Tb6HfZr3(Sn3O)2
_chemical_formula_sum   'Tb6 Hf1 Zr3 Sn6 O2'
_cell_volume   403.06641973
_cell_formula_units_Z   1
loop_
 _symmetry_equiv_pos_site_id
 _symmetry_equiv_pos_as_xyz
  1  'x, y, z'
loop_
 _atom_site_type_symbol
 _atom_site_label
 _atom_site_symmetry_multiplicity
 _atom_site_fract_x
 _atom_site_fract_y
 _atom_site_fract_z
 _atom_site_occupancy
  Tb  Tb0  1  0.000080  0.772692  0.749953  1
  Tb  Tb1  1  0.000080  0.227389  0.250047  1
  Tb  Tb2  1  0.227308  0.227389  0.749953  1
  Tb  Tb3  1  0.227308  0.999920  0.250047  1
  Tb  Tb4  1  0.772611  0.772692  0.250047  1
  Tb  Tb5  1  0.772611  0.999920  0.749953  1
  Hf  Hf6  1  0.333333  0.666667  0.000000  1
  Zr  Zr7  1  0.333333  0.666667  0.500000  1
  Zr  Zr8  1  0.666667  0.333333  0.000000  1
  Zr  Zr9  1  0.666667  0.333333  0.500000  1
  Sn  Sn10  1  0.000696  0.593890  0.249242  1
  Sn  Sn11  1  0.000696  0.406806  0.750758  1
  Sn  Sn12  1  0.406110  0.406806  0.249242  1
  Sn  Sn13  1  0.593194  0.593890  0.750758  1
  Sn  Sn14  1  0.406110  0.999304  0.750758  1
  Sn  Sn15  1  0.593194  0.999304  0.249242  1
  O  O16  1  0.000000  0.000000  0.000000  1
  O  O17  1  0.000000  0.000000  0.500000  1
