# generated using pymatgen
data_ErMnCo4P3
_symmetry_space_group_name_H-M   'P 1'
_cell_length_a   3.64058100
_cell_length_b   10.28364300
_cell_length_c   11.76035000
_cell_angle_alpha   90.00000000
_cell_angle_beta   90.00000000
_cell_angle_gamma   90.00000000
_symmetry_Int_Tables_number   1
_chemical_formula_structural   ErMnCo4P3
_chemical_formula_sum   'Er4 Mn4 Co16 P12'
_cell_volume   440.28910278
_cell_formula_units_Z   4
loop_
 _symmetry_equiv_pos_site_id
 _symmetry_equiv_pos_as_xyz
  1  'x, y, z'
loop_
 _atom_site_type_symbol
 _atom_site_label
 _atom_site_symmetry_multiplicity
 _atom_site_fract_x
 _atom_site_fract_y
 _atom_site_fract_z
 _atom_site_occupancy
  Er  Er0  1  0.250000  0.582339  0.704024  1
  Er  Er1  1  0.250000  0.917661  0.204024  1
  Er  Er2  1  0.750000  0.417661  0.295976  1
  Er  Er3  1  0.750000  0.082339  0.795976  1
  Mn  Mn4  1  0.250000  0.712492  0.989295  1
  Mn  Mn5  1  0.250000  0.787508  0.489295  1
  Mn  Mn6  1  0.750000  0.287508  0.010705  1
  Mn  Mn7  1  0.750000  0.212492  0.510705  1
  Co  Co8  1  0.250000  0.406945  0.487743  1
  Co  Co9  1  0.250000  0.093055  0.987743  1
  Co  Co10  1  0.750000  0.593055  0.512257  1
  Co  Co11  1  0.750000  0.906945  0.012257  1
  Co  Co12  1  0.250000  0.220684  0.176637  1
  Co  Co13  1  0.250000  0.279316  0.676637  1
  Co  Co14  1  0.750000  0.779316  0.823363  1
  Co  Co15  1  0.750000  0.720684  0.323363  1
  Co  Co16  1  0.250000  0.883705  0.698611  1
  Co  Co17  1  0.250000  0.616295  0.198611  1
  Co  Co18  1  0.750000  0.116295  0.301389  1
  Co  Co19  1  0.750000  0.383705  0.801389  1
  Co  Co20  1  0.250000  0.466924  0.932128  1
  Co  Co21  1  0.250000  0.033076  0.432128  1
  Co  Co22  1  0.750000  0.533076  0.067872  1
  Co  Co23  1  0.750000  0.966924  0.567872  1
  P  P24  1  0.250000  0.418115  0.112833  1
  P  P25  1  0.250000  0.081885  0.612833  1
  P  P26  1  0.750000  0.581885  0.887167  1
  P  P27  1  0.750000  0.918115  0.387167  1
  P  P28  1  0.250000  0.269327  0.868615  1
  P  P29  1  0.250000  0.230673  0.368615  1
  P  P30  1  0.750000  0.730673  0.131385  1
  P  P31  1  0.750000  0.769327  0.631385  1
  P  P32  1  0.250000  0.599983  0.390634  1
  P  P33  1  0.250000  0.900017  0.890634  1
  P  P34  1  0.750000  0.400017  0.609366  1
  P  P35  1  0.750000  0.099983  0.109366  1
