# generated using pymatgen
data_HoEr19(NiBi5)2
_symmetry_space_group_name_H-M   'P 1'
_cell_length_a   8.01348730
_cell_length_b   9.36070600
_cell_length_c   12.03093600
_cell_angle_alpha   90.00000000
_cell_angle_beta   90.01573697
_cell_angle_gamma   90.00000000
_symmetry_Int_Tables_number   1
_chemical_formula_structural   HoEr19(NiBi5)2
_chemical_formula_sum   'Ho1 Er19 Ni2 Bi10'
_cell_volume   902.46331811
_cell_formula_units_Z   1
loop_
 _symmetry_equiv_pos_site_id
 _symmetry_equiv_pos_as_xyz
  1  'x, y, z'
loop_
 _atom_site_type_symbol
 _atom_site_label
 _atom_site_symmetry_multiplicity
 _atom_site_fract_x
 _atom_site_fract_y
 _atom_site_fract_z
 _atom_site_occupancy
  Ho  Ho0  1  0.573642  0.500000  0.773260  1
  Er  Er1  1  0.431756  0.178331  0.563708  1
  Er  Er2  1  0.568247  0.821606  0.063650  1
  Er  Er3  1  0.069892  0.724990  0.435857  1
  Er  Er4  1  0.929931  0.274925  0.935899  1
  Er  Er5  1  0.069892  0.275010  0.435857  1
  Er  Er6  1  0.929931  0.725075  0.935899  1
  Er  Er7  1  0.431756  0.821669  0.563708  1
  Er  Er8  1  0.568247  0.178394  0.063650  1
  Er  Er9  1  0.426688  0.500000  0.273129  1
  Er  Er10  1  0.908277  0.000000  0.202687  1
  Er  Er11  1  0.091656  0.000000  0.702736  1
  Er  Er12  1  0.260505  0.500000  0.993645  1
  Er  Er13  1  0.739579  0.500000  0.493548  1
  Er  Er14  1  0.202044  0.000000  0.998744  1
  Er  Er15  1  0.797830  0.000000  0.498591  1
  Er  Er16  1  0.090068  0.500000  0.717616  1
  Er  Er17  1  0.909801  0.500000  0.217709  1
  Er  Er18  1  0.375477  0.000000  0.305534  1
  Er  Er19  1  0.624574  0.000000  0.805542  1
  Ni  Ni20  1  0.169513  0.000000  0.486283  1
  Ni  Ni21  1  0.830777  0.000000  0.986386  1
  Bi  Bi22  1  0.814947  0.741930  0.672238  1
  Bi  Bi23  1  0.185411  0.258366  0.172405  1
  Bi  Bi24  1  0.680160  0.241281  0.325345  1
  Bi  Bi25  1  0.319386  0.758898  0.825430  1
  Bi  Bi26  1  0.680160  0.758719  0.325345  1
  Bi  Bi27  1  0.319386  0.241102  0.825430  1
  Bi  Bi28  1  0.814947  0.258070  0.672238  1
  Bi  Bi29  1  0.185411  0.741634  0.172405  1
  Bi  Bi30  1  0.345324  0.500000  0.527493  1
  Bi  Bi31  1  0.654789  0.500000  0.028034  1
