# generated using pymatgen
data_Ta8Ti8(As3P)3
_symmetry_space_group_name_H-M   'P 1'
_cell_length_a   7.38910804
_cell_length_b   7.38910645
_cell_length_c   18.78353300
_cell_angle_alpha   90.13344022
_cell_angle_beta   89.86655981
_cell_angle_gamma   152.62344499
_symmetry_Int_Tables_number   1
_chemical_formula_structural   Ta8Ti8(As3P)3
_chemical_formula_sum   'Ta8 Ti8 As9 P3'
_cell_volume   471.58868532
_cell_formula_units_Z   1
loop_
 _symmetry_equiv_pos_site_id
 _symmetry_equiv_pos_as_xyz
  1  'x, y, z'
loop_
 _atom_site_type_symbol
 _atom_site_label
 _atom_site_symmetry_multiplicity
 _atom_site_fract_x
 _atom_site_fract_y
 _atom_site_fract_z
 _atom_site_occupancy
  Ta  Ta0  1  0.665386  0.334614  0.969793  1
  Ta  Ta1  1  0.334215  0.665785  0.029033  1
  Ta  Ta2  1  0.332554  0.667446  0.475113  1
  Ta  Ta3  1  0.666601  0.333399  0.531087  1
  Ta  Ta4  1  0.000040  0.999960  0.999328  1
  Ta  Ta5  1  0.001046  0.998954  0.501975  1
  Ta  Ta6  1  0.060049  0.939951  0.750573  1
  Ta  Ta7  1  0.940346  0.059654  0.246034  1
  Ti  Ti8  1  0.739316  0.260684  0.155951  1
  Ti  Ti9  1  0.260633  0.739367  0.843178  1
  Ti  Ti10  1  0.260456  0.739544  0.657795  1
  Ti  Ti11  1  0.734317  0.265683  0.340075  1
  Ti  Ti12  1  0.529185  0.470815  0.119206  1
  Ti  Ti13  1  0.470706  0.529294  0.879677  1
  Ti  Ti14  1  0.471242  0.528758  0.621310  1
  Ti  Ti15  1  0.533880  0.466120  0.380199  1
  As  As16  1  0.900979  0.099021  0.381317  1
  As  As17  1  0.844134  0.155866  0.920230  1
  As  As18  1  0.155843  0.844157  0.078724  1
  As  As19  1  0.157217  0.842783  0.422018  1
  As  As20  1  0.844844  0.155156  0.581956  1
  As  As21  1  0.701166  0.298834  0.750627  1
  As  As22  1  0.298423  0.701577  0.248372  1
  As  As23  1  0.416258  0.583742  0.750496  1
  As  As24  1  0.583411  0.416589  0.248751  1
  P  P25  1  0.901923  0.098077  0.116258  1
  P  P26  1  0.097852  0.902148  0.881908  1
  P  P27  1  0.097975  0.902025  0.619018  1
