# generated using pymatgen
data_Sm3YEr2(RuI3)2
_symmetry_space_group_name_H-M   'P 1'
_cell_length_a   4.26983900
_cell_length_b   8.93276588
_cell_length_c   12.37079098
_cell_angle_alpha   85.80455637
_cell_angle_beta   90.00000000
_cell_angle_gamma   90.00000000
_symmetry_Int_Tables_number   1
_chemical_formula_structural   Sm3YEr2(RuI3)2
_chemical_formula_sum   'Sm3 Y1 Er2 Ru2 I6'
_cell_volume   470.57578831
_cell_formula_units_Z   1
loop_
 _symmetry_equiv_pos_site_id
 _symmetry_equiv_pos_as_xyz
  1  'x, y, z'
loop_
 _atom_site_type_symbol
 _atom_site_label
 _atom_site_symmetry_multiplicity
 _atom_site_fract_x
 _atom_site_fract_y
 _atom_site_fract_z
 _atom_site_occupancy
  Sm  Sm0  1  0.750000  0.095586  0.682890  1
  Sm  Sm1  1  0.250000  0.902083  0.315984  1
  Sm  Sm2  1  0.250000  0.268061  0.899436  1
  Y  Y3  1  0.750000  0.735406  0.101347  1
  Er  Er4  1  0.750000  0.125364  0.122763  1
  Er  Er5  1  0.250000  0.872816  0.878483  1
  Ru  Ru6  1  0.750000  0.054104  0.907794  1
  Ru  Ru7  1  0.250000  0.945573  0.092308  1
  I  I8  1  0.250000  0.355420  0.637451  1
  I  I9  1  0.750000  0.642565  0.359849  1
  I  I10  1  0.750000  0.148753  0.388259  1
  I  I11  1  0.250000  0.849175  0.611106  1
  I  I12  1  0.250000  0.425614  0.134505  1
  I  I13  1  0.750000  0.579480  0.867825  1
