# generated using pymatgen
data_La3Nd2Sn10(IrRh)2
_symmetry_space_group_name_H-M   'P 1'
_cell_length_a   14.27082600
_cell_length_b   14.26505900
_cell_length_c   4.68722300
_cell_angle_alpha   90.00000000
_cell_angle_beta   90.00000000
_cell_angle_gamma   90.00000000
_symmetry_Int_Tables_number   1
_chemical_formula_structural   La3Nd2Sn10(IrRh)2
_chemical_formula_sum   'La6 Nd4 Sn20 Ir4 Rh4'
_cell_volume   954.19755465
_cell_formula_units_Z   2
loop_
 _symmetry_equiv_pos_site_id
 _symmetry_equiv_pos_as_xyz
  1  'x, y, z'
loop_
 _atom_site_type_symbol
 _atom_site_label
 _atom_site_symmetry_multiplicity
 _atom_site_fract_x
 _atom_site_fract_y
 _atom_site_fract_z
 _atom_site_occupancy
  La  La0  1  0.500000  0.500000  0.000000  1
  La  La1  1  0.000000  0.000000  0.000000  1
  La  La2  1  0.887866  0.387239  0.500000  1
  La  La3  1  0.112134  0.612761  0.500000  1
  La  La4  1  0.387866  0.112761  0.500000  1
  La  La5  1  0.612134  0.887239  0.500000  1
  Nd  Nd6  1  0.676521  0.177461  0.500000  1
  Nd  Nd7  1  0.323479  0.822539  0.500000  1
  Nd  Nd8  1  0.176521  0.322539  0.500000  1
  Nd  Nd9  1  0.823479  0.677461  0.500000  1
  Sn  Sn10  1  0.570076  0.069463  0.000000  1
  Sn  Sn11  1  0.429924  0.930537  0.000000  1
  Sn  Sn12  1  0.070076  0.430537  0.000000  1
  Sn  Sn13  1  0.929924  0.569463  0.000000  1
  Sn  Sn14  1  0.654989  0.698060  0.000000  1
  Sn  Sn15  1  0.345011  0.301940  0.000000  1
  Sn  Sn16  1  0.154989  0.801940  0.000000  1
  Sn  Sn17  1  0.845011  0.198060  0.000000  1
  Sn  Sn18  1  0.302043  0.654362  0.000000  1
  Sn  Sn19  1  0.697957  0.345638  0.000000  1
  Sn  Sn20  1  0.197957  0.154362  0.000000  1
  Sn  Sn21  1  0.802043  0.845638  0.000000  1
  Sn  Sn22  1  0.664375  0.505190  0.500000  1
  Sn  Sn23  1  0.335625  0.494810  0.500000  1
  Sn  Sn24  1  0.164375  0.994810  0.500000  1
  Sn  Sn25  1  0.835625  0.005190  0.500000  1
  Sn  Sn26  1  0.494610  0.663404  0.500000  1
  Sn  Sn27  1  0.505390  0.336596  0.500000  1
  Sn  Sn28  1  0.005390  0.163404  0.500000  1
  Sn  Sn29  1  0.994610  0.836596  0.500000  1
  Ir  Ir30  1  0.471512  0.746718  0.000000  1
  Ir  Ir31  1  0.528488  0.253282  0.000000  1
  Ir  Ir32  1  0.028488  0.246718  0.000000  1
  Ir  Ir33  1  0.971512  0.753282  0.000000  1
  Rh  Rh34  1  0.745745  0.527921  0.000000  1
  Rh  Rh35  1  0.254255  0.472079  0.000000  1
  Rh  Rh36  1  0.245745  0.972079  0.000000  1
  Rh  Rh37  1  0.754255  0.027921  0.000000  1
