# generated using pymatgen
data_Yb3Co6SiC2
_symmetry_space_group_name_H-M   'P 1'
_cell_length_a   5.11254800
_cell_length_b   5.11254811
_cell_length_c   13.26970200
_cell_angle_alpha   90.00000000
_cell_angle_beta   90.00000000
_cell_angle_gamma   120.00001220
_symmetry_Int_Tables_number   1
_chemical_formula_structural   Yb3Co6SiC2
_chemical_formula_sum   'Yb6 Co12 Si2 C4'
_cell_volume   300.37691656
_cell_formula_units_Z   2
loop_
 _symmetry_equiv_pos_site_id
 _symmetry_equiv_pos_as_xyz
  1  'x, y, z'
loop_
 _atom_site_type_symbol
 _atom_site_label
 _atom_site_symmetry_multiplicity
 _atom_site_fract_x
 _atom_site_fract_y
 _atom_site_fract_z
 _atom_site_occupancy
  Yb  Yb0  1  0.666667  0.333333  0.536089  1
  Yb  Yb1  1  0.333333  0.666667  0.463911  1
  Yb  Yb2  1  0.333333  0.666667  0.036089  1
  Yb  Yb3  1  0.666667  0.333333  0.750000  1
  Yb  Yb4  1  0.666667  0.333333  0.963911  1
  Yb  Yb5  1  0.333333  0.666667  0.250000  1
  Co  Co6  1  0.165253  0.330505  0.653482  1
  Co  Co7  1  0.330505  0.165253  0.346518  1
  Co  Co8  1  0.330505  0.165253  0.153482  1
  Co  Co9  1  0.165253  0.834747  0.846518  1
  Co  Co10  1  0.834747  0.669495  0.346518  1
  Co  Co11  1  0.834747  0.165253  0.153482  1
  Co  Co12  1  0.669495  0.834747  0.653482  1
  Co  Co13  1  0.669495  0.834747  0.846518  1
  Co  Co14  1  0.165253  0.834747  0.653482  1
  Co  Co15  1  0.834747  0.669495  0.153482  1
  Co  Co16  1  0.165253  0.330505  0.846518  1
  Co  Co17  1  0.834747  0.165253  0.346518  1
  Si  Si18  1  0.000000  0.000000  0.000000  1
  Si  Si19  1  0.000000  0.000000  0.500000  1
  C  C20  1  0.666667  0.333333  0.250000  1
  C  C21  1  0.000000  0.000000  0.750000  1
  C  C22  1  0.333333  0.666667  0.750000  1
  C  C23  1  0.000000  0.000000  0.250000  1
