# generated using pymatgen
data_Sc4Re3Tc3B8
_symmetry_space_group_name_H-M   'P 1'
_cell_length_a   6.08791300
_cell_length_b   6.08439800
_cell_length_c   11.22655600
_cell_angle_alpha   90.00000000
_cell_angle_beta   90.00000000
_cell_angle_gamma   90.00171336
_symmetry_Int_Tables_number   1
_chemical_formula_structural   Sc4Re3Tc3B8
_chemical_formula_sum   'Sc8 Re6 Tc6 B16'
_cell_volume   415.84606792
_cell_formula_units_Z   2
loop_
 _symmetry_equiv_pos_site_id
 _symmetry_equiv_pos_as_xyz
  1  'x, y, z'
loop_
 _atom_site_type_symbol
 _atom_site_label
 _atom_site_symmetry_multiplicity
 _atom_site_fract_x
 _atom_site_fract_y
 _atom_site_fract_z
 _atom_site_occupancy
  Sc  Sc0  1  0.994368  0.652094  0.040283  1
  Sc  Sc1  1  0.005632  0.347906  0.540283  1
  Sc  Sc2  1  0.347791  0.005490  0.459994  1
  Sc  Sc3  1  0.151522  0.506835  0.790103  1
  Sc  Sc4  1  0.848478  0.493165  0.290103  1
  Sc  Sc5  1  0.505240  0.151919  0.209556  1
  Sc  Sc6  1  0.494760  0.848081  0.709556  1
  Sc  Sc7  1  0.652209  0.994510  0.959994  1
  Re  Re8  1  0.852531  0.004478  0.374624  1
  Re  Re9  1  0.353067  0.494391  0.374931  1
  Re  Re10  1  0.646933  0.505609  0.874931  1
  Re  Re11  1  0.493756  0.352244  0.624695  1
  Re  Re12  1  0.506244  0.647756  0.124695  1
  Re  Re13  1  0.147469  0.995522  0.874624  1
  Tc  Tc14  1  0.676263  0.675613  0.500037  1
  Tc  Tc15  1  0.174929  0.825247  0.250161  1
  Tc  Tc16  1  0.323737  0.324387  0.000037  1
  Tc  Tc17  1  0.007063  0.851534  0.625116  1
  Tc  Tc18  1  0.992937  0.148466  0.125116  1
  Tc  Tc19  1  0.825071  0.174753  0.750161  1
  B  B20  1  0.065672  0.708945  0.442771  1
  B  B21  1  0.643773  0.289046  0.441063  1
  B  B22  1  0.356227  0.710954  0.941063  1
  B  B23  1  0.210838  0.144352  0.691920  1
  B  B24  1  0.290411  0.642555  0.558401  1
  B  B25  1  0.709589  0.357445  0.058401  1
  B  B26  1  0.789162  0.855648  0.191920  1
  B  B27  1  0.143701  0.210126  0.309143  1
  B  B28  1  0.934328  0.291055  0.942771  1
  B  B29  1  0.709054  0.065588  0.557339  1
  B  B30  1  0.210594  0.435894  0.192367  1
  B  B31  1  0.789406  0.564106  0.692367  1
  B  B32  1  0.435486  0.209662  0.807497  1
  B  B33  1  0.564514  0.790338  0.307497  1
  B  B34  1  0.290946  0.934412  0.057339  1
  B  B35  1  0.856299  0.789874  0.809143  1
