# generated using pymatgen
data_Zr10Ga4P2S
_symmetry_space_group_name_H-M   'P 1'
_cell_length_a   8.10388217
_cell_length_b   8.11551508
_cell_length_c   5.70699899
_cell_angle_alpha   90.25123114
_cell_angle_beta   89.49681172
_cell_angle_gamma   119.95261057
_symmetry_Int_Tables_number   1
_chemical_formula_structural   Zr10Ga4P2S
_chemical_formula_sum   'Zr10 Ga4 P2 S1'
_cell_volume   325.19066913
_cell_formula_units_Z   1
loop_
 _symmetry_equiv_pos_site_id
 _symmetry_equiv_pos_as_xyz
  1  'x, y, z'
loop_
 _atom_site_type_symbol
 _atom_site_label
 _atom_site_symmetry_multiplicity
 _atom_site_fract_x
 _atom_site_fract_y
 _atom_site_fract_z
 _atom_site_occupancy
  Zr  Zr0  1  0.993769  0.737106  0.241548  1
  Zr  Zr1  1  0.256663  0.262894  0.241548  1
  Zr  Zr2  1  0.749197  0.000000  0.238670  1
  Zr  Zr3  1  0.999304  0.258807  0.762995  1
  Zr  Zr4  1  0.740497  0.741193  0.762995  1
  Zr  Zr5  1  0.253827  0.000000  0.766280  1
  Zr  Zr6  1  0.332204  0.658130  0.496846  1
  Zr  Zr7  1  0.674075  0.341870  0.496846  1
  Zr  Zr8  1  0.670902  0.339309  0.001130  1
  Zr  Zr9  1  0.331592  0.660691  0.001130  1
  Ga  Ga10  1  0.392566  0.000000  0.253363  1
  Ga  Ga11  1  0.002898  0.612466  0.749850  1
  Ga  Ga12  1  0.390432  0.387534  0.749850  1
  Ga  Ga13  1  0.604526  0.000000  0.749577  1
  P  P14  1  0.998741  0.390847  0.241933  1
  P  P15  1  0.607895  0.609153  0.241933  1
  S  S16  1  0.000912  0.000000  0.503505  1
