# generated using pymatgen
data_HoTmInNi7B2
_symmetry_space_group_name_H-M   'P 1'
_cell_length_a   4.98773100
_cell_length_b   4.98773060
_cell_length_c   14.29910000
_cell_angle_alpha   90.00000000
_cell_angle_beta   90.00000000
_cell_angle_gamma   120.00000930
_symmetry_Int_Tables_number   1
_chemical_formula_structural   HoTmInNi7B2
_chemical_formula_sum   'Ho2 Tm2 In2 Ni14 B4'
_cell_volume   308.06708925
_cell_formula_units_Z   2
loop_
 _symmetry_equiv_pos_site_id
 _symmetry_equiv_pos_as_xyz
  1  'x, y, z'
loop_
 _atom_site_type_symbol
 _atom_site_label
 _atom_site_symmetry_multiplicity
 _atom_site_fract_x
 _atom_site_fract_y
 _atom_site_fract_z
 _atom_site_occupancy
  Ho  Ho0  1  0.333333  0.666667  0.531670  1
  Ho  Ho1  1  0.666667  0.333333  0.031670  1
  Tm  Tm2  1  0.333333  0.666667  0.754907  1
  Tm  Tm3  1  0.666667  0.333333  0.254907  1
  In  In4  1  0.666667  0.333333  0.467941  1
  In  In5  1  0.333333  0.666667  0.967941  1
  Ni  Ni6  1  0.000000  0.000000  0.998653  1
  Ni  Ni7  1  0.000000  0.000000  0.498653  1
  Ni  Ni8  1  0.166125  0.332250  0.147507  1
  Ni  Ni9  1  0.833875  0.667750  0.647507  1
  Ni  Ni10  1  0.667750  0.833875  0.147507  1
  Ni  Ni11  1  0.166125  0.833875  0.147507  1
  Ni  Ni12  1  0.833875  0.166125  0.647507  1
  Ni  Ni13  1  0.332250  0.166125  0.647507  1
  Ni  Ni14  1  0.834209  0.668416  0.852325  1
  Ni  Ni15  1  0.834209  0.165791  0.852325  1
  Ni  Ni16  1  0.331584  0.165791  0.852325  1
  Ni  Ni17  1  0.668416  0.834209  0.352325  1
  Ni  Ni18  1  0.165791  0.834209  0.352325  1
  Ni  Ni19  1  0.165791  0.331584  0.352325  1
  B  B20  1  0.333333  0.666667  0.249670  1
  B  B21  1  0.666667  0.333333  0.749670  1
  B  B22  1  0.000000  0.000000  0.247663  1
  B  B23  1  0.000000  0.000000  0.747663  1
