# generated using pymatgen
data_Tb8Hf9Nb3Si15P
_symmetry_space_group_name_H-M   'P 1'
_cell_length_a   7.23835438
_cell_length_b   7.23326028
_cell_length_c   13.26632105
_cell_angle_alpha   89.95100790
_cell_angle_beta   89.99748011
_cell_angle_gamma   90.06471043
_symmetry_Int_Tables_number   1
_chemical_formula_structural   Tb8Hf9Nb3Si15P
_chemical_formula_sum   'Tb8 Hf9 Nb3 Si15 P1'
_cell_volume   694.58276394
_cell_formula_units_Z   1
loop_
 _symmetry_equiv_pos_site_id
 _symmetry_equiv_pos_as_xyz
  1  'x, y, z'
loop_
 _atom_site_type_symbol
 _atom_site_label
 _atom_site_symmetry_multiplicity
 _atom_site_fract_x
 _atom_site_fract_y
 _atom_site_fract_z
 _atom_site_occupancy
  Tb  Tb0  1  0.001661  0.344397  0.215907  1
  Tb  Tb1  1  0.003122  0.656805  0.713960  1
  Tb  Tb2  1  0.156666  0.497369  0.463281  1
  Tb  Tb3  1  0.503105  0.843562  0.035548  1
  Tb  Tb4  1  0.844355  0.502708  0.966944  1
  Tb  Tb5  1  0.497246  0.155182  0.532816  1
  Tb  Tb6  1  0.343612  0.996976  0.786007  1
  Tb  Tb7  1  0.653342  0.003270  0.285163  1
  Hf  Hf8  1  0.675512  0.324541  0.749866  1
  Hf  Hf9  1  0.150488  0.995729  0.373850  1
  Hf  Hf10  1  0.852600  0.004310  0.876774  1
  Hf  Hf11  1  0.506414  0.650218  0.622626  1
  Hf  Hf12  1  0.349985  0.493782  0.877234  1
  Hf  Hf13  1  0.491525  0.350411  0.127876  1
  Hf  Hf14  1  0.646195  0.504895  0.374312  1
  Hf  Hf15  1  0.996085  0.147536  0.623230  1
  Hf  Hf16  1  0.004573  0.850995  0.125287  1
  Nb  Nb17  1  0.175656  0.176538  0.001227  1
  Nb  Nb18  1  0.824903  0.824631  0.499088  1
  Nb  Nb19  1  0.323555  0.676489  0.250562  1
  Si  Si20  1  0.637208  0.704623  0.817081  1
  Si  Si21  1  0.203984  0.862092  0.565543  1
  Si  Si22  1  0.137706  0.795491  0.933634  1
  Si  Si23  1  0.795219  0.138470  0.068014  1
  Si  Si24  1  0.862386  0.204046  0.432404  1
  Si  Si25  1  0.295643  0.362646  0.682459  1
  Si  Si26  1  0.704170  0.636979  0.183522  1
  Si  Si27  1  0.294578  0.043230  0.182000  1
  Si  Si28  1  0.704747  0.950035  0.684001  1
  Si  Si29  1  0.451006  0.795751  0.434460  1
  Si  Si30  1  0.204130  0.549576  0.065671  1
  Si  Si31  1  0.548266  0.203906  0.937169  1
  Si  Si32  1  0.796821  0.452388  0.563203  1
  Si  Si33  1  0.050450  0.295017  0.815692  1
  Si  Si34  1  0.949979  0.705471  0.315371  1
  P  P35  1  0.363106  0.299934  0.318218  1
