# generated using pymatgen
data_LaEu2(As2Pd3)3
_symmetry_space_group_name_H-M   'P 1'
_cell_length_a   4.13419900
_cell_length_b   8.66511016
_cell_length_c   10.23209153
_cell_angle_alpha   107.04327211
_cell_angle_beta   90.00000000
_cell_angle_gamma   103.80123453
_symmetry_Int_Tables_number   1
_chemical_formula_structural   LaEu2(As2Pd3)3
_chemical_formula_sum   'La1 Eu2 As6 Pd9'
_cell_volume   339.36564221
_cell_formula_units_Z   1
loop_
 _symmetry_equiv_pos_site_id
 _symmetry_equiv_pos_as_xyz
  1  'x, y, z'
loop_
 _atom_site_type_symbol
 _atom_site_label
 _atom_site_symmetry_multiplicity
 _atom_site_fract_x
 _atom_site_fract_y
 _atom_site_fract_z
 _atom_site_occupancy
  La  La0  1  0.000000  0.000000  0.000000  1
  Eu  Eu1  1  0.845727  0.691453  0.301970  1
  Eu  Eu2  1  0.154273  0.308547  0.698030  1
  As  As3  1  0.799000  0.597999  0.867455  1
  As  As4  1  0.201000  0.402001  0.132545  1
  As  As5  1  0.538224  0.076447  0.780764  1
  As  As6  1  0.461776  0.923553  0.219236  1
  As  As7  1  0.636431  0.272860  0.452128  1
  As  As8  1  0.363569  0.727140  0.547872  1
  Pd  Pd9  1  0.954754  0.909507  0.669301  1
  Pd  Pd10  1  0.045246  0.090493  0.330699  1
  Pd  Pd11  1  0.778110  0.556221  0.607206  1
  Pd  Pd12  1  0.221890  0.443779  0.392794  1
  Pd  Pd13  1  0.376279  0.752557  0.798346  1
  Pd  Pd14  1  0.623721  0.247443  0.201654  1
  Pd  Pd15  1  0.500000  0.000000  0.500000  1
  Pd  Pd16  1  0.678255  0.356510  0.968527  1
  Pd  Pd17  1  0.321745  0.643490  0.031473  1
