# generated using pymatgen
data_Y7Tm3(InSb2)2
_symmetry_space_group_name_H-M   'P 1'
_cell_length_a   6.46185736
_cell_length_b   8.92046843
_cell_length_c   8.92999933
_cell_angle_alpha   119.91173330
_cell_angle_beta   90.00982772
_cell_angle_gamma   90.02638087
_symmetry_Int_Tables_number   1
_chemical_formula_structural   Y7Tm3(InSb2)2
_chemical_formula_sum   'Y7 Tm3 In2 Sb4'
_cell_volume   446.18255136
_cell_formula_units_Z   1
loop_
 _symmetry_equiv_pos_site_id
 _symmetry_equiv_pos_as_xyz
  1  'x, y, z'
loop_
 _atom_site_type_symbol
 _atom_site_label
 _atom_site_symmetry_multiplicity
 _atom_site_fract_x
 _atom_site_fract_y
 _atom_site_fract_z
 _atom_site_occupancy
  Y  Y0  1  0.001251  0.335355  0.667589  1
  Y  Y1  1  0.749937  0.241896  0.004999  1
  Y  Y2  1  0.749584  0.757763  0.762516  1
  Y  Y3  1  0.750063  0.000402  0.240953  1
  Y  Y4  1  0.250134  0.758880  0.997530  1
  Y  Y5  1  0.250304  0.241424  0.239330  1
  Y  Y6  1  0.250125  0.999926  0.756310  1
  Tm  Tm7  1  0.499641  0.335940  0.667573  1
  Tm  Tm8  1  0.499599  0.664081  0.331163  1
  Tm  Tm9  1  0.000133  0.663352  0.330470  1
  In  In10  1  0.748690  0.604880  0.002053  1
  In  In11  1  0.748565  0.395804  0.395718  1
  Sb  Sb12  1  0.749012  0.999215  0.608229  1
  Sb  Sb13  1  0.251197  0.394109  0.998848  1
  Sb  Sb14  1  0.250981  0.608313  0.605712  1
  Sb  Sb15  1  0.250785  0.998660  0.391004  1
