# generated using pymatgen
data_ErTm7In3Rh
_symmetry_space_group_name_H-M   'P 1'
_cell_length_a   10.31262401
_cell_length_b   10.31262549
_cell_length_c   6.94715100
_cell_angle_alpha   90.00035009
_cell_angle_beta   89.99964902
_cell_angle_gamma   119.99644030
_symmetry_Int_Tables_number   1
_chemical_formula_structural   ErTm7In3Rh
_chemical_formula_sum   'Er2 Tm14 In6 Rh2'
_cell_volume   639.86945231
_cell_formula_units_Z   2
loop_
 _symmetry_equiv_pos_site_id
 _symmetry_equiv_pos_as_xyz
  1  'x, y, z'
loop_
 _atom_site_type_symbol
 _atom_site_label
 _atom_site_symmetry_multiplicity
 _atom_site_fract_x
 _atom_site_fract_y
 _atom_site_fract_z
 _atom_site_occupancy
  Er  Er0  1  0.532207  0.064442  0.515913  1
  Er  Er1  1  0.935558  0.467793  0.515913  1
  Tm  Tm2  1  0.532320  0.467680  0.515871  1
  Tm  Tm3  1  0.467613  0.935219  0.015854  1
  Tm  Tm4  1  0.064781  0.532387  0.015854  1
  Tm  Tm5  1  0.467640  0.532360  0.015858  1
  Tm  Tm6  1  0.176667  0.353156  0.721378  1
  Tm  Tm7  1  0.646844  0.823333  0.721378  1
  Tm  Tm8  1  0.176556  0.823444  0.721450  1
  Tm  Tm9  1  0.823361  0.646857  0.221205  1
  Tm  Tm10  1  0.353143  0.176639  0.221205  1
  Tm  Tm11  1  0.823485  0.176515  0.221100  1
  Tm  Tm12  1  0.666613  0.333387  0.895108  1
  Tm  Tm13  1  0.333375  0.666625  0.394894  1
  Tm  Tm14  1  0.999992  0.000008  0.500458  1
  Tm  Tm15  1  0.999987  0.000013  0.000568  1
  In  In16  1  0.837187  0.674495  0.760910  1
  In  In17  1  0.325505  0.162813  0.760910  1
  In  In18  1  0.837280  0.162720  0.760955  1
  In  In19  1  0.162780  0.325557  0.260820  1
  In  In20  1  0.674443  0.837220  0.260820  1
  In  In21  1  0.162780  0.837220  0.260771  1
  Rh  Rh22  1  0.666557  0.333443  0.289316  1
  Rh  Rh23  1  0.333323  0.666677  0.789490  1
