# generated using pymatgen
data_Dy3Co7(As3Rh)2
_symmetry_space_group_name_H-M   'P 1'
_cell_length_a   3.83569900
_cell_length_b   11.01647600
_cell_length_c   12.87819400
_cell_angle_alpha   90.00000000
_cell_angle_beta   90.00000000
_cell_angle_gamma   90.00000000
_symmetry_Int_Tables_number   1
_chemical_formula_structural   Dy3Co7(As3Rh)2
_chemical_formula_sum   'Dy6 Co14 As12 Rh4'
_cell_volume   544.17949725
_cell_formula_units_Z   2
loop_
 _symmetry_equiv_pos_site_id
 _symmetry_equiv_pos_as_xyz
  1  'x, y, z'
loop_
 _atom_site_type_symbol
 _atom_site_label
 _atom_site_symmetry_multiplicity
 _atom_site_fract_x
 _atom_site_fract_y
 _atom_site_fract_z
 _atom_site_occupancy
  Dy  Dy0  1  0.000000  0.500000  0.521816  1
  Dy  Dy1  1  0.500000  0.000000  0.478184  1
  Dy  Dy2  1  0.500000  0.815247  0.208232  1
  Dy  Dy3  1  0.500000  0.184753  0.208232  1
  Dy  Dy4  1  0.000000  0.684753  0.791768  1
  Dy  Dy5  1  0.000000  0.315247  0.791768  1
  Co  Co6  1  0.000000  0.500000  0.988832  1
  Co  Co7  1  0.500000  0.000000  0.011168  1
  Co  Co8  1  0.500000  0.302683  0.429479  1
  Co  Co9  1  0.500000  0.697317  0.429479  1
  Co  Co10  1  0.000000  0.197317  0.570521  1
  Co  Co11  1  0.000000  0.802683  0.570521  1
  Co  Co12  1  0.500000  0.882580  0.709223  1
  Co  Co13  1  0.500000  0.117420  0.709223  1
  Co  Co14  1  0.000000  0.617420  0.290777  1
  Co  Co15  1  0.000000  0.382580  0.290777  1
  Co  Co16  1  0.500000  0.331489  0.995664  1
  Co  Co17  1  0.500000  0.668511  0.995664  1
  Co  Co18  1  0.000000  0.168511  0.004336  1
  Co  Co19  1  0.000000  0.831489  0.004336  1
  As  As20  1  0.500000  0.304056  0.613092  1
  As  As21  1  0.500000  0.695944  0.613092  1
  As  As22  1  0.000000  0.195944  0.386908  1
  As  As23  1  0.000000  0.804056  0.386908  1
  As  As24  1  0.500000  0.500000  0.888906  1
  As  As25  1  0.000000  0.000000  0.111094  1
  As  As26  1  0.500000  0.843791  0.891738  1
  As  As27  1  0.500000  0.156209  0.891738  1
  As  As28  1  0.000000  0.656209  0.108262  1
  As  As29  1  0.000000  0.343791  0.108262  1
  As  As30  1  0.500000  0.500000  0.351171  1
  As  As31  1  0.000000  0.000000  0.648829  1
  Rh  Rh32  1  0.500000  0.500000  0.157623  1
  Rh  Rh33  1  0.000000  0.000000  0.842377  1
  Rh  Rh34  1  0.500000  0.500000  0.703086  1
  Rh  Rh35  1  0.000000  0.000000  0.296914  1
