# generated using pymatgen
data_Tb2Sm2AlOs7
_symmetry_space_group_name_H-M   'P 1'
_cell_length_a   5.39641000
_cell_length_b   5.39641160
_cell_length_c   8.79605900
_cell_angle_alpha   90.00000000
_cell_angle_beta   90.00000000
_cell_angle_gamma   119.99999017
_symmetry_Int_Tables_number   1
_chemical_formula_structural   Tb2Sm2AlOs7
_chemical_formula_sum   'Tb2 Sm2 Al1 Os7'
_cell_volume   221.83435959
_cell_formula_units_Z   1
loop_
 _symmetry_equiv_pos_site_id
 _symmetry_equiv_pos_as_xyz
  1  'x, y, z'
loop_
 _atom_site_type_symbol
 _atom_site_label
 _atom_site_symmetry_multiplicity
 _atom_site_fract_x
 _atom_site_fract_y
 _atom_site_fract_z
 _atom_site_occupancy
  Tb  Tb0  1  0.666667  0.333333  0.935296  1
  Tb  Tb1  1  0.333333  0.666667  0.064704  1
  Sm  Sm2  1  0.333333  0.666667  0.427896  1
  Sm  Sm3  1  0.666667  0.333333  0.572104  1
  Al  Al4  1  0.000000  0.000000  0.500000  1
  Os  Os5  1  0.000000  0.000000  0.000000  1
  Os  Os6  1  0.828880  0.171120  0.248005  1
  Os  Os7  1  0.828880  0.657761  0.248005  1
  Os  Os8  1  0.342239  0.171120  0.248005  1
  Os  Os9  1  0.171120  0.828880  0.751995  1
  Os  Os10  1  0.171120  0.342239  0.751995  1
  Os  Os11  1  0.657761  0.828880  0.751995  1
