# generated using pymatgen
data_Ho2Ta3Nb(B2Ru5)2
_symmetry_space_group_name_H-M   'P 1'
_cell_length_a   9.55010718
_cell_length_b   9.55010746
_cell_length_c   3.08479500
_cell_angle_alpha   90.00000000
_cell_angle_beta   90.00000000
_cell_angle_gamma   90.59183569
_symmetry_Int_Tables_number   1
_chemical_formula_structural   Ho2Ta3Nb(B2Ru5)2
_chemical_formula_sum   'Ho2 Ta3 Nb1 B4 Ru10'
_cell_volume   281.33232992
_cell_formula_units_Z   1
loop_
 _symmetry_equiv_pos_site_id
 _symmetry_equiv_pos_as_xyz
  1  'x, y, z'
loop_
 _atom_site_type_symbol
 _atom_site_label
 _atom_site_symmetry_multiplicity
 _atom_site_fract_x
 _atom_site_fract_y
 _atom_site_fract_z
 _atom_site_occupancy
  Ho  Ho0  1  0.823816  0.676240  0.000000  1
  Ho  Ho1  1  0.176240  0.323816  0.000000  1
  Ta  Ta2  1  0.675867  0.175867  0.000000  1
  Ta  Ta3  1  0.499878  0.500042  0.000000  1
  Ta  Ta4  1  0.000042  0.999878  0.000000  1
  Nb  Nb5  1  0.324284  0.824284  0.000000  1
  B  B6  1  0.620462  0.879345  0.000000  1
  B  B7  1  0.379345  0.120462  0.000000  1
  B  B8  1  0.121082  0.621082  0.000000  1
  B  B9  1  0.879016  0.379016  0.000000  1
  Ru  Ru10  1  0.560094  0.722813  0.500000  1
  Ru  Ru11  1  0.440990  0.277129  0.500000  1
  Ru  Ru12  1  0.080553  0.785147  0.500000  1
  Ru  Ru13  1  0.918107  0.214478  0.500000  1
  Ru  Ru14  1  0.285147  0.580553  0.500000  1
  Ru  Ru15  1  0.714478  0.418107  0.500000  1
  Ru  Ru16  1  0.222813  0.060094  0.500000  1
  Ru  Ru17  1  0.777129  0.940990  0.500000  1
  Ru  Ru18  1  0.500923  0.000923  0.500000  1
  Ru  Ru19  1  0.999734  0.499734  0.500000  1
