# generated using pymatgen
data_YTm3(AlRu)4
_symmetry_space_group_name_H-M   'P 1'
_cell_length_a   4.03273300
_cell_length_b   6.97783210
_cell_length_c   8.01373839
_cell_angle_alpha   89.73619800
_cell_angle_beta   90.00000000
_cell_angle_gamma   90.00000000
_symmetry_Int_Tables_number   1
_chemical_formula_structural   YTm3(AlRu)4
_chemical_formula_sum   'Y1 Tm3 Al4 Ru4'
_cell_volume   225.50207461
_cell_formula_units_Z   1
loop_
 _symmetry_equiv_pos_site_id
 _symmetry_equiv_pos_as_xyz
  1  'x, y, z'
loop_
 _atom_site_type_symbol
 _atom_site_label
 _atom_site_symmetry_multiplicity
 _atom_site_fract_x
 _atom_site_fract_y
 _atom_site_fract_z
 _atom_site_occupancy
  Y  Y0  1  0.250000  0.969989  0.321897  1
  Tm  Tm1  1  0.750000  0.530165  0.822576  1
  Tm  Tm2  1  0.250000  0.468500  0.176550  1
  Tm  Tm3  1  0.750000  0.031560  0.678572  1
  Al  Al4  1  0.750000  0.639706  0.442247  1
  Al  Al5  1  0.750000  0.139105  0.058320  1
  Al  Al6  1  0.250000  0.361518  0.559578  1
  Al  Al7  1  0.250000  0.860305  0.940337  1
  Ru  Ru8  1  0.750000  0.765183  0.124489  1
  Ru  Ru9  1  0.750000  0.274999  0.372871  1
  Ru  Ru10  1  0.250000  0.229401  0.872944  1
  Ru  Ru11  1  0.250000  0.729569  0.629615  1
