# generated using pymatgen
data_Dy16In4Ir2RuPt
_symmetry_space_group_name_H-M   'P 1'
_cell_length_a   9.68550356
_cell_length_b   9.68550508
_cell_length_c   9.67258898
_cell_angle_alpha   59.94916958
_cell_angle_beta   59.94916574
_cell_angle_gamma   59.91786151
_symmetry_Int_Tables_number   1
_chemical_formula_structural   Dy16In4Ir2RuPt
_chemical_formula_sum   'Dy16 In4 Ir2 Ru1 Pt1'
_cell_volume   640.71988181
_cell_formula_units_Z   1
loop_
 _symmetry_equiv_pos_site_id
 _symmetry_equiv_pos_as_xyz
  1  'x, y, z'
loop_
 _atom_site_type_symbol
 _atom_site_label
 _atom_site_symmetry_multiplicity
 _atom_site_fract_x
 _atom_site_fract_y
 _atom_site_fract_z
 _atom_site_occupancy
  Dy  Dy0  1  0.597492  0.597492  0.597715  1
  Dy  Dy1  1  0.603208  0.603208  0.198721  1
  Dy  Dy2  1  0.601308  0.200606  0.603779  1
  Dy  Dy3  1  0.200606  0.601308  0.603779  1
  Dy  Dy4  1  0.054572  0.440884  0.441499  1
  Dy  Dy5  1  0.439455  0.060540  0.057504  1
  Dy  Dy6  1  0.440884  0.054572  0.441499  1
  Dy  Dy7  1  0.060540  0.439455  0.057504  1
  Dy  Dy8  1  0.441113  0.441113  0.052914  1
  Dy  Dy9  1  0.058192  0.058192  0.440497  1
  Dy  Dy10  1  0.190453  0.809238  0.811265  1
  Dy  Dy11  1  0.813181  0.188989  0.189366  1
  Dy  Dy12  1  0.809238  0.190453  0.811265  1
  Dy  Dy13  1  0.188989  0.813181  0.189366  1
  Dy  Dy14  1  0.810964  0.810964  0.190060  1
  Dy  Dy15  1  0.189693  0.189693  0.813750  1
  In  In16  1  0.833107  0.833107  0.833342  1
  In  In17  1  0.832695  0.832695  0.501630  1
  In  In18  1  0.833041  0.501035  0.833094  1
  In  In19  1  0.501035  0.833041  0.833094  1
  Ir  Ir20  1  0.391185  0.825729  0.390460  1
  Ir  Ir21  1  0.825729  0.391185  0.390460  1
  Ru  Ru22  1  0.391089  0.391089  0.826681  1
  Pt  Pt23  1  0.392229  0.392229  0.390756  1
