# generated using pymatgen
data_Dy2YCu4(SnGe)2
_symmetry_space_group_name_H-M   'P 1'
_cell_length_a   8.25954734
_cell_length_b   8.25954658
_cell_length_c   8.25954679
_cell_angle_alpha   149.34497310
_cell_angle_beta   131.97830403
_cell_angle_gamma   58.05520809
_symmetry_Int_Tables_number   1
_chemical_formula_structural   Dy2YCu4(SnGe)2
_chemical_formula_sum   'Dy2 Y1 Cu4 Sn2 Ge2'
_cell_volume   211.97588322
_cell_formula_units_Z   1
loop_
 _symmetry_equiv_pos_site_id
 _symmetry_equiv_pos_as_xyz
  1  'x, y, z'
loop_
 _atom_site_type_symbol
 _atom_site_label
 _atom_site_symmetry_multiplicity
 _atom_site_fract_x
 _atom_site_fract_y
 _atom_site_fract_z
 _atom_site_occupancy
  Dy  Dy0  1  0.874108  0.874108  0.000000  1
  Dy  Dy1  1  0.125892  0.125892  0.000000  1
  Y  Y2  1  0.500000  0.000000  0.500000  1
  Cu  Cu3  1  0.469640  0.658800  0.810840  1
  Cu  Cu4  1  0.847960  0.658800  0.189160  1
  Cu  Cu5  1  0.152040  0.341200  0.810840  1
  Cu  Cu6  1  0.530360  0.341200  0.189160  1
  Sn  Sn7  1  0.282195  0.782195  0.500000  1
  Sn  Sn8  1  0.717805  0.217805  0.500000  1
  Ge  Ge9  1  0.810555  0.500000  0.310555  1
  Ge  Ge10  1  0.189445  0.500000  0.689445  1
