# generated using pymatgen
data_Eu2Zn5Pb
_symmetry_space_group_name_H-M   'P 1'
_cell_length_a   8.69068857
_cell_length_b   8.69068850
_cell_length_c   9.27005700
_cell_angle_alpha   90.00000000
_cell_angle_beta   90.00000000
_cell_angle_gamma   149.22123277
_symmetry_Int_Tables_number   1
_chemical_formula_structural   Eu2Zn5Pb
_chemical_formula_sum   'Eu4 Zn10 Pb2'
_cell_volume   358.28365717
_cell_formula_units_Z   2
loop_
 _symmetry_equiv_pos_site_id
 _symmetry_equiv_pos_as_xyz
  1  'x, y, z'
loop_
 _atom_site_type_symbol
 _atom_site_label
 _atom_site_symmetry_multiplicity
 _atom_site_fract_x
 _atom_site_fract_y
 _atom_site_fract_z
 _atom_site_occupancy
  Eu  Eu0  1  0.204071  0.795929  0.250000  1
  Eu  Eu1  1  0.795929  0.204071  0.750000  1
  Eu  Eu2  1  0.000000  0.000000  0.500000  1
  Eu  Eu3  1  0.000000  0.000000  0.000000  1
  Zn  Zn4  1  0.814089  0.185911  0.391149  1
  Zn  Zn5  1  0.185911  0.814089  0.608851  1
  Zn  Zn6  1  0.814089  0.185911  0.108851  1
  Zn  Zn7  1  0.185911  0.814089  0.891149  1
  Zn  Zn8  1  0.659313  0.340687  0.487913  1
  Zn  Zn9  1  0.340687  0.659313  0.512087  1
  Zn  Zn10  1  0.659313  0.340687  0.012087  1
  Zn  Zn11  1  0.340687  0.659313  0.987913  1
  Zn  Zn12  1  0.391021  0.608979  0.250000  1
  Zn  Zn13  1  0.608979  0.391021  0.750000  1
  Pb  Pb14  1  0.556067  0.443933  0.250000  1
  Pb  Pb15  1  0.443933  0.556067  0.750000  1
