# generated using pymatgen
data_HoLu4TlBi2
_symmetry_space_group_name_H-M   'P 1'
_cell_length_a   8.06524800
_cell_length_b   9.32421600
_cell_length_c   11.85329400
_cell_angle_alpha   90.00000000
_cell_angle_beta   90.00000000
_cell_angle_gamma   90.00000000
_symmetry_Int_Tables_number   1
_chemical_formula_structural   HoLu4TlBi2
_chemical_formula_sum   'Ho4 Lu16 Tl4 Bi8'
_cell_volume   891.39277194
_cell_formula_units_Z   4
loop_
 _symmetry_equiv_pos_site_id
 _symmetry_equiv_pos_as_xyz
  1  'x, y, z'
loop_
 _atom_site_type_symbol
 _atom_site_label
 _atom_site_symmetry_multiplicity
 _atom_site_fract_x
 _atom_site_fract_y
 _atom_site_fract_z
 _atom_site_occupancy
  Ho  Ho0  1  0.313196  0.250000  0.216130  1
  Ho  Ho1  1  0.813196  0.250000  0.283870  1
  Ho  Ho2  1  0.686804  0.750000  0.783870  1
  Ho  Ho3  1  0.186804  0.750000  0.716130  1
  Lu  Lu4  1  0.349011  0.750000  0.212532  1
  Lu  Lu5  1  0.849011  0.750000  0.287468  1
  Lu  Lu6  1  0.650989  0.250000  0.787468  1
  Lu  Lu7  1  0.150989  0.250000  0.712532  1
  Lu  Lu8  1  0.690357  0.563535  0.059481  1
  Lu  Lu9  1  0.190357  0.936465  0.440519  1
  Lu  Lu10  1  0.309643  0.063535  0.940519  1
  Lu  Lu11  1  0.809643  0.436465  0.559481  1
  Lu  Lu12  1  0.309643  0.436465  0.940519  1
  Lu  Lu13  1  0.809643  0.063535  0.559481  1
  Lu  Lu14  1  0.690357  0.936465  0.059481  1
  Lu  Lu15  1  0.190357  0.563535  0.440519  1
  Lu  Lu16  1  0.470451  0.250000  0.491948  1
  Lu  Lu17  1  0.970451  0.250000  0.008052  1
  Lu  Lu18  1  0.529549  0.750000  0.508052  1
  Lu  Lu19  1  0.029549  0.750000  0.991948  1
  Tl  Tl20  1  0.404995  0.750000  0.959584  1
  Tl  Tl21  1  0.904995  0.750000  0.540416  1
  Tl  Tl22  1  0.595005  0.250000  0.040416  1
  Tl  Tl23  1  0.095005  0.250000  0.459584  1
  Bi  Bi24  1  0.557936  0.998027  0.323713  1
  Bi  Bi25  1  0.057936  0.501973  0.176287  1
  Bi  Bi26  1  0.442064  0.498027  0.676287  1
  Bi  Bi27  1  0.942064  0.001973  0.823713  1
  Bi  Bi28  1  0.442064  0.001973  0.676287  1
  Bi  Bi29  1  0.942064  0.498027  0.823713  1
  Bi  Bi30  1  0.557936  0.501973  0.323713  1
  Bi  Bi31  1  0.057936  0.998027  0.176287  1
