# generated using pymatgen
data_NdTh3(InPd2)2
_symmetry_space_group_name_H-M   'P 1'
_cell_length_a   7.96679301
_cell_length_b   7.96679301
_cell_length_c   3.82829300
_cell_angle_alpha   90.00000000
_cell_angle_beta   90.00000000
_cell_angle_gamma   89.03240039
_symmetry_Int_Tables_number   1
_chemical_formula_structural   NdTh3(InPd2)2
_chemical_formula_sum   'Nd1 Th3 In2 Pd4'
_cell_volume   242.94630823
_cell_formula_units_Z   1
loop_
 _symmetry_equiv_pos_site_id
 _symmetry_equiv_pos_as_xyz
  1  'x, y, z'
loop_
 _atom_site_type_symbol
 _atom_site_label
 _atom_site_symmetry_multiplicity
 _atom_site_fract_x
 _atom_site_fract_y
 _atom_site_fract_z
 _atom_site_occupancy
  Nd  Nd0  1  0.676202  0.176202  0.500000  1
  Th  Th1  1  0.327011  0.827011  0.500000  1
  Th  Th2  1  0.824165  0.673242  0.500000  1
  Th  Th3  1  0.173242  0.324165  0.500000  1
  In  In4  1  0.997288  0.000375  0.000000  1
  In  In5  1  0.500375  0.497288  0.000000  1
  Pd  Pd6  1  0.365655  0.125016  0.000000  1
  Pd  Pd7  1  0.879339  0.379339  0.000000  1
  Pd  Pd8  1  0.131708  0.631708  0.000000  1
  Pd  Pd9  1  0.625016  0.865655  0.000000  1
