# generated using pymatgen
data_Rb17Lu5O16
_symmetry_space_group_name_H-M   'P 1'
_cell_length_a   20.24352849
_cell_length_b   20.24352818
_cell_length_c   7.32216853
_cell_angle_alpha   84.88033517
_cell_angle_beta   84.88033080
_cell_angle_gamma   159.21199241
_symmetry_Int_Tables_number   1
_chemical_formula_structural   Rb17Lu5O16
_chemical_formula_sum   'Rb17 Lu5 O16'
_cell_volume   925.56812510
_cell_formula_units_Z   1
loop_
 _symmetry_equiv_pos_site_id
 _symmetry_equiv_pos_as_xyz
  1  'x, y, z'
loop_
 _atom_site_type_symbol
 _atom_site_label
 _atom_site_symmetry_multiplicity
 _atom_site_fract_x
 _atom_site_fract_y
 _atom_site_fract_z
 _atom_site_occupancy
  Rb  Rb0  1  0.387826  0.665226  0.061289  1
  Rb  Rb1  1  0.477803  0.569879  0.081674  1
  Rb  Rb2  1  0.321533  0.782745  0.059041  1
  Rb  Rb3  1  0.089492  0.916464  0.188460  1
  Rb  Rb4  1  0.168696  0.823721  0.474560  1
  Rb  Rb5  1  0.333405  0.607003  0.584645  1
  Rb  Rb6  1  0.221569  0.674168  0.611884  1
  Rb  Rb7  1  0.424145  0.516066  0.605807  1
  Rb  Rb8  1  0.665226  0.387826  0.061289  1
  Rb  Rb9  1  0.569879  0.477803  0.081674  1
  Rb  Rb10  1  0.782745  0.321533  0.059041  1
  Rb  Rb11  1  0.916464  0.089492  0.188460  1
  Rb  Rb12  1  0.823721  0.168696  0.474560  1
  Rb  Rb13  1  0.607003  0.333405  0.584645  1
  Rb  Rb14  1  0.674168  0.221569  0.611884  1
  Rb  Rb15  1  0.516066  0.424145  0.605807  1
  Rb  Rb16  1  0.991344  0.991344  0.492953  1
  Lu  Lu17  1  0.998224  0.998224  0.996671  1
  Lu  Lu18  1  0.085490  0.906527  0.682967  1
  Lu  Lu19  1  0.178435  0.820974  0.989236  1
  Lu  Lu20  1  0.906527  0.085490  0.682967  1
  Lu  Lu21  1  0.820974  0.178435  0.989236  1
  O  O22  1  0.086362  0.458306  0.010504  1
  O  O23  1  0.172474  0.358415  0.391472  1
  O  O24  1  0.458306  0.086362  0.010504  1
  O  O25  1  0.265819  0.265819  0.026512  1
  O  O26  1  0.540179  0.910642  0.277563  1
  O  O27  1  0.212547  0.784537  0.779408  1
  O  O28  1  0.040706  0.954447  0.827601  1
  O  O29  1  0.128402  0.869997  0.872117  1
  O  O30  1  0.358415  0.172474  0.391472  1
  O  O31  1  0.636321  0.821104  0.653046  1
  O  O32  1  0.910642  0.540179  0.277563  1
  O  O33  1  0.727008  0.727008  0.287810  1
  O  O34  1  0.784537  0.212547  0.779408  1
  O  O35  1  0.954447  0.040706  0.827601  1
  O  O36  1  0.869997  0.128402  0.872117  1
  O  O37  1  0.821104  0.636321  0.653046  1
