# generated using pymatgen
data_Th4Mn(MoN4)3
_symmetry_space_group_name_H-M   'P 1'
_cell_length_a   5.56435671
_cell_length_b   5.64610019
_cell_length_c   7.89843603
_cell_angle_alpha   89.88151220
_cell_angle_beta   90.05092864
_cell_angle_gamma   90.02856534
_symmetry_Int_Tables_number   1
_chemical_formula_structural   Th4Mn(MoN4)3
_chemical_formula_sum   'Th4 Mn1 Mo3 N12'
_cell_volume   248.14383768
_cell_formula_units_Z   1
loop_
 _symmetry_equiv_pos_site_id
 _symmetry_equiv_pos_as_xyz
  1  'x, y, z'
loop_
 _atom_site_type_symbol
 _atom_site_label
 _atom_site_symmetry_multiplicity
 _atom_site_fract_x
 _atom_site_fract_y
 _atom_site_fract_z
 _atom_site_occupancy
  Th  Th0  1  0.502614  0.541683  0.244501  1
  Th  Th1  1  0.995432  0.050318  0.243864  1
  Th  Th2  1  0.497386  0.458317  0.755499  1
  Th  Th3  1  0.004568  0.949682  0.756136  1
  Mn  Mn4  1  0.000000  0.500000  0.000000  1
  Mo  Mo5  1  0.500000  0.000000  0.500000  1
  Mo  Mo6  1  0.000000  0.500000  0.500000  1
  Mo  Mo7  1  0.500000  0.000000  0.000000  1
  N  N8  1  0.426565  0.983781  0.250079  1
  N  N9  1  0.073421  0.483166  0.247534  1
  N  N10  1  0.573435  0.016219  0.749921  1
  N  N11  1  0.926579  0.516834  0.752466  1
  N  N12  1  0.797688  0.793543  0.037437  1
  N  N13  1  0.698260  0.300208  0.461849  1
  N  N14  1  0.199041  0.199227  0.537807  1
  N  N15  1  0.293536  0.702019  0.961258  1
  N  N16  1  0.202312  0.206457  0.962563  1
  N  N17  1  0.301740  0.699792  0.538151  1
  N  N18  1  0.800959  0.800773  0.462193  1
  N  N19  1  0.706464  0.297981  0.038742  1
