# generated using pymatgen
data_Nd3Sm(LuBi)6
_symmetry_space_group_name_H-M   'P 1'
_cell_length_a   8.27465300
_cell_length_b   9.43484900
_cell_length_c   12.18648300
_cell_angle_alpha   90.00000000
_cell_angle_beta   90.00000000
_cell_angle_gamma   90.00000000
_symmetry_Int_Tables_number   1
_chemical_formula_structural   Nd3Sm(LuBi)6
_chemical_formula_sum   'Nd6 Sm2 Lu12 Bi12'
_cell_volume   951.39996574
_cell_formula_units_Z   2
loop_
 _symmetry_equiv_pos_site_id
 _symmetry_equiv_pos_as_xyz
  1  'x, y, z'
loop_
 _atom_site_type_symbol
 _atom_site_label
 _atom_site_symmetry_multiplicity
 _atom_site_fract_x
 _atom_site_fract_y
 _atom_site_fract_z
 _atom_site_occupancy
  Nd  Nd0  1  0.184585  0.750000  0.719782  1
  Nd  Nd1  1  0.684585  0.750000  0.780218  1
  Nd  Nd2  1  0.817217  0.250000  0.280828  1
  Nd  Nd3  1  0.317217  0.250000  0.219172  1
  Nd  Nd4  1  0.351056  0.750000  0.216876  1
  Nd  Nd5  1  0.851056  0.750000  0.283124  1
  Sm  Sm6  1  0.647452  0.250000  0.782620  1
  Sm  Sm7  1  0.147452  0.250000  0.717380  1
  Lu  Lu8  1  0.022687  0.750000  0.987934  1
  Lu  Lu9  1  0.522687  0.750000  0.512066  1
  Lu  Lu10  1  0.977095  0.250000  0.009689  1
  Lu  Lu11  1  0.477095  0.250000  0.490311  1
  Lu  Lu12  1  0.309327  0.432934  0.940630  1
  Lu  Lu13  1  0.809327  0.067066  0.559370  1
  Lu  Lu14  1  0.691057  0.933297  0.057502  1
  Lu  Lu15  1  0.191057  0.566703  0.442498  1
  Lu  Lu16  1  0.691057  0.566703  0.057502  1
  Lu  Lu17  1  0.191057  0.933297  0.442498  1
  Lu  Lu18  1  0.309327  0.067066  0.940630  1
  Lu  Lu19  1  0.809327  0.432934  0.559370  1
  Bi  Bi20  1  0.434897  0.005687  0.668668  1
  Bi  Bi21  1  0.934897  0.494313  0.831332  1
  Bi  Bi22  1  0.564783  0.504058  0.333806  1
  Bi  Bi23  1  0.064783  0.995942  0.166194  1
  Bi  Bi24  1  0.564783  0.995942  0.333806  1
  Bi  Bi25  1  0.064783  0.504058  0.166194  1
  Bi  Bi26  1  0.434897  0.494313  0.668668  1
  Bi  Bi27  1  0.934897  0.005687  0.831332  1
  Bi  Bi28  1  0.401648  0.750000  0.957173  1
  Bi  Bi29  1  0.901648  0.750000  0.542827  1
  Bi  Bi30  1  0.598132  0.250000  0.040680  1
  Bi  Bi31  1  0.098132  0.250000  0.459320  1
