# generated using pymatgen
data_Yb4Si3Ir4
_symmetry_space_group_name_H-M   'P 1'
_cell_length_a   10.63221667
_cell_length_b   10.63221706
_cell_length_c   7.55136319
_cell_angle_alpha   72.46753343
_cell_angle_beta   72.46753183
_cell_angle_gamma   30.99399532
_symmetry_Int_Tables_number   1
_chemical_formula_structural   Yb4Si3Ir4
_chemical_formula_sum   'Yb8 Si6 Ir8'
_cell_volume   417.54746021
_cell_formula_units_Z   2
loop_
 _symmetry_equiv_pos_site_id
 _symmetry_equiv_pos_as_xyz
  1  'x, y, z'
loop_
 _atom_site_type_symbol
 _atom_site_label
 _atom_site_symmetry_multiplicity
 _atom_site_fract_x
 _atom_site_fract_y
 _atom_site_fract_z
 _atom_site_occupancy
  Yb  Yb0  1  0.208218  0.448157  0.410183  1
  Yb  Yb1  1  0.551843  0.791782  0.089817  1
  Yb  Yb2  1  0.448157  0.208218  0.910183  1
  Yb  Yb3  1  0.924813  0.211055  0.333954  1
  Yb  Yb4  1  0.788945  0.075187  0.166046  1
  Yb  Yb5  1  0.075187  0.788945  0.666046  1
  Yb  Yb6  1  0.211055  0.924813  0.833954  1
  Yb  Yb7  1  0.791782  0.551843  0.589817  1
  Si  Si8  1  0.593785  0.406215  0.750000  1
  Si  Si9  1  0.406215  0.593785  0.250000  1
  Si  Si10  1  0.312983  0.032850  0.436295  1
  Si  Si11  1  0.967150  0.687017  0.063705  1
  Si  Si12  1  0.687017  0.967150  0.563705  1
  Si  Si13  1  0.032850  0.312983  0.936295  1
  Ir  Ir14  1  0.292554  0.582650  0.028238  1
  Ir  Ir15  1  0.582650  0.292554  0.528238  1
  Ir  Ir16  1  0.707446  0.417350  0.971762  1
  Ir  Ir17  1  0.083630  0.355893  0.188721  1
  Ir  Ir18  1  0.644107  0.916370  0.311279  1
  Ir  Ir19  1  0.417350  0.707446  0.471762  1
  Ir  Ir20  1  0.916370  0.644107  0.811279  1
  Ir  Ir21  1  0.355893  0.083630  0.688721  1
