# generated using pymatgen
data_Th5Si3C
_symmetry_space_group_name_H-M   'P 1'
_cell_length_a   8.84461400
_cell_length_b   8.84461418
_cell_length_c   6.45041000
_cell_angle_alpha   90.00000000
_cell_angle_beta   90.00000000
_cell_angle_gamma   120.00005917
_symmetry_Int_Tables_number   1
_chemical_formula_structural   Th5Si3C
_chemical_formula_sum   'Th10 Si6 C2'
_cell_volume   436.99399562
_cell_formula_units_Z   2
loop_
 _symmetry_equiv_pos_site_id
 _symmetry_equiv_pos_as_xyz
  1  'x, y, z'
loop_
 _atom_site_type_symbol
 _atom_site_label
 _atom_site_symmetry_multiplicity
 _atom_site_fract_x
 _atom_site_fract_y
 _atom_site_fract_z
 _atom_site_occupancy
  Th  Th0  1  0.666666  0.333332  0.000000  1
  Th  Th1  1  0.333332  0.666666  0.000000  1
  Th  Th2  1  0.232371  0.000000  0.249998  1
  Th  Th3  1  0.000000  0.232371  0.249998  1
  Th  Th4  1  0.767628  0.767628  0.250000  1
  Th  Th5  1  0.666666  0.333332  0.500001  1
  Th  Th6  1  0.333332  0.666666  0.500001  1
  Th  Th7  1  0.232371  0.232371  0.749999  1
  Th  Th8  1  0.767629  0.000000  0.750001  1
  Th  Th9  1  0.000000  0.767629  0.750001  1
  Si  Si10  1  0.600215  0.000000  0.249998  1
  Si  Si11  1  0.399786  0.399786  0.249998  1
  Si  Si12  1  0.000000  0.600215  0.249998  1
  Si  Si13  1  0.399786  0.000000  0.749999  1
  Si  Si14  1  0.000000  0.399786  0.749999  1
  Si  Si15  1  0.600214  0.600214  0.750001  1
  C  C16  1  0.000000  0.000000  0.000000  1
  C  C17  1  0.000000  0.000000  0.500001  1
