# generated using pymatgen
data_Tb6ZrAl15Os7
_symmetry_space_group_name_H-M   'P 1'
_cell_length_a   9.01721215
_cell_length_b   9.01721301
_cell_length_c   9.00961877
_cell_angle_alpha   59.97211313
_cell_angle_beta   59.97210675
_cell_angle_gamma   60.00000040
_symmetry_Int_Tables_number   1
_chemical_formula_structural   Tb6ZrAl15Os7
_chemical_formula_sum   'Tb6 Zr1 Al15 Os7'
_cell_volume   517.78900746
_cell_formula_units_Z   1
loop_
 _symmetry_equiv_pos_site_id
 _symmetry_equiv_pos_as_xyz
  1  'x, y, z'
loop_
 _atom_site_type_symbol
 _atom_site_label
 _atom_site_symmetry_multiplicity
 _atom_site_fract_x
 _atom_site_fract_y
 _atom_site_fract_z
 _atom_site_occupancy
  Tb  Tb0  1  0.707807  0.707807  0.285814  1
  Tb  Tb1  1  0.298571  0.707807  0.285814  1
  Tb  Tb2  1  0.707807  0.298571  0.285814  1
  Tb  Tb3  1  0.286406  0.286406  0.715866  1
  Tb  Tb4  1  0.711322  0.286406  0.715866  1
  Tb  Tb5  1  0.286406  0.711322  0.715866  1
  Zr  Zr6  1  0.880977  0.880977  0.357067  1
  Al  Al7  1  0.878217  0.364284  0.879280  1
  Al  Al8  1  0.364284  0.878217  0.879280  1
  Al  Al9  1  0.878217  0.878217  0.879280  1
  Al  Al10  1  0.124107  0.124107  0.627680  1
  Al  Al11  1  0.120729  0.636450  0.122094  1
  Al  Al12  1  0.636450  0.120729  0.122094  1
  Al  Al13  1  0.120729  0.120729  0.122094  1
  Al  Al14  1  0.669406  0.669406  0.991783  1
  Al  Al15  1  0.665322  0.998310  0.671047  1
  Al  Al16  1  0.998310  0.665322  0.671047  1
  Al  Al17  1  0.665322  0.665322  0.671047  1
  Al  Al18  1  0.331073  0.331073  0.006780  1
  Al  Al19  1  0.332649  0.002250  0.332451  1
  Al  Al20  1  0.002250  0.332649  0.332451  1
  Al  Al21  1  0.332649  0.332649  0.332451  1
  Os  Os22  1  0.003705  0.003705  0.988884  1
  Os  Os23  1  0.000796  0.000796  0.502323  1
  Os  Os24  1  0.496084  0.000796  0.502323  1
  Os  Os25  1  0.000796  0.496084  0.502323  1
  Os  Os26  1  0.499435  0.499435  0.000392  1
  Os  Os27  1  0.000739  0.499435  0.000392  1
  Os  Os28  1  0.499435  0.000739  0.000392  1
