# generated using pymatgen
data_Zr8TlIn2Pd8Pb
_symmetry_space_group_name_H-M   'P 1'
_cell_length_a   7.57666700
_cell_length_b   7.57666700
_cell_length_c   6.93847000
_cell_angle_alpha   90.00000000
_cell_angle_beta   90.00000000
_cell_angle_gamma   90.00000000
_symmetry_Int_Tables_number   1
_chemical_formula_structural   Zr8TlIn2Pd8Pb
_chemical_formula_sum   'Zr8 Tl1 In2 Pd8 Pb1'
_cell_volume   398.30899583
_cell_formula_units_Z   1
loop_
 _symmetry_equiv_pos_site_id
 _symmetry_equiv_pos_as_xyz
  1  'x, y, z'
loop_
 _atom_site_type_symbol
 _atom_site_label
 _atom_site_symmetry_multiplicity
 _atom_site_fract_x
 _atom_site_fract_y
 _atom_site_fract_z
 _atom_site_occupancy
  Zr  Zr0  1  0.651025  0.649725  0.498920  1
  Zr  Zr1  1  0.813353  0.187759  0.499145  1
  Zr  Zr2  1  0.687759  0.686647  0.000855  1
  Zr  Zr3  1  0.850275  0.151025  0.001080  1
  Zr  Zr4  1  0.186647  0.812241  0.499145  1
  Zr  Zr5  1  0.312241  0.313353  0.000855  1
  Zr  Zr6  1  0.149725  0.848975  0.001080  1
  Zr  Zr7  1  0.348975  0.350275  0.498920  1
  Tl  Tl8  1  0.000000  0.500000  0.250000  1
  In  In9  1  0.500000  0.000000  0.250000  1
  In  In10  1  0.000000  0.500000  0.750000  1
  Pd  Pd11  1  0.625482  0.367349  0.214097  1
  Pd  Pd12  1  0.367082  0.624752  0.786544  1
  Pd  Pd13  1  0.875248  0.867082  0.713456  1
  Pd  Pd14  1  0.632918  0.375248  0.786544  1
  Pd  Pd15  1  0.374518  0.632651  0.214097  1
  Pd  Pd16  1  0.132651  0.125482  0.285903  1
  Pd  Pd17  1  0.867349  0.874518  0.285903  1
  Pd  Pd18  1  0.124752  0.132918  0.713456  1
  Pb  Pb19  1  0.500000  0.000000  0.750000  1
