# generated using pymatgen
data_Tb6PrLu(Si3Pd)4
_symmetry_space_group_name_H-M   'P 1'
_cell_length_a   8.20008200
_cell_length_b   8.19436402
_cell_length_c   8.29413600
_cell_angle_alpha   90.00000000
_cell_angle_beta   90.00000000
_cell_angle_gamma   120.02308554
_symmetry_Int_Tables_number   1
_chemical_formula_structural   Tb6PrLu(Si3Pd)4
_chemical_formula_sum   'Tb6 Pr1 Lu1 Si12 Pd4'
_cell_volume   482.54093023
_cell_formula_units_Z   1
loop_
 _symmetry_equiv_pos_site_id
 _symmetry_equiv_pos_as_xyz
  1  'x, y, z'
loop_
 _atom_site_type_symbol
 _atom_site_label
 _atom_site_symmetry_multiplicity
 _atom_site_fract_x
 _atom_site_fract_y
 _atom_site_fract_z
 _atom_site_occupancy
  Tb  Tb0  1  0.499887  0.999777  0.750000  1
  Tb  Tb1  1  0.999801  0.499901  0.250000  1
  Tb  Tb2  1  0.000164  0.500103  0.750000  1
  Tb  Tb3  1  0.500102  0.499901  0.250000  1
  Tb  Tb4  1  0.499938  0.500103  0.750000  1
  Tb  Tb5  1  0.000003  0.000006  0.750000  1
  Pr  Pr6  1  0.999899  0.999797  0.250000  1
  Lu  Lu7  1  0.500036  0.000071  0.250000  1
  Si  Si8  1  0.166656  0.333311  0.996922  1
  Si  Si9  1  0.833356  0.666713  0.996634  1
  Si  Si10  1  0.667756  0.833993  0.997766  1
  Si  Si11  1  0.833356  0.666713  0.503366  1
  Si  Si12  1  0.332240  0.166049  0.997479  1
  Si  Si13  1  0.166656  0.333311  0.503078  1
  Si  Si14  1  0.166236  0.833993  0.997766  1
  Si  Si15  1  0.332240  0.166049  0.502521  1
  Si  Si16  1  0.833809  0.166049  0.997479  1
  Si  Si17  1  0.667756  0.833993  0.502234  1
  Si  Si18  1  0.833809  0.166049  0.502521  1
  Si  Si19  1  0.166236  0.833993  0.502234  1
  Pd  Pd20  1  0.334428  0.668858  0.004723  1
  Pd  Pd21  1  0.665602  0.331204  0.004216  1
  Pd  Pd22  1  0.665602  0.331204  0.495784  1
  Pd  Pd23  1  0.334428  0.668858  0.495277  1
