# generated using pymatgen
data_La3Cr(P3Rh4)2
_symmetry_space_group_name_H-M   'P 1'
_cell_length_a   4.01037300
_cell_length_b   11.41842200
_cell_length_c   12.84585000
_cell_angle_alpha   90.00000000
_cell_angle_beta   90.00000000
_cell_angle_gamma   90.00000000
_symmetry_Int_Tables_number   1
_chemical_formula_structural   La3Cr(P3Rh4)2
_chemical_formula_sum   'La6 Cr2 P12 Rh16'
_cell_volume   588.23884975
_cell_formula_units_Z   2
loop_
 _symmetry_equiv_pos_site_id
 _symmetry_equiv_pos_as_xyz
  1  'x, y, z'
loop_
 _atom_site_type_symbol
 _atom_site_label
 _atom_site_symmetry_multiplicity
 _atom_site_fract_x
 _atom_site_fract_y
 _atom_site_fract_z
 _atom_site_occupancy
  La  La0  1  0.000000  0.500000  0.521586  1
  La  La1  1  0.500000  0.000000  0.478414  1
  La  La2  1  0.500000  0.818296  0.201318  1
  La  La3  1  0.500000  0.181704  0.201318  1
  La  La4  1  0.000000  0.681704  0.798682  1
  La  La5  1  0.000000  0.318296  0.798682  1
  Cr  Cr6  1  0.000000  0.500000  0.990539  1
  Cr  Cr7  1  0.500000  0.000000  0.009461  1
  P  P8  1  0.500000  0.500000  0.888281  1
  P  P9  1  0.000000  0.000000  0.111719  1
  P  P10  1  0.500000  0.500000  0.344146  1
  P  P11  1  0.000000  0.000000  0.655854  1
  P  P12  1  0.500000  0.308680  0.618026  1
  P  P13  1  0.500000  0.691320  0.618026  1
  P  P14  1  0.000000  0.191320  0.381974  1
  P  P15  1  0.000000  0.808680  0.381974  1
  P  P16  1  0.500000  0.850237  0.899070  1
  P  P17  1  0.500000  0.149763  0.899070  1
  P  P18  1  0.000000  0.649763  0.100930  1
  P  P19  1  0.000000  0.350237  0.100930  1
  Rh  Rh20  1  0.500000  0.500000  0.163195  1
  Rh  Rh21  1  0.000000  0.000000  0.836805  1
  Rh  Rh22  1  0.500000  0.500000  0.699240  1
  Rh  Rh23  1  0.000000  0.000000  0.300760  1
  Rh  Rh24  1  0.500000  0.334423  0.996467  1
  Rh  Rh25  1  0.500000  0.665577  0.996467  1
  Rh  Rh26  1  0.000000  0.165577  0.003533  1
  Rh  Rh27  1  0.000000  0.834423  0.003533  1
  Rh  Rh28  1  0.500000  0.293881  0.429706  1
  Rh  Rh29  1  0.500000  0.706119  0.429706  1
  Rh  Rh30  1  0.000000  0.206119  0.570294  1
  Rh  Rh31  1  0.000000  0.793881  0.570294  1
  Rh  Rh32  1  0.500000  0.875993  0.712276  1
  Rh  Rh33  1  0.500000  0.124007  0.712276  1
  Rh  Rh34  1  0.000000  0.624007  0.287724  1
  Rh  Rh35  1  0.000000  0.375993  0.287724  1
