# generated using pymatgen
data_Y8Re3B24Ru
_symmetry_space_group_name_H-M   'P 1'
_cell_length_a   3.68248800
_cell_length_b   9.18530961
_cell_length_c   11.57248382
_cell_angle_alpha   89.88510718
_cell_angle_beta   90.00000000
_cell_angle_gamma   90.00000000
_symmetry_Int_Tables_number   1
_chemical_formula_structural   Y8Re3B24Ru
_chemical_formula_sum   'Y8 Re3 B24 Ru1'
_cell_volume   391.43607612
_cell_formula_units_Z   1
loop_
 _symmetry_equiv_pos_site_id
 _symmetry_equiv_pos_as_xyz
  1  'x, y, z'
loop_
 _atom_site_type_symbol
 _atom_site_label
 _atom_site_symmetry_multiplicity
 _atom_site_fract_x
 _atom_site_fract_y
 _atom_site_fract_z
 _atom_site_occupancy
  Y  Y0  1  0.000000  0.821656  0.085845  1
  Y  Y1  1  0.000000  0.177405  0.912390  1
  Y  Y2  1  0.000000  0.324707  0.415858  1
  Y  Y3  1  0.000000  0.676891  0.586100  1
  Y  Y4  1  0.000000  0.441386  0.130256  1
  Y  Y5  1  0.000000  0.556677  0.870874  1
  Y  Y6  1  0.000000  0.942922  0.369456  1
  Y  Y7  1  0.000000  0.057012  0.628785  1
  Re  Re8  1  0.000000  0.862461  0.822137  1
  Re  Re9  1  0.000000  0.638160  0.320116  1
  Re  Re10  1  0.000000  0.361594  0.679521  1
  B  B11  1  0.500000  0.053868  0.067459  1
  B  B12  1  0.500000  0.947350  0.933166  1
  B  B13  1  0.500000  0.553172  0.432994  1
  B  B14  1  0.500000  0.447128  0.567345  1
  B  B15  1  0.500000  0.247849  0.081674  1
  B  B16  1  0.500000  0.751299  0.918694  1
  B  B17  1  0.500000  0.748779  0.418384  1
  B  B18  1  0.500000  0.251954  0.581425  1
  B  B19  1  0.500000  0.290165  0.234626  1
  B  B20  1  0.500000  0.708680  0.765663  1
  B  B21  1  0.500000  0.791202  0.264991  1
  B  B22  1  0.500000  0.208463  0.734270  1
  B  B23  1  0.500000  0.131294  0.313966  1
  B  B24  1  0.500000  0.869659  0.686233  1
  B  B25  1  0.500000  0.630717  0.185261  1
  B  B26  1  0.500000  0.369000  0.814264  1
  B  B27  1  0.500000  0.482357  0.288367  1
  B  B28  1  0.500000  0.517708  0.712117  1
  B  B29  1  0.500000  0.983634  0.211525  1
  B  B30  1  0.500000  0.018267  0.788155  1
  B  B31  1  0.500000  0.102327  0.470827  1
  B  B32  1  0.500000  0.898168  0.527930  1
  B  B33  1  0.500000  0.600828  0.028762  1
  B  B34  1  0.500000  0.397119  0.971772  1
  Ru  Ru35  1  0.000000  0.138141  0.178791  1
