# generated using pymatgen
data_Sm4TaIO12
_symmetry_space_group_name_H-M   'P 1'
_cell_length_a   5.54838500
_cell_length_b   7.86036625
_cell_length_c   11.74477451
_cell_angle_alpha   76.25602072
_cell_angle_beta   90.00000000
_cell_angle_gamma   90.00000000
_symmetry_Int_Tables_number   1
_chemical_formula_structural   Sm4TaIO12
_chemical_formula_sum   'Sm8 Ta2 I2 O24'
_cell_volume   497.55078704
_cell_formula_units_Z   2
loop_
 _symmetry_equiv_pos_site_id
 _symmetry_equiv_pos_as_xyz
  1  'x, y, z'
loop_
 _atom_site_type_symbol
 _atom_site_label
 _atom_site_symmetry_multiplicity
 _atom_site_fract_x
 _atom_site_fract_y
 _atom_site_fract_z
 _atom_site_occupancy
  Sm  Sm0  1  0.740890  0.983255  0.757789  1
  Sm  Sm1  1  0.259110  0.983255  0.257789  1
  Sm  Sm2  1  0.191265  0.789779  0.576009  1
  Sm  Sm3  1  0.808735  0.789779  0.076009  1
  Sm  Sm4  1  0.687841  0.518159  0.747686  1
  Sm  Sm5  1  0.312159  0.518159  0.247686  1
  Sm  Sm6  1  0.194790  0.206163  0.923957  1
  Sm  Sm7  1  0.805210  0.206163  0.423957  1
  Ta  Ta8  1  0.253910  0.719954  0.888501  1
  Ta  Ta9  1  0.746090  0.719954  0.388501  1
  I  I10  1  0.253156  0.272937  0.617100  1
  I  I11  1  0.746844  0.272937  0.117100  1
  O  O12  1  0.032558  0.943177  0.902285  1
  O  O13  1  0.525378  0.853387  0.928685  1
  O  O14  1  0.967442  0.943177  0.402285  1
  O  O15  1  0.470134  0.782746  0.724101  1
  O  O16  1  0.474622  0.853387  0.428685  1
  O  O17  1  0.984252  0.718007  0.770650  1
  O  O18  1  0.529866  0.782746  0.224101  1
  O  O19  1  0.849186  0.637058  0.548788  1
  O  O20  1  0.363546  0.490262  0.881201  1
  O  O21  1  0.015748  0.718007  0.270650  1
  O  O22  1  0.373871  0.496946  0.610765  1
  O  O23  1  0.858591  0.359189  0.961079  1
  O  O24  1  0.150814  0.637058  0.048788  1
  O  O25  1  0.636454  0.490262  0.381201  1
  O  O26  1  0.988286  0.302638  0.720321  1
  O  O27  1  0.626129  0.496946  0.110765  1
  O  O28  1  0.141409  0.359189  0.461079  1
  O  O29  1  0.433919  0.200480  0.763411  1
  O  O30  1  0.011714  0.302638  0.220321  1
  O  O31  1  0.519886  0.160177  0.565645  1
  O  O32  1  0.566081  0.200480  0.263411  1
  O  O33  1  0.064354  0.065684  0.612026  1
  O  O34  1  0.480114  0.160177  0.065645  1
  O  O35  1  0.935646  0.065684  0.112026  1
