# generated using pymatgen
data_DyY3Tc5Ru3
_symmetry_space_group_name_H-M   'P 1'
_cell_length_a   5.29105113
_cell_length_b   5.18392821
_cell_length_c   9.17992100
_cell_angle_alpha   90.00019928
_cell_angle_beta   90.00277149
_cell_angle_gamma   118.75623563
_symmetry_Int_Tables_number   1
_chemical_formula_structural   DyY3Tc5Ru3
_chemical_formula_sum   'Dy1 Y3 Tc5 Ru3'
_cell_volume   220.73856070
_cell_formula_units_Z   1
loop_
 _symmetry_equiv_pos_site_id
 _symmetry_equiv_pos_as_xyz
  1  'x, y, z'
loop_
 _atom_site_type_symbol
 _atom_site_label
 _atom_site_symmetry_multiplicity
 _atom_site_fract_x
 _atom_site_fract_y
 _atom_site_fract_z
 _atom_site_occupancy
  Dy  Dy0  1  0.669082  0.333864  0.936478  1
  Y  Y1  1  0.669056  0.333861  0.563555  1
  Y  Y2  1  0.329284  0.665356  0.434596  1
  Y  Y3  1  0.329303  0.665364  0.065365  1
  Tc  Tc4  1  0.173068  0.344701  0.750030  1
  Tc  Tc5  1  0.171199  0.829727  0.750027  1
  Tc  Tc6  1  0.658684  0.828817  0.750049  1
  Tc  Tc7  1  0.835176  0.661407  0.249988  1
  Tc  Tc8  1  0.836132  0.174800  0.249986  1
  Ru  Ru9  1  0.989616  0.993675  0.498589  1
  Ru  Ru10  1  0.989575  0.993661  0.001353  1
  Ru  Ru11  1  0.349826  0.174768  0.249983  1
