# generated using pymatgen
data_CaV2Sn2(PO4)6
_symmetry_space_group_name_H-M   'P 1'
_cell_length_a   8.47319492
_cell_length_b   8.48058147
_cell_length_c   8.95887438
_cell_angle_alpha   61.71040420
_cell_angle_beta   118.02927385
_cell_angle_gamma   120.13982351
_symmetry_Int_Tables_number   1
_chemical_formula_structural   CaV2Sn2(PO4)6
_chemical_formula_sum   'Ca1 V2 Sn2 P6 O24'
_cell_volume   466.93868284
_cell_formula_units_Z   1
loop_
 _symmetry_equiv_pos_site_id
 _symmetry_equiv_pos_as_xyz
  1  'x, y, z'
loop_
 _atom_site_type_symbol
 _atom_site_label
 _atom_site_symmetry_multiplicity
 _atom_site_fract_x
 _atom_site_fract_y
 _atom_site_fract_z
 _atom_site_occupancy
  Ca  Ca0  1  0.008252  0.993597  0.011160  1
  V  V1  1  0.350206  0.646843  0.059958  1
  V  V2  1  0.148381  0.849723  0.444449  1
  Sn  Sn3  1  0.852539  0.147751  0.559036  1
  Sn  Sn4  1  0.645825  0.355908  0.937266  1
  P  P5  1  0.038904  0.247114  0.245415  1
  P  P6  1  0.456718  0.959664  0.246557  1
  P  P7  1  0.749786  0.544163  0.246624  1
  P  P8  1  0.247284  0.464878  0.754364  1
  P  P9  1  0.532954  0.028874  0.752963  1
  P  P10  1  0.972852  0.753441  0.755440  1
  O  O11  1  0.468871  0.154054  0.094364  1
  O  O12  1  0.783007  0.530757  0.096632  1
  O  O13  1  0.846443  0.221924  0.093816  1
  O  O14  1  0.471440  0.813828  0.203843  1
  O  O15  1  0.547740  0.533699  0.198632  1
  O  O16  1  0.188976  0.451720  0.198233  1
  O  O17  1  0.256143  0.889036  0.266580  1
  O  O18  1  0.901340  0.744431  0.266203  1
  O  O19  1  0.109465  0.099138  0.264872  1
  O  O20  1  0.788637  0.387034  0.425150  1
  O  O21  1  0.022379  0.212836  0.422290  1
  O  O22  1  0.612474  0.980297  0.423839  1
  O  O23  1  0.387839  0.999384  0.572708  1
  O  O24  1  0.007420  0.815888  0.576884  1
  O  O25  1  0.185399  0.612829  0.572544  1
  O  O26  1  0.899700  0.895621  0.745852  1
  O  O27  1  0.104645  0.257397  0.747277  1
  O  O28  1  0.740703  0.092715  0.752002  1
  O  O29  1  0.820381  0.550365  0.780171  1
  O  O30  1  0.450366  0.490528  0.780061  1
  O  O31  1  0.511632  0.181827  0.780021  1
  O  O32  1  0.158957  0.771398  0.913016  1
  O  O33  1  0.227084  0.484184  0.905193  1
  O  O34  1  0.505255  0.837157  0.906581  1
