# generated using pymatgen
data_Y6Zn18PPd5
_symmetry_space_group_name_H-M   'P 1'
_cell_length_a   9.02829760
_cell_length_b   9.01452163
_cell_length_c   9.02841000
_cell_angle_alpha   60.04964332
_cell_angle_beta   60.13263498
_cell_angle_gamma   60.05126646
_symmetry_Int_Tables_number   1
_chemical_formula_structural   Y6Zn18PPd5
_chemical_formula_sum   'Y6 Zn18 P1 Pd5'
_cell_volume   520.48679554
_cell_formula_units_Z   1
loop_
 _symmetry_equiv_pos_site_id
 _symmetry_equiv_pos_as_xyz
  1  'x, y, z'
loop_
 _atom_site_type_symbol
 _atom_site_label
 _atom_site_symmetry_multiplicity
 _atom_site_fract_x
 _atom_site_fract_y
 _atom_site_fract_z
 _atom_site_occupancy
  Y  Y0  1  0.716354  0.285288  0.283646  1
  Y  Y1  1  0.714317  0.285681  0.714319  1
  Y  Y2  1  0.716358  0.714710  0.283645  1
  Y  Y3  1  0.283646  0.714712  0.716354  1
  Y  Y4  1  0.285683  0.714319  0.285681  1
  Y  Y5  1  0.283642  0.285290  0.716355  1
  Zn  Zn6  1  0.627907  0.125419  0.121259  1
  Zn  Zn7  1  0.124531  0.627255  0.124526  1
  Zn  Zn8  1  0.121256  0.125417  0.627908  1
  Zn  Zn9  1  0.124524  0.123689  0.124532  1
  Zn  Zn10  1  0.372093  0.874581  0.878741  1
  Zn  Zn11  1  0.875469  0.372745  0.875474  1
  Zn  Zn12  1  0.878744  0.874583  0.372092  1
  Zn  Zn13  1  0.875476  0.876311  0.875468  1
  Zn  Zn14  1  0.500000  0.000000  0.500000  1
  Zn  Zn15  1  0.000000  0.000000  0.000000  1
  Zn  Zn16  1  0.014194  0.328473  0.328858  1
  Zn  Zn17  1  0.330657  0.009668  0.330656  1
  Zn  Zn18  1  0.328855  0.328472  0.014199  1
  Zn  Zn19  1  0.330658  0.329021  0.330663  1
  Zn  Zn20  1  0.985806  0.671527  0.671142  1
  Zn  Zn21  1  0.669343  0.990332  0.669344  1
  Zn  Zn22  1  0.671145  0.671528  0.985801  1
  Zn  Zn23  1  0.669342  0.670979  0.669337  1
  P  P24  1  0.500000  0.500000  0.500000  1
  Pd  Pd25  1  0.500000  0.000000  0.000000  1
  Pd  Pd26  1  0.500000  0.500000  0.000000  1
  Pd  Pd27  1  0.000000  0.500000  0.500000  1
  Pd  Pd28  1  0.000000  0.500000  0.000000  1
  Pd  Pd29  1  0.000000  0.000000  0.500000  1
