# generated using pymatgen
data_Lu4Al7Fe
_symmetry_space_group_name_H-M   'P 1'
_cell_length_a   5.47468902
_cell_length_b   5.47470651
_cell_length_c   8.70219202
_cell_angle_alpha   89.99345852
_cell_angle_beta   90.00569616
_cell_angle_gamma   119.99602030
_symmetry_Int_Tables_number   1
_chemical_formula_structural   Lu4Al7Fe
_chemical_formula_sum   'Lu4 Al7 Fe1'
_cell_volume   225.88999822
_cell_formula_units_Z   1
loop_
 _symmetry_equiv_pos_site_id
 _symmetry_equiv_pos_as_xyz
  1  'x, y, z'
loop_
 _atom_site_type_symbol
 _atom_site_label
 _atom_site_symmetry_multiplicity
 _atom_site_fract_x
 _atom_site_fract_y
 _atom_site_fract_z
 _atom_site_occupancy
  Lu  Lu0  1  0.666695  0.333322  0.558182  1
  Lu  Lu1  1  0.333305  0.666678  0.441818  1
  Lu  Lu2  1  0.333351  0.666682  0.062376  1
  Lu  Lu3  1  0.666649  0.333318  0.937624  1
  Al  Al4  1  0.000000  0.000000  0.500000  1
  Al  Al5  1  0.167123  0.334273  0.761951  1
  Al  Al6  1  0.167118  0.832888  0.761952  1
  Al  Al7  1  0.665724  0.832878  0.761951  1
  Al  Al8  1  0.832877  0.665727  0.238049  1
  Al  Al9  1  0.832882  0.167112  0.238048  1
  Al  Al10  1  0.334276  0.167122  0.238049  1
  Fe  Fe11  1  0.000000  0.000000  0.000000  1
