# generated using pymatgen
data_Ca5Sn2BiH
_symmetry_space_group_name_H-M   'P 1'
_cell_length_a   9.48467364
_cell_length_b   9.48467383
_cell_length_c   9.48467414
_cell_angle_alpha   128.68109895
_cell_angle_beta   128.68109689
_cell_angle_gamma   75.52424541
_symmetry_Int_Tables_number   1
_chemical_formula_structural   Ca5Sn2BiH
_chemical_formula_sum   'Ca10 Sn4 Bi2 H2'
_cell_volume   505.91844127
_cell_formula_units_Z   2
loop_
 _symmetry_equiv_pos_site_id
 _symmetry_equiv_pos_as_xyz
  1  'x, y, z'
loop_
 _atom_site_type_symbol
 _atom_site_label
 _atom_site_symmetry_multiplicity
 _atom_site_fract_x
 _atom_site_fract_y
 _atom_site_fract_z
 _atom_site_occupancy
  Ca  Ca0  1  0.500000  0.500000  0.000000  1
  Ca  Ca1  1  0.000000  0.000000  0.000000  1
  Ca  Ca2  1  0.512222  0.012222  0.819300  1
  Ca  Ca3  1  0.192922  0.692922  0.180700  1
  Ca  Ca4  1  0.012222  0.192922  0.500000  1
  Ca  Ca5  1  0.692922  0.512222  0.500000  1
  Ca  Ca6  1  0.487778  0.987778  0.180700  1
  Ca  Ca7  1  0.807078  0.307078  0.819300  1
  Ca  Ca8  1  0.987778  0.807078  0.500000  1
  Ca  Ca9  1  0.307078  0.487778  0.500000  1
  Sn  Sn10  1  0.870602  0.370602  0.241205  1
  Sn  Sn11  1  0.129398  0.629398  0.758795  1
  Sn  Sn12  1  0.370602  0.129398  0.500000  1
  Sn  Sn13  1  0.629398  0.870602  0.500000  1
  Bi  Bi14  1  0.250000  0.250000  0.000000  1
  Bi  Bi15  1  0.750000  0.750000  0.000000  1
  H  H16  1  0.250000  0.750000  0.500000  1
  H  H17  1  0.750000  0.250000  0.500000  1
