# generated using pymatgen
data_Dy4As6Ir2Rh5
_symmetry_space_group_name_H-M   'P 1'
_cell_length_a   7.30778224
_cell_length_b   7.30183062
_cell_length_c   7.30183170
_cell_angle_alpha   109.52155865
_cell_angle_beta   109.42958808
_cell_angle_gamma   109.42958237
_symmetry_Int_Tables_number   1
_chemical_formula_structural   Dy4As6Ir2Rh5
_chemical_formula_sum   'Dy4 As6 Ir2 Rh5'
_cell_volume   300.05674054
_cell_formula_units_Z   1
loop_
 _symmetry_equiv_pos_site_id
 _symmetry_equiv_pos_as_xyz
  1  'x, y, z'
loop_
 _atom_site_type_symbol
 _atom_site_label
 _atom_site_symmetry_multiplicity
 _atom_site_fract_x
 _atom_site_fract_y
 _atom_site_fract_z
 _atom_site_occupancy
  Dy  Dy0  1  0.000000  0.000280  0.500014  1
  Dy  Dy1  1  0.500000  0.999931  0.000069  1
  Dy  Dy2  1  0.000000  0.499986  0.999720  1
  Dy  Dy3  1  0.500000  0.499931  0.500069  1
  As  As4  1  0.680798  0.680199  0.000599  1
  As  As5  1  0.320036  0.319664  0.000371  1
  As  As6  1  0.000000  0.680911  0.680080  1
  As  As7  1  0.000000  0.319920  0.319089  1
  As  As8  1  0.679964  0.999629  0.680336  1
  As  As9  1  0.319202  0.999401  0.319801  1
  Ir  Ir10  1  0.249774  0.499335  0.750439  1
  Ir  Ir11  1  0.750226  0.249561  0.500665  1
  Rh  Rh12  1  0.000000  0.000122  0.999878  1
  Rh  Rh13  1  0.500000  0.250742  0.749258  1
  Rh  Rh14  1  0.500000  0.750742  0.249258  1
  Rh  Rh15  1  0.748954  0.499301  0.249653  1
  Rh  Rh16  1  0.251046  0.750347  0.500699  1
