# generated using pymatgen
data_Dy2YCd3CuAu2
_symmetry_space_group_name_H-M   'P 1'
_cell_length_a   7.78246165
_cell_length_b   7.78246150
_cell_length_c   3.83695200
_cell_angle_alpha   90.00000000
_cell_angle_beta   90.00000000
_cell_angle_gamma   120.28252895
_symmetry_Int_Tables_number   1
_chemical_formula_structural   Dy2YCd3CuAu2
_chemical_formula_sum   'Dy2 Y1 Cd3 Cu1 Au2'
_cell_volume   200.68157481
_cell_formula_units_Z   1
loop_
 _symmetry_equiv_pos_site_id
 _symmetry_equiv_pos_as_xyz
  1  'x, y, z'
loop_
 _atom_site_type_symbol
 _atom_site_label
 _atom_site_symmetry_multiplicity
 _atom_site_fract_x
 _atom_site_fract_y
 _atom_site_fract_z
 _atom_site_occupancy
  Dy  Dy0  1  0.592797  0.000444  0.000000  1
  Dy  Dy1  1  0.000444  0.592797  0.000000  1
  Y  Y2  1  0.406903  0.406903  0.000000  1
  Cd  Cd3  1  0.247831  0.000320  0.500000  1
  Cd  Cd4  1  0.000320  0.247831  0.500000  1
  Cd  Cd5  1  0.751435  0.751435  0.500000  1
  Cu  Cu6  1  0.999356  0.999356  0.000000  1
  Au  Au7  1  0.332664  0.668250  0.500000  1
  Au  Au8  1  0.668250  0.332664  0.500000  1
