# generated using pymatgen
data_CeDy2(InIr)3
_symmetry_space_group_name_H-M   'P 1'
_cell_length_a   7.50054844
_cell_length_b   7.50054866
_cell_length_c   3.93280100
_cell_angle_alpha   90.00000000
_cell_angle_beta   90.00000000
_cell_angle_gamma   117.81311289
_symmetry_Int_Tables_number   1
_chemical_formula_structural   CeDy2(InIr)3
_chemical_formula_sum   'Ce1 Dy2 In3 Ir3'
_cell_volume   195.69205784
_cell_formula_units_Z   1
loop_
 _symmetry_equiv_pos_site_id
 _symmetry_equiv_pos_as_xyz
  1  'x, y, z'
loop_
 _atom_site_type_symbol
 _atom_site_label
 _atom_site_symmetry_multiplicity
 _atom_site_fract_x
 _atom_site_fract_y
 _atom_site_fract_z
 _atom_site_occupancy
  Ce  Ce0  1  0.582807  0.582807  0.000000  1
  Dy  Dy1  1  0.404203  0.999263  0.000000  1
  Dy  Dy2  1  0.999263  0.404203  0.000000  1
  In  In3  1  0.006674  0.742598  0.500000  1
  In  In4  1  0.248040  0.248040  0.500000  1
  In  In5  1  0.742598  0.006674  0.500000  1
  Ir  Ir6  1  0.998586  0.998586  0.000000  1
  Ir  Ir7  1  0.667222  0.350606  0.500000  1
  Ir  Ir8  1  0.350606  0.667222  0.500000  1
