# generated using pymatgen
data_YbDyCo5B4
_symmetry_space_group_name_H-M   'P 1'
_cell_length_a   7.02593786
_cell_length_b   5.89141710
_cell_length_c   5.24454453
_cell_angle_alpha   77.99791276
_cell_angle_beta   55.10420099
_cell_angle_gamma   46.89789165
_symmetry_Int_Tables_number   1
_chemical_formula_structural   YbDyCo5B4
_chemical_formula_sum   'Yb1 Dy1 Co5 B4'
_cell_volume   123.78700746
_cell_formula_units_Z   1
loop_
 _symmetry_equiv_pos_site_id
 _symmetry_equiv_pos_as_xyz
  1  'x, y, z'
loop_
 _atom_site_type_symbol
 _atom_site_label
 _atom_site_symmetry_multiplicity
 _atom_site_fract_x
 _atom_site_fract_y
 _atom_site_fract_z
 _atom_site_occupancy
  Yb  Yb0  1  0.144414  0.144413  0.855587  1
  Dy  Dy1  1  0.857242  0.857240  0.142759  1
  Co  Co2  1  0.500452  0.500454  0.999547  1
  Co  Co3  1  0.249094  0.249096  0.250905  1
  Co  Co4  1  0.000453  0.000453  0.499548  1
  Co  Co5  1  0.499878  0.499876  0.500123  1
  Co  Co6  1  0.749095  0.749096  0.750905  1
  B  B7  1  0.470602  0.788655  0.211344  1
  B  B8  1  0.210618  0.529496  0.470503  1
  B  B9  1  0.788657  0.470600  0.529399  1
  B  B10  1  0.529497  0.210617  0.789383  1
