# generated using pymatgen
data_Er16Lu4Si15Au
_symmetry_space_group_name_H-M   'P 1'
_cell_length_a   7.30581948
_cell_length_b   7.62386393
_cell_length_c   14.50112300
_cell_angle_alpha   90.00000000
_cell_angle_beta   90.00000000
_cell_angle_gamma   90.52742461
_symmetry_Int_Tables_number   1
_chemical_formula_structural   Er16Lu4Si15Au
_chemical_formula_sum   'Er16 Lu4 Si15 Au1'
_cell_volume   807.65764598
_cell_formula_units_Z   1
loop_
 _symmetry_equiv_pos_site_id
 _symmetry_equiv_pos_as_xyz
  1  'x, y, z'
loop_
 _atom_site_type_symbol
 _atom_site_label
 _atom_site_symmetry_multiplicity
 _atom_site_fract_x
 _atom_site_fract_y
 _atom_site_fract_z
 _atom_site_occupancy
  Er  Er0  1  0.024973  0.823823  0.592286  1
  Er  Er1  1  0.528893  0.681735  0.593204  1
  Er  Er2  1  0.317342  0.821766  0.123623  1
  Er  Er3  1  0.816808  0.677712  0.124327  1
  Er  Er4  1  0.472104  0.316281  0.097860  1
  Er  Er5  1  0.024973  0.823823  0.907714  1
  Er  Er6  1  0.472104  0.316281  0.402140  1
  Er  Er7  1  0.528893  0.681735  0.906796  1
  Er  Er8  1  0.682908  0.179373  0.878540  1
  Er  Er9  1  0.184279  0.318217  0.619790  1
  Er  Er10  1  0.184279  0.318217  0.880210  1
  Er  Er11  1  0.816808  0.677712  0.375673  1
  Er  Er12  1  0.317342  0.821766  0.376377  1
  Er  Er13  1  0.682908  0.179373  0.621460  1
  Er  Er14  1  0.971180  0.181754  0.099341  1
  Er  Er15  1  0.971180  0.181754  0.400659  1
  Lu  Lu16  1  0.857705  0.520414  0.750000  1
  Lu  Lu17  1  0.647531  0.011235  0.250000  1
  Lu  Lu18  1  0.347624  0.984930  0.750000  1
  Lu  Lu19  1  0.147061  0.486882  0.250000  1
  Si  Si20  1  0.649875  0.971374  0.457944  1
  Si  Si21  1  0.353398  0.026551  0.540101  1
  Si  Si22  1  0.018816  0.895803  0.250000  1
  Si  Si23  1  0.733434  0.876575  0.750000  1
  Si  Si24  1  0.265986  0.128089  0.250000  1
  Si  Si25  1  0.852778  0.470928  0.538820  1
  Si  Si26  1  0.484622  0.391774  0.750000  1
  Si  Si27  1  0.146393  0.526761  0.457537  1
  Si  Si28  1  0.146393  0.526761  0.042463  1
  Si  Si29  1  0.976833  0.107825  0.750000  1
  Si  Si30  1  0.765125  0.370221  0.250000  1
  Si  Si31  1  0.353398  0.026551  0.959899  1
  Si  Si32  1  0.852778  0.470928  0.961180  1
  Si  Si33  1  0.649875  0.971374  0.042056  1
  Si  Si34  1  0.516983  0.604388  0.250000  1
  Au  Au35  1  0.236417  0.629313  0.750000  1
