# generated using pymatgen
data_Mn4Fe8MoW11C2
_symmetry_space_group_name_H-M   'P 1'
_cell_length_a   7.73451484
_cell_length_b   7.73702228
_cell_length_c   7.73702116
_cell_angle_alpha   59.99793527
_cell_angle_beta   60.01071077
_cell_angle_gamma   60.01070725
_symmetry_Int_Tables_number   1
_chemical_formula_structural   Mn4Fe8MoW11C2
_chemical_formula_sum   'Mn4 Fe8 Mo1 W11 C2'
_cell_volume   327.43809952
_cell_formula_units_Z   1
loop_
 _symmetry_equiv_pos_site_id
 _symmetry_equiv_pos_as_xyz
  1  'x, y, z'
loop_
 _atom_site_type_symbol
 _atom_site_label
 _atom_site_symmetry_multiplicity
 _atom_site_fract_x
 _atom_site_fract_y
 _atom_site_fract_z
 _atom_site_occupancy
  Mn  Mn0  1  0.125095  0.124961  0.624849  1
  Mn  Mn1  1  0.125095  0.624849  0.124961  1
  Mn  Mn2  1  0.124997  0.125053  0.125053  1
  Mn  Mn3  1  0.624898  0.125053  0.125053  1
  Fe  Fe4  1  0.922001  0.233996  0.922003  1
  Fe  Fe5  1  0.328011  0.015987  0.327991  1
  Fe  Fe6  1  0.327930  0.327981  0.327981  1
  Fe  Fe7  1  0.016107  0.327981  0.327981  1
  Fe  Fe8  1  0.922001  0.922003  0.233996  1
  Fe  Fe9  1  0.234062  0.922004  0.922004  1
  Fe  Fe10  1  0.328011  0.327991  0.015987  1
  Fe  Fe11  1  0.921931  0.922004  0.922004  1
  Mo  Mo12  1  0.303096  0.696904  0.696904  1
  W  W13  1  0.303015  0.302988  0.697075  1
  W  W14  1  0.552722  0.947258  0.552900  1
  W  W15  1  0.947023  0.552977  0.552977  1
  W  W16  1  0.552872  0.947128  0.947128  1
  W  W17  1  0.697231  0.302769  0.302769  1
  W  W18  1  0.947120  0.552900  0.947258  1
  W  W19  1  0.303015  0.697075  0.302988  1
  W  W20  1  0.552722  0.552900  0.947258  1
  W  W21  1  0.696921  0.302988  0.697075  1
  W  W22  1  0.696921  0.697075  0.302988  1
  W  W23  1  0.947120  0.947258  0.552900  1
  C  C24  1  0.750008  0.749992  0.749992  1
  C  C25  1  0.500074  0.499926  0.499926  1
