# generated using pymatgen
data_AlV3Br16
_symmetry_space_group_name_H-M   'P 1'
_cell_length_a   7.24074014
_cell_length_b   10.55122792
_cell_length_c   10.65155868
_cell_angle_alpha   77.65332822
_cell_angle_beta   89.58920485
_cell_angle_gamma   90.51151388
_symmetry_Int_Tables_number   1
_chemical_formula_structural   AlV3Br16
_chemical_formula_sum   'Al1 V3 Br16'
_cell_volume   794.87823040
_cell_formula_units_Z   1
loop_
 _symmetry_equiv_pos_site_id
 _symmetry_equiv_pos_as_xyz
  1  'x, y, z'
loop_
 _atom_site_type_symbol
 _atom_site_label
 _atom_site_symmetry_multiplicity
 _atom_site_fract_x
 _atom_site_fract_y
 _atom_site_fract_z
 _atom_site_occupancy
  Al  Al0  1  0.075214  0.248944  0.636213  1
  V  V1  1  0.573844  0.752119  0.861028  1
  V  V2  1  0.925737  0.748510  0.366873  1
  V  V3  1  0.425056  0.249086  0.135988  1
  Br  Br4  1  0.379453  0.309655  0.580038  1
  Br  Br5  1  0.868665  0.691732  0.916745  1
  Br  Br6  1  0.625627  0.690710  0.419691  1
  Br  Br7  1  0.130309  0.305205  0.079115  1
  Br  Br8  1  0.924841  0.193784  0.462053  1
  Br  Br9  1  0.425562  0.804353  0.032696  1
  Br  Br10  1  0.073374  0.809811  0.532543  1
  Br  Br11  1  0.571415  0.199176  0.964314  1
  Br  Br12  1  0.924999  0.420617  0.698105  1
  Br  Br13  1  0.422963  0.584253  0.801879  1
  Br  Br14  1  0.077140  0.581728  0.307665  1
  Br  Br15  1  0.577815  0.414380  0.198166  1
  Br  Br16  1  0.071573  0.069473  0.808583  1
  Br  Br17  1  0.576182  0.929392  0.697974  1
  Br  Br18  1  0.926354  0.921735  0.196545  1
  Br  Br19  1  0.423873  0.075337  0.303787  1
