# generated using pymatgen
data_HoEr3(MnOs)4
_symmetry_space_group_name_H-M   'P 1'
_cell_length_a   5.30280400
_cell_length_b   5.29082600
_cell_length_c   9.16005352
_cell_angle_alpha   72.19302995
_cell_angle_beta   90.00000000
_cell_angle_gamma   120.07491812
_symmetry_Int_Tables_number   1
_chemical_formula_structural   HoEr3(MnOs)4
_chemical_formula_sum   'Ho1 Er3 Mn4 Os4'
_cell_volume   208.04749718
_cell_formula_units_Z   1
loop_
 _symmetry_equiv_pos_site_id
 _symmetry_equiv_pos_as_xyz
  1  'x, y, z'
loop_
 _atom_site_type_symbol
 _atom_site_label
 _atom_site_symmetry_multiplicity
 _atom_site_fract_x
 _atom_site_fract_y
 _atom_site_fract_z
 _atom_site_occupancy
  Ho  Ho0  1  0.311122  0.122245  0.061377  1
  Er  Er1  1  0.811367  0.122734  0.561260  1
  Er  Er2  1  0.188819  0.877636  0.438704  1
  Er  Er3  1  0.688627  0.877255  0.938551  1
  Mn  Mn4  1  0.750037  0.500094  0.249638  1
  Mn  Mn5  1  0.250178  0.500058  0.750428  1
  Mn  Mn6  1  0.250057  0.500094  0.249638  1
  Mn  Mn7  1  0.749880  0.500058  0.750428  1
  Os  Os8  1  0.999918  0.499836  0.999983  1
  Os  Os9  1  0.500051  0.500104  0.499996  1
  Os  Os10  1  0.749689  0.999380  0.249998  1
  Os  Os11  1  0.250252  0.000505  0.750003  1
