# generated using pymatgen
data_HoS27
_symmetry_space_group_name_H-M   'P 1'
_cell_length_a   15.31429277
_cell_length_b   15.31429183
_cell_length_c   15.31429405
_cell_angle_alpha   119.10353770
_cell_angle_beta   119.10354238
_cell_angle_gamma   119.10354021
_symmetry_Int_Tables_number   1
_chemical_formula_structural   HoS27
_chemical_formula_sum   'Ho1 S27'
_cell_volume   880.80059600
_cell_formula_units_Z   1
loop_
 _symmetry_equiv_pos_site_id
 _symmetry_equiv_pos_as_xyz
  1  'x, y, z'
loop_
 _atom_site_type_symbol
 _atom_site_label
 _atom_site_symmetry_multiplicity
 _atom_site_fract_x
 _atom_site_fract_y
 _atom_site_fract_z
 _atom_site_occupancy
  Ho  Ho0  1  0.432916  0.432916  0.432916  1
  S  S1  1  0.016165  0.605033  0.605033  1
  S  S2  1  0.605033  0.605033  0.016165  1
  S  S3  1  0.605033  0.016165  0.605033  1
  S  S4  1  0.260238  0.861836  0.735050  1
  S  S5  1  0.861836  0.735050  0.260238  1
  S  S6  1  0.735050  0.260238  0.861836  1
  S  S7  1  0.861836  0.260238  0.735050  1
  S  S8  1  0.260238  0.735050  0.861836  1
  S  S9  1  0.735050  0.861836  0.260238  1
  S  S10  1  0.091130  0.610827  0.432562  1
  S  S11  1  0.610827  0.432562  0.091130  1
  S  S12  1  0.432562  0.091130  0.610827  1
  S  S13  1  0.610827  0.091130  0.432562  1
  S  S14  1  0.091130  0.432562  0.610827  1
  S  S15  1  0.432562  0.610827  0.091130  1
  S  S16  1  0.374666  0.755860  0.627754  1
  S  S17  1  0.755860  0.627754  0.374666  1
  S  S18  1  0.627754  0.374666  0.755860  1
  S  S19  1  0.755860  0.374666  0.627754  1
  S  S20  1  0.374666  0.627754  0.755860  1
  S  S21  1  0.627754  0.755860  0.374666  1
  S  S22  1  0.181128  0.453661  0.453661  1
  S  S23  1  0.453661  0.453661  0.181128  1
  S  S24  1  0.453661  0.181128  0.453661  1
  S  S25  1  0.005217  0.897221  0.897221  1
  S  S26  1  0.897221  0.897221  0.005217  1
  S  S27  1  0.897221  0.005217  0.897221  1
