# generated using pymatgen
data_K3Sm(AsS2)6
_symmetry_space_group_name_H-M   'P 1'
_cell_length_a   9.48183600
_cell_length_b   9.48183563
_cell_length_c   7.94685000
_cell_angle_alpha   90.00000000
_cell_angle_beta   90.00000000
_cell_angle_gamma   120.00000036
_symmetry_Int_Tables_number   1
_chemical_formula_structural   K3Sm(AsS2)6
_chemical_formula_sum   'K3 Sm1 As6 S12'
_cell_volume   618.74329758
_cell_formula_units_Z   1
loop_
 _symmetry_equiv_pos_site_id
 _symmetry_equiv_pos_as_xyz
  1  'x, y, z'
loop_
 _atom_site_type_symbol
 _atom_site_label
 _atom_site_symmetry_multiplicity
 _atom_site_fract_x
 _atom_site_fract_y
 _atom_site_fract_z
 _atom_site_occupancy
  K  K0  1  0.000000  0.000000  0.000000  1
  K  K1  1  0.333333  0.666667  0.846621  1
  K  K2  1  0.666667  0.333333  0.153379  1
  Sm  Sm3  1  0.000000  0.000000  0.500000  1
  As  As4  1  0.293911  0.839896  0.367516  1
  As  As5  1  0.160104  0.454015  0.367516  1
  As  As6  1  0.545985  0.706089  0.367516  1
  As  As7  1  0.706089  0.160104  0.632484  1
  As  As8  1  0.839896  0.545985  0.632484  1
  As  As9  1  0.454015  0.293911  0.632484  1
  S  S10  1  0.263956  0.049410  0.291285  1
  S  S11  1  0.950590  0.214548  0.291285  1
  S  S12  1  0.785452  0.736044  0.291285  1
  S  S13  1  0.736044  0.950590  0.708715  1
  S  S14  1  0.049410  0.785452  0.708715  1
  S  S15  1  0.214548  0.263956  0.708715  1
  S  S16  1  0.525942  0.901218  0.208220  1
  S  S17  1  0.098782  0.624724  0.208220  1
  S  S18  1  0.375276  0.474058  0.208220  1
  S  S19  1  0.474058  0.098782  0.791780  1
  S  S20  1  0.901218  0.375276  0.791780  1
  S  S21  1  0.624724  0.525942  0.791780  1
