# generated using pymatgen
data_Nd7DySc11Si16W
_symmetry_space_group_name_H-M   'P 1'
_cell_length_a   7.18984083
_cell_length_b   7.42781616
_cell_length_c   14.06177659
_cell_angle_alpha   90.13964831
_cell_angle_beta   89.73396862
_cell_angle_gamma   89.68480881
_symmetry_Int_Tables_number   1
_chemical_formula_structural   Nd7DySc11Si16W
_chemical_formula_sum   'Nd7 Dy1 Sc11 Si16 W1'
_cell_volume   750.94485477
_cell_formula_units_Z   1
loop_
 _symmetry_equiv_pos_site_id
 _symmetry_equiv_pos_as_xyz
  1  'x, y, z'
loop_
 _atom_site_type_symbol
 _atom_site_label
 _atom_site_symmetry_multiplicity
 _atom_site_fract_x
 _atom_site_fract_y
 _atom_site_fract_z
 _atom_site_occupancy
  Nd  Nd0  1  0.011497  0.171016  0.097086  1
  Nd  Nd1  1  0.989622  0.828087  0.897333  1
  Nd  Nd2  1  0.487097  0.673818  0.898291  1
  Nd  Nd3  1  0.992648  0.830309  0.595975  1
  Nd  Nd4  1  0.513208  0.327162  0.096783  1
  Nd  Nd5  1  0.011900  0.173162  0.404551  1
  Nd  Nd6  1  0.507503  0.327025  0.409929  1
  Dy  Dy7  1  0.487934  0.675336  0.598431  1
  Sc  Sc8  1  0.163738  0.491204  0.744135  1
  Sc  Sc9  1  0.837886  0.500026  0.252451  1
  Sc  Sc10  1  0.337552  0.000125  0.251738  1
  Sc  Sc11  1  0.657161  0.003784  0.747037  1
  Sc  Sc12  1  0.664240  0.825855  0.379483  1
  Sc  Sc13  1  0.169305  0.676095  0.378996  1
  Sc  Sc14  1  0.669254  0.824437  0.124540  1
  Sc  Sc15  1  0.832474  0.325806  0.623330  1
  Sc  Sc16  1  0.333167  0.176766  0.874252  1
  Sc  Sc17  1  0.829097  0.323573  0.870027  1
  Sc  Sc18  1  0.170189  0.676264  0.125626  1
  Si  Si19  1  0.045062  0.126399  0.743840  1
  Si  Si20  1  0.962684  0.877404  0.252317  1
  Si  Si21  1  0.465339  0.625141  0.251396  1
  Si  Si22  1  0.529720  0.369682  0.743805  1
  Si  Si23  1  0.291170  0.888581  0.744641  1
  Si  Si24  1  0.709956  0.118508  0.251213  1
  Si  Si25  1  0.213047  0.380936  0.251117  1
  Si  Si26  1  0.783831  0.618550  0.745017  1
  Si  Si27  1  0.176922  0.451231  0.544109  1
  Si  Si28  1  0.844317  0.535328  0.460379  1
  Si  Si29  1  0.339378  0.965828  0.472735  1
  Si  Si30  1  0.849089  0.537433  0.038542  1
  Si  Si31  1  0.639930  0.035108  0.547545  1
  Si  Si32  1  0.149161  0.464178  0.958432  1
  Si  Si33  1  0.656077  0.037884  0.957758  1
  Si  Si34  1  0.346741  0.961650  0.038691  1
  W  W35  1  0.332105  0.176313  0.628469  1
