# generated using pymatgen
data_NaY5LuCo6Sn23
_symmetry_space_group_name_H-M   'P 1'
_cell_length_a   9.70977950
_cell_length_b   9.70472268
_cell_length_c   9.94117709
_cell_angle_alpha   89.99999992
_cell_angle_beta   89.98696585
_cell_angle_gamma   119.98277385
_symmetry_Int_Tables_number   1
_chemical_formula_structural   NaY5LuCo6Sn23
_chemical_formula_sum   'Na1 Y5 Lu1 Co6 Sn23'
_cell_volume   811.40239235
_cell_formula_units_Z   1
loop_
 _symmetry_equiv_pos_site_id
 _symmetry_equiv_pos_as_xyz
  1  'x, y, z'
loop_
 _atom_site_type_symbol
 _atom_site_label
 _atom_site_symmetry_multiplicity
 _atom_site_fract_x
 _atom_site_fract_y
 _atom_site_fract_z
 _atom_site_occupancy
  Na  Na0  1  0.000023  0.000011  0.000057  1
  Y  Y1  1  0.479580  0.958487  0.305234  1
  Y  Y2  1  0.479580  0.521093  0.305234  1
  Y  Y3  1  0.958215  0.479108  0.694694  1
  Y  Y4  1  0.520950  0.041556  0.694571  1
  Y  Y5  1  0.520950  0.479394  0.694571  1
  Lu  Lu6  1  0.038353  0.519177  0.304225  1
  Co  Co7  1  0.170550  0.829428  0.798845  1
  Co  Co8  1  0.659383  0.829692  0.799424  1
  Co  Co9  1  0.170550  0.341122  0.798845  1
  Co  Co10  1  0.830911  0.172524  0.201458  1
  Co  Co11  1  0.340382  0.170191  0.201133  1
  Co  Co12  1  0.830911  0.658387  0.201458  1
  Sn  Sn13  1  0.000503  0.000251  0.499624  1
  Sn  Sn14  1  0.116011  0.882947  0.271961  1
  Sn  Sn15  1  0.769101  0.884551  0.271794  1
  Sn  Sn16  1  0.116011  0.233066  0.271961  1
  Sn  Sn17  1  0.884302  0.116137  0.728302  1
  Sn  Sn18  1  0.231529  0.115764  0.728078  1
  Sn  Sn19  1  0.884302  0.768164  0.728302  1
  Sn  Sn20  1  0.343816  0.999963  0.000320  1
  Sn  Sn21  1  0.656358  0.655913  0.000507  1
  Sn  Sn22  1  0.000090  0.344306  0.000326  1
  Sn  Sn23  1  0.343816  0.343852  0.000320  1
  Sn  Sn24  1  0.000090  0.655784  0.000326  1
  Sn  Sn25  1  0.656358  0.000445  0.000507  1
  Sn  Sn26  1  0.782859  0.563127  0.453432  1
  Sn  Sn27  1  0.782859  0.219732  0.453432  1
  Sn  Sn28  1  0.436597  0.218298  0.453608  1
  Sn  Sn29  1  0.217837  0.437474  0.544572  1
  Sn  Sn30  1  0.217837  0.780363  0.544572  1
  Sn  Sn31  1  0.563185  0.781592  0.545819  1
  Sn  Sn32  1  0.666926  0.333462  0.185957  1
  Sn  Sn33  1  0.333421  0.666711  0.813955  1
  Sn  Sn34  1  0.666473  0.333236  0.885653  1
  Sn  Sn35  1  0.329384  0.664692  0.116918  1
