# generated using pymatgen
data_Hf6Fe15Si7Rh
_symmetry_space_group_name_H-M   'P 1'
_cell_length_a   8.10036604
_cell_length_b   8.10036489
_cell_length_c   8.10036500
_cell_angle_alpha   59.76786650
_cell_angle_beta   59.76787082
_cell_angle_gamma   59.76786605
_symmetry_Int_Tables_number   1
_chemical_formula_structural   Hf6Fe15Si7Rh
_chemical_formula_sum   'Hf6 Fe15 Si7 Rh1'
_cell_volume   373.85547910
_cell_formula_units_Z   1
loop_
 _symmetry_equiv_pos_site_id
 _symmetry_equiv_pos_as_xyz
  1  'x, y, z'
loop_
 _atom_site_type_symbol
 _atom_site_label
 _atom_site_symmetry_multiplicity
 _atom_site_fract_x
 _atom_site_fract_y
 _atom_site_fract_z
 _atom_site_occupancy
  Hf  Hf0  1  0.299152  0.702244  0.702244  1
  Hf  Hf1  1  0.702244  0.702244  0.299152  1
  Hf  Hf2  1  0.294471  0.294471  0.705175  1
  Hf  Hf3  1  0.705175  0.294471  0.294471  1
  Hf  Hf4  1  0.702244  0.299152  0.702244  1
  Hf  Hf5  1  0.294471  0.705175  0.294471  1
  Fe  Fe6  1  0.026408  0.324987  0.324987  1
  Fe  Fe7  1  0.124300  0.124300  0.635829  1
  Fe  Fe8  1  0.324987  0.026408  0.324987  1
  Fe  Fe9  1  0.324021  0.324021  0.324021  1
  Fe  Fe10  1  0.673751  0.673751  0.974138  1
  Fe  Fe11  1  0.877319  0.877319  0.362927  1
  Fe  Fe12  1  0.675434  0.675434  0.675434  1
  Fe  Fe13  1  0.673751  0.974138  0.673751  1
  Fe  Fe14  1  0.324987  0.324987  0.026408  1
  Fe  Fe15  1  0.877319  0.362927  0.877319  1
  Fe  Fe16  1  0.635829  0.124300  0.124300  1
  Fe  Fe17  1  0.124300  0.635829  0.124300  1
  Fe  Fe18  1  0.122181  0.122181  0.122181  1
  Fe  Fe19  1  0.974138  0.673751  0.673751  1
  Fe  Fe20  1  0.362927  0.877319  0.877319  1
  Si  Si21  1  0.000358  0.000358  0.492588  1
  Si  Si22  1  0.000358  0.492588  0.000358  1
  Si  Si23  1  0.005091  0.005091  0.005091  1
  Si  Si24  1  0.500078  0.999303  0.500078  1
  Si  Si25  1  0.999303  0.500078  0.500078  1
  Si  Si26  1  0.492588  0.000358  0.000358  1
  Si  Si27  1  0.500078  0.500078  0.999303  1
  Rh  Rh28  1  0.882737  0.882737  0.882737  1
