# generated using pymatgen
data_NdEr2Th3Si4
_symmetry_space_group_name_H-M   'P 1'
_cell_length_a   7.62623160
_cell_length_b   7.62623199
_cell_length_c   4.28461200
_cell_angle_alpha   90.00000000
_cell_angle_beta   90.00000000
_cell_angle_gamma   90.16632324
_symmetry_Int_Tables_number   1
_chemical_formula_structural   NdEr2Th3Si4
_chemical_formula_sum   'Nd1 Er2 Th3 Si4'
_cell_volume   249.18946217
_cell_formula_units_Z   1
loop_
 _symmetry_equiv_pos_site_id
 _symmetry_equiv_pos_as_xyz
  1  'x, y, z'
loop_
 _atom_site_type_symbol
 _atom_site_label
 _atom_site_symmetry_multiplicity
 _atom_site_fract_x
 _atom_site_fract_y
 _atom_site_fract_z
 _atom_site_occupancy
  Nd  Nd0  1  0.822922  0.677078  0.500000  1
  Er  Er1  1  0.999081  0.000509  0.000000  1
  Er  Er2  1  0.499491  0.500919  0.000000  1
  Th  Th3  1  0.678110  0.178703  0.500000  1
  Th  Th4  1  0.321297  0.821890  0.500000  1
  Th  Th5  1  0.178316  0.321684  0.500000  1
  Si  Si6  1  0.119140  0.615795  0.000000  1
  Si  Si7  1  0.884205  0.380860  0.000000  1
  Si  Si8  1  0.615206  0.884794  0.000000  1
  Si  Si9  1  0.382232  0.117768  0.000000  1
