# generated using pymatgen
data_Nd4Cu4Ni9Ir
_symmetry_space_group_name_H-M   'P 1'
_cell_length_a   5.11239660
_cell_length_b   5.11239605
_cell_length_c   12.77619083
_cell_angle_alpha   78.45864412
_cell_angle_beta   78.45864479
_cell_angle_gamma   60.00000544
_symmetry_Int_Tables_number   1
_chemical_formula_structural   Nd4Cu4Ni9Ir
_chemical_formula_sum   'Nd4 Cu4 Ni9 Ir1'
_cell_volume   281.36522243
_cell_formula_units_Z   1
loop_
 _symmetry_equiv_pos_site_id
 _symmetry_equiv_pos_as_xyz
  1  'x, y, z'
loop_
 _atom_site_type_symbol
 _atom_site_label
 _atom_site_symmetry_multiplicity
 _atom_site_fract_x
 _atom_site_fract_y
 _atom_site_fract_z
 _atom_site_occupancy
  Nd  Nd0  1  0.950269  0.950269  0.149194  1
  Nd  Nd1  1  0.049731  0.049731  0.850806  1
  Nd  Nd2  1  0.853180  0.853180  0.440460  1
  Nd  Nd3  1  0.146820  0.146820  0.559540  1
  Cu  Cu4  1  0.720802  0.720802  0.837595  1
  Cu  Cu5  1  0.279198  0.279198  0.162405  1
  Cu  Cu6  1  0.612479  0.612479  0.162563  1
  Cu  Cu7  1  0.387521  0.387521  0.837437  1
  Ni  Ni8  1  0.000000  0.500000  0.000000  1
  Ni  Ni9  1  0.500000  0.000000  0.000000  1
  Ni  Ni10  1  0.500000  0.500000  0.000000  1
  Ni  Ni11  1  0.391341  0.391341  0.324536  1
  Ni  Ni12  1  0.892782  0.391341  0.324536  1
  Ni  Ni13  1  0.391341  0.892782  0.324536  1
  Ni  Ni14  1  0.608659  0.608659  0.675464  1
  Ni  Ni15  1  0.107218  0.608659  0.675464  1
  Ni  Ni16  1  0.608659  0.107218  0.675464  1
  Ir  Ir17  1  0.500000  0.500000  0.500000  1
