# generated using pymatgen
data_Hf8Co2Pt2N
_symmetry_space_group_name_H-M   'P 1'
_cell_length_a   8.60053808
_cell_length_b   8.60053986
_cell_length_c   8.60054000
_cell_angle_alpha   120.14571091
_cell_angle_beta   119.82074189
_cell_angle_gamma   90.02928074
_symmetry_Int_Tables_number   1
_chemical_formula_structural   Hf8Co2Pt2N
_chemical_formula_sum   'Hf16 Co4 Pt4 N2'
_cell_volume   449.95361509
_cell_formula_units_Z   2
loop_
 _symmetry_equiv_pos_site_id
 _symmetry_equiv_pos_as_xyz
  1  'x, y, z'
loop_
 _atom_site_type_symbol
 _atom_site_label
 _atom_site_symmetry_multiplicity
 _atom_site_fract_x
 _atom_site_fract_y
 _atom_site_fract_z
 _atom_site_occupancy
  Hf  Hf0  1  0.941218  0.191238  0.749975  1
  Hf  Hf1  1  0.315112  0.565175  0.750047  1
  Hf  Hf2  1  0.937956  0.563386  0.755962  1
  Hf  Hf3  1  0.307426  0.181976  0.744055  1
  Hf  Hf4  1  0.937905  0.181980  0.374556  1
  Hf  Hf5  1  0.307423  0.563410  0.125438  1
  Hf  Hf6  1  0.059646  0.809644  0.249989  1
  Hf  Hf7  1  0.685905  0.435912  0.250010  1
  Hf  Hf8  1  0.061478  0.436446  0.245868  1
  Hf  Hf9  1  0.690555  0.815627  0.254114  1
  Hf  Hf10  1  0.061483  0.815610  0.625041  1
  Hf  Hf11  1  0.690560  0.436441  0.874929  1
  Hf  Hf12  1  0.483285  0.017138  0.033915  1
  Hf  Hf13  1  0.483338  0.449424  0.466145  1
  Hf  Hf14  1  0.483058  0.016947  0.465990  1
  Hf  Hf15  1  0.050949  0.016926  0.033907  1
  Co  Co16  1  0.272960  0.232825  0.459881  1
  Co  Co17  1  0.272981  0.813159  0.040193  1
  Co  Co18  1  0.275574  0.230054  0.045512  1
  Co  Co19  1  0.684538  0.230045  0.454489  1
  Pt  Pt20  1  0.711369  0.783196  0.571826  1
  Pt  Pt21  1  0.711377  0.139548  0.928177  1
  Pt  Pt22  1  0.708121  0.787116  0.920992  1
  Pt  Pt23  1  0.366110  0.787109  0.578981  1
  N  N24  1  0.999850  0.499998  0.000167  1
  N  N25  1  0.999824  0.999670  0.499840  1
