# generated using pymatgen
data_Ce3As4
_symmetry_space_group_name_H-M   'P 1'
_cell_length_a   8.75859500
_cell_length_b   8.75859500
_cell_length_c   8.75859500
_cell_angle_alpha   90.00000000
_cell_angle_beta   90.00000000
_cell_angle_gamma   90.00000000
_symmetry_Int_Tables_number   1
_chemical_formula_structural   Ce3As4
_chemical_formula_sum   'Ce12 As16'
_cell_volume   671.89797889
_cell_formula_units_Z   4
loop_
 _symmetry_equiv_pos_site_id
 _symmetry_equiv_pos_as_xyz
  1  'x, y, z'
loop_
 _atom_site_type_symbol
 _atom_site_label
 _atom_site_symmetry_multiplicity
 _atom_site_fract_x
 _atom_site_fract_y
 _atom_site_fract_z
 _atom_site_occupancy
  Ce  Ce0  1  0.624865  0.499910  0.250002  1
  Ce  Ce1  1  0.249998  0.375135  0.999910  1
  Ce  Ce2  1  0.999910  0.249998  0.375135  1
  Ce  Ce3  1  0.375135  0.999910  0.249998  1
  Ce  Ce4  1  0.749998  0.124865  0.000090  1
  Ce  Ce5  1  0.124865  0.000090  0.749998  1
  Ce  Ce6  1  0.499910  0.250002  0.624865  1
  Ce  Ce7  1  0.750002  0.875135  0.500090  1
  Ce  Ce8  1  0.500090  0.750002  0.875135  1
  Ce  Ce9  1  0.875135  0.500090  0.750002  1
  Ce  Ce10  1  0.250002  0.624865  0.499910  1
  Ce  Ce11  1  0.000090  0.749998  0.124865  1
  As  As12  1  0.328745  0.328745  0.328745  1
  As  As13  1  0.828745  0.171255  0.671255  1
  As  As14  1  0.671255  0.828745  0.171255  1
  As  As15  1  0.171255  0.671255  0.828745  1
  As  As16  1  0.578977  0.421023  0.921023  1
  As  As17  1  0.171020  0.328980  0.671020  1
  As  As18  1  0.921094  0.421094  0.078906  1
  As  As19  1  0.078977  0.078977  0.078977  1
  As  As20  1  0.421094  0.078906  0.921094  1
  As  As21  1  0.078906  0.921094  0.421094  1
  As  As22  1  0.671020  0.171020  0.328980  1
  As  As23  1  0.421023  0.921023  0.578977  1
  As  As24  1  0.578906  0.578906  0.578906  1
  As  As25  1  0.921023  0.578977  0.421023  1
  As  As26  1  0.328980  0.671020  0.171020  1
  As  As27  1  0.828980  0.828980  0.828980  1
