# generated using pymatgen
data_CsP2PtO8
_symmetry_space_group_name_H-M   'P 1'
_cell_length_a   9.83392052
_cell_length_b   9.83392033
_cell_length_c   8.27679604
_cell_angle_alpha   70.45651433
_cell_angle_beta   70.45651459
_cell_angle_gamma   30.97278081
_symmetry_Int_Tables_number   1
_chemical_formula_structural   CsP2PtO8
_chemical_formula_sum   'Cs2 P4 Pt2 O16'
_cell_volume   386.30505384
_cell_formula_units_Z   2
loop_
 _symmetry_equiv_pos_site_id
 _symmetry_equiv_pos_as_xyz
  1  'x, y, z'
loop_
 _atom_site_type_symbol
 _atom_site_label
 _atom_site_symmetry_multiplicity
 _atom_site_fract_x
 _atom_site_fract_y
 _atom_site_fract_z
 _atom_site_occupancy
  Cs  Cs0  1  0.246793  0.753207  0.250000  1
  Cs  Cs1  1  0.753207  0.246793  0.750000  1
  P  P2  1  0.910588  0.414117  0.218486  1
  P  P3  1  0.585883  0.089412  0.281514  1
  P  P4  1  0.089412  0.585883  0.781514  1
  P  P5  1  0.414117  0.910588  0.718486  1
  Pt  Pt6  1  0.500000  0.000000  0.000000  1
  Pt  Pt7  1  0.000000  0.500000  0.500000  1
  O  O8  1  0.979729  0.485669  0.275453  1
  O  O9  1  0.514331  0.020271  0.224547  1
  O  O10  1  0.020271  0.514331  0.724547  1
  O  O11  1  0.485669  0.979729  0.775453  1
  O  O12  1  0.839599  0.329727  0.350530  1
  O  O13  1  0.670273  0.160401  0.149470  1
  O  O14  1  0.160401  0.670273  0.649470  1
  O  O15  1  0.329727  0.839599  0.850530  1
  O  O16  1  0.672296  0.663331  0.101332  1
  O  O17  1  0.336669  0.327704  0.398668  1
  O  O18  1  0.327704  0.336669  0.898668  1
  O  O19  1  0.663331  0.672296  0.601332  1
  O  O20  1  0.154006  0.188073  0.092396  1
  O  O21  1  0.811927  0.845994  0.407604  1
  O  O22  1  0.845994  0.811927  0.907604  1
  O  O23  1  0.188073  0.154006  0.592396  1
