# generated using pymatgen
data_Tm3CdIn3Ir2
_symmetry_space_group_name_H-M   'P 1'
_cell_length_a   7.79680200
_cell_length_b   7.79680148
_cell_length_c   3.81149100
_cell_angle_alpha   90.00000000
_cell_angle_beta   90.00000000
_cell_angle_gamma   120.00000221
_symmetry_Int_Tables_number   1
_chemical_formula_structural   Tm3CdIn3Ir2
_chemical_formula_sum   'Tm3 Cd1 In3 Ir2'
_cell_volume   200.65893486
_cell_formula_units_Z   1
loop_
 _symmetry_equiv_pos_site_id
 _symmetry_equiv_pos_as_xyz
  1  'x, y, z'
loop_
 _atom_site_type_symbol
 _atom_site_label
 _atom_site_symmetry_multiplicity
 _atom_site_fract_x
 _atom_site_fract_y
 _atom_site_fract_z
 _atom_site_occupancy
  Tm  Tm0  1  0.963503  0.377740  0.500000  1
  Tm  Tm1  1  0.622260  0.585763  0.500000  1
  Tm  Tm2  1  0.414237  0.036497  0.500000  1
  Cd  Cd3  1  0.333333  0.666667  0.000000  1
  In  In4  1  0.002994  0.741880  0.000000  1
  In  In5  1  0.258120  0.261114  0.000000  1
  In  In6  1  0.738886  0.997006  0.000000  1
  Ir  Ir7  1  0.666667  0.333333  0.000000  1
  Ir  Ir8  1  0.000000  0.000000  0.500000  1
