# generated using pymatgen
data_Zr16Co4Pt3RhN4
_symmetry_space_group_name_H-M   'P 1'
_cell_length_a   8.72450635
_cell_length_b   8.72081624
_cell_length_c   8.72081700
_cell_angle_alpha   60.00000091
_cell_angle_beta   60.01399131
_cell_angle_gamma   60.01400062
_symmetry_Int_Tables_number   1
_chemical_formula_structural   Zr16Co4Pt3RhN4
_chemical_formula_sum   'Zr16 Co4 Pt3 Rh1 N4'
_cell_volume   469.27997142
_cell_formula_units_Z   1
loop_
 _symmetry_equiv_pos_site_id
 _symmetry_equiv_pos_as_xyz
  1  'x, y, z'
loop_
 _atom_site_type_symbol
 _atom_site_label
 _atom_site_symmetry_multiplicity
 _atom_site_fract_x
 _atom_site_fract_y
 _atom_site_fract_z
 _atom_site_occupancy
  Zr  Zr0  1  0.077360  0.640880  0.640880  1
  Zr  Zr1  1  0.641317  0.077941  0.640371  1
  Zr  Zr2  1  0.641317  0.640371  0.077941  1
  Zr  Zr3  1  0.641317  0.640371  0.640371  1
  Zr  Zr4  1  0.815840  0.815172  0.184494  1
  Zr  Zr5  1  0.184165  0.184269  0.815783  1
  Zr  Zr6  1  0.815840  0.184494  0.815172  1
  Zr  Zr7  1  0.184165  0.815783  0.184269  1
  Zr  Zr8  1  0.184165  0.815783  0.815783  1
  Zr  Zr9  1  0.815840  0.184494  0.184494  1
  Zr  Zr10  1  0.434470  0.433963  0.065784  1
  Zr  Zr11  1  0.063715  0.068038  0.434124  1
  Zr  Zr12  1  0.434470  0.065784  0.433963  1
  Zr  Zr13  1  0.063715  0.434124  0.068038  1
  Zr  Zr14  1  0.063715  0.434124  0.434124  1
  Zr  Zr15  1  0.434470  0.065784  0.065784  1
  Co  Co16  1  0.443016  0.852328  0.852328  1
  Co  Co17  1  0.852561  0.442573  0.852433  1
  Co  Co18  1  0.852561  0.852433  0.442573  1
  Co  Co19  1  0.852561  0.852433  0.852433  1
  Pt  Pt20  1  0.416647  0.752376  0.415487  1
  Pt  Pt21  1  0.416647  0.415487  0.752376  1
  Pt  Pt22  1  0.416647  0.415487  0.415487  1
  Rh  Rh23  1  0.752672  0.415775  0.415775  1
  N  N24  1  0.622937  0.125688  0.125688  1
  N  N25  1  0.125955  0.623294  0.125376  1
  N  N26  1  0.125955  0.125376  0.623294  1
  N  N27  1  0.125955  0.125376  0.125376  1
