# generated using pymatgen
data_Ce3VSn2Ir3
_symmetry_space_group_name_H-M   'P 1'
_cell_length_a   7.42374279
_cell_length_b   7.16889545
_cell_length_c   4.18660700
_cell_angle_alpha   90.00000000
_cell_angle_beta   90.00000000
_cell_angle_gamma   118.87075907
_symmetry_Int_Tables_number   1
_chemical_formula_structural   Ce3VSn2Ir3
_chemical_formula_sum   'Ce3 V1 Sn2 Ir3'
_cell_volume   195.11838456
_cell_formula_units_Z   1
loop_
 _symmetry_equiv_pos_site_id
 _symmetry_equiv_pos_as_xyz
  1  'x, y, z'
loop_
 _atom_site_type_symbol
 _atom_site_label
 _atom_site_symmetry_multiplicity
 _atom_site_fract_x
 _atom_site_fract_y
 _atom_site_fract_z
 _atom_site_occupancy
  Ce  Ce0  1  0.414310  0.419262  0.000000  1
  Ce  Ce1  1  0.585690  0.004952  0.000000  1
  Ce  Ce2  1  0.000000  0.584559  0.000000  1
  V  V3  1  0.000000  0.245639  0.500000  1
  Sn  Sn4  1  0.749600  0.757378  0.500000  1
  Sn  Sn5  1  0.250400  0.007778  0.500000  1
  Ir  Ir6  1  0.000000  0.049556  0.000000  1
  Ir  Ir7  1  0.701628  0.316252  0.500000  1
  Ir  Ir8  1  0.298372  0.614625  0.500000  1
