# generated using pymatgen
data_ErTm7Ti12Si15Sn
_symmetry_space_group_name_H-M   'P 1'
_cell_length_a   7.06673168
_cell_length_b   7.02940752
_cell_length_c   12.93879801
_cell_angle_alpha   89.98071464
_cell_angle_beta   89.74099631
_cell_angle_gamma   89.91266426
_symmetry_Int_Tables_number   1
_chemical_formula_structural   ErTm7Ti12Si15Sn
_chemical_formula_sum   'Er1 Tm7 Ti12 Si15 Sn1'
_cell_volume   642.72662510
_cell_formula_units_Z   1
loop_
 _symmetry_equiv_pos_site_id
 _symmetry_equiv_pos_as_xyz
  1  'x, y, z'
loop_
 _atom_site_type_symbol
 _atom_site_label
 _atom_site_symmetry_multiplicity
 _atom_site_fract_x
 _atom_site_fract_y
 _atom_site_fract_z
 _atom_site_occupancy
  Er  Er0  1  0.999627  0.659380  0.034099  1
  Tm  Tm1  1  0.342830  0.998924  0.461280  1
  Tm  Tm2  1  0.506085  0.834948  0.718207  1
  Tm  Tm3  1  0.502273  0.159960  0.216894  1
  Tm  Tm4  1  0.840808  0.496832  0.282205  1
  Tm  Tm5  1  0.159438  0.510068  0.786071  1
  Tm  Tm6  1  0.661832  0.996585  0.968848  1
  Tm  Tm7  1  0.991980  0.348462  0.527391  1
  Ti  Ti8  1  0.326631  0.326488  0.001245  1
  Ti  Ti9  1  0.173878  0.826040  0.249717  1
  Ti  Ti10  1  0.816607  0.174941  0.752040  1
  Ti  Ti11  1  0.672153  0.673256  0.499463  1
  Ti  Ti12  1  0.152582  0.007559  0.883298  1
  Ti  Ti13  1  0.493142  0.649589  0.126864  1
  Ti  Ti14  1  0.514428  0.354634  0.626486  1
  Ti  Ti15  1  0.654019  0.493768  0.875774  1
  Ti  Ti16  1  0.347419  0.508785  0.372774  1
  Ti  Ti17  1  0.846903  0.993111  0.375548  1
  Ti  Ti18  1  0.009548  0.150959  0.123420  1
  Ti  Ti19  1  0.979290  0.835948  0.618658  1
  Si  Si20  1  0.371116  0.703254  0.935451  1
  Si  Si21  1  0.628113  0.297174  0.432272  1
  Si  Si22  1  0.704613  0.368591  0.067273  1
  Si  Si23  1  0.295982  0.631464  0.566098  1
  Si  Si24  1  0.797200  0.869046  0.183722  1
  Si  Si25  1  0.130459  0.202868  0.315382  1
  Si  Si26  1  0.870322  0.799885  0.816563  1
  Si  Si27  1  0.294087  0.952086  0.066975  1
  Si  Si28  1  0.549150  0.790005  0.313572  1
  Si  Si29  1  0.459618  0.209655  0.820186  1
  Si  Si30  1  0.794380  0.544683  0.686966  1
  Si  Si31  1  0.208750  0.452520  0.185193  1
  Si  Si32  1  0.705249  0.048434  0.564349  1
  Si  Si33  1  0.952936  0.292139  0.935313  1
  Si  Si34  1  0.047145  0.710247  0.432580  1
  Sn  Sn35  1  0.199406  0.127714  0.677821  1
