# generated using pymatgen
data_Yb3Hg2Pd2PtPb
_symmetry_space_group_name_H-M   'P 1'
_cell_length_a   7.72554595
_cell_length_b   7.71458805
_cell_length_c   3.92381800
_cell_angle_alpha   90.00000000
_cell_angle_beta   90.00000000
_cell_angle_gamma   119.45740665
_symmetry_Int_Tables_number   1
_chemical_formula_structural   Yb3Hg2Pd2PtPb
_chemical_formula_sum   'Yb3 Hg2 Pd2 Pt1 Pb1'
_cell_volume   203.62451055
_cell_formula_units_Z   1
loop_
 _symmetry_equiv_pos_site_id
 _symmetry_equiv_pos_as_xyz
  1  'x, y, z'
loop_
 _atom_site_type_symbol
 _atom_site_label
 _atom_site_symmetry_multiplicity
 _atom_site_fract_x
 _atom_site_fract_y
 _atom_site_fract_z
 _atom_site_occupancy
  Yb  Yb0  1  0.413551  0.396963  0.500000  1
  Yb  Yb1  1  0.594299  0.997392  0.500000  1
  Yb  Yb2  1  0.992707  0.609075  0.500000  1
  Hg  Hg3  1  0.729083  0.733089  0.000000  1
  Hg  Hg4  1  0.267051  0.996750  0.000000  1
  Pd  Pd5  1  0.327252  0.659830  0.000000  1
  Pd  Pd6  1  0.998158  0.007389  0.500000  1
  Pt  Pt7  1  0.671357  0.330495  0.000000  1
  Pb  Pb8  1  0.006543  0.269018  0.000000  1
