# generated using pymatgen
data_Lu(BeB14)2
_symmetry_space_group_name_H-M   'P 1'
_cell_length_a   7.16116761
_cell_length_b   7.16116956
_cell_length_c   5.72683989
_cell_angle_alpha   66.56895099
_cell_angle_beta   66.56901100
_cell_angle_gamma   91.89541233
_symmetry_Int_Tables_number   1
_chemical_formula_structural   Lu(BeB14)2
_chemical_formula_sum   'Lu1 Be2 B28'
_cell_volume   240.78713224
_cell_formula_units_Z   1
loop_
 _symmetry_equiv_pos_site_id
 _symmetry_equiv_pos_as_xyz
  1  'x, y, z'
loop_
 _atom_site_type_symbol
 _atom_site_label
 _atom_site_symmetry_multiplicity
 _atom_site_fract_x
 _atom_site_fract_y
 _atom_site_fract_z
 _atom_site_occupancy
  Lu  Lu0  1  0.881125  0.881125  0.377151  1
  Be  Be1  1  0.533747  0.533745  0.439080  1
  Be  Be2  1  0.240437  0.240438  0.320731  1
  B  B3  1  0.414435  0.733198  0.182596  1
  B  B4  1  0.579894  0.256133  0.835856  1
  B  B5  1  0.256133  0.579895  0.835857  1
  B  B6  1  0.733198  0.414434  0.182595  1
  B  B7  1  0.691012  0.857248  0.982420  1
  B  B8  1  0.302379  0.130992  0.039150  1
  B  B9  1  0.130992  0.302379  0.039150  1
  B  B10  1  0.857248  0.691012  0.982420  1
  B  B11  1  0.527999  0.868750  0.310532  1
  B  B12  1  0.467157  0.119443  0.218426  1
  B  B13  1  0.119443  0.467157  0.218426  1
  B  B14  1  0.868750  0.527999  0.310532  1
  B  B15  1  0.460651  0.117450  0.717028  1
  B  B16  1  0.528721  0.866503  0.804082  1
  B  B17  1  0.866502  0.528721  0.804082  1
  B  B18  1  0.117450  0.460651  0.717028  1
  B  B19  1  0.720313  0.095727  0.009434  1
  B  B20  1  0.272712  0.890987  0.335894  1
  B  B21  1  0.890988  0.272711  0.335894  1
  B  B22  1  0.095727  0.720313  0.009433  1
  B  B23  1  0.271658  0.891525  0.015347  1
  B  B24  1  0.717713  0.095207  0.690237  1
  B  B25  1  0.095207  0.717713  0.690237  1
  B  B26  1  0.891525  0.271659  0.015346  1
  B  B27  1  0.283617  0.465207  0.389559  1
  B  B28  1  0.699329  0.518731  0.650959  1
  B  B29  1  0.518731  0.699329  0.650959  1
  B  B30  1  0.465206  0.283616  0.389559  1
