# generated using pymatgen
data_YbCd(CuO2)4
_symmetry_space_group_name_H-M   'P 1'
_cell_length_a   6.20653469
_cell_length_b   6.20653535
_cell_length_c   6.20653476
_cell_angle_alpha   125.29522999
_cell_angle_beta   125.29524279
_cell_angle_gamma   81.04959023
_symmetry_Int_Tables_number   1
_chemical_formula_structural   YbCd(CuO2)4
_chemical_formula_sum   'Yb1 Cd1 Cu4 O8'
_cell_volume   153.45861991
_cell_formula_units_Z   1
loop_
 _symmetry_equiv_pos_site_id
 _symmetry_equiv_pos_as_xyz
  1  'x, y, z'
loop_
 _atom_site_type_symbol
 _atom_site_label
 _atom_site_symmetry_multiplicity
 _atom_site_fract_x
 _atom_site_fract_y
 _atom_site_fract_z
 _atom_site_occupancy
  Yb  Yb0  1  0.750000  0.250000  0.500000  1
  Cd  Cd1  1  0.000000  0.000000  0.000000  1
  Cu  Cu2  1  0.374385  0.624365  0.248756  1
  Cu  Cu3  1  0.375635  0.624391  0.750021  1
  Cu  Cu4  1  0.874370  0.625615  0.249979  1
  Cu  Cu5  1  0.375609  0.125630  0.751244  1
  O  O6  1  0.169216  0.590633  0.861441  1
  O  O7  1  0.729193  0.307776  0.138559  1
  O  O8  1  0.344062  0.979302  0.924421  1
  O  O9  1  0.692224  0.830784  0.421417  1
  O  O10  1  0.054881  0.419641  0.075579  1
  O  O11  1  0.409367  0.270807  0.578583  1
  O  O12  1  0.020698  0.945119  0.364761  1
  O  O13  1  0.580359  0.655938  0.635239  1
