# generated using pymatgen
data_Ho2ErSi2(PPd5)4
_symmetry_space_group_name_H-M   'P 1'
_cell_length_a   8.69590092
_cell_length_b   8.67742514
_cell_length_c   8.67742415
_cell_angle_alpha   60.14092067
_cell_angle_beta   59.92954132
_cell_angle_gamma   59.92953888
_symmetry_Int_Tables_number   1
_chemical_formula_structural   Ho2ErSi2(PPd5)4
_chemical_formula_sum   'Ho2 Er1 Si2 P4 Pd20'
_cell_volume   462.99611181
_cell_formula_units_Z   1
loop_
 _symmetry_equiv_pos_site_id
 _symmetry_equiv_pos_as_xyz
  1  'x, y, z'
loop_
 _atom_site_type_symbol
 _atom_site_label
 _atom_site_symmetry_multiplicity
 _atom_site_fract_x
 _atom_site_fract_y
 _atom_site_fract_z
 _atom_site_occupancy
  Ho  Ho0  1  0.250000  0.250000  0.250000  1
  Ho  Ho1  1  0.750000  0.750000  0.750000  1
  Er  Er2  1  0.000000  0.000000  0.000000  1
  Si  Si3  1  0.734274  0.265726  0.265726  1
  Si  Si4  1  0.265726  0.734274  0.734274  1
  P  P5  1  0.264830  0.735170  0.264830  1
  P  P6  1  0.735170  0.264830  0.735170  1
  P  P7  1  0.264830  0.264830  0.735170  1
  P  P8  1  0.735170  0.735170  0.264830  1
  Pd  Pd9  1  0.382776  0.384614  0.384614  1
  Pd  Pd10  1  0.617224  0.615386  0.615386  1
  Pd  Pd11  1  0.384614  0.382776  0.847998  1
  Pd  Pd12  1  0.384614  0.847998  0.382776  1
  Pd  Pd13  1  0.615386  0.617224  0.152002  1
  Pd  Pd14  1  0.615386  0.152002  0.617224  1
  Pd  Pd15  1  0.847998  0.384614  0.384614  1
  Pd  Pd16  1  0.152002  0.615386  0.615386  1
  Pd  Pd17  1  0.343657  0.000000  0.000000  1
  Pd  Pd18  1  0.656343  0.000000  0.000000  1
  Pd  Pd19  1  0.000000  0.343657  0.656343  1
  Pd  Pd20  1  0.000000  0.656343  0.343657  1
  Pd  Pd21  1  0.000905  0.345793  0.999095  1
  Pd  Pd22  1  0.654207  0.999095  0.345793  1
  Pd  Pd23  1  0.999095  0.654207  0.000905  1
  Pd  Pd24  1  0.345793  0.000905  0.654207  1
  Pd  Pd25  1  0.000905  0.999095  0.345793  1
  Pd  Pd26  1  0.999095  0.000905  0.654207  1
  Pd  Pd27  1  0.654207  0.345793  0.999095  1
  Pd  Pd28  1  0.345793  0.654207  0.000905  1
