# generated using pymatgen
data_Hf4Ni5P6Ru
_symmetry_space_group_name_H-M   'P 1'
_cell_length_a   3.60186200
_cell_length_b   10.07441500
_cell_length_c   12.33588300
_cell_angle_alpha   90.00000000
_cell_angle_beta   90.00000000
_cell_angle_gamma   90.00000000
_symmetry_Int_Tables_number   1
_chemical_formula_structural   Hf4Ni5P6Ru
_chemical_formula_sum   'Hf8 Ni10 P12 Ru2'
_cell_volume   447.62790045
_cell_formula_units_Z   2
loop_
 _symmetry_equiv_pos_site_id
 _symmetry_equiv_pos_as_xyz
  1  'x, y, z'
loop_
 _atom_site_type_symbol
 _atom_site_label
 _atom_site_symmetry_multiplicity
 _atom_site_fract_x
 _atom_site_fract_y
 _atom_site_fract_z
 _atom_site_occupancy
  Hf  Hf0  1  0.250000  0.337756  0.996095  1
  Hf  Hf1  1  0.250000  0.162244  0.496095  1
  Hf  Hf2  1  0.750000  0.660907  0.003533  1
  Hf  Hf3  1  0.750000  0.839093  0.503533  1
  Hf  Hf4  1  0.250000  0.422624  0.708262  1
  Hf  Hf5  1  0.250000  0.077376  0.208262  1
  Hf  Hf6  1  0.750000  0.578655  0.285451  1
  Hf  Hf7  1  0.750000  0.921345  0.785451  1
  Ni  Ni8  1  0.750000  0.100990  0.020517  1
  Ni  Ni9  1  0.750000  0.399010  0.520517  1
  Ni  Ni10  1  0.250000  0.135167  0.717877  1
  Ni  Ni11  1  0.250000  0.364833  0.217877  1
  Ni  Ni12  1  0.750000  0.867543  0.280838  1
  Ni  Ni13  1  0.750000  0.632457  0.780838  1
  Ni  Ni14  1  0.250000  0.765680  0.169985  1
  Ni  Ni15  1  0.250000  0.734320  0.669985  1
  Ni  Ni16  1  0.750000  0.228325  0.833798  1
  Ni  Ni17  1  0.750000  0.271675  0.333798  1
  P  P18  1  0.250000  0.106676  0.895325  1
  P  P19  1  0.250000  0.393324  0.395325  1
  P  P20  1  0.750000  0.897975  0.104719  1
  P  P21  1  0.750000  0.602025  0.604719  1
  P  P22  1  0.250000  0.732225  0.856722  1
  P  P23  1  0.250000  0.767775  0.356722  1
  P  P24  1  0.750000  0.263397  0.143534  1
  P  P25  1  0.750000  0.236603  0.643534  1
  P  P26  1  0.250000  0.551172  0.126392  1
  P  P27  1  0.250000  0.948828  0.626392  1
  P  P28  1  0.750000  0.446461  0.872282  1
  P  P29  1  0.750000  0.053539  0.372282  1
  Ru  Ru30  1  0.250000  0.908087  0.984671  1
  Ru  Ru31  1  0.250000  0.591913  0.484671  1
