# generated using pymatgen
data_Ho7Er(WO6)4
_symmetry_space_group_name_H-M   'P 1'
_cell_length_a   5.37220101
_cell_length_b   7.67811981
_cell_length_c   11.42654718
_cell_angle_alpha   75.35646448
_cell_angle_beta   90.00124104
_cell_angle_gamma   89.99294322
_symmetry_Int_Tables_number   1
_chemical_formula_structural   Ho7Er(WO6)4
_chemical_formula_sum   'Ho7 Er1 W4 O24'
_cell_volume   456.01687953
_cell_formula_units_Z   1
loop_
 _symmetry_equiv_pos_site_id
 _symmetry_equiv_pos_as_xyz
  1  'x, y, z'
loop_
 _atom_site_type_symbol
 _atom_site_label
 _atom_site_symmetry_multiplicity
 _atom_site_fract_x
 _atom_site_fract_y
 _atom_site_fract_z
 _atom_site_occupancy
  Ho  Ho0  1  0.183491  0.205751  0.421846  1
  Ho  Ho1  1  0.183476  0.794316  0.078131  1
  Ho  Ho2  1  0.816496  0.794249  0.578152  1
  Ho  Ho3  1  0.684211  0.500008  0.249996  1
  Ho  Ho4  1  0.315801  0.499932  0.750048  1
  Ho  Ho5  1  0.740238  0.000024  0.249947  1
  Ho  Ho6  1  0.259754  0.000047  0.750047  1
  Er  Er7  1  0.816452  0.205850  0.921742  1
  W  W8  1  0.256120  0.276637  0.114663  1
  W  W9  1  0.256106  0.723319  0.385236  1
  W  W10  1  0.743878  0.723248  0.885256  1
  W  W11  1  0.743932  0.276675  0.614819  1
  O  O12  1  0.458814  0.208619  0.273436  1
  O  O13  1  0.458816  0.791366  0.226541  1
  O  O14  1  0.541170  0.791339  0.726546  1
  O  O15  1  0.541657  0.208569  0.773758  1
  O  O16  1  0.043835  0.060178  0.104392  1
  O  O17  1  0.044026  0.939948  0.395452  1
  O  O18  1  0.955658  0.940422  0.895496  1
  O  O19  1  0.955997  0.060071  0.604538  1
  O  O20  1  0.979612  0.289761  0.228651  1
  O  O21  1  0.979576  0.710241  0.271355  1
  O  O22  1  0.020423  0.710288  0.771375  1
  O  O23  1  0.020232  0.289667  0.728866  1
  O  O24  1  0.848314  0.366179  0.451088  1
  O  O25  1  0.848316  0.633837  0.048905  1
  O  O26  1  0.151689  0.633816  0.548917  1
  O  O27  1  0.151081  0.365903  0.951047  1
  O  O28  1  0.638152  0.510673  0.614757  1
  O  O29  1  0.638501  0.488974  0.885287  1
  O  O30  1  0.361847  0.489314  0.385232  1
  O  O31  1  0.361807  0.510654  0.114744  1
  O  O32  1  0.464647  0.152991  0.569516  1
  O  O33  1  0.464617  0.846981  0.930515  1
  O  O34  1  0.535355  0.847035  0.430520  1
  O  O35  1  0.535899  0.153119  0.069183  1
