# generated using pymatgen
data_Mg3U(InRh2)4
_symmetry_space_group_name_H-M   'P 1'
_cell_length_a   6.27696500
_cell_length_b   6.30934700
_cell_length_c   6.81288400
_cell_angle_alpha   90.00000000
_cell_angle_beta   90.00151451
_cell_angle_gamma   90.00000000
_symmetry_Int_Tables_number   1
_chemical_formula_structural   Mg3U(InRh2)4
_chemical_formula_sum   'Mg3 U1 In4 Rh8'
_cell_volume   269.81439408
_cell_formula_units_Z   1
loop_
 _symmetry_equiv_pos_site_id
 _symmetry_equiv_pos_as_xyz
  1  'x, y, z'
loop_
 _atom_site_type_symbol
 _atom_site_label
 _atom_site_symmetry_multiplicity
 _atom_site_fract_x
 _atom_site_fract_y
 _atom_site_fract_z
 _atom_site_occupancy
  Mg  Mg0  1  0.250095  0.750001  0.999999  1
  Mg  Mg1  1  0.250244  0.750001  0.499997  1
  Mg  Mg2  1  0.749519  0.250000  0.500003  1
  U  U3  1  0.750165  0.250000  0.000001  1
  In  In4  1  0.250159  0.250000  0.000000  1
  In  In5  1  0.750287  0.750001  0.999999  1
  In  In6  1  0.749991  0.750001  0.500005  1
  In  In7  1  0.250114  0.250000  0.500000  1
  Rh  Rh8  1  0.994251  0.005353  0.248234  1
  Rh  Rh9  1  0.994251  0.494648  0.248234  1
  Rh  Rh10  1  0.505601  0.005334  0.248014  1
  Rh  Rh11  1  0.505601  0.494665  0.248014  1
  Rh  Rh12  1  0.505610  0.005320  0.751982  1
  Rh  Rh13  1  0.505610  0.494681  0.751982  1
  Rh  Rh14  1  0.994252  0.005353  0.751771  1
  Rh  Rh15  1  0.994252  0.494646  0.751771  1
