# generated using pymatgen
data_Ta(VTe3)2
_symmetry_space_group_name_H-M   'P 1'
_cell_length_a   7.85656718
_cell_length_b   7.85656654
_cell_length_c   9.51266440
_cell_angle_alpha   66.79060498
_cell_angle_beta   66.79060772
_cell_angle_gamma   26.25786731
_symmetry_Int_Tables_number   1
_chemical_formula_structural   Ta(VTe3)2
_chemical_formula_sum   'Ta1 V2 Te6'
_cell_volume   237.55301586
_cell_formula_units_Z   1
loop_
 _symmetry_equiv_pos_site_id
 _symmetry_equiv_pos_as_xyz
  1  'x, y, z'
loop_
 _atom_site_type_symbol
 _atom_site_label
 _atom_site_symmetry_multiplicity
 _atom_site_fract_x
 _atom_site_fract_y
 _atom_site_fract_z
 _atom_site_occupancy
  Ta  Ta0  1  0.000000  0.000000  0.000000  1
  V  V1  1  0.361443  0.361443  0.289307  1
  V  V2  1  0.638557  0.638557  0.710693  1
  Te  Te3  1  0.352149  0.352149  0.023993  1
  Te  Te4  1  0.647851  0.647851  0.976007  1
  Te  Te5  1  0.711289  0.711289  0.387659  1
  Te  Te6  1  0.288711  0.288711  0.612341  1
  Te  Te7  1  0.014738  0.014738  0.691471  1
  Te  Te8  1  0.985262  0.985262  0.308529  1
