# generated using pymatgen
data_V22NiC6
_symmetry_space_group_name_H-M   'P 1'
_cell_length_a   7.75179801
_cell_length_b   7.75179773
_cell_length_c   7.75179900
_cell_angle_alpha   59.99999886
_cell_angle_beta   60.00000003
_cell_angle_gamma   59.99999393
_symmetry_Int_Tables_number   1
_chemical_formula_structural   V22NiC6
_chemical_formula_sum   'V22 Ni1 C6'
_cell_volume   329.37631121
_cell_formula_units_Z   1
loop_
 _symmetry_equiv_pos_site_id
 _symmetry_equiv_pos_as_xyz
  1  'x, y, z'
loop_
 _atom_site_type_symbol
 _atom_site_label
 _atom_site_symmetry_multiplicity
 _atom_site_fract_x
 _atom_site_fract_y
 _atom_site_fract_z
 _atom_site_occupancy
  V  V0  1  0.750000  0.750000  0.750000  1
  V  V1  1  0.250000  0.250000  0.250000  1
  V  V2  1  0.615127  0.615127  0.154619  1
  V  V3  1  0.615127  0.154619  0.615127  1
  V  V4  1  0.154619  0.615127  0.615127  1
  V  V5  1  0.615127  0.615127  0.615127  1
  V  V6  1  0.384873  0.384873  0.845381  1
  V  V7  1  0.384873  0.845381  0.384873  1
  V  V8  1  0.845381  0.384873  0.384873  1
  V  V9  1  0.384873  0.384873  0.384873  1
  V  V10  1  0.000000  0.000000  0.339190  1
  V  V11  1  0.660810  0.000000  0.339190  1
  V  V12  1  0.000000  0.660810  0.339190  1
  V  V13  1  0.660810  0.339190  0.000000  1
  V  V14  1  0.000000  0.339190  0.000000  1
  V  V15  1  0.000000  0.339190  0.660810  1
  V  V16  1  0.339190  0.660810  0.000000  1
  V  V17  1  0.339190  0.000000  0.660810  1
  V  V18  1  0.339190  0.000000  0.000000  1
  V  V19  1  0.000000  0.000000  0.660810  1
  V  V20  1  0.000000  0.660810  0.000000  1
  V  V21  1  0.660810  0.000000  0.000000  1
  Ni  Ni22  1  0.000000  0.000000  0.000000  1
  C  C23  1  0.725217  0.725217  0.274783  1
  C  C24  1  0.274783  0.725217  0.274783  1
  C  C25  1  0.725217  0.274783  0.274783  1
  C  C26  1  0.274783  0.274783  0.725217  1
  C  C27  1  0.725217  0.274783  0.725217  1
  C  C28  1  0.274783  0.725217  0.725217  1
