# generated using pymatgen
data_Mg2Ga3Mo
_symmetry_space_group_name_H-M   'P 1'
_cell_length_a   5.27771691
_cell_length_b   5.27771605
_cell_length_c   8.64028900
_cell_angle_alpha   90.00000000
_cell_angle_beta   90.00000000
_cell_angle_gamma   116.72698558
_symmetry_Int_Tables_number   1
_chemical_formula_structural   Mg2Ga3Mo
_chemical_formula_sum   'Mg4 Ga6 Mo2'
_cell_volume   214.95595653
_cell_formula_units_Z   2
loop_
 _symmetry_equiv_pos_site_id
 _symmetry_equiv_pos_as_xyz
  1  'x, y, z'
loop_
 _atom_site_type_symbol
 _atom_site_label
 _atom_site_symmetry_multiplicity
 _atom_site_fract_x
 _atom_site_fract_y
 _atom_site_fract_z
 _atom_site_occupancy
  Mg  Mg0  1  0.677177  0.322823  0.069369  1
  Mg  Mg1  1  0.322823  0.677177  0.930631  1
  Mg  Mg2  1  0.322823  0.677177  0.569369  1
  Mg  Mg3  1  0.677177  0.322823  0.430631  1
  Ga  Ga4  1  0.825724  0.641198  0.750000  1
  Ga  Ga5  1  0.174276  0.358802  0.250000  1
  Ga  Ga6  1  0.358802  0.174276  0.750000  1
  Ga  Ga7  1  0.641198  0.825724  0.250000  1
  Ga  Ga8  1  0.000000  0.000000  0.500000  1
  Ga  Ga9  1  0.000000  0.000000  0.000000  1
  Mo  Mo10  1  0.843505  0.156495  0.750000  1
  Mo  Mo11  1  0.156495  0.843505  0.250000  1
