# generated using pymatgen
data_LiYb2Dy2FeC8
_symmetry_space_group_name_H-M   'P 1'
_cell_length_a   6.70969336
_cell_length_b   6.68852527
_cell_length_c   6.68852359
_cell_angle_alpha   134.28086901
_cell_angle_beta   111.27735906
_cell_angle_gamma   86.44472068
_symmetry_Int_Tables_number   1
_chemical_formula_structural   LiYb2Dy2FeC8
_chemical_formula_sum   'Li1 Yb2 Dy2 Fe1 C8'
_cell_volume   191.83538002
_cell_formula_units_Z   1
loop_
 _symmetry_equiv_pos_site_id
 _symmetry_equiv_pos_as_xyz
  1  'x, y, z'
loop_
 _atom_site_type_symbol
 _atom_site_label
 _atom_site_symmetry_multiplicity
 _atom_site_fract_x
 _atom_site_fract_y
 _atom_site_fract_z
 _atom_site_occupancy
  Li  Li0  1  0.000000  0.249320  0.249320  1
  Yb  Yb1  1  0.516367  0.858320  0.665880  1
  Yb  Yb2  1  0.483633  0.149512  0.341953  1
  Dy  Dy3  1  0.199096  0.352480  0.838891  1
  Dy  Dy4  1  0.800904  0.639795  0.153384  1
  Fe  Fe5  1  0.000000  0.748087  0.748087  1
  C  C6  1  0.799496  0.138212  0.673917  1
  C  C7  1  0.200504  0.874420  0.338715  1
  C  C8  1  0.462993  0.621421  0.839911  1
  C  C9  1  0.537007  0.376917  0.158427  1
  C  C10  1  0.909658  0.019471  0.758770  1
  C  C11  1  0.090342  0.849113  0.109814  1
  C  C12  1  0.262864  0.643733  0.742062  1
  C  C13  1  0.737136  0.479197  0.380869  1
