# generated using pymatgen
data_Sc12MnSi12IrRu2
_symmetry_space_group_name_H-M   'P 1'
_cell_length_a   3.99404700
_cell_length_b   10.27709859
_cell_length_c   11.71829520
_cell_angle_alpha   90.09463289
_cell_angle_beta   90.00000000
_cell_angle_gamma   90.00000000
_symmetry_Int_Tables_number   1
_chemical_formula_structural   Sc12MnSi12IrRu2
_chemical_formula_sum   'Sc12 Mn1 Si12 Ir1 Ru2'
_cell_volume   481.00272387
_cell_formula_units_Z   1
loop_
 _symmetry_equiv_pos_site_id
 _symmetry_equiv_pos_as_xyz
  1  'x, y, z'
loop_
 _atom_site_type_symbol
 _atom_site_label
 _atom_site_symmetry_multiplicity
 _atom_site_fract_x
 _atom_site_fract_y
 _atom_site_fract_z
 _atom_site_occupancy
  Sc  Sc0  1  0.250000  0.878760  0.021190  1
  Sc  Sc1  1  0.250000  0.622596  0.520409  1
  Sc  Sc2  1  0.750000  0.123046  0.980371  1
  Sc  Sc3  1  0.750000  0.377773  0.479824  1
  Sc  Sc4  1  0.250000  0.921187  0.603845  1
  Sc  Sc5  1  0.250000  0.578898  0.103061  1
  Sc  Sc6  1  0.750000  0.078315  0.397491  1
  Sc  Sc7  1  0.750000  0.421702  0.896251  1
  Sc  Sc8  1  0.250000  0.658795  0.798568  1
  Sc  Sc9  1  0.250000  0.840515  0.298880  1
  Sc  Sc10  1  0.750000  0.339022  0.200824  1
  Sc  Sc11  1  0.750000  0.159280  0.700394  1
  Mn  Mn12  1  0.250000  0.113027  0.176045  1
  Si  Si13  1  0.250000  0.014983  0.823337  1
  Si  Si14  1  0.250000  0.485498  0.322008  1
  Si  Si15  1  0.750000  0.985393  0.177803  1
  Si  Si16  1  0.750000  0.514437  0.678172  1
  Si  Si17  1  0.250000  0.251124  0.842079  1
  Si  Si18  1  0.250000  0.247113  0.341730  1
  Si  Si19  1  0.750000  0.748257  0.157582  1
  Si  Si20  1  0.750000  0.750289  0.657501  1
  Si  Si21  1  0.250000  0.194507  0.544306  1
  Si  Si22  1  0.250000  0.306260  0.044738  1
  Si  Si23  1  0.750000  0.805692  0.455709  1
  Si  Si24  1  0.750000  0.694420  0.954844  1
  Ir  Ir25  1  0.750000  0.888916  0.823115  1
  Ru  Ru26  1  0.250000  0.389101  0.677133  1
  Ru  Ru27  1  0.750000  0.611092  0.322793  1
