# generated using pymatgen
data_Sc8VRe11Si15P
_symmetry_space_group_name_H-M   'P 1'
_cell_length_a   6.61429111
_cell_length_b   6.62136847
_cell_length_c   12.51344090
_cell_angle_alpha   90.20772428
_cell_angle_beta   89.67934883
_cell_angle_gamma   90.33750202
_symmetry_Int_Tables_number   1
_chemical_formula_structural   Sc8VRe11Si15P
_chemical_formula_sum   'Sc8 V1 Re11 Si15 P1'
_cell_volume   548.01275922
_cell_formula_units_Z   1
loop_
 _symmetry_equiv_pos_site_id
 _symmetry_equiv_pos_as_xyz
  1  'x, y, z'
loop_
 _atom_site_type_symbol
 _atom_site_label
 _atom_site_symmetry_multiplicity
 _atom_site_fract_x
 _atom_site_fract_y
 _atom_site_fract_z
 _atom_site_occupancy
  Sc  Sc0  1  0.010511  0.658190  0.031652  1
  Sc  Sc1  1  0.989573  0.341220  0.531458  1
  Sc  Sc2  1  0.334254  0.986450  0.467877  1
  Sc  Sc3  1  0.156895  0.491080  0.781904  1
  Sc  Sc4  1  0.843265  0.509351  0.282747  1
  Sc  Sc5  1  0.490824  0.156647  0.218363  1
  Sc  Sc6  1  0.507734  0.841484  0.720982  1
  Sc  Sc7  1  0.658815  0.010996  0.968308  1
  V  V8  1  0.669879  0.664369  0.497933  1
  Re  Re9  1  0.164758  0.830348  0.252384  1
  Re  Re10  1  0.333941  0.333212  0.999990  1
  Re  Re11  1  0.008167  0.812111  0.626376  1
  Re  Re12  1  0.984010  0.188794  0.134644  1
  Re  Re13  1  0.813131  0.003059  0.370498  1
  Re  Re14  1  0.316645  0.486183  0.385800  1
  Re  Re15  1  0.691872  0.519808  0.885935  1
  Re  Re16  1  0.486293  0.320582  0.616224  1
  Re  Re17  1  0.518748  0.692976  0.113296  1
  Re  Re18  1  0.188652  0.984350  0.865369  1
  Re  Re19  1  0.832473  0.165622  0.749309  1
  Si  Si20  1  0.622875  0.300580  0.428918  1
  Si  Si21  1  0.380644  0.696651  0.928117  1
  Si  Si22  1  0.195557  0.120158  0.677975  1
  Si  Si23  1  0.307567  0.624220  0.572369  1
  Si  Si24  1  0.696480  0.381509  0.072122  1
  Si  Si25  1  0.804579  0.881516  0.179629  1
  Si  Si26  1  0.119332  0.196479  0.320910  1
  Si  Si27  1  0.976293  0.277059  0.939661  1
  Si  Si28  1  0.710346  0.025786  0.563376  1
  Si  Si29  1  0.227926  0.476549  0.189075  1
  Si  Si30  1  0.777451  0.524549  0.690788  1
  Si  Si31  1  0.476206  0.227649  0.811406  1
  Si  Si32  1  0.524058  0.774278  0.308389  1
  Si  Si33  1  0.276203  0.976372  0.060203  1
  Si  Si34  1  0.881724  0.805743  0.819036  1
  P  P35  1  0.022319  0.714071  0.436975  1
