# generated using pymatgen
data_DyEr5Si24Os3Ru5
_symmetry_space_group_name_H-M   'P 1'
_cell_length_a   10.10451313
_cell_length_b   10.10412201
_cell_length_c   8.12536314
_cell_angle_alpha   89.98031198
_cell_angle_beta   90.01991544
_cell_angle_gamma   132.56969968
_symmetry_Int_Tables_number   1
_chemical_formula_structural   DyEr5Si24Os3Ru5
_chemical_formula_sum   'Dy1 Er5 Si24 Os3 Ru5'
_cell_volume   610.94611165
_cell_formula_units_Z   1
loop_
 _symmetry_equiv_pos_site_id
 _symmetry_equiv_pos_as_xyz
  1  'x, y, z'
loop_
 _atom_site_type_symbol
 _atom_site_label
 _atom_site_symmetry_multiplicity
 _atom_site_fract_x
 _atom_site_fract_y
 _atom_site_fract_z
 _atom_site_occupancy
  Dy  Dy0  1  0.002449  0.502220  0.750349  1
  Er  Er1  1  0.500014  0.499976  0.499954  1
  Er  Er2  1  0.999985  0.000020  0.000037  1
  Er  Er3  1  0.502271  0.002322  0.750239  1
  Er  Er4  1  0.997633  0.497728  0.249777  1
  Er  Er5  1  0.497853  0.997612  0.249642  1
  Si  Si6  1  0.795720  0.203819  0.499743  1
  Si  Si7  1  0.296114  0.704431  0.000290  1
  Si  Si8  1  0.204398  0.796120  0.499725  1
  Si  Si9  1  0.704555  0.294970  0.000266  1
  Si  Si10  1  0.332336  0.332103  0.833422  1
  Si  Si11  1  0.667880  0.667654  0.166569  1
  Si  Si12  1  0.166779  0.166911  0.332368  1
  Si  Si13  1  0.833054  0.833213  0.667648  1
  Si  Si14  1  0.121605  0.888414  0.728489  1
  Si  Si15  1  0.111638  0.878424  0.271637  1
  Si  Si16  1  0.612586  0.378779  0.227326  1
  Si  Si17  1  0.621134  0.387358  0.772577  1
  Si  Si18  1  0.877980  0.111661  0.270524  1
  Si  Si19  1  0.888289  0.121910  0.729569  1
  Si  Si20  1  0.388354  0.622075  0.772160  1
  Si  Si21  1  0.377935  0.611680  0.227720  1
  Si  Si22  1  0.344824  0.111673  0.505539  1
  Si  Si23  1  0.888207  0.655050  0.494332  1
  Si  Si24  1  0.388473  0.155560  0.004394  1
  Si  Si25  1  0.844549  0.611671  0.995761  1
  Si  Si26  1  0.655402  0.888509  0.494257  1
  Si  Si27  1  0.111636  0.344713  0.505586  1
  Si  Si28  1  0.612975  0.846272  0.994778  1
  Si  Si29  1  0.153649  0.386929  0.005366  1
  Os  Os30  1  0.669432  0.329517  0.499619  1
  Os  Os31  1  0.170446  0.830615  0.000486  1
  Os  Os32  1  0.330583  0.670481  0.499497  1
  Ru  Ru33  1  0.829530  0.169545  0.000351  1
  Ru  Ru34  1  0.128013  0.127819  0.627071  1
  Ru  Ru35  1  0.872120  0.871943  0.372968  1
  Ru  Ru36  1  0.373383  0.373727  0.128306  1
  Ru  Ru37  1  0.626221  0.626573  0.871662  1
