# generated using pymatgen
data_LaCd(NiPt)2
_symmetry_space_group_name_H-M   'P 1'
_cell_length_a   5.18960446
_cell_length_b   5.25785873
_cell_length_c   5.25785752
_cell_angle_alpha   62.59011991
_cell_angle_beta   60.42849198
_cell_angle_gamma   60.42850797
_symmetry_Int_Tables_number   1
_chemical_formula_structural   LaCd(NiPt)2
_chemical_formula_sum   'La1 Cd1 Ni2 Pt2'
_cell_volume   103.97265324
_cell_formula_units_Z   1
loop_
 _symmetry_equiv_pos_site_id
 _symmetry_equiv_pos_as_xyz
  1  'x, y, z'
loop_
 _atom_site_type_symbol
 _atom_site_label
 _atom_site_symmetry_multiplicity
 _atom_site_fract_x
 _atom_site_fract_y
 _atom_site_fract_z
 _atom_site_occupancy
  La  La0  1  0.246977  0.253023  0.253023  1
  Cd  Cd1  1  0.008087  0.991913  0.991913  1
  Ni  Ni2  1  0.120919  0.628336  0.628336  1
  Ni  Ni3  1  0.622408  0.628336  0.628336  1
  Pt  Pt4  1  0.625805  0.626050  0.122341  1
  Pt  Pt5  1  0.625805  0.122341  0.626050  1
