# generated using pymatgen
data_Tb7Co2Sn23Ru4
_symmetry_space_group_name_H-M   'P 1'
_cell_length_a   9.81215154
_cell_length_b   9.80571500
_cell_length_c   10.09310856
_cell_angle_alpha   89.99999927
_cell_angle_beta   89.92959539
_cell_angle_gamma   119.97831015
_symmetry_Int_Tables_number   1
_chemical_formula_structural   Tb7Co2Sn23Ru4
_chemical_formula_sum   'Tb7 Co2 Sn23 Ru4'
_cell_volume   841.18889532
_cell_formula_units_Z   1
loop_
 _symmetry_equiv_pos_site_id
 _symmetry_equiv_pos_as_xyz
  1  'x, y, z'
loop_
 _atom_site_type_symbol
 _atom_site_label
 _atom_site_symmetry_multiplicity
 _atom_site_fract_x
 _atom_site_fract_y
 _atom_site_fract_z
 _atom_site_occupancy
  Tb  Tb0  1  0.000000  0.000000  0.000000  1
  Tb  Tb1  1  0.482214  0.519660  0.305636  1
  Tb  Tb2  1  0.517786  0.480340  0.694364  1
  Tb  Tb3  1  0.482214  0.962554  0.305636  1
  Tb  Tb4  1  0.517786  0.037446  0.694364  1
  Tb  Tb5  1  0.037899  0.518949  0.304514  1
  Tb  Tb6  1  0.962101  0.481051  0.695486  1
  Co  Co7  1  0.338995  0.169497  0.198580  1
  Co  Co8  1  0.661005  0.830503  0.801420  1
  Sn  Sn9  1  0.348849  0.002079  0.003462  1
  Sn  Sn10  1  0.651151  0.997921  0.996538  1
  Sn  Sn11  1  0.000000  0.349314  0.000000  1
  Sn  Sn12  1  0.000000  0.650686  0.000000  1
  Sn  Sn13  1  0.651151  0.653230  0.996538  1
  Sn  Sn14  1  0.348849  0.346770  0.003462  1
  Sn  Sn15  1  0.335912  0.667956  0.816475  1
  Sn  Sn16  1  0.664088  0.332044  0.183525  1
  Sn  Sn17  1  0.000000  0.000000  0.500000  1
  Sn  Sn18  1  0.780850  0.218945  0.458563  1
  Sn  Sn19  1  0.219150  0.781055  0.541437  1
  Sn  Sn20  1  0.780850  0.561905  0.458563  1
  Sn  Sn21  1  0.219150  0.438095  0.541437  1
  Sn  Sn22  1  0.434928  0.217464  0.452979  1
  Sn  Sn23  1  0.565072  0.782536  0.547021  1
  Sn  Sn24  1  0.333397  0.666699  0.119617  1
  Sn  Sn25  1  0.666603  0.333301  0.880383  1
  Sn  Sn26  1  0.122036  0.887716  0.272066  1
  Sn  Sn27  1  0.877964  0.112284  0.727934  1
  Sn  Sn28  1  0.122036  0.234320  0.272066  1
  Sn  Sn29  1  0.877964  0.765680  0.727934  1
  Sn  Sn30  1  0.761982  0.880991  0.273376  1
  Sn  Sn31  1  0.238018  0.119009  0.726624  1
  Ru  Ru32  1  0.831006  0.168193  0.199920  1
  Ru  Ru33  1  0.168994  0.831807  0.800080  1
  Ru  Ru34  1  0.831006  0.662813  0.199920  1
  Ru  Ru35  1  0.168994  0.337187  0.800080  1
