# generated using pymatgen
data_Ta5TcF30
_symmetry_space_group_name_H-M   'P 1'
_cell_length_a   9.47090708
_cell_length_b   9.41979032
_cell_length_c   8.65001800
_cell_angle_alpha   90.00000000
_cell_angle_beta   90.00000000
_cell_angle_gamma   120.10330334
_symmetry_Int_Tables_number   1
_chemical_formula_structural   Ta5TcF30
_chemical_formula_sum   'Ta5 Tc1 F30'
_cell_volume   667.61706958
_cell_formula_units_Z   1
loop_
 _symmetry_equiv_pos_site_id
 _symmetry_equiv_pos_as_xyz
  1  'x, y, z'
loop_
 _atom_site_type_symbol
 _atom_site_label
 _atom_site_symmetry_multiplicity
 _atom_site_fract_x
 _atom_site_fract_y
 _atom_site_fract_z
 _atom_site_occupancy
  Ta  Ta0  1  0.904182  0.598440  0.750000  1
  Ta  Ta1  1  0.304014  0.902905  0.250000  1
  Ta  Ta2  1  0.595402  0.690415  0.250000  1
  Ta  Ta3  1  0.402731  0.306700  0.750000  1
  Ta  Ta4  1  0.691802  0.093850  0.750000  1
  Tc  Tc5  1  0.102036  0.408046  0.250000  1
  F  F6  1  0.880527  0.324372  0.250000  1
  F  F7  1  0.125064  0.669413  0.750000  1
  F  F8  1  0.457684  0.124460  0.250000  1
  F  F9  1  0.668791  0.541905  0.250000  1
  F  F10  1  0.329461  0.455567  0.750000  1
  F  F11  1  0.542678  0.871565  0.750000  1
  F  F12  1  0.138868  0.443837  0.460549  1
  F  F13  1  0.874988  0.567268  0.966012  1
  F  F14  1  0.307203  0.876070  0.466692  1
  F  F15  1  0.566413  0.691353  0.466322  1
  F  F16  1  0.433044  0.307816  0.965973  1
  F  F17  1  0.692192  0.125074  0.965833  1
  F  F18  1  0.069294  0.197177  0.250000  1
  F  F19  1  0.883673  0.085650  0.750000  1
  F  F20  1  0.201805  0.114432  0.750000  1
  F  F21  1  0.796237  0.882784  0.250000  1
  F  F22  1  0.117582  0.920953  0.250000  1
  F  F23  1  0.914744  0.800484  0.750000  1
  F  F24  1  0.354124  0.503955  0.250000  1
  F  F25  1  0.841874  0.353573  0.750000  1
  F  F26  1  0.511809  0.157656  0.750000  1
  F  F27  1  0.482465  0.835869  0.250000  1
  F  F28  1  0.149938  0.648217  0.250000  1
  F  F29  1  0.646672  0.488774  0.750000  1
  F  F30  1  0.138868  0.443837  0.039451  1
  F  F31  1  0.692192  0.125074  0.534167  1
  F  F32  1  0.433044  0.307816  0.534027  1
  F  F33  1  0.566413  0.691353  0.033678  1
  F  F34  1  0.307203  0.876070  0.033308  1
  F  F35  1  0.874988  0.567268  0.533988  1
