# generated using pymatgen
data_Tm4BPt12
_symmetry_space_group_name_H-M   'P 1'
_cell_length_a   7.08733545
_cell_length_b   7.08733481
_cell_length_c   7.08733400
_cell_angle_alpha   109.47122118
_cell_angle_beta   109.47121934
_cell_angle_gamma   109.47121569
_symmetry_Int_Tables_number   1
_chemical_formula_structural   Tm4BPt12
_chemical_formula_sum   'Tm4 B1 Pt12'
_cell_volume   274.04821539
_cell_formula_units_Z   1
loop_
 _symmetry_equiv_pos_site_id
 _symmetry_equiv_pos_as_xyz
  1  'x, y, z'
loop_
 _atom_site_type_symbol
 _atom_site_label
 _atom_site_symmetry_multiplicity
 _atom_site_fract_x
 _atom_site_fract_y
 _atom_site_fract_z
 _atom_site_occupancy
  Tm  Tm0  1  0.000000  0.000000  0.500000  1
  Tm  Tm1  1  0.000000  0.500000  0.000000  1
  Tm  Tm2  1  0.500000  0.000000  0.000000  1
  Tm  Tm3  1  0.500000  0.500000  0.500000  1
  B  B4  1  0.000000  0.000000  0.000000  1
  Pt  Pt5  1  0.750000  0.250000  0.500000  1
  Pt  Pt6  1  0.750000  0.500000  0.250000  1
  Pt  Pt7  1  0.500000  0.250000  0.750000  1
  Pt  Pt8  1  0.250000  0.500000  0.750000  1
  Pt  Pt9  1  0.250000  0.750000  0.500000  1
  Pt  Pt10  1  0.500000  0.750000  0.250000  1
  Pt  Pt11  1  0.740042  0.740042  0.000000  1
  Pt  Pt12  1  0.259958  0.000000  0.259958  1
  Pt  Pt13  1  0.000000  0.259958  0.259958  1
  Pt  Pt14  1  0.259958  0.259958  0.000000  1
  Pt  Pt15  1  0.740042  0.000000  0.740042  1
  Pt  Pt16  1  0.000000  0.740042  0.740042  1
