# generated using pymatgen
data_RbSmSiS4
_symmetry_space_group_name_H-M   'P 1'
_cell_length_a   6.74601200
_cell_length_b   6.51977839
_cell_length_c   9.04607173
_cell_angle_alpha   72.21276015
_cell_angle_beta   90.00000000
_cell_angle_gamma   90.00000000
_symmetry_Int_Tables_number   1
_chemical_formula_structural   RbSmSiS4
_chemical_formula_sum   'Rb2 Sm2 Si2 S8'
_cell_volume   378.84973245
_cell_formula_units_Z   2
loop_
 _symmetry_equiv_pos_site_id
 _symmetry_equiv_pos_as_xyz
  1  'x, y, z'
loop_
 _atom_site_type_symbol
 _atom_site_label
 _atom_site_symmetry_multiplicity
 _atom_site_fract_x
 _atom_site_fract_y
 _atom_site_fract_z
 _atom_site_occupancy
  Rb  Rb0  1  0.977204  0.728569  0.065260  1
  Rb  Rb1  1  0.477204  0.271431  0.934740  1
  Sm  Sm2  1  0.497168  0.228724  0.451858  1
  Sm  Sm3  1  0.997168  0.771276  0.548142  1
  Si  Si4  1  0.461994  0.781731  0.328041  1
  Si  Si5  1  0.961994  0.218269  0.671959  1
  S  S6  1  0.465726  0.588530  0.178294  1
  S  S7  1  0.231926  0.019412  0.282911  1
  S  S8  1  0.724872  0.974992  0.302308  1
  S  S9  1  0.908110  0.414114  0.438892  1
  S  S10  1  0.408110  0.585886  0.561108  1
  S  S11  1  0.224872  0.025008  0.697692  1
  S  S12  1  0.731926  0.980588  0.717089  1
  S  S13  1  0.965726  0.411470  0.821706  1
