# generated using pymatgen
data_Li3CaLu2Au3
_symmetry_space_group_name_H-M   'P 1'
_cell_length_a   7.24759600
_cell_length_b   7.24759416
_cell_length_c   4.07983000
_cell_angle_alpha   90.00000000
_cell_angle_beta   90.00000000
_cell_angle_gamma   119.98571423
_symmetry_Int_Tables_number   1
_chemical_formula_structural   Li3CaLu2Au3
_chemical_formula_sum   'Li3 Ca1 Lu2 Au3'
_cell_volume   185.61926209
_cell_formula_units_Z   1
loop_
 _symmetry_equiv_pos_site_id
 _symmetry_equiv_pos_as_xyz
  1  'x, y, z'
loop_
 _atom_site_type_symbol
 _atom_site_label
 _atom_site_symmetry_multiplicity
 _atom_site_fract_x
 _atom_site_fract_y
 _atom_site_fract_z
 _atom_site_occupancy
  Li  Li0  1  0.239178  0.999579  0.500000  1
  Li  Li1  1  0.999579  0.239178  0.500000  1
  Li  Li2  1  0.758906  0.758906  0.500000  1
  Ca  Ca3  1  0.411330  0.411330  0.000000  1
  Lu  Lu4  1  0.591719  0.000832  0.000000  1
  Lu  Lu5  1  0.000832  0.591719  0.000000  1
  Au  Au6  1  0.330360  0.676959  0.500000  1
  Au  Au7  1  0.676959  0.330360  0.500000  1
  Au  Au8  1  0.991136  0.991136  0.000000  1
