# generated using pymatgen
data_Dy8Zn3Si12Os
_symmetry_space_group_name_H-M   'P 1'
_cell_length_a   8.14067600
_cell_length_b   8.14067618
_cell_length_c   8.05244900
_cell_angle_alpha   90.00000000
_cell_angle_beta   90.00000000
_cell_angle_gamma   119.99999116
_symmetry_Int_Tables_number   1
_chemical_formula_structural   Dy8Zn3Si12Os
_chemical_formula_sum   'Dy8 Zn3 Si12 Os1'
_cell_volume   462.14643035
_cell_formula_units_Z   1
loop_
 _symmetry_equiv_pos_site_id
 _symmetry_equiv_pos_as_xyz
  1  'x, y, z'
loop_
 _atom_site_type_symbol
 _atom_site_label
 _atom_site_symmetry_multiplicity
 _atom_site_fract_x
 _atom_site_fract_y
 _atom_site_fract_z
 _atom_site_occupancy
  Dy  Dy0  1  0.000000  0.000000  0.247213  1
  Dy  Dy1  1  0.000000  0.000000  0.752704  1
  Dy  Dy2  1  0.997607  0.498804  0.252960  1
  Dy  Dy3  1  0.501196  0.498804  0.252960  1
  Dy  Dy4  1  0.504195  0.008390  0.747320  1
  Dy  Dy5  1  0.501196  0.002393  0.252960  1
  Dy  Dy6  1  0.504195  0.495805  0.747320  1
  Dy  Dy7  1  0.991610  0.495805  0.747320  1
  Zn  Zn8  1  0.333333  0.666667  0.993041  1
  Zn  Zn9  1  0.333333  0.666667  0.503498  1
  Zn  Zn10  1  0.666667  0.333333  0.008194  1
  Si  Si11  1  0.165933  0.331865  0.001211  1
  Si  Si12  1  0.668135  0.834067  0.001211  1
  Si  Si13  1  0.163431  0.326860  0.500994  1
  Si  Si14  1  0.333357  0.166679  0.998456  1
  Si  Si15  1  0.165933  0.834067  0.001211  1
  Si  Si16  1  0.673140  0.836569  0.500994  1
  Si  Si17  1  0.833321  0.666643  0.998456  1
  Si  Si18  1  0.337671  0.168835  0.498750  1
  Si  Si19  1  0.163431  0.836569  0.500994  1
  Si  Si20  1  0.831165  0.662329  0.498750  1
  Si  Si21  1  0.833321  0.166679  0.998456  1
  Si  Si22  1  0.831165  0.168835  0.498750  1
  Os  Os23  1  0.666667  0.333333  0.496277  1
