# generated using pymatgen
data_Li5Mg3(SiPt3)2
_symmetry_space_group_name_H-M   'P 1'
_cell_length_a   6.87290256
_cell_length_b   6.79876791
_cell_length_c   6.80881300
_cell_angle_alpha   61.78217397
_cell_angle_beta   61.03088026
_cell_angle_gamma   61.01003936
_symmetry_Int_Tables_number   1
_chemical_formula_structural   Li5Mg3(SiPt3)2
_chemical_formula_sum   'Li5 Mg3 Si2 Pt6'
_cell_volume   231.39042301
_cell_formula_units_Z   1
loop_
 _symmetry_equiv_pos_site_id
 _symmetry_equiv_pos_as_xyz
  1  'x, y, z'
loop_
 _atom_site_type_symbol
 _atom_site_label
 _atom_site_symmetry_multiplicity
 _atom_site_fract_x
 _atom_site_fract_y
 _atom_site_fract_z
 _atom_site_occupancy
  Li  Li0  1  0.341512  0.560986  0.833274  1
  Li  Li1  1  0.830149  0.336163  0.569602  1
  Li  Li2  1  0.655765  0.174050  0.437461  1
  Li  Li3  1  0.176121  0.436014  0.656435  1
  Li  Li4  1  0.431563  0.652050  0.164007  1
  Mg  Mg5  1  0.268163  0.289085  0.276723  1
  Mg  Mg6  1  0.728168  0.720483  0.727113  1
  Mg  Mg7  1  0.561271  0.819504  0.350461  1
  Si  Si8  1  0.906828  0.903010  0.894457  1
  Si  Si9  1  0.099305  0.102970  0.095116  1
  Pt  Pt10  1  0.888778  0.503474  0.107903  1
  Pt  Pt11  1  0.107661  0.894150  0.495895  1
  Pt  Pt12  1  0.500844  0.105145  0.895438  1
  Pt  Pt13  1  0.272365  0.998824  0.728573  1
  Pt  Pt14  1  0.730406  0.266452  0.003893  1
  Pt  Pt15  1  0.001100  0.737640  0.263650  1
