# generated using pymatgen
data_TbNd2Tm3NiBr10
_symmetry_space_group_name_H-M   'P 1'
_cell_length_a   7.34725183
_cell_length_b   9.15286213
_cell_length_c   9.43756628
_cell_angle_alpha   107.25177353
_cell_angle_beta   95.42151813
_cell_angle_gamma   106.19997342
_symmetry_Int_Tables_number   1
_chemical_formula_structural   TbNd2Tm3NiBr10
_chemical_formula_sum   'Tb1 Nd2 Tm3 Ni1 Br10'
_cell_volume   571.07079133
_cell_formula_units_Z   1
loop_
 _symmetry_equiv_pos_site_id
 _symmetry_equiv_pos_as_xyz
  1  'x, y, z'
loop_
 _atom_site_type_symbol
 _atom_site_label
 _atom_site_symmetry_multiplicity
 _atom_site_fract_x
 _atom_site_fract_y
 _atom_site_fract_z
 _atom_site_occupancy
  Tb  Tb0  1  0.648275  0.866934  0.831916  1
  Nd  Nd1  1  0.134198  0.051727  0.756283  1
  Nd  Nd2  1  0.868765  0.949804  0.245017  1
  Tm  Tm3  1  0.971586  0.289891  0.088712  1
  Tm  Tm4  1  0.030145  0.710726  0.912628  1
  Tm  Tm5  1  0.346144  0.130274  0.164905  1
  Ni  Ni6  1  0.999208  0.000107  0.000451  1
  Br  Br7  1  0.558374  0.182479  0.920870  1
  Br  Br8  1  0.440805  0.821422  0.083465  1
  Br  Br9  1  0.343110  0.447341  0.264209  1
  Br  Br10  1  0.660770  0.547268  0.736551  1
  Br  Br11  1  0.260276  0.080969  0.441450  1
  Br  Br12  1  0.744553  0.922862  0.556273  1
  Br  Br13  1  0.765663  0.258161  0.329221  1
  Br  Br14  1  0.224244  0.738396  0.665806  1
  Br  Br15  1  0.086066  0.382773  0.836624  1
  Br  Br16  1  0.917816  0.618867  0.165618  1
