# generated using pymatgen
data_Dy12Co2Ni2BiOs
_symmetry_space_group_name_H-M   'P 1'
_cell_length_a   8.35048320
_cell_length_b   8.35048309
_cell_length_c   8.35048372
_cell_angle_alpha   111.48646923
_cell_angle_beta   109.55312324
_cell_angle_gamma   107.39981741
_symmetry_Int_Tables_number   1
_chemical_formula_structural   Dy12Co2Ni2BiOs
_chemical_formula_sum   'Dy12 Co2 Ni2 Bi1 Os1'
_cell_volume   447.67248974
_cell_formula_units_Z   1
loop_
 _symmetry_equiv_pos_site_id
 _symmetry_equiv_pos_as_xyz
  1  'x, y, z'
loop_
 _atom_site_type_symbol
 _atom_site_label
 _atom_site_symmetry_multiplicity
 _atom_site_fract_x
 _atom_site_fract_y
 _atom_site_fract_z
 _atom_site_occupancy
  Dy  Dy0  1  0.821287  0.715856  0.537143  1
  Dy  Dy1  1  0.178713  0.284144  0.462857  1
  Dy  Dy2  1  0.178713  0.715856  0.894568  1
  Dy  Dy3  1  0.821287  0.284144  0.105432  1
  Dy  Dy4  1  0.686523  0.376324  0.689801  1
  Dy  Dy5  1  0.313477  0.623676  0.310199  1
  Dy  Dy6  1  0.686523  0.996722  0.310199  1
  Dy  Dy7  1  0.313477  0.003278  0.689801  1
  Dy  Dy8  1  0.591932  0.785330  0.806603  1
  Dy  Dy9  1  0.408068  0.214670  0.193397  1
  Dy  Dy10  1  0.978727  0.785330  0.193397  1
  Dy  Dy11  1  0.021273  0.214670  0.806603  1
  Co  Co12  1  0.112334  0.612334  0.500000  1
  Co  Co13  1  0.887666  0.387666  0.500000  1
  Ni  Ni14  1  0.633784  0.000000  0.633784  1
  Ni  Ni15  1  0.366216  0.000000  0.366216  1
  Bi  Bi16  1  0.500000  0.500000  0.000000  1
  Os  Os17  1  0.000000  0.000000  0.000000  1
