# generated using pymatgen
data_K3B2Pd6Pt
_symmetry_space_group_name_H-M   'P 1'
_cell_length_a   8.34627478
_cell_length_b   8.37583594
_cell_length_c   8.37583657
_cell_angle_alpha   40.16267181
_cell_angle_beta   40.02512329
_cell_angle_gamma   40.02511221
_symmetry_Int_Tables_number   1
_chemical_formula_structural   K3B2Pd6Pt
_chemical_formula_sum   'K3 B2 Pd6 Pt1'
_cell_volume   218.65436811
_cell_formula_units_Z   1
loop_
 _symmetry_equiv_pos_site_id
 _symmetry_equiv_pos_as_xyz
  1  'x, y, z'
loop_
 _atom_site_type_symbol
 _atom_site_label
 _atom_site_symmetry_multiplicity
 _atom_site_fract_x
 _atom_site_fract_y
 _atom_site_fract_z
 _atom_site_occupancy
  K  K0  1  0.356521  0.356646  0.356646  1
  K  K1  1  0.499481  0.499459  0.499459  1
  K  K2  1  0.643247  0.643444  0.643444  1
  B  B3  1  0.176829  0.165238  0.165238  1
  B  B4  1  0.825660  0.834748  0.834748  1
  Pd  Pd5  1  0.992604  0.003320  0.003320  1
  Pd  Pd6  1  0.061051  0.567735  0.057779  1
  Pd  Pd7  1  0.942226  0.943544  0.432118  1
  Pd  Pd8  1  0.061051  0.057779  0.567735  1
  Pd  Pd9  1  0.942226  0.432118  0.943544  1
  Pd  Pd10  1  0.427245  0.940577  0.940577  1
  Pt  Pt11  1  0.571861  0.055393  0.055393  1
