# generated using pymatgen
data_Yb2Co4NiB4
_symmetry_space_group_name_H-M   'P 1'
_cell_length_a   6.99423193
_cell_length_b   5.85606581
_cell_length_c   5.24652795
_cell_angle_alpha   77.88128885
_cell_angle_beta   54.94608640
_cell_angle_gamma   47.17264079
_symmetry_Int_Tables_number   1
_chemical_formula_structural   Yb2Co4NiB4
_chemical_formula_sum   'Yb2 Co4 Ni1 B4'
_cell_volume   123.04632216
_cell_formula_units_Z   1
loop_
 _symmetry_equiv_pos_site_id
 _symmetry_equiv_pos_as_xyz
  1  'x, y, z'
loop_
 _atom_site_type_symbol
 _atom_site_label
 _atom_site_symmetry_multiplicity
 _atom_site_fract_x
 _atom_site_fract_y
 _atom_site_fract_z
 _atom_site_occupancy
  Yb  Yb0  1  0.856682  0.856680  0.143319  1
  Yb  Yb1  1  0.143319  0.143318  0.856682  1
  Co  Co2  1  0.499999  0.500001  0.000000  1
  Co  Co3  1  0.249999  0.250001  0.250000  1
  Co  Co4  1  0.000000  0.000000  0.500001  1
  Co  Co5  1  0.750000  0.750001  0.750000  1
  Ni  Ni6  1  0.500001  0.499999  0.500000  1
  B  B7  1  0.467995  0.792210  0.207789  1
  B  B8  1  0.207789  0.532005  0.467994  1
  B  B9  1  0.792212  0.467993  0.532006  1
  B  B10  1  0.532006  0.207788  0.792212  1
