# generated using pymatgen
data_Ca8TaInN8
_symmetry_space_group_name_H-M   'P 1'
_cell_length_a   6.10066695
_cell_length_b   6.11209836
_cell_length_c   9.30618820
_cell_angle_alpha   70.33973752
_cell_angle_beta   81.34491267
_cell_angle_gamma   68.87064567
_symmetry_Int_Tables_number   1
_chemical_formula_structural   Ca8TaInN8
_chemical_formula_sum   'Ca8 Ta1 In1 N8'
_cell_volume   304.64063398
_cell_formula_units_Z   1
loop_
 _symmetry_equiv_pos_site_id
 _symmetry_equiv_pos_as_xyz
  1  'x, y, z'
loop_
 _atom_site_type_symbol
 _atom_site_label
 _atom_site_symmetry_multiplicity
 _atom_site_fract_x
 _atom_site_fract_y
 _atom_site_fract_z
 _atom_site_occupancy
  Ca  Ca0  1  0.248605  0.942874  0.602704  1
  Ca  Ca1  1  0.735076  0.616774  0.192297  1
  Ca  Ca2  1  0.754646  0.245290  0.991964  1
  Ca  Ca3  1  0.257986  0.528452  0.424481  1
  Ca  Ca4  1  0.751805  0.052456  0.414860  1
  Ca  Ca5  1  0.261782  0.383058  0.801684  1
  Ca  Ca6  1  0.729640  0.481355  0.581903  1
  Ca  Ca7  1  0.254377  0.755227  0.004297  1
  Ta  Ta8  1  0.283709  0.157428  0.239160  1
  In  In9  1  0.721036  0.845064  0.768480  1
  N  N10  1  0.992628  0.690913  0.602442  1
  N  N11  1  0.496664  0.198172  0.610099  1
  N  N12  1  0.023948  0.293285  0.375215  1
  N  N13  1  0.499523  0.606236  0.801086  1
  N  N14  1  0.163876  0.144433  0.059321  1
  N  N15  1  0.482698  0.831931  0.369818  1
  N  N16  1  0.481836  0.371551  0.196871  1
  N  N17  1  0.860166  0.855501  0.963316  1
