# generated using pymatgen
data_Nd16Zr4IrRh11
_symmetry_space_group_name_H-M   'P 1'
_cell_length_a   11.19202028
_cell_length_b   11.19202028
_cell_length_c   6.38167977
_cell_angle_alpha   89.84430348
_cell_angle_beta   89.84430348
_cell_angle_gamma   89.88161719
_symmetry_Int_Tables_number   1
_chemical_formula_structural   Nd16Zr4IrRh11
_chemical_formula_sum   'Nd16 Zr4 Ir1 Rh11'
_cell_volume   799.37002185
_cell_formula_units_Z   1
loop_
 _symmetry_equiv_pos_site_id
 _symmetry_equiv_pos_as_xyz
  1  'x, y, z'
loop_
 _atom_site_type_symbol
 _atom_site_label
 _atom_site_symmetry_multiplicity
 _atom_site_fract_x
 _atom_site_fract_y
 _atom_site_fract_z
 _atom_site_occupancy
  Nd  Nd0  1  0.086885  0.286172  0.122885  1
  Nd  Nd1  1  0.786606  0.412677  0.122761  1
  Nd  Nd2  1  0.213345  0.586194  0.121013  1
  Nd  Nd3  1  0.913028  0.712038  0.121560  1
  Nd  Nd4  1  0.413806  0.786655  0.378987  1
  Nd  Nd5  1  0.587323  0.213394  0.377239  1
  Nd  Nd6  1  0.287962  0.086972  0.378440  1
  Nd  Nd7  1  0.713828  0.913115  0.377115  1
  Nd  Nd8  1  0.414615  0.213924  0.877127  1
  Nd  Nd9  1  0.712455  0.088985  0.876951  1
  Nd  Nd10  1  0.286747  0.914202  0.878282  1
  Nd  Nd11  1  0.587033  0.788042  0.878257  1
  Nd  Nd12  1  0.085798  0.713253  0.621718  1
  Nd  Nd13  1  0.911015  0.287545  0.623049  1
  Nd  Nd14  1  0.211958  0.412967  0.621743  1
  Nd  Nd15  1  0.786076  0.585385  0.622873  1
  Zr  Zr16  1  0.999383  0.999592  0.000247  1
  Zr  Zr17  1  0.500894  0.499840  0.999918  1
  Zr  Zr18  1  0.500160  0.499106  0.500082  1
  Zr  Zr19  1  0.000408  0.000617  0.499753  1
  Ir  Ir20  1  0.639368  0.360632  0.750000  1
  Rh  Rh21  1  0.139279  0.860721  0.250000  1
  Rh  Rh22  1  0.359131  0.360715  0.250046  1
  Rh  Rh23  1  0.639285  0.640869  0.249954  1
  Rh  Rh24  1  0.860527  0.139473  0.250000  1
  Rh  Rh25  1  0.361014  0.638986  0.750000  1
  Rh  Rh26  1  0.139242  0.138435  0.750119  1
  Rh  Rh27  1  0.861565  0.860758  0.749881  1
  Rh  Rh28  1  0.000404  0.500389  0.379271  1
  Rh  Rh29  1  0.499611  0.999596  0.120729  1
  Rh  Rh30  1  0.499744  0.998495  0.619880  1
  Rh  Rh31  1  0.001505  0.500256  0.880120  1
