# generated using pymatgen
data_Ti16CuIr2Rh5O4
_symmetry_space_group_name_H-M   'P 1'
_cell_length_a   8.23583564
_cell_length_b   8.20850947
_cell_length_c   8.21082294
_cell_angle_alpha   59.97372858
_cell_angle_beta   60.04550398
_cell_angle_gamma   60.02867321
_symmetry_Int_Tables_number   1
_chemical_formula_structural   Ti16CuIr2Rh5O4
_chemical_formula_sum   'Ti16 Cu1 Ir2 Rh5 O4'
_cell_volume   392.64537141
_cell_formula_units_Z   1
loop_
 _symmetry_equiv_pos_site_id
 _symmetry_equiv_pos_as_xyz
  1  'x, y, z'
loop_
 _atom_site_type_symbol
 _atom_site_label
 _atom_site_symmetry_multiplicity
 _atom_site_fract_x
 _atom_site_fract_y
 _atom_site_fract_z
 _atom_site_occupancy
  Ti  Ti0  1  0.818508  0.181862  0.817478  1
  Ti  Ti1  1  0.181440  0.817900  0.183236  1
  Ti  Ti2  1  0.433381  0.066783  0.432189  1
  Ti  Ti3  1  0.432342  0.067206  0.068455  1
  Ti  Ti4  1  0.067182  0.432510  0.431951  1
  Ti  Ti5  1  0.067687  0.431646  0.069037  1
  Ti  Ti6  1  0.181234  0.181988  0.818462  1
  Ti  Ti7  1  0.432259  0.431861  0.068127  1
  Ti  Ti8  1  0.127095  0.623694  0.624856  1
  Ti  Ti9  1  0.624787  0.626352  0.122009  1
  Ti  Ti10  1  0.624297  0.625883  0.627170  1
  Ti  Ti11  1  0.623676  0.123250  0.626907  1
  Ti  Ti12  1  0.181655  0.818020  0.817704  1
  Ti  Ti13  1  0.818471  0.181483  0.182636  1
  Ti  Ti14  1  0.067519  0.067671  0.432152  1
  Ti  Ti15  1  0.817631  0.817010  0.183111  1
  Cu  Cu16  1  0.761492  0.413169  0.412514  1
  Ir  Ir17  1  0.409683  0.775100  0.407622  1
  Ir  Ir18  1  0.843587  0.841175  0.473811  1
  Rh  Rh19  1  0.843185  0.841185  0.840583  1
  Rh  Rh20  1  0.477528  0.840965  0.840444  1
  Rh  Rh21  1  0.410200  0.408616  0.407898  1
  Rh  Rh22  1  0.409770  0.408478  0.774040  1
  Rh  Rh23  1  0.843438  0.474472  0.840631  1
  O  O24  1  0.125372  0.125738  0.623867  1
  O  O25  1  0.625177  0.125786  0.124108  1
  O  O26  1  0.125589  0.125942  0.124420  1
  O  O27  1  0.125808  0.624257  0.124585  1
