# generated using pymatgen
data_HfMg2Sc5(Co4P3)4
_symmetry_space_group_name_H-M   'P 1'
_cell_length_a   12.01924767
_cell_length_b   12.07786307
_cell_length_c   3.63842100
_cell_angle_alpha   90.00000000
_cell_angle_beta   90.00000000
_cell_angle_gamma   120.16145618
_symmetry_Int_Tables_number   1
_chemical_formula_structural   HfMg2Sc5(Co4P3)4
_chemical_formula_sum   'Hf1 Mg2 Sc5 Co16 P12'
_cell_volume   456.66959237
_cell_formula_units_Z   1
loop_
 _symmetry_equiv_pos_site_id
 _symmetry_equiv_pos_as_xyz
  1  'x, y, z'
loop_
 _atom_site_type_symbol
 _atom_site_label
 _atom_site_symmetry_multiplicity
 _atom_site_fract_x
 _atom_site_fract_y
 _atom_site_fract_z
 _atom_site_occupancy
  Hf  Hf0  1  0.000000  0.557111  0.000000  1
  Mg  Mg1  1  0.445052  0.443775  0.000000  1
  Mg  Mg2  1  0.554948  0.998723  0.000000  1
  Sc  Sc3  1  0.816065  0.813124  0.500000  1
  Sc  Sc4  1  0.000000  0.181827  0.500000  1
  Sc  Sc5  1  0.331458  0.665889  0.000000  1
  Sc  Sc6  1  0.668542  0.334430  0.000000  1
  Sc  Sc7  1  0.183935  0.997058  0.500000  1
  Co  Co8  1  0.625699  0.823035  0.000000  1
  Co  Co9  1  0.374301  0.197336  0.000000  1
  Co  Co10  1  0.000000  0.723303  0.500000  1
  Co  Co11  1  0.281063  0.280448  0.500000  1
  Co  Co12  1  0.874426  0.354344  0.500000  1
  Co  Co13  1  0.718937  0.999386  0.500000  1
  Co  Co14  1  0.820690  0.629180  0.000000  1
  Co  Co15  1  0.179310  0.808491  0.000000  1
  Co  Co16  1  0.357957  0.872678  0.500000  1
  Co  Co17  1  0.125574  0.479918  0.500000  1
  Co  Co18  1  0.642043  0.514721  0.500000  1
  Co  Co19  1  0.000000  0.003635  0.000000  1
  Co  Co20  1  0.518395  0.643846  0.500000  1
  Co  Co21  1  0.481605  0.125451  0.500000  1
  Co  Co22  1  0.198181  0.373706  0.000000  1
  Co  Co23  1  0.801819  0.175526  0.000000  1
  P  P24  1  0.000000  0.346585  0.000000  1
  P  P25  1  0.825483  0.517414  0.500000  1
  P  P26  1  0.688930  0.173544  0.500000  1
  P  P27  1  0.178264  0.178004  0.000000  1
  P  P28  1  0.645869  0.648396  0.000000  1
  P  P29  1  0.821736  0.999740  0.000000  1
  P  P30  1  0.515151  0.824573  0.500000  1
  P  P31  1  0.174517  0.691930  0.500000  1
  P  P32  1  0.354131  0.002527  0.000000  1
  P  P33  1  0.484849  0.309422  0.500000  1
  P  P34  1  0.000000  0.826313  0.000000  1
  P  P35  1  0.311070  0.484613  0.500000  1
