# generated using pymatgen
data_ZnMo6Pt(RhN)2
_symmetry_space_group_name_H-M   'P 1'
_cell_length_a   6.84855700
_cell_length_b   6.85387391
_cell_length_c   6.84875326
_cell_angle_alpha   89.41350288
_cell_angle_beta   90.00000000
_cell_angle_gamma   90.00000000
_symmetry_Int_Tables_number   1
_chemical_formula_structural   ZnMo6Pt(RhN)2
_chemical_formula_sum   'Zn2 Mo12 Pt2 Rh4 N4'
_cell_volume   321.45778814
_cell_formula_units_Z   2
loop_
 _symmetry_equiv_pos_site_id
 _symmetry_equiv_pos_as_xyz
  1  'x, y, z'
loop_
 _atom_site_type_symbol
 _atom_site_label
 _atom_site_symmetry_multiplicity
 _atom_site_fract_x
 _atom_site_fract_y
 _atom_site_fract_z
 _atom_site_occupancy
  Zn  Zn0  1  0.686724  0.182678  0.936113  1
  Zn  Zn1  1  0.186724  0.817322  0.063887  1
  Mo  Mo2  1  0.621645  0.047587  0.547726  1
  Mo  Mo3  1  0.121645  0.952413  0.452274  1
  Mo  Mo4  1  0.871828  0.545254  0.948512  1
  Mo  Mo5  1  0.371828  0.454746  0.051488  1
  Mo  Mo6  1  0.201421  0.625129  0.698659  1
  Mo  Mo7  1  0.300545  0.120493  0.793510  1
  Mo  Mo8  1  0.800545  0.879507  0.206490  1
  Mo  Mo9  1  0.701421  0.374871  0.301341  1
  Mo  Mo10  1  0.049112  0.207655  0.129493  1
  Mo  Mo11  1  0.955873  0.302401  0.626583  1
  Mo  Mo12  1  0.549112  0.792345  0.870507  1
  Mo  Mo13  1  0.455873  0.697599  0.373417  1
  Pt  Pt14  1  0.811330  0.690191  0.565251  1
  Pt  Pt15  1  0.311330  0.309809  0.434749  1
  Rh  Rh16  1  0.059957  0.567456  0.302753  1
  Rh  Rh17  1  0.439058  0.058996  0.178647  1
  Rh  Rh18  1  0.559957  0.432544  0.697247  1
  Rh  Rh19  1  0.939058  0.941004  0.821353  1
  N  N20  1  0.375009  0.872842  0.620941  1
  N  N21  1  0.875009  0.127158  0.379059  1
  N  N22  1  0.127500  0.375198  0.873438  1
  N  N23  1  0.627500  0.624802  0.126562  1
