# generated using pymatgen
data_TbPr3Nd2CoBr10
_symmetry_space_group_name_H-M   'P 1'
_cell_length_a   7.59589799
_cell_length_b   9.42024892
_cell_length_c   9.60641540
_cell_angle_alpha   108.52321028
_cell_angle_beta   96.47524803
_cell_angle_gamma   105.43520345
_symmetry_Int_Tables_number   1
_chemical_formula_structural   TbPr3Nd2CoBr10
_chemical_formula_sum   'Tb1 Pr3 Nd2 Co1 Br10'
_cell_volume   613.45427188
_cell_formula_units_Z   1
loop_
 _symmetry_equiv_pos_site_id
 _symmetry_equiv_pos_as_xyz
  1  'x, y, z'
loop_
 _atom_site_type_symbol
 _atom_site_label
 _atom_site_symmetry_multiplicity
 _atom_site_fract_x
 _atom_site_fract_y
 _atom_site_fract_z
 _atom_site_occupancy
  Tb  Tb0  1  0.646100  0.868855  0.324940  1
  Pr  Pr1  1  0.029963  0.711415  0.408000  1
  Pr  Pr2  1  0.966379  0.286974  0.588917  1
  Pr  Pr3  1  0.867869  0.948864  0.745277  1
  Nd  Nd4  1  0.125920  0.047177  0.253813  1
  Nd  Nd5  1  0.361453  0.136297  0.680473  1
  Co  Co6  1  0.999549  0.999478  0.499859  1
  Br  Br7  1  0.452431  0.820321  0.574943  1
  Br  Br8  1  0.548474  0.173108  0.415325  1
  Br  Br9  1  0.912647  0.628616  0.669938  1
  Br  Br10  1  0.085430  0.367720  0.326672  1
  Br  Br11  1  0.247395  0.080821  0.951837  1
  Br  Br12  1  0.744608  0.914197  0.054046  1
  Br  Br13  1  0.351231  0.455581  0.768820  1
  Br  Br14  1  0.642740  0.554298  0.228259  1
  Br  Br15  1  0.787611  0.256476  0.849433  1
  Br  Br16  1  0.230202  0.749804  0.159450  1
