# generated using pymatgen
data_K4Rb2P4W
_symmetry_space_group_name_H-M   'P 1'
_cell_length_a   10.28292232
_cell_length_b   10.35309473
_cell_length_c   8.00757616
_cell_angle_alpha   89.55328543
_cell_angle_beta   90.22488287
_cell_angle_gamma   120.22599774
_symmetry_Int_Tables_number   1
_chemical_formula_structural   K4Rb2P4W
_chemical_formula_sum   'K8 Rb4 P8 W2'
_cell_volume   736.56608953
_cell_formula_units_Z   2
loop_
 _symmetry_equiv_pos_site_id
 _symmetry_equiv_pos_as_xyz
  1  'x, y, z'
loop_
 _atom_site_type_symbol
 _atom_site_label
 _atom_site_symmetry_multiplicity
 _atom_site_fract_x
 _atom_site_fract_y
 _atom_site_fract_z
 _atom_site_occupancy
  K  K0  1  0.149522  0.300230  0.287339  1
  K  K1  1  0.850478  0.150706  0.787339  1
  K  K2  1  0.531582  0.468172  0.106359  1
  K  K3  1  0.063953  0.530278  0.606280  1
  K  K4  1  0.468418  0.936589  0.606359  1
  K  K5  1  0.533122  0.063266  0.106624  1
  K  K6  1  0.936047  0.466325  0.106280  1
  K  K7  1  0.466878  0.530144  0.606624  1
  Rb  Rb8  1  0.144735  0.855601  0.290529  1
  Rb  Rb9  1  0.713914  0.857486  0.292165  1
  Rb  Rb10  1  0.855265  0.710864  0.790529  1
  Rb  Rb11  1  0.286086  0.143570  0.792165  1
  P  P12  1  0.791299  0.579713  0.401293  1
  P  P13  1  0.417056  0.209168  0.400353  1
  P  P14  1  0.333109  0.664757  0.285082  1
  P  P15  1  0.666891  0.331647  0.785082  1
  P  P16  1  0.794565  0.209622  0.404066  1
  P  P17  1  0.208701  0.788413  0.901293  1
  P  P18  1  0.205435  0.415056  0.904066  1
  P  P19  1  0.582944  0.792112  0.900353  1
  W  W20  1  0.667232  0.331755  0.494807  1
  W  W21  1  0.332768  0.664524  0.994807  1
