# generated using pymatgen
data_Yb7In(PbN)2
_symmetry_space_group_name_H-M   'P 1'
_cell_length_a   12.21868477
_cell_length_b   12.21868459
_cell_length_c   4.91677100
_cell_angle_alpha   90.00000000
_cell_angle_beta   90.00000000
_cell_angle_gamma   156.85368490
_symmetry_Int_Tables_number   1
_chemical_formula_structural   Yb7In(PbN)2
_chemical_formula_sum   'Yb7 In1 Pb2 N2'
_cell_volume   288.54292194
_cell_formula_units_Z   1
loop_
 _symmetry_equiv_pos_site_id
 _symmetry_equiv_pos_as_xyz
  1  'x, y, z'
loop_
 _atom_site_type_symbol
 _atom_site_label
 _atom_site_symmetry_multiplicity
 _atom_site_fract_x
 _atom_site_fract_y
 _atom_site_fract_z
 _atom_site_occupancy
  Yb  Yb0  1  0.000302  0.999698  0.000000  1
  Yb  Yb1  1  0.801357  0.198641  0.000000  1
  Yb  Yb2  1  0.598183  0.401815  0.000000  1
  Yb  Yb3  1  0.402909  0.597089  0.000000  1
  Yb  Yb4  1  0.197530  0.802468  0.000000  1
  Yb  Yb5  1  0.901419  0.098580  0.499999  1
  Yb  Yb6  1  0.099662  0.900337  0.499999  1
  In  In7  1  0.295076  0.704923  0.499999  1
  Pb  Pb8  1  0.704273  0.295726  0.499999  1
  Pb  Pb9  1  0.500045  0.499953  0.499999  1
  N  N10  1  0.895813  0.104186  0.000000  1
  N  N11  1  0.103424  0.896575  0.000000  1
