# generated using pymatgen
data_Yb3YGa15(SiIr2)3
_symmetry_space_group_name_H-M   'P 1'
_cell_length_a   7.54750484
_cell_length_b   7.48431891
_cell_length_c   9.53969148
_cell_angle_alpha   89.97025073
_cell_angle_beta   89.99038827
_cell_angle_gamma   119.84785851
_symmetry_Int_Tables_number   1
_chemical_formula_structural   Yb3YGa15(SiIr2)3
_chemical_formula_sum   'Yb3 Y1 Ga15 Si3 Ir6'
_cell_volume   467.39525978
_cell_formula_units_Z   1
loop_
 _symmetry_equiv_pos_site_id
 _symmetry_equiv_pos_as_xyz
  1  'x, y, z'
loop_
 _atom_site_type_symbol
 _atom_site_label
 _atom_site_symmetry_multiplicity
 _atom_site_fract_x
 _atom_site_fract_y
 _atom_site_fract_z
 _atom_site_occupancy
  Yb  Yb0  1  0.004155  0.337219  0.749624  1
  Yb  Yb1  1  0.671907  0.003081  0.248208  1
  Yb  Yb2  1  0.325925  0.994217  0.749938  1
  Y  Y3  1  0.997028  0.665745  0.248091  1
  Ga  Ga4  1  0.128089  0.127996  0.250562  1
  Ga  Ga5  1  0.871952  0.869606  0.751092  1
  Ga  Ga6  1  0.342406  0.005601  0.420749  1
  Ga  Ga7  1  0.999438  0.326428  0.422844  1
  Ga  Ga8  1  0.666263  0.002471  0.579629  1
  Ga  Ga9  1  0.662671  0.999397  0.918374  1
  Ga  Ga10  1  0.340970  0.004470  0.080287  1
  Ga  Ga11  1  0.331932  0.328787  0.567604  1
  Ga  Ga12  1  0.659725  0.669972  0.433084  1
  Ga  Ga13  1  0.659434  0.669596  0.068599  1
  Ga  Ga14  1  0.336996  0.329671  0.931287  1
  Ga  Ga15  1  0.335813  0.546579  0.250836  1
  Ga  Ga16  1  0.665039  0.455452  0.752182  1
  Ga  Ga17  1  0.548677  0.339810  0.250691  1
  Ga  Ga18  1  0.451646  0.661486  0.750914  1
  Si  Si19  1  0.001764  0.328893  0.069512  1
  Si  Si20  1  0.997781  0.670138  0.931167  1
  Si  Si21  1  0.999608  0.665741  0.566276  1
  Ir  Ir22  1  0.696128  0.343767  0.003915  1
  Ir  Ir23  1  0.303373  0.656621  0.998461  1
  Ir  Ir24  1  0.315352  0.668609  0.503334  1
  Ir  Ir25  1  0.685424  0.344463  0.501007  1
  Ir  Ir26  1  0.999797  0.998553  0.001241  1
  Ir  Ir27  1  0.000708  0.985628  0.500490  1
