# generated using pymatgen
data_K3Pa2TlI12
_symmetry_space_group_name_H-M   'P 1'
_cell_length_a   8.90018367
_cell_length_b   8.33959556
_cell_length_c   14.42581200
_cell_angle_alpha   54.89697053
_cell_angle_beta   90.19897359
_cell_angle_gamma   89.94381620
_symmetry_Int_Tables_number   1
_chemical_formula_structural   K3Pa2TlI12
_chemical_formula_sum   'K3 Pa2 Tl1 I12'
_cell_volume   875.98239130
_cell_formula_units_Z   1
loop_
 _symmetry_equiv_pos_site_id
 _symmetry_equiv_pos_as_xyz
  1  'x, y, z'
loop_
 _atom_site_type_symbol
 _atom_site_label
 _atom_site_symmetry_multiplicity
 _atom_site_fract_x
 _atom_site_fract_y
 _atom_site_fract_z
 _atom_site_occupancy
  K  K0  1  0.088138  0.277596  0.248212  1
  K  K1  1  0.410913  0.276879  0.747802  1
  K  K2  1  0.911758  0.723645  0.752100  1
  Pa  Pa3  1  0.000718  0.000206  0.999665  1
  Pa  Pa4  1  0.499805  0.999452  0.500500  1
  Tl  Tl5  1  0.587633  0.724266  0.251684  1
  I  I6  1  0.979929  0.852999  0.247280  1
  I  I7  1  0.479187  0.147072  0.252527  1
  I  I8  1  0.020531  0.147103  0.752057  1
  I  I9  1  0.521877  0.853123  0.748035  1
  I  I10  1  0.681600  0.645688  0.553419  1
  I  I11  1  0.183203  0.354115  0.945267  1
  I  I12  1  0.316681  0.353826  0.446721  1
  I  I13  1  0.817584  0.646601  0.054515  1
  I  I14  1  0.707719  0.226172  0.950643  1
  I  I15  1  0.208281  0.771860  0.550048  1
  I  I16  1  0.293415  0.771970  0.049295  1
  I  I17  1  0.791028  0.227425  0.450231  1
