# generated using pymatgen
data_K2Th2CuAgTe6
_symmetry_space_group_name_H-M   'P 1'
_cell_length_a   4.50040500
_cell_length_b   8.30524249
_cell_length_c   11.65532292
_cell_angle_alpha   89.95617755
_cell_angle_beta   90.00000000
_cell_angle_gamma   74.27992906
_symmetry_Int_Tables_number   1
_chemical_formula_structural   K2Th2CuAgTe6
_chemical_formula_sum   'K2 Th2 Cu1 Ag1 Te6'
_cell_volume   419.34603924
_cell_formula_units_Z   1
loop_
 _symmetry_equiv_pos_site_id
 _symmetry_equiv_pos_as_xyz
  1  'x, y, z'
loop_
 _atom_site_type_symbol
 _atom_site_label
 _atom_site_symmetry_multiplicity
 _atom_site_fract_x
 _atom_site_fract_y
 _atom_site_fract_z
 _atom_site_occupancy
  K  K0  1  0.247458  0.505085  0.249127  1
  K  K1  1  0.749788  0.500422  0.749085  1
  Th  Th2  1  0.998188  0.003624  0.493519  1
  Th  Th3  1  0.001763  0.996474  0.993514  1
  Cu  Cu4  1  0.472537  0.054926  0.746025  1
  Ag  Ag5  1  0.529338  0.941324  0.245756  1
  Te  Te6  1  0.631441  0.737117  0.441426  1
  Te  Te7  1  0.371634  0.256734  0.564637  1
  Te  Te8  1  0.633919  0.732161  0.051361  1
  Te  Te9  1  0.373843  0.252314  0.927790  1
  Te  Te10  1  0.920553  0.158895  0.242543  1
  Te  Te11  1  0.069538  0.860923  0.743039  1
