# generated using pymatgen
data_Ho16TlIn2HgRh4
_symmetry_space_group_name_H-M   'P 1'
_cell_length_a   9.60830052
_cell_length_b   9.60830095
_cell_length_c   9.61157131
_cell_angle_alpha   60.01844882
_cell_angle_beta   60.01844957
_cell_angle_gamma   60.00026646
_symmetry_Int_Tables_number   1
_chemical_formula_structural   Ho16TlIn2HgRh4
_chemical_formula_sum   'Ho16 Tl1 In2 Hg1 Rh4'
_cell_volume   627.61670815
_cell_formula_units_Z   1
loop_
 _symmetry_equiv_pos_site_id
 _symmetry_equiv_pos_as_xyz
  1  'x, y, z'
loop_
 _atom_site_type_symbol
 _atom_site_label
 _atom_site_symmetry_multiplicity
 _atom_site_fract_x
 _atom_site_fract_y
 _atom_site_fract_z
 _atom_site_occupancy
  Ho  Ho0  1  0.187980  0.187980  0.811996  1
  Ho  Ho1  1  0.601884  0.601884  0.197858  1
  Ho  Ho2  1  0.438568  0.059921  0.439815  1
  Ho  Ho3  1  0.439484  0.439484  0.059655  1
  Ho  Ho4  1  0.813300  0.184610  0.813415  1
  Ho  Ho5  1  0.188720  0.811718  0.187932  1
  Ho  Ho6  1  0.436420  0.061147  0.061252  1
  Ho  Ho7  1  0.184610  0.813300  0.813415  1
  Ho  Ho8  1  0.061147  0.436420  0.061252  1
  Ho  Ho9  1  0.813112  0.813112  0.184223  1
  Ho  Ho10  1  0.197995  0.601691  0.602246  1
  Ho  Ho11  1  0.059921  0.438568  0.439815  1
  Ho  Ho12  1  0.061491  0.061491  0.436814  1
  Ho  Ho13  1  0.811718  0.188720  0.187932  1
  Ho  Ho14  1  0.601691  0.197995  0.602246  1
  Ho  Ho15  1  0.598239  0.598239  0.598902  1
  Tl  Tl16  1  0.833866  0.833866  0.497887  1
  In  In17  1  0.502321  0.832098  0.833153  1
  In  In18  1  0.832098  0.502321  0.833153  1
  Hg  Hg19  1  0.835940  0.835940  0.837393  1
  Rh  Rh20  1  0.391681  0.822792  0.391680  1
  Rh  Rh21  1  0.393356  0.393356  0.393419  1
  Rh  Rh22  1  0.822792  0.391681  0.391680  1
  Rh  Rh23  1  0.391669  0.391669  0.822865  1
