# generated using pymatgen
data_La8Pr12Si15Te
_symmetry_space_group_name_H-M   'P 1'
_cell_length_a   7.99858365
_cell_length_b   7.98835441
_cell_length_c   15.43294600
_cell_angle_alpha   89.99897434
_cell_angle_beta   89.71543193
_cell_angle_gamma   89.95549063
_symmetry_Int_Tables_number   1
_chemical_formula_structural   La8Pr12Si15Te
_chemical_formula_sum   'La8 Pr12 Si15 Te1'
_cell_volume   986.08366540
_cell_formula_units_Z   1
loop_
 _symmetry_equiv_pos_site_id
 _symmetry_equiv_pos_as_xyz
  1  'x, y, z'
loop_
 _atom_site_type_symbol
 _atom_site_label
 _atom_site_symmetry_multiplicity
 _atom_site_fract_x
 _atom_site_fract_y
 _atom_site_fract_z
 _atom_site_occupancy
  La  La0  1  0.376495  0.010817  0.447078  1
  La  La1  1  0.493175  0.871596  0.698625  1
  La  La2  1  0.511627  0.123081  0.198371  1
  La  La3  1  0.876083  0.487809  0.299855  1
  La  La4  1  0.122129  0.516948  0.804776  1
  La  La5  1  0.626514  0.986371  0.950004  1
  La  La6  1  0.001091  0.382133  0.545650  1
  La  La7  1  0.988542  0.623609  0.052490  1
  Pr  Pr8  1  0.309187  0.310385  0.000011  1
  Pr  Pr9  1  0.190563  0.810002  0.250175  1
  Pr  Pr10  1  0.797838  0.189062  0.752426  1
  Pr  Pr11  1  0.687092  0.689798  0.496407  1
  Pr  Pr12  1  0.131917  0.985104  0.878254  1
  Pr  Pr13  1  0.517573  0.628397  0.126593  1
  Pr  Pr14  1  0.490698  0.377381  0.626899  1
  Pr  Pr15  1  0.630323  0.519951  0.875830  1
  Pr  Pr16  1  0.371366  0.481126  0.373511  1
  Pr  Pr17  1  0.872307  0.018330  0.376183  1
  Pr  Pr18  1  0.982887  0.128615  0.124369  1
  Pr  Pr19  1  0.008166  0.856644  0.620698  1
  Si  Si20  1  0.331116  0.696753  0.952838  1
  Si  Si21  1  0.664567  0.302651  0.451897  1
  Si  Si22  1  0.700064  0.334484  0.049790  1
  Si  Si23  1  0.303811  0.668659  0.547407  1
  Si  Si24  1  0.802861  0.833131  0.202378  1
  Si  Si25  1  0.167593  0.197215  0.297274  1
  Si  Si26  1  0.837754  0.803366  0.797551  1
  Si  Si27  1  0.286947  0.921023  0.060030  1
  Si  Si28  1  0.578421  0.788655  0.309233  1
  Si  Si29  1  0.445577  0.212177  0.822218  1
  Si  Si30  1  0.789764  0.576517  0.690327  1
  Si  Si31  1  0.211699  0.422635  0.190566  1
  Si  Si32  1  0.706082  0.076614  0.559683  1
  Si  Si33  1  0.924488  0.289525  0.940694  1
  Si  Si34  1  0.078545  0.712373  0.439002  1
  Te  Te35  1  0.185138  0.167061  0.690907  1
