# generated using pymatgen
data_Pr16Mg2Cd2OsPt3
_symmetry_space_group_name_H-M   'P 1'
_cell_length_a   10.14044885
_cell_length_b   10.14044758
_cell_length_c   10.13499150
_cell_angle_alpha   59.63292517
_cell_angle_beta   59.63292800
_cell_angle_gamma   59.61067385
_symmetry_Int_Tables_number   1
_chemical_formula_structural   Pr16Mg2Cd2OsPt3
_chemical_formula_sum   'Pr16 Mg2 Cd2 Os1 Pt3'
_cell_volume   730.65238439
_cell_formula_units_Z   1
loop_
 _symmetry_equiv_pos_site_id
 _symmetry_equiv_pos_as_xyz
  1  'x, y, z'
loop_
 _atom_site_type_symbol
 _atom_site_label
 _atom_site_symmetry_multiplicity
 _atom_site_fract_x
 _atom_site_fract_y
 _atom_site_fract_z
 _atom_site_occupancy
  Pr  Pr0  1  0.350703  0.350703  0.350891  1
  Pr  Pr1  1  0.347419  0.347419  0.954042  1
  Pr  Pr2  1  0.346474  0.956473  0.346824  1
  Pr  Pr3  1  0.956473  0.346474  0.346824  1
  Pr  Pr4  1  0.816909  0.188481  0.187865  1
  Pr  Pr5  1  0.187635  0.808535  0.808512  1
  Pr  Pr6  1  0.188481  0.816909  0.187865  1
  Pr  Pr7  1  0.808535  0.187635  0.808512  1
  Pr  Pr8  1  0.189777  0.189777  0.815150  1
  Pr  Pr9  1  0.809989  0.809989  0.186586  1
  Pr  Pr10  1  0.938672  0.564239  0.563310  1
  Pr  Pr11  1  0.556480  0.938934  0.937417  1
  Pr  Pr12  1  0.564239  0.938672  0.563310  1
  Pr  Pr13  1  0.938934  0.556480  0.937417  1
  Pr  Pr14  1  0.564470  0.564470  0.937403  1
  Pr  Pr15  1  0.938651  0.938651  0.555328  1
  Mg  Mg16  1  0.575515  0.575515  0.579610  1
  Mg  Mg17  1  0.575812  0.575812  0.267063  1
  Cd  Cd18  1  0.581654  0.256384  0.580621  1
  Cd  Cd19  1  0.256384  0.581654  0.580621  1
  Os  Os20  1  0.143435  0.143435  0.142217  1
  Pt  Pt21  1  0.145108  0.145108  0.573361  1
  Pt  Pt22  1  0.145062  0.573192  0.144627  1
  Pt  Pt23  1  0.573192  0.145062  0.144627  1
