# generated using pymatgen
data_Th2InSiNi
_symmetry_space_group_name_H-M   'P 1'
_cell_length_a   7.24795401
_cell_length_b   7.24795492
_cell_length_c   4.13150400
_cell_angle_alpha   90.00000000
_cell_angle_beta   90.00000000
_cell_angle_gamma   147.52646328
_symmetry_Int_Tables_number   1
_chemical_formula_structural   Th2InSiNi
_chemical_formula_sum   'Th2 In1 Si1 Ni1'
_cell_volume   116.53076383
_cell_formula_units_Z   1
loop_
 _symmetry_equiv_pos_site_id
 _symmetry_equiv_pos_as_xyz
  1  'x, y, z'
loop_
 _atom_site_type_symbol
 _atom_site_label
 _atom_site_symmetry_multiplicity
 _atom_site_fract_x
 _atom_site_fract_y
 _atom_site_fract_z
 _atom_site_occupancy
  Th  Th0  1  0.364183  0.635817  0.500000  1
  Th  Th1  1  0.637057  0.362943  0.500000  1
  In  In2  1  0.995550  0.004450  0.000000  1
  Si  Si3  1  0.208435  0.791565  0.000000  1
  Ni  Ni4  1  0.794776  0.205224  0.000000  1
