# generated using pymatgen
data_Ba5Er2MnAl2O13
_symmetry_space_group_name_H-M   'P 1'
_cell_length_a   5.91098100
_cell_length_b   5.91098014
_cell_length_c   24.72380100
_cell_angle_alpha   90.00000000
_cell_angle_beta   90.00000000
_cell_angle_gamma   119.99999923
_symmetry_Int_Tables_number   1
_chemical_formula_structural   Ba5Er2MnAl2O13
_chemical_formula_sum   'Ba10 Er4 Mn2 Al4 O26'
_cell_volume   748.10910040
_cell_formula_units_Z   2
loop_
 _symmetry_equiv_pos_site_id
 _symmetry_equiv_pos_as_xyz
  1  'x, y, z'
loop_
 _atom_site_type_symbol
 _atom_site_label
 _atom_site_symmetry_multiplicity
 _atom_site_fract_x
 _atom_site_fract_y
 _atom_site_fract_z
 _atom_site_occupancy
  Ba  Ba0  1  0.000000  0.000000  0.364752  1
  Ba  Ba1  1  0.666667  0.333333  0.958854  1
  Ba  Ba2  1  0.000000  0.000000  0.635248  1
  Ba  Ba3  1  0.000000  0.000000  0.864752  1
  Ba  Ba4  1  0.666667  0.333333  0.541146  1
  Ba  Ba5  1  0.333333  0.666667  0.458854  1
  Ba  Ba6  1  0.000000  0.000000  0.135248  1
  Ba  Ba7  1  0.333333  0.666667  0.041146  1
  Ba  Ba8  1  0.666667  0.333333  0.250000  1
  Ba  Ba9  1  0.333333  0.666667  0.750000  1
  Er  Er10  1  0.666667  0.333333  0.099990  1
  Er  Er11  1  0.333333  0.666667  0.900010  1
  Er  Er12  1  0.333333  0.666667  0.599990  1
  Er  Er13  1  0.666667  0.333333  0.400010  1
  Mn  Mn14  1  0.000000  0.000000  0.500000  1
  Mn  Mn15  1  0.000000  0.000000  0.000000  1
  Al  Al16  1  0.666667  0.333333  0.820328  1
  Al  Al17  1  0.333333  0.666667  0.179672  1
  Al  Al18  1  0.666667  0.333333  0.679672  1
  Al  Al19  1  0.333333  0.666667  0.320328  1
  O  O20  1  0.843895  0.687789  0.046891  1
  O  O21  1  0.843895  0.687789  0.453109  1
  O  O22  1  0.156105  0.843895  0.953109  1
  O  O23  1  0.156105  0.312211  0.546891  1
  O  O24  1  0.503470  0.496530  0.843844  1
  O  O25  1  0.843895  0.156105  0.046891  1
  O  O26  1  0.496530  0.993060  0.156156  1
  O  O27  1  0.006940  0.503470  0.156156  1
  O  O28  1  0.843895  0.156105  0.453109  1
  O  O29  1  0.312211  0.156105  0.046891  1
  O  O30  1  0.993060  0.496530  0.656156  1
  O  O31  1  0.503470  0.006940  0.656156  1
  O  O32  1  0.006940  0.503470  0.343844  1
  O  O33  1  0.687789  0.843895  0.546891  1
  O  O34  1  0.666667  0.333333  0.750000  1
  O  O35  1  0.496530  0.503470  0.343844  1
  O  O36  1  0.687789  0.843895  0.953109  1
  O  O37  1  0.503470  0.006940  0.843844  1
  O  O38  1  0.993060  0.496530  0.843844  1
  O  O39  1  0.503470  0.496530  0.656156  1
  O  O40  1  0.156105  0.843895  0.546891  1
  O  O41  1  0.156105  0.312211  0.953109  1
  O  O42  1  0.496530  0.503470  0.156156  1
  O  O43  1  0.312211  0.156105  0.453109  1
  O  O44  1  0.333333  0.666667  0.250000  1
  O  O45  1  0.496530  0.993060  0.343844  1
