# generated using pymatgen
data_La8Tb7Yb5Si16
_symmetry_space_group_name_H-M   'P 1'
_cell_length_a   7.90091702
_cell_length_b   7.89830453
_cell_length_c   14.55920619
_cell_angle_alpha   89.87438603
_cell_angle_beta   89.99382202
_cell_angle_gamma   89.99468101
_symmetry_Int_Tables_number   1
_chemical_formula_structural   La8Tb7Yb5Si16
_chemical_formula_sum   'La8 Tb7 Yb5 Si16'
_cell_volume   908.54830765
_cell_formula_units_Z   1
loop_
 _symmetry_equiv_pos_site_id
 _symmetry_equiv_pos_as_xyz
  1  'x, y, z'
loop_
 _atom_site_type_symbol
 _atom_site_label
 _atom_site_symmetry_multiplicity
 _atom_site_fract_x
 _atom_site_fract_y
 _atom_site_fract_z
 _atom_site_occupancy
  La  La0  1  0.990820  0.635445  0.043394  1
  La  La1  1  0.007683  0.366172  0.543984  1
  La  La2  1  0.635663  0.991021  0.956885  1
  La  La3  1  0.136728  0.509783  0.792713  1
  La  La4  1  0.864097  0.490076  0.292697  1
  La  La5  1  0.507988  0.135292  0.205871  1
  La  La6  1  0.491772  0.864595  0.707254  1
  La  La7  1  0.364950  0.011345  0.457470  1
  Tb  Tb8  1  0.868049  0.006359  0.374194  1
  Tb  Tb9  1  0.994579  0.132005  0.124785  1
  Tb  Tb10  1  0.006198  0.868286  0.627014  1
  Tb  Tb11  1  0.631816  0.506233  0.875909  1
  Tb  Tb12  1  0.494624  0.368286  0.624871  1
  Tb  Tb13  1  0.507182  0.632753  0.122984  1
  Tb  Tb14  1  0.132340  0.994214  0.873680  1
  Yb  Yb15  1  0.366123  0.490567  0.376641  1
  Yb  Yb16  1  0.683393  0.685097  0.498531  1
  Yb  Yb17  1  0.812639  0.187447  0.750427  1
  Yb  Yb18  1  0.189771  0.808085  0.251502  1
  Yb  Yb19  1  0.313579  0.313272  0.999276  1
  Si  Si20  1  0.072700  0.714821  0.443794  1
  Si  Si21  1  0.924036  0.288434  0.941140  1
  Si  Si22  1  0.713165  0.075668  0.559030  1
  Si  Si23  1  0.209177  0.422586  0.189679  1
  Si  Si24  1  0.787262  0.576950  0.691669  1
  Si  Si25  1  0.424471  0.212266  0.808389  1
  Si  Si26  1  0.578516  0.791308  0.306787  1
  Si  Si27  1  0.287260  0.922983  0.058182  1
  Si  Si28  1  0.845412  0.790080  0.811171  1
  Si  Si29  1  0.154235  0.204802  0.307521  1
  Si  Si30  1  0.790922  0.846611  0.188855  1
  Si  Si31  1  0.288863  0.656893  0.562637  1
  Si  Si32  1  0.708813  0.344717  0.060202  1
  Si  Si33  1  0.660924  0.289827  0.441943  1
  Si  Si34  1  0.344812  0.709570  0.939486  1
  Si  Si35  1  0.209438  0.156150  0.689434  1
