# generated using pymatgen
data_SrCa2Be3(SiO4)3
_symmetry_space_group_name_H-M   'P 1'
_cell_length_a   8.04246200
_cell_length_b   8.34576194
_cell_length_c   16.70277766
_cell_angle_alpha   60.17090626
_cell_angle_beta   90.00000000
_cell_angle_gamma   90.00000000
_symmetry_Int_Tables_number   1
_chemical_formula_structural   SrCa2Be3(SiO4)3
_chemical_formula_sum   'Sr4 Ca8 Be12 Si12 O48'
_cell_volume   972.56737144
_cell_formula_units_Z   4
loop_
 _symmetry_equiv_pos_site_id
 _symmetry_equiv_pos_as_xyz
  1  'x, y, z'
loop_
 _atom_site_type_symbol
 _atom_site_label
 _atom_site_symmetry_multiplicity
 _atom_site_fract_x
 _atom_site_fract_y
 _atom_site_fract_z
 _atom_site_occupancy
  Sr  Sr0  1  0.994485  0.498220  0.750266  1
  Sr  Sr1  1  0.494485  0.501780  0.749734  1
  Sr  Sr2  1  0.005515  0.501780  0.249734  1
  Sr  Sr3  1  0.505515  0.498220  0.250267  1
  Ca  Ca4  1  0.034893  0.169216  0.591036  1
  Ca  Ca5  1  0.465107  0.169216  0.091037  1
  Ca  Ca6  1  0.965107  0.830784  0.408964  1
  Ca  Ca7  1  0.534893  0.830784  0.908964  1
  Ca  Ca8  1  0.964083  0.834822  0.927424  1
  Ca  Ca9  1  0.464083  0.165178  0.572576  1
  Ca  Ca10  1  0.035917  0.165178  0.072576  1
  Ca  Ca11  1  0.535917  0.834822  0.427424  1
  Be  Be12  1  0.663929  0.158557  0.260571  1
  Be  Be13  1  0.834011  0.522502  0.909609  1
  Be  Be14  1  0.334011  0.477498  0.590391  1
  Be  Be15  1  0.165989  0.477498  0.090391  1
  Be  Be16  1  0.665989  0.522502  0.409610  1
  Be  Be17  1  0.335900  0.179881  0.920310  1
  Be  Be18  1  0.835900  0.820119  0.579690  1
  Be  Be19  1  0.664100  0.820119  0.079690  1
  Be  Be20  1  0.164100  0.179881  0.420310  1
  Be  Be21  1  0.836071  0.158557  0.760571  1
  Be  Be22  1  0.336071  0.841443  0.739429  1
  Be  Be23  1  0.163929  0.841443  0.239429  1
  Si  Si24  1  0.274923  0.157297  0.263480  1
  Si  Si25  1  0.774923  0.842703  0.236520  1
  Si  Si26  1  0.725077  0.842703  0.736520  1
  Si  Si27  1  0.225077  0.157297  0.763480  1
  Si  Si28  1  0.783825  0.185611  0.421065  1
  Si  Si29  1  0.283825  0.814389  0.078935  1
  Si  Si30  1  0.216175  0.814389  0.578935  1
  Si  Si31  1  0.716175  0.185611  0.921065  1
  Si  Si32  1  0.281037  0.526014  0.408027  1
  Si  Si33  1  0.781037  0.473986  0.091973  1
  Si  Si34  1  0.718963  0.473986  0.591973  1
  Si  Si35  1  0.218963  0.526014  0.908027  1
  O  O36  1  0.345726  0.703141  0.547395  1
  O  O37  1  0.468044  0.120636  0.302049  1
  O  O38  1  0.968044  0.879364  0.197951  1
  O  O39  1  0.531956  0.879364  0.697951  1
  O  O40  1  0.031956  0.120636  0.802049  1
  O  O41  1  0.974087  0.229842  0.440512  1
  O  O42  1  0.474087  0.770158  0.059488  1
  O  O43  1  0.025913  0.770158  0.559488  1
  O  O44  1  0.525913  0.229842  0.940512  1
  O  O45  1  0.472447  0.606327  0.388209  1
  O  O46  1  0.972447  0.393673  0.111791  1
  O  O47  1  0.527553  0.393673  0.611791  1
  O  O48  1  0.347832  0.700246  0.851776  1
  O  O49  1  0.847832  0.299754  0.648224  1
  O  O50  1  0.652168  0.299754  0.148224  1
  O  O51  1  0.152168  0.700246  0.351776  1
  O  O52  1  0.845726  0.296859  0.952605  1
  O  O53  1  0.027553  0.606327  0.888209  1
  O  O54  1  0.154274  0.703141  0.047395  1
  O  O55  1  0.654274  0.296859  0.452605  1
  O  O56  1  0.746672  0.587198  0.979130  1
  O  O57  1  0.852286  0.908013  0.648563  1
  O  O58  1  0.647714  0.908013  0.148563  1
  O  O59  1  0.147714  0.091987  0.351437  1
  O  O60  1  0.759089  0.619794  0.309827  1
  O  O61  1  0.259089  0.380206  0.190173  1
  O  O62  1  0.240911  0.380206  0.690173  1
  O  O63  1  0.740911  0.619794  0.809827  1
  O  O64  1  0.760705  0.257805  0.310378  1
  O  O65  1  0.260705  0.742195  0.189622  1
  O  O66  1  0.239295  0.742195  0.689622  1
  O  O67  1  0.739295  0.257805  0.810378  1
  O  O68  1  0.263124  0.377665  0.370615  1
  O  O69  1  0.763124  0.622335  0.129385  1
  O  O70  1  0.736876  0.622335  0.629385  1
  O  O71  1  0.236876  0.377665  0.870615  1
  O  O72  1  0.740428  0.952428  0.294394  1
  O  O73  1  0.240428  0.047572  0.205606  1
  O  O74  1  0.259572  0.047572  0.705606  1
  O  O75  1  0.759572  0.952428  0.794394  1
  O  O76  1  0.749298  0.960260  0.478639  1
  O  O77  1  0.249298  0.039740  0.021361  1
  O  O78  1  0.250702  0.039740  0.521361  1
  O  O79  1  0.750702  0.960260  0.978639  1
  O  O80  1  0.753328  0.587198  0.479130  1
  O  O81  1  0.253328  0.412802  0.020870  1
  O  O82  1  0.246672  0.412802  0.520870  1
  O  O83  1  0.352286  0.091987  0.851437  1
