# generated using pymatgen
data_Nb6CdCoS12
_symmetry_space_group_name_H-M   'P 1'
_cell_length_a   5.82252700
_cell_length_b   5.82252699
_cell_length_c   12.68181800
_cell_angle_alpha   90.00000000
_cell_angle_beta   90.00000000
_cell_angle_gamma   120.00000572
_symmetry_Int_Tables_number   1
_chemical_formula_structural   Nb6CdCoS12
_chemical_formula_sum   'Nb6 Cd1 Co1 S12'
_cell_volume   372.33609928
_cell_formula_units_Z   1
loop_
 _symmetry_equiv_pos_site_id
 _symmetry_equiv_pos_as_xyz
  1  'x, y, z'
loop_
 _atom_site_type_symbol
 _atom_site_label
 _atom_site_symmetry_multiplicity
 _atom_site_fract_x
 _atom_site_fract_y
 _atom_site_fract_z
 _atom_site_occupancy
  Nb  Nb0  1  0.333333  0.666667  0.018459  1
  Nb  Nb1  1  0.666667  0.333333  0.475267  1
  Nb  Nb2  1  0.333333  0.666667  0.481541  1
  Nb  Nb3  1  0.000000  0.000000  0.023874  1
  Nb  Nb4  1  0.666667  0.333333  0.024733  1
  Nb  Nb5  1  0.000000  0.000000  0.476126  1
  Cd  Cd6  1  0.666667  0.333333  0.750000  1
  Co  Co7  1  0.333333  0.666667  0.250000  1
  S  S8  1  0.004699  0.666383  0.144601  1
  S  S9  1  0.670393  0.671171  0.602911  1
  S  S10  1  0.004699  0.338316  0.355399  1
  S  S11  1  0.333617  0.338316  0.144601  1
  S  S12  1  0.328829  0.999222  0.602911  1
  S  S13  1  0.328829  0.329607  0.897089  1
  S  S14  1  0.661684  0.666383  0.355399  1
  S  S15  1  0.000778  0.671171  0.897089  1
  S  S16  1  0.670393  0.999222  0.897089  1
  S  S17  1  0.333617  0.995301  0.355399  1
  S  S18  1  0.661684  0.995301  0.144601  1
  S  S19  1  0.000778  0.329607  0.602911  1
