# generated using pymatgen
data_Li3AcPd2
_symmetry_space_group_name_H-M   'P 1'
_cell_length_a   4.35249700
_cell_length_b   4.35249641
_cell_length_c   7.18047900
_cell_angle_alpha   90.00000000
_cell_angle_beta   90.00000000
_cell_angle_gamma   120.00001210
_symmetry_Int_Tables_number   1
_chemical_formula_structural   Li3AcPd2
_chemical_formula_sum   'Li3 Ac1 Pd2'
_cell_volume   117.80423327
_cell_formula_units_Z   1
loop_
 _symmetry_equiv_pos_site_id
 _symmetry_equiv_pos_as_xyz
  1  'x, y, z'
loop_
 _atom_site_type_symbol
 _atom_site_label
 _atom_site_symmetry_multiplicity
 _atom_site_fract_x
 _atom_site_fract_y
 _atom_site_fract_z
 _atom_site_occupancy
  Li  Li0  1  0.000000  0.000000  0.500000  1
  Li  Li1  1  0.666667  0.333333  0.363853  1
  Li  Li2  1  0.333333  0.666667  0.636147  1
  Ac  Ac3  1  0.000000  0.000000  0.000000  1
  Pd  Pd4  1  0.333333  0.666667  0.267694  1
  Pd  Pd5  1  0.666667  0.333333  0.732306  1
