# generated using pymatgen
data_Y2TmIn3HgRh2
_symmetry_space_group_name_H-M   'P 1'
_cell_length_a   7.87106900
_cell_length_b   7.86209016
_cell_length_c   3.78318100
_cell_angle_alpha   90.00000000
_cell_angle_beta   90.00000000
_cell_angle_gamma   120.19066968
_symmetry_Int_Tables_number   1
_chemical_formula_structural   Y2TmIn3HgRh2
_chemical_formula_sum   'Y2 Tm1 In3 Hg1 Rh2'
_cell_volume   202.35869236
_cell_formula_units_Z   1
loop_
 _symmetry_equiv_pos_site_id
 _symmetry_equiv_pos_as_xyz
  1  'x, y, z'
loop_
 _atom_site_type_symbol
 _atom_site_label
 _atom_site_symmetry_multiplicity
 _atom_site_fract_x
 _atom_site_fract_y
 _atom_site_fract_z
 _atom_site_occupancy
  Y  Y0  1  0.971232  0.385767  0.500000  1
  Y  Y1  1  0.613547  0.585175  0.500000  1
  Tm  Tm2  1  0.415870  0.032562  0.500000  1
  In  In3  1  0.258627  0.256639  0.000000  1
  In  In4  1  0.000255  0.742705  0.000000  1
  In  In5  1  0.742247  0.000530  0.000000  1
  Hg  Hg6  1  0.334063  0.669628  0.000000  1
  Rh  Rh7  1  0.002207  0.999760  0.500000  1
  Rh  Rh8  1  0.661949  0.327235  0.000000  1
