# generated using pymatgen
data_K2Rb2PbS4
_symmetry_space_group_name_H-M   'P 1'
_cell_length_a   8.31132300
_cell_length_b   10.23981700
_cell_length_c   15.36001600
_cell_angle_alpha   90.00000000
_cell_angle_beta   90.00000000
_cell_angle_gamma   90.00000000
_symmetry_Int_Tables_number   1
_chemical_formula_structural   K2Rb2PbS4
_chemical_formula_sum   'K8 Rb8 Pb4 S16'
_cell_volume   1307.23607348
_cell_formula_units_Z   4
loop_
 _symmetry_equiv_pos_site_id
 _symmetry_equiv_pos_as_xyz
  1  'x, y, z'
loop_
 _atom_site_type_symbol
 _atom_site_label
 _atom_site_symmetry_multiplicity
 _atom_site_fract_x
 _atom_site_fract_y
 _atom_site_fract_z
 _atom_site_occupancy
  K  K0  1  0.845204  0.055091  0.272083  1
  K  K1  1  0.345204  0.944909  0.227917  1
  K  K2  1  0.154796  0.555091  0.727917  1
  K  K3  1  0.654796  0.444909  0.772083  1
  K  K4  1  0.154796  0.944909  0.727917  1
  K  K5  1  0.654796  0.055091  0.772083  1
  K  K6  1  0.845204  0.444909  0.272083  1
  K  K7  1  0.345204  0.555091  0.227917  1
  Rb  Rb8  1  0.000000  0.000000  0.000000  1
  Rb  Rb9  1  0.500000  0.000000  0.500000  1
  Rb  Rb10  1  0.000000  0.500000  0.000000  1
  Rb  Rb11  1  0.500000  0.500000  0.500000  1
  Rb  Rb12  1  0.987568  0.750000  0.431043  1
  Rb  Rb13  1  0.487568  0.250000  0.068957  1
  Rb  Rb14  1  0.012432  0.250000  0.568957  1
  Rb  Rb15  1  0.512432  0.750000  0.931043  1
  Pb  Pb16  1  0.754906  0.750000  0.671226  1
  Pb  Pb17  1  0.245094  0.250000  0.328774  1
  Pb  Pb18  1  0.745094  0.750000  0.171226  1
  Pb  Pb19  1  0.254906  0.250000  0.828774  1
  S  S20  1  0.950874  0.250000  0.823011  1
  S  S21  1  0.549126  0.250000  0.323011  1
  S  S22  1  0.450874  0.750000  0.676989  1
  S  S23  1  0.049126  0.750000  0.176989  1
  S  S24  1  0.647761  0.548050  0.095962  1
  S  S25  1  0.147761  0.451950  0.404038  1
  S  S26  1  0.352239  0.048050  0.904038  1
  S  S27  1  0.852239  0.951950  0.595962  1
  S  S28  1  0.352239  0.451950  0.904038  1
  S  S29  1  0.852239  0.548050  0.595962  1
  S  S30  1  0.647761  0.951950  0.095962  1
  S  S31  1  0.147761  0.048050  0.404038  1
  S  S32  1  0.625040  0.750000  0.323408  1
  S  S33  1  0.125040  0.250000  0.176592  1
  S  S34  1  0.374960  0.250000  0.676592  1
  S  S35  1  0.874960  0.750000  0.823408  1
