# generated using pymatgen
data_K4IO5
_symmetry_space_group_name_H-M   'P 1'
_cell_length_a   6.47272840
_cell_length_b   6.51308196
_cell_length_c   9.78460773
_cell_angle_alpha   101.58110554
_cell_angle_beta   108.31910365
_cell_angle_gamma   102.39400962
_symmetry_Int_Tables_number   1
_chemical_formula_structural   K4IO5
_chemical_formula_sum   'K8 I2 O10'
_cell_volume   366.11080536
_cell_formula_units_Z   2
loop_
 _symmetry_equiv_pos_site_id
 _symmetry_equiv_pos_as_xyz
  1  'x, y, z'
loop_
 _atom_site_type_symbol
 _atom_site_label
 _atom_site_symmetry_multiplicity
 _atom_site_fract_x
 _atom_site_fract_y
 _atom_site_fract_z
 _atom_site_occupancy
  K  K0  1  0.592256  0.800385  0.095540  1
  K  K1  1  0.205919  0.606261  0.719857  1
  K  K2  1  0.599832  0.299161  0.599881  1
  K  K3  1  0.400168  0.700839  0.400119  1
  K  K4  1  0.407744  0.199615  0.904460  1
  K  K5  1  0.000000  0.000000  0.500000  1
  K  K6  1  0.000000  0.500000  0.000000  1
  K  K7  1  0.794081  0.393739  0.280143  1
  I  I8  1  0.195180  0.100298  0.199605  1
  I  I9  1  0.804820  0.899702  0.800395  1
  O  O10  1  0.357163  0.368399  0.161884  1
  O  O11  1  0.642837  0.631601  0.838116  1
  O  O12  1  0.176673  0.282899  0.375583  1
  O  O13  1  0.823327  0.717101  0.624417  1
  O  O14  1  0.966558  0.168896  0.759857  1
  O  O15  1  0.033442  0.831104  0.240143  1
  O  O16  1  0.861298  0.101551  0.034114  1
  O  O17  1  0.138702  0.898449  0.965886  1
  O  O18  1  0.513697  0.938162  0.698491  1
  O  O19  1  0.486303  0.061838  0.301509  1
