# generated using pymatgen
data_Y2Si7(PdPt3)3
_symmetry_space_group_name_H-M   'P 1'
_cell_length_a   9.93838800
_cell_length_b   9.93838895
_cell_length_c   3.95275000
_cell_angle_alpha   90.00000000
_cell_angle_beta   90.00000000
_cell_angle_gamma   120.00000350
_symmetry_Int_Tables_number   1
_chemical_formula_structural   Y2Si7(PdPt3)3
_chemical_formula_sum   'Y2 Si7 Pd3 Pt9'
_cell_volume   338.11302473
_cell_formula_units_Z   1
loop_
 _symmetry_equiv_pos_site_id
 _symmetry_equiv_pos_as_xyz
  1  'x, y, z'
loop_
 _atom_site_type_symbol
 _atom_site_label
 _atom_site_symmetry_multiplicity
 _atom_site_fract_x
 _atom_site_fract_y
 _atom_site_fract_z
 _atom_site_occupancy
  Y  Y0  1  0.000000  0.000000  0.000000  1
  Y  Y1  1  0.333333  0.666667  0.500000  1
  Si  Si2  1  0.265674  0.217326  0.500000  1
  Si  Si3  1  0.782674  0.048349  0.500000  1
  Si  Si4  1  0.951651  0.734326  0.500000  1
  Si  Si5  1  0.552493  0.633142  0.000000  1
  Si  Si6  1  0.366858  0.919350  0.000000  1
  Si  Si7  1  0.080650  0.447507  0.000000  1
  Si  Si8  1  0.666667  0.333333  0.000000  1
  Pd  Pd9  1  0.884415  0.459530  0.500000  1
  Pd  Pd10  1  0.575115  0.115585  0.500000  1
  Pd  Pd11  1  0.540470  0.424885  0.500000  1
  Pt  Pt12  1  0.216222  0.943406  0.500000  1
  Pt  Pt13  1  0.056594  0.272819  0.500000  1
  Pt  Pt14  1  0.727181  0.783778  0.500000  1
  Pt  Pt15  1  0.302786  0.410710  0.000000  1
  Pt  Pt16  1  0.589290  0.892076  0.000000  1
  Pt  Pt17  1  0.107924  0.697214  0.000000  1
  Pt  Pt18  1  0.389627  0.172476  0.000000  1
  Pt  Pt19  1  0.827524  0.217152  0.000000  1
  Pt  Pt20  1  0.782848  0.610373  0.000000  1
