# generated using pymatgen
data_Gd2Mn3Tc14C3
_symmetry_space_group_name_H-M   'P 1'
_cell_length_a   6.91630346
_cell_length_b   6.91630302
_cell_length_c   6.91630300
_cell_angle_alpha   82.32852228
_cell_angle_beta   82.32852277
_cell_angle_gamma   82.32851572
_symmetry_Int_Tables_number   1
_chemical_formula_structural   Gd2Mn3Tc14C3
_chemical_formula_sum   'Gd2 Mn3 Tc14 C3'
_cell_volume   322.68595681
_cell_formula_units_Z   1
loop_
 _symmetry_equiv_pos_site_id
 _symmetry_equiv_pos_as_xyz
  1  'x, y, z'
loop_
 _atom_site_type_symbol
 _atom_site_label
 _atom_site_symmetry_multiplicity
 _atom_site_fract_x
 _atom_site_fract_y
 _atom_site_fract_z
 _atom_site_occupancy
  Gd  Gd0  1  0.652550  0.652550  0.652550  1
  Gd  Gd1  1  0.347450  0.347450  0.347450  1
  Mn  Mn2  1  0.000000  0.000000  0.500000  1
  Mn  Mn3  1  0.500000  0.000000  0.000000  1
  Mn  Mn4  1  0.000000  0.500000  0.000000  1
  Tc  Tc5  1  0.723336  0.276664  0.000000  1
  Tc  Tc6  1  0.000000  0.723336  0.276664  1
  Tc  Tc7  1  0.276664  0.000000  0.723336  1
  Tc  Tc8  1  0.000000  0.276664  0.723336  1
  Tc  Tc9  1  0.723336  0.000000  0.276664  1
  Tc  Tc10  1  0.276664  0.723336  0.000000  1
  Tc  Tc11  1  0.349650  0.349650  0.855706  1
  Tc  Tc12  1  0.855706  0.349650  0.349650  1
  Tc  Tc13  1  0.349650  0.855706  0.349650  1
  Tc  Tc14  1  0.650350  0.650350  0.144294  1
  Tc  Tc15  1  0.144294  0.650350  0.650350  1
  Tc  Tc16  1  0.650350  0.144294  0.650350  1
  Tc  Tc17  1  0.900611  0.900611  0.900611  1
  Tc  Tc18  1  0.099389  0.099389  0.099389  1
  C  C19  1  0.500000  0.500000  0.000000  1
  C  C20  1  0.000000  0.500000  0.500000  1
  C  C21  1  0.500000  0.000000  0.500000  1
