# generated using pymatgen
data_Y3Pa(Al3Rh)6
_symmetry_space_group_name_H-M   'P 1'
_cell_length_a   7.57242814
_cell_length_b   7.56839321
_cell_length_c   9.43618700
_cell_angle_alpha   90.00000000
_cell_angle_beta   90.00000000
_cell_angle_gamma   119.45997114
_symmetry_Int_Tables_number   1
_chemical_formula_structural   Y3Pa(Al3Rh)6
_chemical_formula_sum   'Y3 Pa1 Al18 Rh6'
_cell_volume   470.87288925
_cell_formula_units_Z   1
loop_
 _symmetry_equiv_pos_site_id
 _symmetry_equiv_pos_as_xyz
  1  'x, y, z'
loop_
 _atom_site_type_symbol
 _atom_site_label
 _atom_site_symmetry_multiplicity
 _atom_site_fract_x
 _atom_site_fract_y
 _atom_site_fract_z
 _atom_site_occupancy
  Y  Y0  1  0.005575  0.328865  0.750000  1
  Y  Y1  1  0.672736  0.994499  0.250000  1
  Y  Y2  1  0.328680  0.004706  0.750000  1
  Pa  Pa3  1  0.995505  0.671807  0.250000  1
  Al  Al4  1  0.131426  0.129515  0.250000  1
  Al  Al5  1  0.872972  0.874132  0.750000  1
  Al  Al6  1  0.000745  0.333164  0.075223  1
  Al  Al7  1  0.998913  0.664376  0.921613  1
  Al  Al8  1  0.998913  0.664376  0.578387  1
  Al  Al9  1  0.338455  0.003149  0.424538  1
  Al  Al10  1  0.000745  0.333164  0.424777  1
  Al  Al11  1  0.664837  0.000141  0.576199  1
  Al  Al12  1  0.664837  0.000141  0.923801  1
  Al  Al13  1  0.338455  0.003149  0.075462  1
  Al  Al14  1  0.332456  0.332484  0.553313  1
  Al  Al15  1  0.663916  0.666030  0.450594  1
  Al  Al16  1  0.663916  0.666030  0.049406  1
  Al  Al17  1  0.332456  0.332484  0.946687  1
  Al  Al18  1  0.338701  0.548353  0.250000  1
  Al  Al19  1  0.659130  0.448600  0.750000  1
  Al  Al20  1  0.548894  0.342850  0.250000  1
  Al  Al21  1  0.449914  0.660267  0.750000  1
  Rh  Rh22  1  0.673382  0.329453  0.001853  1
  Rh  Rh23  1  0.326271  0.672022  0.001928  1
  Rh  Rh24  1  0.326271  0.672022  0.498072  1
  Rh  Rh25  1  0.673382  0.329453  0.498147  1
  Rh  Rh26  1  0.999259  0.997385  0.002689  1
  Rh  Rh27  1  0.999259  0.997385  0.497311  1
