# generated using pymatgen
data_Lu8Hf7Zr2Si16Mo3
_symmetry_space_group_name_H-M   'P 1'
_cell_length_a   6.89394269
_cell_length_b   7.09897847
_cell_length_c   13.62767762
_cell_angle_alpha   89.94382567
_cell_angle_beta   90.02561247
_cell_angle_gamma   90.06235294
_symmetry_Int_Tables_number   1
_chemical_formula_structural   Lu8Hf7Zr2Si16Mo3
_chemical_formula_sum   'Lu8 Hf7 Zr2 Si16 Mo3'
_cell_volume   666.93708997
_cell_formula_units_Z   1
loop_
 _symmetry_equiv_pos_site_id
 _symmetry_equiv_pos_as_xyz
  1  'x, y, z'
loop_
 _atom_site_type_symbol
 _atom_site_label
 _atom_site_symmetry_multiplicity
 _atom_site_fract_x
 _atom_site_fract_y
 _atom_site_fract_z
 _atom_site_occupancy
  Lu  Lu0  1  0.509013  0.323201  0.098697  1
  Lu  Lu1  1  0.008621  0.178411  0.401491  1
  Lu  Lu2  1  0.488618  0.674463  0.594742  1
  Lu  Lu3  1  0.990340  0.821154  0.904367  1
  Lu  Lu4  1  0.488468  0.673372  0.904880  1
  Lu  Lu5  1  0.990572  0.821770  0.595769  1
  Lu  Lu6  1  0.509799  0.323203  0.400619  1
  Lu  Lu7  1  0.009058  0.178182  0.098906  1
  Hf  Hf8  1  0.830450  0.327540  0.625210  1
  Hf  Hf9  1  0.325190  0.177723  0.875122  1
  Hf  Hf10  1  0.173781  0.675876  0.126967  1
  Hf  Hf11  1  0.672615  0.825629  0.372643  1
  Hf  Hf12  1  0.173980  0.674614  0.373386  1
  Hf  Hf13  1  0.672171  0.826677  0.127208  1
  Hf  Hf14  1  0.655117  0.001662  0.749718  1
  Zr  Zr15  1  0.830454  0.327144  0.875763  1
  Zr  Zr16  1  0.326326  0.176939  0.624033  1
  Si  Si17  1  0.661532  0.032019  0.538569  1
  Si  Si18  1  0.160434  0.468358  0.960388  1
  Si  Si19  1  0.340586  0.969974  0.043144  1
  Si  Si20  1  0.839320  0.532798  0.457465  1
  Si  Si21  1  0.341816  0.969888  0.455349  1
  Si  Si22  1  0.839971  0.532864  0.044147  1
  Si  Si23  1  0.657524  0.030295  0.960378  1
  Si  Si24  1  0.157508  0.469504  0.540887  1
  Si  Si25  1  0.525772  0.389808  0.749800  1
  Si  Si26  1  0.030723  0.113484  0.750119  1
  Si  Si27  1  0.474812  0.609145  0.249853  1
  Si  Si28  1  0.974175  0.889342  0.250219  1
  Si  Si29  1  0.790020  0.632748  0.749796  1
  Si  Si30  1  0.281543  0.860096  0.750350  1
  Si  Si31  1  0.211429  0.363966  0.250164  1
  Si  Si32  1  0.712148  0.136216  0.249825  1
  Mo  Mo33  1  0.154439  0.492618  0.750052  1
  Mo  Mo34  1  0.345167  0.991608  0.249719  1
  Mo  Mo35  1  0.846510  0.507711  0.250253  1
