# generated using pymatgen
data_Tb2MnNi5As4
_symmetry_space_group_name_H-M   'P 1'
_cell_length_a   3.91640200
_cell_length_b   10.94378100
_cell_length_c   12.86852300
_cell_angle_alpha   90.00000000
_cell_angle_beta   90.00000000
_cell_angle_gamma   90.00000000
_symmetry_Int_Tables_number   1
_chemical_formula_structural   Tb2MnNi5As4
_chemical_formula_sum   'Tb6 Mn3 Ni15 As12'
_cell_volume   551.54805881
_cell_formula_units_Z   3
loop_
 _symmetry_equiv_pos_site_id
 _symmetry_equiv_pos_as_xyz
  1  'x, y, z'
loop_
 _atom_site_type_symbol
 _atom_site_label
 _atom_site_symmetry_multiplicity
 _atom_site_fract_x
 _atom_site_fract_y
 _atom_site_fract_z
 _atom_site_occupancy
  Tb  Tb0  1  0.000000  0.500000  0.522578  1
  Tb  Tb1  1  0.500000  0.000000  0.476069  1
  Tb  Tb2  1  0.500000  0.819522  0.207291  1
  Tb  Tb3  1  0.500000  0.180478  0.207291  1
  Tb  Tb4  1  0.000000  0.682838  0.792799  1
  Tb  Tb5  1  0.000000  0.317162  0.792799  1
  Mn  Mn6  1  0.500000  0.500000  0.151024  1
  Mn  Mn7  1  0.000000  0.000000  0.848102  1
  Mn  Mn8  1  0.000000  0.500000  0.988048  1
  Ni  Ni9  1  0.500000  0.500000  0.698232  1
  Ni  Ni10  1  0.000000  0.000000  0.300252  1
  Ni  Ni11  1  0.500000  0.000000  0.016748  1
  Ni  Ni12  1  0.500000  0.334451  0.994300  1
  Ni  Ni13  1  0.500000  0.665549  0.994300  1
  Ni  Ni14  1  0.000000  0.167348  0.003855  1
  Ni  Ni15  1  0.000000  0.832652  0.003855  1
  Ni  Ni16  1  0.500000  0.302560  0.427007  1
  Ni  Ni17  1  0.500000  0.697440  0.427007  1
  Ni  Ni18  1  0.000000  0.197595  0.573342  1
  Ni  Ni19  1  0.000000  0.802405  0.573342  1
  Ni  Ni20  1  0.500000  0.880229  0.706819  1
  Ni  Ni21  1  0.500000  0.119771  0.706819  1
  Ni  Ni22  1  0.000000  0.619715  0.293405  1
  Ni  Ni23  1  0.000000  0.380285  0.293405  1
  As  As24  1  0.500000  0.500000  0.875182  1
  As  As25  1  0.000000  0.000000  0.121970  1
  As  As26  1  0.500000  0.500000  0.347402  1
  As  As27  1  0.000000  0.000000  0.652235  1
  As  As28  1  0.500000  0.313362  0.613147  1
  As  As29  1  0.500000  0.686638  0.613147  1
  As  As30  1  0.000000  0.186202  0.386698  1
  As  As31  1  0.000000  0.813798  0.386698  1
  As  As32  1  0.500000  0.844962  0.890425  1
  As  As33  1  0.500000  0.155038  0.890425  1
  As  As34  1  0.000000  0.658182  0.111988  1
  As  As35  1  0.000000  0.341818  0.111988  1
