# generated using pymatgen
data_DyLu7(InIr)2
_symmetry_space_group_name_H-M   'P 1'
_cell_length_a   9.50720278
_cell_length_b   9.50720275
_cell_length_c   9.50155000
_cell_angle_alpha   60.01966646
_cell_angle_beta   60.01966654
_cell_angle_gamma   59.96066469
_symmetry_Int_Tables_number   1
_chemical_formula_structural   DyLu7(InIr)2
_chemical_formula_sum   'Dy2 Lu14 In4 Ir4'
_cell_volume   607.27395947
_cell_formula_units_Z   2
loop_
 _symmetry_equiv_pos_site_id
 _symmetry_equiv_pos_as_xyz
  1  'x, y, z'
loop_
 _atom_site_type_symbol
 _atom_site_label
 _atom_site_symmetry_multiplicity
 _atom_site_fract_x
 _atom_site_fract_y
 _atom_site_fract_z
 _atom_site_occupancy
  Dy  Dy0  1  0.811963  0.811963  0.188037  1
  Dy  Dy1  1  0.188037  0.188037  0.811963  1
  Lu  Lu2  1  0.599201  0.599201  0.598489  1
  Lu  Lu3  1  0.599201  0.599201  0.203108  1
  Lu  Lu4  1  0.598489  0.203108  0.599201  1
  Lu  Lu5  1  0.203108  0.598489  0.599201  1
  Lu  Lu6  1  0.059921  0.440079  0.440079  1
  Lu  Lu7  1  0.440079  0.059921  0.059921  1
  Lu  Lu8  1  0.440079  0.059921  0.440079  1
  Lu  Lu9  1  0.059921  0.440079  0.059921  1
  Lu  Lu10  1  0.440533  0.440533  0.059467  1
  Lu  Lu11  1  0.059467  0.059467  0.440533  1
  Lu  Lu12  1  0.190956  0.809044  0.809044  1
  Lu  Lu13  1  0.809044  0.190956  0.190956  1
  Lu  Lu14  1  0.809044  0.190956  0.809044  1
  Lu  Lu15  1  0.190956  0.809044  0.190956  1
  In  In16  1  0.833980  0.833980  0.832657  1
  In  In17  1  0.833980  0.833980  0.499384  1
  In  In18  1  0.832657  0.499384  0.833980  1
  In  In19  1  0.499384  0.832657  0.833980  1
  Ir  Ir20  1  0.391826  0.391826  0.390207  1
  Ir  Ir21  1  0.391826  0.391826  0.826141  1
  Ir  Ir22  1  0.390207  0.826141  0.391826  1
  Ir  Ir23  1  0.826141  0.390207  0.391826  1
