# generated using pymatgen
data_Ho10In8IrPt2Rh
_symmetry_space_group_name_H-M   'P 1'
_cell_length_a   3.61391100
_cell_length_b   8.11634788
_cell_length_c   18.23276010
_cell_angle_alpha   90.03884782
_cell_angle_beta   90.00000000
_cell_angle_gamma   90.00000000
_symmetry_Int_Tables_number   1
_chemical_formula_structural   Ho10In8IrPt2Rh
_chemical_formula_sum   'Ho10 In8 Ir1 Pt2 Rh1'
_cell_volume   534.79880031
_cell_formula_units_Z   1
loop_
 _symmetry_equiv_pos_site_id
 _symmetry_equiv_pos_as_xyz
  1  'x, y, z'
loop_
 _atom_site_type_symbol
 _atom_site_label
 _atom_site_symmetry_multiplicity
 _atom_site_fract_x
 _atom_site_fract_y
 _atom_site_fract_z
 _atom_site_occupancy
  Ho  Ho0  1  0.000000  0.115423  0.412223  1
  Ho  Ho1  1  0.000000  0.884865  0.587878  1
  Ho  Ho2  1  0.000000  0.383466  0.914041  1
  Ho  Ho3  1  0.000000  0.616723  0.086080  1
  Ho  Ho4  1  0.000000  0.236480  0.221999  1
  Ho  Ho5  1  0.000000  0.761258  0.778591  1
  Ho  Ho6  1  0.000000  0.250471  0.720333  1
  Ho  Ho7  1  0.000000  0.751118  0.279699  1
  Ho  Ho8  1  0.000000  0.000092  0.000196  1
  Ho  Ho9  1  0.000000  0.500226  0.499762  1
  In  In10  1  0.500000  0.423881  0.351137  1
  In  In11  1  0.500000  0.576723  0.648761  1
  In  In12  1  0.500000  0.073536  0.850282  1
  In  In13  1  0.500000  0.926235  0.149226  1
  In  In14  1  0.500000  0.292006  0.066434  1
  In  In15  1  0.500000  0.708116  0.933440  1
  In  In16  1  0.500000  0.206757  0.567986  1
  In  In17  1  0.500000  0.793613  0.432588  1
  Ir  Ir18  1  0.500000  0.021397  0.303975  1
  Pt  Pt19  1  0.500000  0.477364  0.803353  1
  Pt  Pt20  1  0.500000  0.522623  0.196535  1
  Rh  Rh21  1  0.500000  0.977628  0.695480  1
