# generated using pymatgen
data_K6SbBrO5
_symmetry_space_group_name_H-M   'P 1'
_cell_length_a   7.84744189
_cell_length_b   7.84744225
_cell_length_c   7.84744200
_cell_angle_alpha   60.00000105
_cell_angle_beta   59.99999954
_cell_angle_gamma   60.00000364
_symmetry_Int_Tables_number   1
_chemical_formula_structural   K6SbBrO5
_chemical_formula_sum   'K6 Sb1 Br1 O5'
_cell_volume   341.71918930
_cell_formula_units_Z   1
loop_
 _symmetry_equiv_pos_site_id
 _symmetry_equiv_pos_as_xyz
  1  'x, y, z'
loop_
 _atom_site_type_symbol
 _atom_site_label
 _atom_site_symmetry_multiplicity
 _atom_site_fract_x
 _atom_site_fract_y
 _atom_site_fract_z
 _atom_site_occupancy
  K  K0  1  0.486364  0.486364  0.013636  1
  K  K1  1  0.486365  0.013635  0.013635  1
  K  K2  1  0.013635  0.486365  0.013635  1
  K  K3  1  0.486364  0.013636  0.486364  1
  K  K4  1  0.013635  0.013635  0.486365  1
  K  K5  1  0.013636  0.486364  0.486364  1
  Sb  Sb6  1  0.500000  0.500000  0.500000  1
  Br  Br7  1  0.000000  0.000000  0.000000  1
  O  O8  1  0.599744  0.599744  0.200767  1
  O  O9  1  0.250000  0.250000  0.250000  1
  O  O10  1  0.599744  0.200767  0.599744  1
  O  O11  1  0.200767  0.599744  0.599744  1
  O  O12  1  0.599744  0.599744  0.599744  1
