# generated using pymatgen
data_Zr6NbCo17P12
_symmetry_space_group_name_H-M   'P 1'
_cell_length_a   3.63268500
_cell_length_b   10.35755800
_cell_length_c   12.01461500
_cell_angle_alpha   90.00000000
_cell_angle_beta   90.00000000
_cell_angle_gamma   90.00000000
_symmetry_Int_Tables_number   1
_chemical_formula_structural   Zr6NbCo17P12
_chemical_formula_sum   'Zr6 Nb1 Co17 P12'
_cell_volume   452.05884727
_cell_formula_units_Z   1
loop_
 _symmetry_equiv_pos_site_id
 _symmetry_equiv_pos_as_xyz
  1  'x, y, z'
loop_
 _atom_site_type_symbol
 _atom_site_label
 _atom_site_symmetry_multiplicity
 _atom_site_fract_x
 _atom_site_fract_y
 _atom_site_fract_z
 _atom_site_occupancy
  Zr  Zr0  1  0.000000  0.500000  0.532303  1
  Zr  Zr1  1  0.500000  0.000000  0.473872  1
  Zr  Zr2  1  0.500000  0.822258  0.208598  1
  Zr  Zr3  1  0.500000  0.177742  0.208598  1
  Zr  Zr4  1  0.000000  0.679189  0.793931  1
  Zr  Zr5  1  0.000000  0.320811  0.793931  1
  Nb  Nb6  1  0.500000  0.500000  0.159329  1
  Co  Co7  1  0.000000  0.500000  0.986463  1
  Co  Co8  1  0.500000  0.000000  0.014222  1
  Co  Co9  1  0.500000  0.297823  0.434629  1
  Co  Co10  1  0.500000  0.702177  0.434629  1
  Co  Co11  1  0.000000  0.200299  0.567400  1
  Co  Co12  1  0.000000  0.799701  0.567400  1
  Co  Co13  1  0.500000  0.876470  0.706263  1
  Co  Co14  1  0.500000  0.123530  0.706263  1
  Co  Co15  1  0.000000  0.625264  0.295844  1
  Co  Co16  1  0.000000  0.374736  0.295844  1
  Co  Co17  1  0.500000  0.329707  0.989025  1
  Co  Co18  1  0.500000  0.670293  0.989025  1
  Co  Co19  1  0.000000  0.164173  0.003288  1
  Co  Co20  1  0.000000  0.835827  0.003288  1
  Co  Co21  1  0.000000  0.000000  0.833182  1
  Co  Co22  1  0.500000  0.500000  0.702735  1
  Co  Co23  1  0.000000  0.000000  0.296696  1
  P  P24  1  0.500000  0.315331  0.618732  1
  P  P25  1  0.500000  0.684669  0.618732  1
  P  P26  1  0.000000  0.182212  0.383828  1
  P  P27  1  0.000000  0.817788  0.383828  1
  P  P28  1  0.500000  0.500000  0.878796  1
  P  P29  1  0.000000  0.000000  0.120029  1
  P  P30  1  0.500000  0.849451  0.886796  1
  P  P31  1  0.500000  0.150549  0.886796  1
  P  P32  1  0.000000  0.665180  0.107170  1
  P  P33  1  0.000000  0.334820  0.107170  1
  P  P34  1  0.500000  0.500000  0.363716  1
  P  P35  1  0.000000  0.000000  0.647654  1
