# generated using pymatgen
data_Er20Cd3In3Co2
_symmetry_space_group_name_H-M   'P 1'
_cell_length_a   9.54098100
_cell_length_b   9.54098082
_cell_length_c   9.66172200
_cell_angle_alpha   90.00000000
_cell_angle_beta   90.00000000
_cell_angle_gamma   119.99999717
_symmetry_Int_Tables_number   1
_chemical_formula_structural   Er20Cd3In3Co2
_chemical_formula_sum   'Er20 Cd3 In3 Co2'
_cell_volume   761.67768986
_cell_formula_units_Z   1
loop_
 _symmetry_equiv_pos_site_id
 _symmetry_equiv_pos_as_xyz
  1  'x, y, z'
loop_
 _atom_site_type_symbol
 _atom_site_label
 _atom_site_symmetry_multiplicity
 _atom_site_fract_x
 _atom_site_fract_y
 _atom_site_fract_z
 _atom_site_occupancy
  Er  Er0  1  0.000000  0.000000  0.504236  1
  Er  Er1  1  0.000000  0.000000  0.995764  1
  Er  Er2  1  0.541620  0.458380  0.250000  1
  Er  Er3  1  0.541620  0.083241  0.250000  1
  Er  Er4  1  0.916759  0.458380  0.250000  1
  Er  Er5  1  0.457538  0.542462  0.750000  1
  Er  Er6  1  0.457538  0.915076  0.750000  1
  Er  Er7  1  0.084924  0.542462  0.750000  1
  Er  Er8  1  0.211891  0.788109  0.436652  1
  Er  Er9  1  0.211891  0.423782  0.436652  1
  Er  Er10  1  0.576218  0.788109  0.436652  1
  Er  Er11  1  0.787948  0.212052  0.563878  1
  Er  Er12  1  0.787948  0.575897  0.563878  1
  Er  Er13  1  0.424103  0.212052  0.563878  1
  Er  Er14  1  0.787948  0.212052  0.936122  1
  Er  Er15  1  0.787948  0.575897  0.936122  1
  Er  Er16  1  0.424103  0.212052  0.936122  1
  Er  Er17  1  0.211891  0.788109  0.063348  1
  Er  Er18  1  0.211891  0.423782  0.063348  1
  Er  Er19  1  0.576218  0.788109  0.063348  1
  Cd  Cd20  1  0.115019  0.884981  0.750000  1
  Cd  Cd21  1  0.115019  0.230036  0.750000  1
  Cd  Cd22  1  0.769964  0.884981  0.750000  1
  In  In23  1  0.884784  0.115216  0.250000  1
  In  In24  1  0.884784  0.769568  0.250000  1
  In  In25  1  0.230432  0.115216  0.250000  1
  Co  Co26  1  0.333333  0.666667  0.250000  1
  Co  Co27  1  0.666667  0.333333  0.750000  1
