# generated using pymatgen
data_Gd2NiSnRh
_symmetry_space_group_name_H-M   'P 1'
_cell_length_a   5.56555526
_cell_length_b   5.56573110
_cell_length_c   5.56557438
_cell_angle_alpha   133.53947098
_cell_angle_beta   117.80049938
_cell_angle_gamma   81.07079414
_symmetry_Int_Tables_number   1
_chemical_formula_structural   Gd2NiSnRh
_chemical_formula_sum   'Gd2 Ni1 Sn1 Rh1'
_cell_volume   106.77735527
_cell_formula_units_Z   1
loop_
 _symmetry_equiv_pos_site_id
 _symmetry_equiv_pos_as_xyz
  1  'x, y, z'
loop_
 _atom_site_type_symbol
 _atom_site_label
 _atom_site_symmetry_multiplicity
 _atom_site_fract_x
 _atom_site_fract_y
 _atom_site_fract_z
 _atom_site_occupancy
  Gd  Gd0  1  0.297877  0.795410  0.502457  1
  Gd  Gd1  1  0.707068  0.204604  0.502499  1
  Ni  Ni2  1  0.272802  0.500047  0.772848  1
  Sn  Sn3  1  0.010042  0.000011  0.010029  1
  Rh  Rh4  1  0.712210  0.499928  0.212167  1
