# generated using pymatgen
data_Tm3Mn4Co5P6
_symmetry_space_group_name_H-M   'P 1'
_cell_length_a   3.69739100
_cell_length_b   10.42740100
_cell_length_c   12.31195800
_cell_angle_alpha   90.00000000
_cell_angle_beta   90.00000000
_cell_angle_gamma   90.00000000
_symmetry_Int_Tables_number   1
_chemical_formula_structural   Tm3Mn4Co5P6
_chemical_formula_sum   'Tm6 Mn8 Co10 P12'
_cell_volume   474.67742778
_cell_formula_units_Z   2
loop_
 _symmetry_equiv_pos_site_id
 _symmetry_equiv_pos_as_xyz
  1  'x, y, z'
loop_
 _atom_site_type_symbol
 _atom_site_label
 _atom_site_symmetry_multiplicity
 _atom_site_fract_x
 _atom_site_fract_y
 _atom_site_fract_z
 _atom_site_occupancy
  Tm  Tm0  1  0.000000  0.500000  0.523541  1
  Tm  Tm1  1  0.500000  0.000000  0.476459  1
  Tm  Tm2  1  0.500000  0.819972  0.209665  1
  Tm  Tm3  1  0.500000  0.180028  0.209665  1
  Tm  Tm4  1  0.000000  0.680028  0.790335  1
  Tm  Tm5  1  0.000000  0.319972  0.790335  1
  Mn  Mn6  1  0.500000  0.500000  0.162483  1
  Mn  Mn7  1  0.000000  0.000000  0.837517  1
  Mn  Mn8  1  0.000000  0.500000  0.989271  1
  Mn  Mn9  1  0.500000  0.000000  0.010729  1
  Mn  Mn10  1  0.500000  0.330529  0.995848  1
  Mn  Mn11  1  0.500000  0.669471  0.995848  1
  Mn  Mn12  1  0.000000  0.169471  0.004152  1
  Mn  Mn13  1  0.000000  0.830529  0.004152  1
  Co  Co14  1  0.500000  0.500000  0.697371  1
  Co  Co15  1  0.000000  0.000000  0.302629  1
  Co  Co16  1  0.500000  0.296385  0.432148  1
  Co  Co17  1  0.500000  0.703615  0.432148  1
  Co  Co18  1  0.000000  0.203615  0.567852  1
  Co  Co19  1  0.000000  0.796385  0.567852  1
  Co  Co20  1  0.500000  0.879271  0.703025  1
  Co  Co21  1  0.500000  0.120729  0.703025  1
  Co  Co22  1  0.000000  0.620729  0.296975  1
  Co  Co23  1  0.000000  0.379271  0.296975  1
  P  P24  1  0.500000  0.500000  0.875939  1
  P  P25  1  0.000000  0.000000  0.124061  1
  P  P26  1  0.500000  0.500000  0.347343  1
  P  P27  1  0.000000  0.000000  0.652657  1
  P  P28  1  0.500000  0.311972  0.614527  1
  P  P29  1  0.500000  0.688028  0.614527  1
  P  P30  1  0.000000  0.188028  0.385473  1
  P  P31  1  0.000000  0.811972  0.385473  1
  P  P32  1  0.500000  0.849189  0.882231  1
  P  P33  1  0.500000  0.150811  0.882231  1
  P  P34  1  0.000000  0.650811  0.117769  1
  P  P35  1  0.000000  0.349189  0.117769  1
