# generated using pymatgen
data_PrGaPIr3
_symmetry_space_group_name_H-M   'P 1'
_cell_length_a   6.78455698
_cell_length_b   6.76547833
_cell_length_c   6.78455641
_cell_angle_alpha   130.71538881
_cell_angle_beta   113.24735507
_cell_angle_gamma   87.40381410
_symmetry_Int_Tables_number   1
_chemical_formula_structural   PrGaPIr3
_chemical_formula_sum   'Pr2 Ga2 P2 Ir6'
_cell_volume   206.56687443
_cell_formula_units_Z   2
loop_
 _symmetry_equiv_pos_site_id
 _symmetry_equiv_pos_as_xyz
  1  'x, y, z'
loop_
 _atom_site_type_symbol
 _atom_site_label
 _atom_site_symmetry_multiplicity
 _atom_site_fract_x
 _atom_site_fract_y
 _atom_site_fract_z
 _atom_site_occupancy
  Pr  Pr0  1  0.250182  0.987520  0.737339  1
  Pr  Pr1  1  0.749818  0.012480  0.262661  1
  Ga  Ga2  1  0.067449  0.298588  0.231139  1
  Ga  Ga3  1  0.932551  0.701412  0.768861  1
  P  P4  1  0.400662  0.635300  0.234639  1
  P  P5  1  0.599338  0.364700  0.765361  1
  Ir  Ir6  1  0.500000  0.500000  0.500000  1
  Ir  Ir7  1  0.000000  0.500000  0.000000  1
  Ir  Ir8  1  0.291153  0.000000  0.291153  1
  Ir  Ir9  1  0.708847  0.000000  0.708847  1
  Ir  Ir10  1  0.271383  0.500000  0.771383  1
  Ir  Ir11  1  0.728617  0.500000  0.228617  1
