# generated using pymatgen
data_Pr6P13PtRh19
_symmetry_space_group_name_H-M   'P 1'
_cell_length_a   13.49050200
_cell_length_b   13.49050075
_cell_length_c   4.00011300
_cell_angle_alpha   90.00000000
_cell_angle_beta   90.00000000
_cell_angle_gamma   120.00000306
_symmetry_Int_Tables_number   1
_chemical_formula_structural   Pr6P13PtRh19
_chemical_formula_sum   'Pr6 P13 Pt1 Rh19'
_cell_volume   630.46220911
_cell_formula_units_Z   1
loop_
 _symmetry_equiv_pos_site_id
 _symmetry_equiv_pos_as_xyz
  1  'x, y, z'
loop_
 _atom_site_type_symbol
 _atom_site_label
 _atom_site_symmetry_multiplicity
 _atom_site_fract_x
 _atom_site_fract_y
 _atom_site_fract_z
 _atom_site_occupancy
  Pr  Pr0  1  0.531856  0.718475  0.247373  1
  Pr  Pr1  1  0.281525  0.813381  0.247373  1
  Pr  Pr2  1  0.186619  0.468144  0.247373  1
  Pr  Pr3  1  0.470066  0.282259  0.752741  1
  Pr  Pr4  1  0.717741  0.187809  0.752741  1
  Pr  Pr5  1  0.812191  0.529934  0.752741  1
  P  P6  1  0.521816  0.135654  0.250962  1
  P  P7  1  0.864346  0.386163  0.250962  1
  P  P8  1  0.613837  0.478184  0.250962  1
  P  P9  1  0.947892  0.719541  0.255727  1
  P  P10  1  0.280459  0.228350  0.255727  1
  P  P11  1  0.771650  0.052108  0.255727  1
  P  P12  1  0.387520  0.520640  0.749617  1
  P  P13  1  0.479360  0.866878  0.749617  1
  P  P14  1  0.133122  0.612480  0.749617  1
  P  P15  1  0.720119  0.771799  0.744822  1
  P  P16  1  0.228201  0.948320  0.744822  1
  P  P17  1  0.051680  0.279881  0.744822  1
  P  P18  1  0.000000  0.000000  0.994185  1
  Pt  Pt19  1  0.333333  0.666667  0.749484  1
  Rh  Rh20  1  0.923722  0.248945  0.256350  1
  Rh  Rh21  1  0.751055  0.674777  0.256350  1
  Rh  Rh22  1  0.325223  0.076278  0.256350  1
  Rh  Rh23  1  0.437915  0.023544  0.752430  1
  Rh  Rh24  1  0.976456  0.414370  0.752430  1
  Rh  Rh25  1  0.585630  0.562085  0.752430  1
  Rh  Rh26  1  0.666667  0.333333  0.248762  1
  Rh  Rh27  1  0.092169  0.183870  0.246108  1
  Rh  Rh28  1  0.816130  0.908299  0.246108  1
  Rh  Rh29  1  0.091701  0.907831  0.246108  1
  Rh  Rh30  1  0.023054  0.585006  0.248355  1
  Rh  Rh31  1  0.414994  0.438047  0.248355  1
  Rh  Rh32  1  0.561953  0.976946  0.248355  1
  Rh  Rh33  1  0.674601  0.923367  0.743558  1
  Rh  Rh34  1  0.076633  0.751233  0.743558  1
  Rh  Rh35  1  0.248767  0.325399  0.743558  1
  Rh  Rh36  1  0.907314  0.814718  0.754479  1
  Rh  Rh37  1  0.185282  0.092597  0.754479  1
  Rh  Rh38  1  0.907403  0.092686  0.754479  1
