# generated using pymatgen
data_Ce2Pr3Sn3Br
_symmetry_space_group_name_H-M   'P 1'
_cell_length_a   9.64931200
_cell_length_b   9.64931172
_cell_length_c   6.69535100
_cell_angle_alpha   90.00000000
_cell_angle_beta   90.00000000
_cell_angle_gamma   120.00000095
_symmetry_Int_Tables_number   1
_chemical_formula_structural   Ce2Pr3Sn3Br
_chemical_formula_sum   'Ce4 Pr6 Sn6 Br2'
_cell_volume   539.87928337
_cell_formula_units_Z   2
loop_
 _symmetry_equiv_pos_site_id
 _symmetry_equiv_pos_as_xyz
  1  'x, y, z'
loop_
 _atom_site_type_symbol
 _atom_site_label
 _atom_site_symmetry_multiplicity
 _atom_site_fract_x
 _atom_site_fract_y
 _atom_site_fract_z
 _atom_site_occupancy
  Ce  Ce0  1  0.333333  0.666667  0.500000  1
  Ce  Ce1  1  0.666667  0.333333  0.500000  1
  Ce  Ce2  1  0.333333  0.666667  0.000000  1
  Ce  Ce3  1  0.666667  0.333333  0.000000  1
  Pr  Pr4  1  0.271373  0.271373  0.750000  1
  Pr  Pr5  1  0.000000  0.728627  0.750000  1
  Pr  Pr6  1  0.728627  0.000000  0.750000  1
  Pr  Pr7  1  0.000000  0.271373  0.250000  1
  Pr  Pr8  1  0.728627  0.728627  0.250000  1
  Pr  Pr9  1  0.271373  0.000000  0.250000  1
  Sn  Sn10  1  0.612463  0.000000  0.250000  1
  Sn  Sn11  1  0.000000  0.387537  0.750000  1
  Sn  Sn12  1  0.387537  0.000000  0.750000  1
  Sn  Sn13  1  0.612463  0.612463  0.750000  1
  Sn  Sn14  1  0.000000  0.612463  0.250000  1
  Sn  Sn15  1  0.387537  0.387537  0.250000  1
  Br  Br16  1  0.000000  0.000000  0.000000  1
  Br  Br17  1  0.000000  0.000000  0.500000  1
