# generated using pymatgen
data_Li3Dy2PaPt3
_symmetry_space_group_name_H-M   'P 1'
_cell_length_a   7.25428500
_cell_length_b   7.11159082
_cell_length_c   4.01825300
_cell_angle_alpha   90.00000000
_cell_angle_beta   90.00000000
_cell_angle_gamma   120.66599978
_symmetry_Int_Tables_number   1
_chemical_formula_structural   Li3Dy2PaPt3
_chemical_formula_sum   'Li3 Dy2 Pa1 Pt3'
_cell_volume   178.30988204
_cell_formula_units_Z   1
loop_
 _symmetry_equiv_pos_site_id
 _symmetry_equiv_pos_as_xyz
  1  'x, y, z'
loop_
 _atom_site_type_symbol
 _atom_site_label
 _atom_site_symmetry_multiplicity
 _atom_site_fract_x
 _atom_site_fract_y
 _atom_site_fract_z
 _atom_site_occupancy
  Li  Li0  1  0.761431  0.756513  0.000000  1
  Li  Li1  1  0.004919  0.243487  0.000000  1
  Li  Li2  1  0.226937  0.000000  0.000000  1
  Dy  Dy3  1  0.407205  0.400924  0.500000  1
  Dy  Dy4  1  0.006281  0.599076  0.500000  1
  Pa  Pa5  1  0.589169  0.000000  0.500000  1
  Pt  Pt6  1  0.351404  0.682371  0.000000  1
  Pt  Pt7  1  0.669034  0.317629  0.000000  1
  Pt  Pt8  1  0.983622  0.000000  0.500000  1
