# generated using pymatgen
data_Hf4Zr6Sn6Cl
_symmetry_space_group_name_H-M   'P 1'
_cell_length_a   5.81877107
_cell_length_b   8.57300937
_cell_length_c   8.57223002
_cell_angle_alpha   120.00301014
_cell_angle_beta   90.00991498
_cell_angle_gamma   89.98017589
_symmetry_Int_Tables_number   1
_chemical_formula_structural   Hf4Zr6Sn6Cl
_chemical_formula_sum   'Hf4 Zr6 Sn6 Cl1'
_cell_volume   370.31884802
_cell_formula_units_Z   1
loop_
 _symmetry_equiv_pos_site_id
 _symmetry_equiv_pos_as_xyz
  1  'x, y, z'
loop_
 _atom_site_type_symbol
 _atom_site_label
 _atom_site_symmetry_multiplicity
 _atom_site_fract_x
 _atom_site_fract_y
 _atom_site_fract_z
 _atom_site_occupancy
  Hf  Hf0  1  0.499999  0.333296  0.666589  1
  Hf  Hf1  1  0.499999  0.666706  0.333411  1
  Hf  Hf2  1  0.000001  0.666604  0.333208  1
  Hf  Hf3  1  0.000001  0.333396  0.666792  1
  Zr  Zr4  1  0.762581  0.256363  0.000000  1
  Zr  Zr5  1  0.762332  0.743717  0.743676  1
  Zr  Zr6  1  0.762332  0.000040  0.256324  1
  Zr  Zr7  1  0.237418  0.743631  0.000000  1
  Zr  Zr8  1  0.237670  0.256286  0.256328  1
  Zr  Zr9  1  0.237670  0.999959  0.743672  1
  Sn  Sn10  1  0.748195  0.607653  0.000000  1
  Sn  Sn11  1  0.748434  0.392452  0.392434  1
  Sn  Sn12  1  0.748434  0.000018  0.607566  1
  Sn  Sn13  1  0.251804  0.392346  0.000000  1
  Sn  Sn14  1  0.251569  0.607551  0.607566  1
  Sn  Sn15  1  0.251569  0.999985  0.392434  1
  Cl  Cl16  1  0.499994  0.999999  0.000000  1
