# generated using pymatgen
data_Tb2Nd3P12Ru17Rh2
_symmetry_space_group_name_H-M   'P 1'
_cell_length_a   4.01036300
_cell_length_b   12.58039069
_cell_length_c   12.58021100
_cell_angle_alpha   119.70942810
_cell_angle_beta   90.00000000
_cell_angle_gamma   90.00000000
_symmetry_Int_Tables_number   1
_chemical_formula_structural   Tb2Nd3P12Ru17Rh2
_chemical_formula_sum   'Tb2 Nd3 P12 Ru17 Rh2'
_cell_volume   551.26516576
_cell_formula_units_Z   1
loop_
 _symmetry_equiv_pos_site_id
 _symmetry_equiv_pos_as_xyz
  1  'x, y, z'
loop_
 _atom_site_type_symbol
 _atom_site_label
 _atom_site_symmetry_multiplicity
 _atom_site_fract_x
 _atom_site_fract_y
 _atom_site_fract_z
 _atom_site_occupancy
  Tb  Tb0  1  0.000000  0.334285  0.665474  1
  Tb  Tb1  1  0.000000  0.665466  0.334282  1
  Nd  Nd2  1  0.500000  0.999464  0.183517  1
  Nd  Nd3  1  0.500000  0.183516  0.999466  1
  Nd  Nd4  1  0.500000  0.815650  0.815654  1
  P  P5  1  0.000000  0.000598  0.811196  1
  P  P6  1  0.000000  0.811194  0.000602  1
  P  P7  1  0.000000  0.186967  0.186965  1
  P  P8  1  0.500000  0.305427  0.477858  1
  P  P9  1  0.500000  0.178139  0.697626  1
  P  P10  1  0.500000  0.522182  0.823971  1
  P  P11  1  0.500000  0.823965  0.522182  1
  P  P12  1  0.500000  0.477851  0.305431  1
  P  P13  1  0.500000  0.697620  0.178144  1
  P  P14  1  0.000000  0.999653  0.371773  1
  P  P15  1  0.000000  0.371771  0.999653  1
  P  P16  1  0.000000  0.624888  0.624892  1
  Ru  Ru17  1  0.000000  0.445230  0.445229  1
  Ru  Ru18  1  0.500000  0.001125  0.712387  1
  Ru  Ru19  1  0.500000  0.712383  0.001129  1
  Ru  Ru20  1  0.500000  0.285254  0.285250  1
  Ru  Ru21  1  0.000000  0.193981  0.379781  1
  Ru  Ru22  1  0.000000  0.186673  0.804813  1
  Ru  Ru23  1  0.000000  0.620597  0.814780  1
  Ru  Ru24  1  0.000000  0.814775  0.620597  1
  Ru  Ru25  1  0.000000  0.379773  0.193975  1
  Ru  Ru26  1  0.000000  0.804816  0.186680  1
  Ru  Ru27  1  0.500000  0.126398  0.493810  1
  Ru  Ru28  1  0.500000  0.369542  0.875978  1
  Ru  Ru29  1  0.500000  0.506993  0.631850  1
  Ru  Ru30  1  0.500000  0.631850  0.506999  1
  Ru  Ru31  1  0.500000  0.493815  0.126409  1
  Ru  Ru32  1  0.500000  0.875976  0.369545  1
  Ru  Ru33  1  0.000000  0.998784  0.998798  1
  Rh  Rh34  1  0.000000  0.000450  0.552846  1
  Rh  Rh35  1  0.000000  0.552848  0.000462  1
