# generated using pymatgen
data_Cs3Dy(PSe4)2
_symmetry_space_group_name_H-M   'P 1'
_cell_length_a   16.31116799
_cell_length_b   7.32499600
_cell_length_c   16.40629000
_cell_angle_alpha   90.00000000
_cell_angle_beta   99.64320936
_cell_angle_gamma   90.00000000
_symmetry_Int_Tables_number   1
_chemical_formula_structural   Cs3Dy(PSe4)2
_chemical_formula_sum   'Cs12 Dy4 P8 Se32'
_cell_volume   1932.51326031
_cell_formula_units_Z   4
loop_
 _symmetry_equiv_pos_site_id
 _symmetry_equiv_pos_as_xyz
  1  'x, y, z'
loop_
 _atom_site_type_symbol
 _atom_site_label
 _atom_site_symmetry_multiplicity
 _atom_site_fract_x
 _atom_site_fract_y
 _atom_site_fract_z
 _atom_site_occupancy
  Cs  Cs0  1  0.610457  0.759172  0.021950  1
  Cs  Cs1  1  0.044994  0.244627  0.113572  1
  Cs  Cs2  1  0.276250  0.741078  0.120333  1
  Cs  Cs3  1  0.223750  0.241077  0.379667  1
  Cs  Cs4  1  0.455006  0.744627  0.386428  1
  Cs  Cs5  1  0.889544  0.259172  0.478050  1
  Cs  Cs6  1  0.110457  0.740828  0.521951  1
  Cs  Cs7  1  0.544993  0.255373  0.613571  1
  Cs  Cs8  1  0.776250  0.758922  0.620333  1
  Cs  Cs9  1  0.723750  0.258922  0.879667  1
  Cs  Cs10  1  0.955006  0.755374  0.886429  1
  Cs  Cs11  1  0.389543  0.240829  0.978049  1
  Dy  Dy12  1  0.877061  0.769034  0.230271  1
  Dy  Dy13  1  0.622939  0.269033  0.269729  1
  Dy  Dy14  1  0.377061  0.730967  0.730271  1
  Dy  Dy15  1  0.122939  0.230966  0.769729  1
  P  P16  1  0.782770  0.227566  0.132360  1
  P  P17  1  0.419769  0.243933  0.225993  1
  P  P18  1  0.080231  0.743933  0.274007  1
  P  P19  1  0.717230  0.727565  0.367640  1
  P  P20  1  0.282770  0.272434  0.632359  1
  P  P21  1  0.919769  0.256066  0.725993  1
  P  P22  1  0.580231  0.756067  0.774007  1
  P  P23  1  0.217230  0.772435  0.867640  1
  Se  Se24  1  0.834162  0.985259  0.075106  1
  Se  Se25  1  0.645585  0.256379  0.094119  1
  Se  Se26  1  0.847507  0.477998  0.098276  1
  Se  Se27  1  0.047195  0.747421  0.136909  1
  Se  Se28  1  0.287340  0.238292  0.171665  1
  Se  Se29  1  0.482614  0.494120  0.187144  1
  Se  Se30  1  0.489078  0.005103  0.188119  1
  Se  Se31  1  0.702446  0.649651  0.233924  1
  Se  Se32  1  0.797554  0.149652  0.266076  1
  Se  Se33  1  0.010923  0.505104  0.311881  1
  Se  Se34  1  0.017386  0.994119  0.312855  1
  Se  Se35  1  0.212661  0.738293  0.328336  1
  Se  Se36  1  0.452805  0.247421  0.363091  1
  Se  Se37  1  0.652493  0.977998  0.401724  1
  Se  Se38  1  0.854414  0.756378  0.405882  1
  Se  Se39  1  0.665838  0.485258  0.424893  1
  Se  Se40  1  0.334162  0.514741  0.575106  1
  Se  Se41  1  0.145586  0.243622  0.594119  1
  Se  Se42  1  0.347507  0.022001  0.598276  1
  Se  Se43  1  0.547195  0.752579  0.636909  1
  Se  Se44  1  0.787340  0.261707  0.671664  1
  Se  Se45  1  0.982614  0.005880  0.687144  1
  Se  Se46  1  0.989077  0.494897  0.688119  1
  Se  Se47  1  0.202446  0.850349  0.733924  1
  Se  Se48  1  0.297554  0.350348  0.766077  1
  Se  Se49  1  0.510923  0.994898  0.811881  1
  Se  Se50  1  0.517386  0.505881  0.812856  1
  Se  Se51  1  0.712660  0.761707  0.828336  1
  Se  Se52  1  0.952805  0.252579  0.863091  1
  Se  Se53  1  0.152493  0.522002  0.901725  1
  Se  Se54  1  0.354415  0.743622  0.905881  1
  Se  Se55  1  0.165838  0.014741  0.924893  1
