# generated using pymatgen
data_Y6Er10Cd4Ir3Pd
_symmetry_space_group_name_H-M   'P 1'
_cell_length_a   9.60246602
_cell_length_b   9.60347808
_cell_length_c   9.60240164
_cell_angle_alpha   60.14594543
_cell_angle_beta   60.14251891
_cell_angle_gamma   60.14613139
_symmetry_Int_Tables_number   1
_chemical_formula_structural   Y6Er10Cd4Ir3Pd
_chemical_formula_sum   'Y6 Er10 Cd4 Ir3 Pd1'
_cell_volume   628.20151194
_cell_formula_units_Z   1
loop_
 _symmetry_equiv_pos_site_id
 _symmetry_equiv_pos_as_xyz
  1  'x, y, z'
loop_
 _atom_site_type_symbol
 _atom_site_label
 _atom_site_symmetry_multiplicity
 _atom_site_fract_x
 _atom_site_fract_y
 _atom_site_fract_z
 _atom_site_occupancy
  Y  Y0  1  0.939339  0.562167  0.562417  1
  Y  Y1  1  0.563711  0.937965  0.937849  1
  Y  Y2  1  0.562220  0.939301  0.562281  1
  Y  Y3  1  0.937998  0.563474  0.937996  1
  Y  Y4  1  0.562382  0.562196  0.939345  1
  Y  Y5  1  0.937833  0.937955  0.563725  1
  Er  Er6  1  0.347383  0.347230  0.347403  1
  Er  Er7  1  0.353299  0.353402  0.948505  1
  Er  Er8  1  0.353483  0.948325  0.353498  1
  Er  Er9  1  0.948481  0.353407  0.353326  1
  Er  Er10  1  0.804817  0.190399  0.190136  1
  Er  Er11  1  0.187874  0.810807  0.810676  1
  Er  Er12  1  0.190350  0.804770  0.190324  1
  Er  Er13  1  0.810699  0.187946  0.810673  1
  Er  Er14  1  0.190145  0.190376  0.804820  1
  Er  Er15  1  0.810694  0.810799  0.187869  1
  Cd  Cd16  1  0.580244  0.580635  0.580206  1
  Cd  Cd17  1  0.580690  0.580719  0.256917  1
  Cd  Cd18  1  0.580797  0.256725  0.580731  1
  Cd  Cd19  1  0.256940  0.580742  0.580672  1
  Ir  Ir20  1  0.141678  0.141649  0.574168  1
  Ir  Ir21  1  0.141669  0.574219  0.141670  1
  Ir  Ir22  1  0.574170  0.141648  0.141683  1
  Pd  Pd23  1  0.143105  0.143145  0.143112  1
