# generated using pymatgen
data_Tm5Zr3Pt4
_symmetry_space_group_name_H-M   'P 1'
_cell_length_a   4.71108200
_cell_length_b   6.99163282
_cell_length_c   8.34261761
_cell_angle_alpha   89.18284600
_cell_angle_beta   90.00000000
_cell_angle_gamma   90.00000000
_symmetry_Int_Tables_number   1
_chemical_formula_structural   Tm5Zr3Pt4
_chemical_formula_sum   'Tm5 Zr3 Pt4'
_cell_volume   274.76248990
_cell_formula_units_Z   1
loop_
 _symmetry_equiv_pos_site_id
 _symmetry_equiv_pos_as_xyz
  1  'x, y, z'
loop_
 _atom_site_type_symbol
 _atom_site_label
 _atom_site_symmetry_multiplicity
 _atom_site_fract_x
 _atom_site_fract_y
 _atom_site_fract_z
 _atom_site_occupancy
  Tm  Tm0  1  0.750000  0.649317  0.419109  1
  Tm  Tm1  1  0.250000  0.987868  0.325884  1
  Tm  Tm2  1  0.250000  0.481399  0.172029  1
  Tm  Tm3  1  0.750000  0.018636  0.680185  1
  Tm  Tm4  1  0.750000  0.515099  0.821141  1
  Zr  Zr5  1  0.250000  0.854537  0.922823  1
  Zr  Zr6  1  0.250000  0.352288  0.578124  1
  Zr  Zr7  1  0.750000  0.148453  0.080590  1
  Pt  Pt8  1  0.250000  0.236145  0.905098  1
  Pt  Pt9  1  0.250000  0.740198  0.604012  1
  Pt  Pt10  1  0.750000  0.763406  0.085824  1
  Pt  Pt11  1  0.750000  0.252654  0.405181  1
