# generated using pymatgen
data_Pr5Sm3(PBr6)2
_symmetry_space_group_name_H-M   'P 1'
_cell_length_a   4.17623400
_cell_length_b   13.69238977
_cell_length_c   14.39373900
_cell_angle_alpha   90.40185320
_cell_angle_beta   90.00000000
_cell_angle_gamma   90.00000000
_symmetry_Int_Tables_number   1
_chemical_formula_structural   Pr5Sm3(PBr6)2
_chemical_formula_sum   'Pr5 Sm3 P2 Br12'
_cell_volume   823.05151706
_cell_formula_units_Z   1
loop_
 _symmetry_equiv_pos_site_id
 _symmetry_equiv_pos_as_xyz
  1  'x, y, z'
loop_
 _atom_site_type_symbol
 _atom_site_label
 _atom_site_symmetry_multiplicity
 _atom_site_fract_x
 _atom_site_fract_y
 _atom_site_fract_z
 _atom_site_occupancy
  Pr  Pr0  1  0.500000  0.116803  0.343282  1
  Pr  Pr1  1  0.000000  0.117901  0.578358  1
  Pr  Pr2  1  0.000000  0.882666  0.420895  1
  Pr  Pr3  1  0.000000  0.617096  0.921949  1
  Pr  Pr4  1  0.000000  0.383980  0.077209  1
  Sm  Sm5  1  0.500000  0.882579  0.657915  1
  Sm  Sm6  1  0.500000  0.616533  0.156120  1
  Sm  Sm7  1  0.500000  0.384000  0.843585  1
  P  P8  1  0.500000  0.998147  0.502546  1
  P  P9  1  0.500000  0.500687  0.999589  1
  Br  Br10  1  0.500000  0.241901  0.162329  1
  Br  Br11  1  0.500000  0.758989  0.833648  1
  Br  Br12  1  0.500000  0.739861  0.334011  1
  Br  Br13  1  0.500000  0.258784  0.667855  1
  Br  Br14  1  0.000000  0.257419  0.413579  1
  Br  Br15  1  0.000000  0.747841  0.590931  1
  Br  Br16  1  0.000000  0.752126  0.091914  1
  Br  Br17  1  0.000000  0.248357  0.907638  1
  Br  Br18  1  0.000000  0.999184  0.241388  1
  Br  Br19  1  0.000000  0.994820  0.755788  1
  Br  Br20  1  0.000000  0.506361  0.255261  1
  Br  Br21  1  0.000000  0.493963  0.744208  1
