# generated using pymatgen
data_ZrNp(PO5)2
_symmetry_space_group_name_H-M   'P 1'
_cell_length_a   5.73126563
_cell_length_b   5.52028772
_cell_length_c   7.82496200
_cell_angle_alpha   107.15948311
_cell_angle_beta   109.68281512
_cell_angle_gamma   95.52834686
_symmetry_Int_Tables_number   1
_chemical_formula_structural   ZrNp(PO5)2
_chemical_formula_sum   'Zr1 Np1 P2 O10'
_cell_volume   217.39310098
_cell_formula_units_Z   1
loop_
 _symmetry_equiv_pos_site_id
 _symmetry_equiv_pos_as_xyz
  1  'x, y, z'
loop_
 _atom_site_type_symbol
 _atom_site_label
 _atom_site_symmetry_multiplicity
 _atom_site_fract_x
 _atom_site_fract_y
 _atom_site_fract_z
 _atom_site_occupancy
  Zr  Zr0  1  0.000000  0.500000  0.500000  1
  Np  Np1  1  0.000000  0.500000  0.000000  1
  P  P2  1  0.339745  0.142959  0.749985  1
  P  P3  1  0.660255  0.857041  0.250015  1
  O  O4  1  0.194807  0.206620  0.889638  1
  O  O5  1  0.272685  0.847579  0.641722  1
  O  O6  1  0.928729  0.561234  0.763338  1
  O  O7  1  0.262111  0.290192  0.606475  1
  O  O8  1  0.737889  0.709808  0.393525  1
  O  O9  1  0.628648  0.230866  0.871675  1
  O  O10  1  0.371352  0.769134  0.128325  1
  O  O11  1  0.071271  0.438766  0.236662  1
  O  O12  1  0.727315  0.152421  0.358278  1
  O  O13  1  0.805193  0.793380  0.110362  1
