# generated using pymatgen
data_Dy3ErTmCoBi2
_symmetry_space_group_name_H-M   'P 1'
_cell_length_a   7.93554314
_cell_length_b   8.85933512
_cell_length_c   12.38814938
_cell_angle_alpha   90.01855389
_cell_angle_beta   89.97873995
_cell_angle_gamma   90.00176935
_symmetry_Int_Tables_number   1
_chemical_formula_structural   Dy3ErTmCoBi2
_chemical_formula_sum   'Dy12 Er4 Tm4 Co4 Bi8'
_cell_volume   870.93183828
_cell_formula_units_Z   4
loop_
 _symmetry_equiv_pos_site_id
 _symmetry_equiv_pos_as_xyz
  1  'x, y, z'
loop_
 _atom_site_type_symbol
 _atom_site_label
 _atom_site_symmetry_multiplicity
 _atom_site_fract_x
 _atom_site_fract_y
 _atom_site_fract_z
 _atom_site_occupancy
  Dy  Dy0  1  0.848209  0.749863  0.801409  1
  Dy  Dy1  1  0.151635  0.250064  0.198654  1
  Dy  Dy2  1  0.348196  0.250136  0.698847  1
  Dy  Dy3  1  0.651980  0.749972  0.301225  1
  Dy  Dy4  1  0.380055  0.749898  0.687634  1
  Dy  Dy5  1  0.620507  0.250235  0.312262  1
  Dy  Dy6  1  0.879509  0.250151  0.812596  1
  Dy  Dy7  1  0.119882  0.749791  0.187266  1
  Dy  Dy8  1  0.949309  0.749714  0.502648  1
  Dy  Dy9  1  0.049957  0.250168  0.497303  1
  Dy  Dy10  1  0.449790  0.250257  0.997286  1
  Dy  Dy11  1  0.551128  0.749886  0.002730  1
  Er  Er12  1  0.674332  0.035205  0.563427  1
  Er  Er13  1  0.325759  0.964415  0.436680  1
  Er  Er14  1  0.173855  0.964655  0.936884  1
  Er  Er15  1  0.326003  0.535657  0.436725  1
  Tm  Tm16  1  0.826789  0.035477  0.063133  1
  Tm  Tm17  1  0.673158  0.464390  0.563263  1
  Tm  Tm18  1  0.826982  0.464467  0.063135  1
  Tm  Tm19  1  0.172942  0.535530  0.936980  1
  Co  Co20  1  0.560978  0.749702  0.507334  1
  Co  Co21  1  0.440217  0.250229  0.492892  1
  Co  Co22  1  0.059406  0.250311  0.993045  1
  Co  Co23  1  0.939466  0.749717  0.007129  1
  Bi  Bi24  1  0.568228  0.492578  0.826328  1
  Bi  Bi25  1  0.431743  0.507460  0.173544  1
  Bi  Bi26  1  0.068412  0.507409  0.673773  1
  Bi  Bi27  1  0.431657  0.992607  0.173517  1
  Bi  Bi28  1  0.931317  0.492481  0.326111  1
  Bi  Bi29  1  0.568602  0.007531  0.826382  1
  Bi  Bi30  1  0.931209  0.007518  0.326134  1
  Bi  Bi31  1  0.068788  0.992525  0.673725  1
