# generated using pymatgen
data_Ce2Nd3Dy3(ZnRh)8
_symmetry_space_group_name_H-M   'P 1'
_cell_length_a   3.91499200
_cell_length_b   7.33067826
_cell_length_c   16.40201322
_cell_angle_alpha   89.78174986
_cell_angle_beta   90.00000000
_cell_angle_gamma   90.00000000
_symmetry_Int_Tables_number   1
_chemical_formula_structural   Ce2Nd3Dy3(ZnRh)8
_chemical_formula_sum   'Ce2 Nd3 Dy3 Zn8 Rh8'
_cell_volume   470.72693012
_cell_formula_units_Z   1
loop_
 _symmetry_equiv_pos_site_id
 _symmetry_equiv_pos_as_xyz
  1  'x, y, z'
loop_
 _atom_site_type_symbol
 _atom_site_label
 _atom_site_symmetry_multiplicity
 _atom_site_fract_x
 _atom_site_fract_y
 _atom_site_fract_z
 _atom_site_occupancy
  Ce  Ce0  1  0.250000  0.558446  0.786036  1
  Ce  Ce1  1  0.750000  0.319888  0.436651  1
  Nd  Nd2  1  0.250000  0.665587  0.559863  1
  Nd  Nd3  1  0.750000  0.834920  0.061736  1
  Nd  Nd4  1  0.250000  0.057539  0.716378  1
  Dy  Dy5  1  0.250000  0.177471  0.941074  1
  Dy  Dy6  1  0.750000  0.942341  0.284646  1
  Dy  Dy7  1  0.750000  0.448317  0.214464  1
  Zn  Zn8  1  0.250000  0.117695  0.156408  1
  Zn  Zn9  1  0.750000  0.502282  0.943697  1
  Zn  Zn10  1  0.750000  0.994457  0.559441  1
  Zn  Zn11  1  0.750000  0.379043  0.649828  1
  Zn  Zn12  1  0.750000  0.895603  0.849885  1
  Zn  Zn13  1  0.250000  0.499278  0.061003  1
  Zn  Zn14  1  0.250000  0.612589  0.343811  1
  Zn  Zn15  1  0.250000  0.985465  0.435471  1
  Rh  Rh16  1  0.750000  0.742171  0.432046  1
  Rh  Rh17  1  0.750000  0.281096  0.814018  1
  Rh  Rh18  1  0.750000  0.748917  0.694709  1
  Rh  Rh19  1  0.250000  0.742126  0.187766  1
  Rh  Rh20  1  0.250000  0.750031  0.931100  1
  Rh  Rh21  1  0.250000  0.247050  0.555190  1
  Rh  Rh22  1  0.750000  0.253078  0.066686  1
  Rh  Rh23  1  0.250000  0.244612  0.318093  1
