# generated using pymatgen
data_LiLu9Cd3Ru
_symmetry_space_group_name_H-M   'P 1'
_cell_length_a   9.24298100
_cell_length_b   9.24298181
_cell_length_c   9.57529800
_cell_angle_alpha   90.00000000
_cell_angle_beta   90.00000000
_cell_angle_gamma   120.00000068
_symmetry_Int_Tables_number   1
_chemical_formula_structural   LiLu9Cd3Ru
_chemical_formula_sum   'Li2 Lu18 Cd6 Ru2'
_cell_volume   708.44654438
_cell_formula_units_Z   2
loop_
 _symmetry_equiv_pos_site_id
 _symmetry_equiv_pos_as_xyz
  1  'x, y, z'
loop_
 _atom_site_type_symbol
 _atom_site_label
 _atom_site_symmetry_multiplicity
 _atom_site_fract_x
 _atom_site_fract_y
 _atom_site_fract_z
 _atom_site_occupancy
  Li  Li0  1  0.000000  0.000000  0.500000  1
  Li  Li1  1  0.000000  0.000000  0.000000  1
  Lu  Lu2  1  0.208510  0.791490  0.442700  1
  Lu  Lu3  1  0.208510  0.417020  0.442700  1
  Lu  Lu4  1  0.582980  0.791490  0.442700  1
  Lu  Lu5  1  0.791490  0.208510  0.557300  1
  Lu  Lu6  1  0.791490  0.582980  0.557300  1
  Lu  Lu7  1  0.417020  0.208510  0.557300  1
  Lu  Lu8  1  0.791490  0.208510  0.942700  1
  Lu  Lu9  1  0.791490  0.582980  0.942700  1
  Lu  Lu10  1  0.417020  0.208510  0.942700  1
  Lu  Lu11  1  0.208510  0.791490  0.057300  1
  Lu  Lu12  1  0.208510  0.417020  0.057300  1
  Lu  Lu13  1  0.582980  0.791490  0.057300  1
  Lu  Lu14  1  0.541653  0.458347  0.250000  1
  Lu  Lu15  1  0.541653  0.083307  0.250000  1
  Lu  Lu16  1  0.916693  0.458347  0.250000  1
  Lu  Lu17  1  0.458347  0.541653  0.750000  1
  Lu  Lu18  1  0.458347  0.916693  0.750000  1
  Lu  Lu19  1  0.083307  0.541653  0.750000  1
  Cd  Cd20  1  0.892026  0.107974  0.250000  1
  Cd  Cd21  1  0.892026  0.784052  0.250000  1
  Cd  Cd22  1  0.215948  0.107974  0.250000  1
  Cd  Cd23  1  0.107974  0.892026  0.750000  1
  Cd  Cd24  1  0.107974  0.215948  0.750000  1
  Cd  Cd25  1  0.784052  0.892026  0.750000  1
  Ru  Ru26  1  0.333333  0.666667  0.250000  1
  Ru  Ru27  1  0.666667  0.333333  0.750000  1
