# generated using pymatgen
data_Cd6PdIO12
_symmetry_space_group_name_H-M   'P 1'
_cell_length_a   5.73679239
_cell_length_b   5.59110999
_cell_length_c   9.87057015
_cell_angle_alpha   55.77369395
_cell_angle_beta   90.58274732
_cell_angle_gamma   90.45018628
_symmetry_Int_Tables_number   1
_chemical_formula_structural   Cd6PdIO12
_chemical_formula_sum   'Cd6 Pd1 I1 O12'
_cell_volume   261.75665918
_cell_formula_units_Z   1
loop_
 _symmetry_equiv_pos_site_id
 _symmetry_equiv_pos_as_xyz
  1  'x, y, z'
loop_
 _atom_site_type_symbol
 _atom_site_label
 _atom_site_symmetry_multiplicity
 _atom_site_fract_x
 _atom_site_fract_y
 _atom_site_fract_z
 _atom_site_occupancy
  Cd  Cd0  1  0.957212  0.272066  0.225658  1
  Cd  Cd1  1  0.447961  0.775759  0.240865  1
  Cd  Cd2  1  0.042788  0.727934  0.774342  1
  Cd  Cd3  1  0.552039  0.224241  0.759135  1
  Cd  Cd4  1  0.000000  0.500000  0.500000  1
  Cd  Cd5  1  0.500000  0.500000  0.000000  1
  Pd  Pd6  1  0.000000  0.000000  0.000000  1
  I  I7  1  0.500000  0.000000  0.500000  1
  O  O8  1  0.277808  0.900126  0.916619  1
  O  O9  1  0.776817  0.069992  0.583817  1
  O  O10  1  0.722192  0.099874  0.083381  1
  O  O11  1  0.223183  0.930008  0.416183  1
  O  O12  1  0.184031  0.246538  0.048416  1
  O  O13  1  0.667880  0.773460  0.443781  1
  O  O14  1  0.815969  0.753462  0.951584  1
  O  O15  1  0.332120  0.226540  0.556219  1
  O  O16  1  0.425082  0.659664  0.713720  1
  O  O17  1  0.922033  0.349341  0.766788  1
  O  O18  1  0.574918  0.340336  0.286280  1
  O  O19  1  0.077967  0.650659  0.233212  1
