# generated using pymatgen
data_Dy3ErLu4In3Co
_symmetry_space_group_name_H-M   'P 1'
_cell_length_a   10.20149700
_cell_length_b   10.20149713
_cell_length_c   7.00276900
_cell_angle_alpha   90.00000000
_cell_angle_beta   90.00000000
_cell_angle_gamma   119.99999633
_symmetry_Int_Tables_number   1
_chemical_formula_structural   Dy3ErLu4In3Co
_chemical_formula_sum   'Dy6 Er2 Lu8 In6 Co2'
_cell_volume   631.14372151
_cell_formula_units_Z   2
loop_
 _symmetry_equiv_pos_site_id
 _symmetry_equiv_pos_as_xyz
  1  'x, y, z'
loop_
 _atom_site_type_symbol
 _atom_site_label
 _atom_site_symmetry_multiplicity
 _atom_site_fract_x
 _atom_site_fract_y
 _atom_site_fract_z
 _atom_site_occupancy
  Dy  Dy0  1  0.534581  0.069162  0.790507  1
  Dy  Dy1  1  0.930838  0.465419  0.790507  1
  Dy  Dy2  1  0.534581  0.465419  0.790507  1
  Dy  Dy3  1  0.465419  0.930838  0.290507  1
  Dy  Dy4  1  0.069162  0.534581  0.290507  1
  Dy  Dy5  1  0.465419  0.534581  0.290507  1
  Er  Er6  1  0.000000  0.000000  0.779463  1
  Er  Er7  1  0.000000  0.000000  0.279463  1
  Lu  Lu8  1  0.821135  0.642272  0.496303  1
  Lu  Lu9  1  0.357728  0.178865  0.496303  1
  Lu  Lu10  1  0.821135  0.178865  0.496303  1
  Lu  Lu11  1  0.178865  0.357728  0.996303  1
  Lu  Lu12  1  0.642272  0.821135  0.996303  1
  Lu  Lu13  1  0.178865  0.821135  0.996303  1
  Lu  Lu14  1  0.666667  0.333333  0.186102  1
  Lu  Lu15  1  0.333333  0.666667  0.686102  1
  In  In16  1  0.836873  0.673746  0.042710  1
  In  In17  1  0.326254  0.163127  0.042710  1
  In  In18  1  0.836873  0.163127  0.042710  1
  In  In19  1  0.163127  0.326254  0.542710  1
  In  In20  1  0.673746  0.836873  0.542710  1
  In  In21  1  0.163127  0.836873  0.542710  1
  Co  Co22  1  0.666667  0.333333  0.563828  1
  Co  Co23  1  0.333333  0.666667  0.063828  1
