# generated using pymatgen
data_Eu3Er(Mo2O7)2
_symmetry_space_group_name_H-M   'P 1'
_cell_length_a   7.39374612
_cell_length_b   7.51494638
_cell_length_c   7.39374600
_cell_angle_alpha   60.53208820
_cell_angle_beta   60.00000052
_cell_angle_gamma   60.53208550
_symmetry_Int_Tables_number   1
_chemical_formula_structural   Eu3Er(Mo2O7)2
_chemical_formula_sum   'Eu3 Er1 Mo4 O14'
_cell_volume   292.81029236
_cell_formula_units_Z   1
loop_
 _symmetry_equiv_pos_site_id
 _symmetry_equiv_pos_as_xyz
  1  'x, y, z'
loop_
 _atom_site_type_symbol
 _atom_site_label
 _atom_site_symmetry_multiplicity
 _atom_site_fract_x
 _atom_site_fract_y
 _atom_site_fract_z
 _atom_site_occupancy
  Eu  Eu0  1  0.625000  0.125000  0.125000  1
  Eu  Eu1  1  0.125000  0.125000  0.625000  1
  Eu  Eu2  1  0.125000  0.125000  0.125000  1
  Er  Er3  1  0.125000  0.625000  0.125000  1
  Mo  Mo4  1  0.125000  0.625000  0.625000  1
  Mo  Mo5  1  0.625000  0.125000  0.625000  1
  Mo  Mo6  1  0.625000  0.625000  0.125000  1
  Mo  Mo7  1  0.625000  0.625000  0.625000  1
  O  O8  1  0.244162  0.267514  0.244162  1
  O  O9  1  0.005838  0.982486  0.005838  1
  O  O10  1  0.708062  0.711580  0.290179  1
  O  O11  1  0.300857  0.292879  0.703132  1
  O  O12  1  0.703132  0.292879  0.703132  1
  O  O13  1  0.290179  0.711580  0.290179  1
  O  O14  1  0.290179  0.711580  0.708062  1
  O  O15  1  0.703132  0.292879  0.300857  1
  O  O16  1  0.541938  0.538420  0.959821  1
  O  O17  1  0.949143  0.957121  0.546868  1
  O  O18  1  0.546868  0.957121  0.546868  1
  O  O19  1  0.959821  0.538420  0.959821  1
  O  O20  1  0.959821  0.538420  0.541938  1
  O  O21  1  0.546868  0.957121  0.949143  1
