# generated using pymatgen
data_Al3Ni8Mo13C4
_symmetry_space_group_name_H-M   'P 1'
_cell_length_a   7.91398886
_cell_length_b   7.91525842
_cell_length_c   7.98229681
_cell_angle_alpha   60.27517049
_cell_angle_beta   60.28310780
_cell_angle_gamma   60.00234916
_symmetry_Int_Tables_number   1
_chemical_formula_structural   Al3Ni8Mo13C4
_chemical_formula_sum   'Al3 Ni8 Mo13 C4'
_cell_volume   355.05915828
_cell_formula_units_Z   1
loop_
 _symmetry_equiv_pos_site_id
 _symmetry_equiv_pos_as_xyz
  1  'x, y, z'
loop_
 _atom_site_type_symbol
 _atom_site_label
 _atom_site_symmetry_multiplicity
 _atom_site_fract_x
 _atom_site_fract_y
 _atom_site_fract_z
 _atom_site_occupancy
  Al  Al0  1  0.125000  0.125000  0.125000  1
  Al  Al1  1  0.625000  0.125000  0.125000  1
  Al  Al2  1  0.125000  0.625000  0.125000  1
  Ni  Ni3  1  0.915446  0.915442  0.253626  1
  Ni  Ni4  1  0.335237  0.335250  0.324248  1
  Ni  Ni5  1  0.244703  0.914741  0.925784  1
  Ni  Ni6  1  0.335241  0.005281  0.324237  1
  Ni  Ni7  1  0.005297  0.335259  0.324216  1
  Ni  Ni8  1  0.334554  0.334558  0.996374  1
  Ni  Ni9  1  0.914763  0.914750  0.925752  1
  Ni  Ni10  1  0.914759  0.244719  0.925763  1
  Mo  Mo11  1  0.684093  0.314323  0.317493  1
  Mo  Mo12  1  0.939878  0.939879  0.563983  1
  Mo  Mo13  1  0.684109  0.684085  0.317491  1
  Mo  Mo14  1  0.693741  0.310126  0.686011  1
  Mo  Mo15  1  0.314316  0.684089  0.317487  1
  Mo  Mo16  1  0.556259  0.939874  0.563989  1
  Mo  Mo17  1  0.565907  0.935677  0.932507  1
  Mo  Mo18  1  0.939883  0.556268  0.563961  1
  Mo  Mo19  1  0.935684  0.565911  0.932513  1
  Mo  Mo20  1  0.310122  0.310121  0.686017  1
  Mo  Mo21  1  0.565891  0.565915  0.932509  1
  Mo  Mo22  1  0.125000  0.125000  0.625000  1
  Mo  Mo23  1  0.310117  0.693732  0.686039  1
  C  C24  1  0.625000  0.625000  0.625000  1
  C  C25  1  0.625000  0.625000  0.125000  1
  C  C26  1  0.125000  0.625000  0.625000  1
  C  C27  1  0.625000  0.125000  0.625000  1
