# generated using pymatgen
data_Li7ZnRh4
_symmetry_space_group_name_H-M   'P 1'
_cell_length_a   4.47490600
_cell_length_b   8.18494700
_cell_length_c   4.48092200
_cell_angle_alpha   90.00000000
_cell_angle_beta   90.00000000
_cell_angle_gamma   90.00000000
_symmetry_Int_Tables_number   1
_chemical_formula_structural   Li7ZnRh4
_chemical_formula_sum   'Li7 Zn1 Rh4'
_cell_volume   164.12214058
_cell_formula_units_Z   1
loop_
 _symmetry_equiv_pos_site_id
 _symmetry_equiv_pos_as_xyz
  1  'x, y, z'
loop_
 _atom_site_type_symbol
 _atom_site_label
 _atom_site_symmetry_multiplicity
 _atom_site_fract_x
 _atom_site_fract_y
 _atom_site_fract_z
 _atom_site_occupancy
  Li  Li0  1  0.472169  0.155413  0.000000  1
  Li  Li1  1  0.959317  0.333334  0.000000  1
  Li  Li2  1  0.472169  0.511256  0.000000  1
  Li  Li3  1  0.456680  0.833333  0.000000  1
  Li  Li4  1  0.364172  0.014627  0.500003  1
  Li  Li5  1  0.372148  0.333334  0.500003  1
  Li  Li6  1  0.364172  0.652041  0.500003  1
  Zn  Zn7  1  0.884121  0.833333  0.500003  1
  Rh  Rh8  1  0.953484  0.998958  0.000000  1
  Rh  Rh9  1  0.953484  0.667708  0.000000  1
  Rh  Rh10  1  0.874015  0.169466  0.500003  1
  Rh  Rh11  1  0.874015  0.497203  0.500003  1
