# generated using pymatgen
data_NaSc2(CoH6)2
_symmetry_space_group_name_H-M   'P 1'
_cell_length_a   4.45516700
_cell_length_b   4.45516829
_cell_length_c   8.66109400
_cell_angle_alpha   90.00000000
_cell_angle_beta   90.00000000
_cell_angle_gamma   119.99999785
_symmetry_Int_Tables_number   1
_chemical_formula_structural   NaSc2(CoH6)2
_chemical_formula_sum   'Na1 Sc2 Co2 H12'
_cell_volume   148.87833216
_cell_formula_units_Z   1
loop_
 _symmetry_equiv_pos_site_id
 _symmetry_equiv_pos_as_xyz
  1  'x, y, z'
loop_
 _atom_site_type_symbol
 _atom_site_label
 _atom_site_symmetry_multiplicity
 _atom_site_fract_x
 _atom_site_fract_y
 _atom_site_fract_z
 _atom_site_occupancy
  Na  Na0  1  0.000000  0.000000  0.000000  1
  Sc  Sc1  1  0.666667  0.333333  0.372540  1
  Sc  Sc2  1  0.333333  0.666667  0.627460  1
  Co  Co3  1  0.666667  0.333333  0.703606  1
  Co  Co4  1  0.333333  0.666667  0.296394  1
  H  H5  1  0.167033  0.832967  0.398267  1
  H  H6  1  0.665935  0.832967  0.398267  1
  H  H7  1  0.167033  0.334065  0.398267  1
  H  H8  1  0.832967  0.167033  0.601733  1
  H  H9  1  0.334065  0.167033  0.601733  1
  H  H10  1  0.832967  0.665935  0.601733  1
  H  H11  1  0.507999  0.015995  0.813234  1
  H  H12  1  0.507999  0.492001  0.813234  1
  H  H13  1  0.984005  0.492001  0.813234  1
  H  H14  1  0.492001  0.984005  0.186766  1
  H  H15  1  0.492001  0.507999  0.186766  1
  H  H16  1  0.015995  0.507999  0.186766  1
