# generated using pymatgen
data_Zr2Co9Mo3As7
_symmetry_space_group_name_H-M   'P 1'
_cell_length_a   3.81771800
_cell_length_b   9.35499944
_cell_length_c   9.35470013
_cell_angle_alpha   119.98018089
_cell_angle_beta   90.00000000
_cell_angle_gamma   90.00000000
_symmetry_Int_Tables_number   1
_chemical_formula_structural   Zr2Co9Mo3As7
_chemical_formula_sum   'Zr2 Co9 Mo3 As7'
_cell_volume   289.39752470
_cell_formula_units_Z   1
loop_
 _symmetry_equiv_pos_site_id
 _symmetry_equiv_pos_as_xyz
  1  'x, y, z'
loop_
 _atom_site_type_symbol
 _atom_site_label
 _atom_site_symmetry_multiplicity
 _atom_site_fract_x
 _atom_site_fract_y
 _atom_site_fract_z
 _atom_site_occupancy
  Zr  Zr0  1  0.000000  0.666830  0.333511  1
  Zr  Zr1  1  0.500000  0.333245  0.666760  1
  Co  Co2  1  0.000000  0.566399  0.935453  1
  Co  Co3  1  0.000000  0.368998  0.433626  1
  Co  Co4  1  0.000000  0.064470  0.631037  1
  Co  Co5  1  0.000000  0.873977  0.161086  1
  Co  Co6  1  0.000000  0.287139  0.125942  1
  Co  Co7  1  0.000000  0.838883  0.712841  1
  Co  Co8  1  0.500000  0.946035  0.383583  1
  Co  Co9  1  0.500000  0.437523  0.053882  1
  Co  Co10  1  0.500000  0.616489  0.562493  1
  Mo  Mo11  1  0.500000  0.780524  0.900658  1
  Mo  Mo12  1  0.500000  0.120248  0.219366  1
  Mo  Mo13  1  0.500000  0.099237  0.879785  1
  As  As14  1  0.000000  0.000056  0.999981  1
  As  As15  1  0.500000  0.707916  0.121917  1
  As  As16  1  0.500000  0.413950  0.292075  1
  As  As17  1  0.500000  0.878172  0.586070  1
  As  As18  1  0.000000  0.582975  0.698809  1
  As  As19  1  0.000000  0.115744  0.416950  1
  As  As20  1  0.000000  0.301193  0.884174  1
