# generated using pymatgen
data_Cs5(CoO2)2
_symmetry_space_group_name_H-M   'P 1'
_cell_length_a   7.38384786
_cell_length_b   9.72063856
_cell_length_c   10.17193085
_cell_angle_alpha   62.46505301
_cell_angle_beta   90.07780393
_cell_angle_gamma   71.45621210
_symmetry_Int_Tables_number   1
_chemical_formula_structural   Cs5(CoO2)2
_chemical_formula_sum   'Cs10 Co4 O8'
_cell_volume   604.15063912
_cell_formula_units_Z   2
loop_
 _symmetry_equiv_pos_site_id
 _symmetry_equiv_pos_as_xyz
  1  'x, y, z'
loop_
 _atom_site_type_symbol
 _atom_site_label
 _atom_site_symmetry_multiplicity
 _atom_site_fract_x
 _atom_site_fract_y
 _atom_site_fract_z
 _atom_site_occupancy
  Cs  Cs0  1  0.905583  0.831588  0.778133  1
  Cs  Cs1  1  0.094417  0.168412  0.221867  1
  Cs  Cs2  1  0.896664  0.438087  0.776008  1
  Cs  Cs3  1  0.103336  0.561913  0.223992  1
  Cs  Cs4  1  0.730315  0.050984  0.026908  1
  Cs  Cs5  1  0.269685  0.949016  0.973092  1
  Cs  Cs6  1  0.382141  0.354545  0.636777  1
  Cs  Cs7  1  0.617859  0.645455  0.363223  1
  Cs  Cs8  1  0.622181  0.166941  0.382791  1
  Cs  Cs9  1  0.377819  0.833059  0.617209  1
  Co  Co10  1  0.603592  0.581223  0.026852  1
  Co  Co11  1  0.396408  0.418777  0.973148  1
  Co  Co12  1  0.985109  0.793367  0.421004  1
  Co  Co13  1  0.014891  0.206633  0.578996  1
  O  O14  1  0.684143  0.727500  0.045785  1
  O  O15  1  0.315857  0.272500  0.954215  1
  O  O16  1  0.218793  0.205667  0.485089  1
  O  O17  1  0.781207  0.794333  0.514911  1
  O  O18  1  0.328406  0.634990  0.950530  1
  O  O19  1  0.671594  0.365010  0.049470  1
  O  O20  1  0.818550  0.201219  0.681333  1
  O  O21  1  0.181450  0.798781  0.318667  1
