# generated using pymatgen
data_Mn17Cr4(TcC3)2
_symmetry_space_group_name_H-M   'P 1'
_cell_length_a   7.39469960
_cell_length_b   7.39830076
_cell_length_c   7.39830009
_cell_angle_alpha   60.27955204
_cell_angle_beta   60.13528132
_cell_angle_gamma   60.13528635
_symmetry_Int_Tables_number   1
_chemical_formula_structural   Mn17Cr4(TcC3)2
_chemical_formula_sum   'Mn17 Cr4 Tc2 C6'
_cell_volume   287.38718315
_cell_formula_units_Z   1
loop_
 _symmetry_equiv_pos_site_id
 _symmetry_equiv_pos_as_xyz
  1  'x, y, z'
loop_
 _atom_site_type_symbol
 _atom_site_label
 _atom_site_symmetry_multiplicity
 _atom_site_fract_x
 _atom_site_fract_y
 _atom_site_fract_z
 _atom_site_occupancy
  Mn  Mn0  1  0.999781  0.000083  0.000083  1
  Mn  Mn1  1  0.616022  0.615457  0.151518  1
  Mn  Mn2  1  0.616022  0.151518  0.615457  1
  Mn  Mn3  1  0.150984  0.616290  0.616290  1
  Mn  Mn4  1  0.616251  0.616403  0.616403  1
  Mn  Mn5  1  0.382781  0.383368  0.849868  1
  Mn  Mn6  1  0.382781  0.849868  0.383368  1
  Mn  Mn7  1  0.850597  0.382739  0.382739  1
  Mn  Mn8  1  0.384214  0.382692  0.382692  1
  Mn  Mn9  1  0.000186  0.999079  0.339433  1
  Mn  Mn10  1  0.662445  0.999061  0.338499  1
  Mn  Mn11  1  0.998631  0.662568  0.338903  1
  Mn  Mn12  1  0.662445  0.338499  0.999061  1
  Mn  Mn13  1  0.000186  0.339433  0.999079  1
  Mn  Mn14  1  0.998631  0.338903  0.662568  1
  Mn  Mn15  1  0.339083  0.661517  0.999953  1
  Mn  Mn16  1  0.339083  0.999953  0.661517  1
  Cr  Cr17  1  0.337574  0.000024  0.000024  1
  Cr  Cr18  1  0.001129  0.000682  0.659639  1
  Cr  Cr19  1  0.001129  0.659639  0.000682  1
  Cr  Cr20  1  0.659874  0.001449  0.001449  1
  Tc  Tc21  1  0.749985  0.750666  0.750666  1
  Tc  Tc22  1  0.250375  0.250296  0.250296  1
  C  C23  1  0.722604  0.723094  0.279290  1
  C  C24  1  0.274430  0.722065  0.277884  1
  C  C25  1  0.726417  0.274019  0.274019  1
  C  C26  1  0.274430  0.277884  0.722065  1
  C  C27  1  0.722604  0.279290  0.723094  1
  C  C28  1  0.279325  0.723459  0.723459  1
