# generated using pymatgen
data_MgAl2FeRh4
_symmetry_space_group_name_H-M   'P 1'
_cell_length_a   4.28854400
_cell_length_b   4.28854400
_cell_length_c   6.05015800
_cell_angle_alpha   90.00000000
_cell_angle_beta   90.00000000
_cell_angle_gamma   90.00000000
_symmetry_Int_Tables_number   1
_chemical_formula_structural   MgAl2FeRh4
_chemical_formula_sum   'Mg1 Al2 Fe1 Rh4'
_cell_volume   111.27214420
_cell_formula_units_Z   1
loop_
 _symmetry_equiv_pos_site_id
 _symmetry_equiv_pos_as_xyz
  1  'x, y, z'
loop_
 _atom_site_type_symbol
 _atom_site_label
 _atom_site_symmetry_multiplicity
 _atom_site_fract_x
 _atom_site_fract_y
 _atom_site_fract_z
 _atom_site_occupancy
  Mg  Mg0  1  0.000000  0.000000  0.500001  1
  Al  Al1  1  0.000000  0.000000  0.000000  1
  Al  Al2  1  0.500002  0.500002  0.500001  1
  Fe  Fe3  1  0.500002  0.500002  0.000000  1
  Rh  Rh4  1  0.500002  0.000000  0.243359  1
  Rh  Rh5  1  0.000000  0.500002  0.243359  1
  Rh  Rh6  1  0.500002  0.000000  0.756640  1
  Rh  Rh7  1  0.000000  0.500002  0.756640  1
