# generated using pymatgen
data_HoTm4Co11(P3Ru2)4
_symmetry_space_group_name_H-M   'P 1'
_cell_length_a   12.18880330
_cell_length_b   12.20780204
_cell_length_c   3.72862100
_cell_angle_alpha   90.00000000
_cell_angle_beta   90.00000000
_cell_angle_gamma   119.90367147
_symmetry_Int_Tables_number   1
_chemical_formula_structural   HoTm4Co11(P3Ru2)4
_chemical_formula_sum   'Ho1 Tm4 Co11 P12 Ru8'
_cell_volume   480.94803920
_cell_formula_units_Z   1
loop_
 _symmetry_equiv_pos_site_id
 _symmetry_equiv_pos_as_xyz
  1  'x, y, z'
loop_
 _atom_site_type_symbol
 _atom_site_label
 _atom_site_symmetry_multiplicity
 _atom_site_fract_x
 _atom_site_fract_y
 _atom_site_fract_z
 _atom_site_occupancy
  Ho  Ho0  1  0.328802  0.663063  0.000000  1
  Tm  Tm1  1  0.667079  0.333146  0.000000  1
  Tm  Tm2  1  0.819739  0.819376  0.500000  1
  Tm  Tm3  1  0.179871  0.000433  0.500000  1
  Tm  Tm4  1  0.999971  0.180827  0.500000  1
  Co  Co5  1  0.128442  0.481022  0.500000  1
  Co  Co6  1  0.804455  0.172629  0.000000  1
  Co  Co7  1  0.829162  0.630576  0.000000  1
  Co  Co8  1  0.367284  0.196646  0.000000  1
  Co  Co9  1  0.172212  0.803601  0.000000  1
  Co  Co10  1  0.631767  0.827667  0.000000  1
  Co  Co11  1  0.193970  0.371510  0.000000  1
  Co  Co12  1  0.278873  0.281382  0.500000  1
  Co  Co13  1  0.719728  0.000219  0.500000  1
  Co  Co14  1  0.000746  0.718541  0.500000  1
  Co  Co15  1  0.000212  0.999677  0.000000  1
  P  P16  1  0.686047  0.162129  0.500000  1
  P  P17  1  0.840607  0.523354  0.500000  1
  P  P18  1  0.475705  0.316692  0.500000  1
  P  P19  1  0.159460  0.680099  0.500000  1
  P  P20  1  0.523415  0.839743  0.500000  1
  P  P21  1  0.310048  0.475883  0.500000  1
  P  P22  1  0.176298  0.178073  0.000000  1
  P  P23  1  0.823000  0.999842  0.000000  1
  P  P24  1  0.000183  0.822360  0.000000  1
  P  P25  1  0.638048  0.638713  0.000000  1
  P  P26  1  0.360538  0.999739  0.000000  1
  P  P27  1  0.004117  0.362223  0.000000  1
  Ru  Ru28  1  0.876942  0.354132  0.500000  1
  Ru  Ru29  1  0.648298  0.519343  0.500000  1
  Ru  Ru30  1  0.481507  0.129798  0.500000  1
  Ru  Ru31  1  0.351059  0.870133  0.500000  1
  Ru  Ru32  1  0.515987  0.646686  0.500000  1
  Ru  Ru33  1  0.444178  0.445208  0.000000  1
  Ru  Ru34  1  0.554849  0.000016  0.000000  1
  Ru  Ru35  1  0.007400  0.555520  0.000000  1
