# generated using pymatgen
data_PrCu2(SO4)4
_symmetry_space_group_name_H-M   'P 1'
_cell_length_a   6.42660032
_cell_length_b   6.42659072
_cell_length_c   8.73282750
_cell_angle_alpha   74.21682042
_cell_angle_beta   74.21682551
_cell_angle_gamma   87.64953466
_symmetry_Int_Tables_number   1
_chemical_formula_structural   PrCu2(SO4)4
_chemical_formula_sum   'Pr1 Cu2 S4 O16'
_cell_volume   333.78009391
_cell_formula_units_Z   1
loop_
 _symmetry_equiv_pos_site_id
 _symmetry_equiv_pos_as_xyz
  1  'x, y, z'
loop_
 _atom_site_type_symbol
 _atom_site_label
 _atom_site_symmetry_multiplicity
 _atom_site_fract_x
 _atom_site_fract_y
 _atom_site_fract_z
 _atom_site_occupancy
  Pr  Pr0  1  0.000000  0.000000  0.000000  1
  Cu  Cu1  1  0.000000  0.000000  0.500000  1
  Cu  Cu2  1  0.500000  0.500000  0.500000  1
  S  S3  1  0.087500  0.589200  0.731596  1
  S  S4  1  0.589199  0.087502  0.731596  1
  S  S5  1  0.912500  0.410800  0.268404  1
  S  S6  1  0.410801  0.912498  0.268404  1
  O  O7  1  0.332985  0.620148  0.665295  1
  O  O8  1  0.620146  0.332986  0.665296  1
  O  O9  1  0.667015  0.379852  0.334705  1
  O  O10  1  0.379854  0.667014  0.334704  1
  O  O11  1  0.029881  0.704543  0.860394  1
  O  O12  1  0.704544  0.029882  0.860393  1
  O  O13  1  0.970119  0.295457  0.139606  1
  O  O14  1  0.295456  0.970118  0.139607  1
  O  O15  1  0.984329  0.686725  0.595748  1
  O  O16  1  0.686725  0.984332  0.595748  1
  O  O17  1  0.015671  0.313275  0.404252  1
  O  O18  1  0.313275  0.015668  0.404252  1
  O  O19  1  0.027858  0.357683  0.793706  1
  O  O20  1  0.357684  0.027858  0.793707  1
  O  O21  1  0.972142  0.642317  0.206294  1
  O  O22  1  0.642316  0.972142  0.206293  1
