# generated using pymatgen
data_Ho4GaReRu6
_symmetry_space_group_name_H-M   'P 1'
_cell_length_a   5.18102000
_cell_length_b   5.42776832
_cell_length_c   8.85583100
_cell_angle_alpha   90.00000000
_cell_angle_beta   90.00000000
_cell_angle_gamma   119.79767869
_symmetry_Int_Tables_number   1
_chemical_formula_structural   Ho4GaReRu6
_chemical_formula_sum   'Ho4 Ga1 Re1 Ru6'
_cell_volume   216.11172151
_cell_formula_units_Z   1
loop_
 _symmetry_equiv_pos_site_id
 _symmetry_equiv_pos_as_xyz
  1  'x, y, z'
loop_
 _atom_site_type_symbol
 _atom_site_label
 _atom_site_symmetry_multiplicity
 _atom_site_fract_x
 _atom_site_fract_y
 _atom_site_fract_z
 _atom_site_occupancy
  Ho  Ho0  1  0.335041  0.669804  0.437210  1
  Ho  Ho1  1  0.660070  0.327402  0.565577  1
  Ho  Ho2  1  0.660070  0.327402  0.934423  1
  Ho  Ho3  1  0.335041  0.669804  0.062790  1
  Ga  Ga4  1  0.835566  0.170516  0.250000  1
  Re  Re5  1  0.662528  0.832653  0.750000  1
  Ru  Ru6  1  0.990811  0.986754  0.499788  1
  Ru  Ru7  1  0.990811  0.986754  0.000212  1
  Ru  Ru8  1  0.827608  0.659819  0.250000  1
  Ru  Ru9  1  0.349689  0.184147  0.250000  1
  Ru  Ru10  1  0.172337  0.834665  0.750000  1
  Ru  Ru11  1  0.180428  0.350279  0.750000  1
