# generated using pymatgen
data_Tm3CdIn4
_symmetry_space_group_name_H-M   'P 1'
_cell_length_a   6.30161518
_cell_length_b   6.30161608
_cell_length_c   10.38913600
_cell_angle_alpha   90.00000000
_cell_angle_beta   90.00000000
_cell_angle_gamma   102.60763870
_symmetry_Int_Tables_number   1
_chemical_formula_structural   Tm3CdIn4
_chemical_formula_sum   'Tm6 Cd2 In8'
_cell_volume   402.60863200
_cell_formula_units_Z   2
loop_
 _symmetry_equiv_pos_site_id
 _symmetry_equiv_pos_as_xyz
  1  'x, y, z'
loop_
 _atom_site_type_symbol
 _atom_site_label
 _atom_site_symmetry_multiplicity
 _atom_site_fract_x
 _atom_site_fract_y
 _atom_site_fract_z
 _atom_site_occupancy
  Tm  Tm0  1  0.619064  0.619064  0.250000  1
  Tm  Tm1  1  0.380936  0.380936  0.750000  1
  Tm  Tm2  1  0.203794  0.796206  0.500000  1
  Tm  Tm3  1  0.203794  0.796206  0.000000  1
  Tm  Tm4  1  0.796206  0.203794  0.500000  1
  Tm  Tm5  1  0.796206  0.203794  0.000000  1
  Cd  Cd6  1  0.010365  0.010365  0.250000  1
  Cd  Cd7  1  0.989635  0.989635  0.750000  1
  In  In8  1  0.307672  0.307672  0.042897  1
  In  In9  1  0.692328  0.692328  0.957103  1
  In  In10  1  0.307672  0.307672  0.457103  1
  In  In11  1  0.692328  0.692328  0.542897  1
  In  In12  1  0.514391  0.073599  0.250000  1
  In  In13  1  0.926401  0.485609  0.750000  1
  In  In14  1  0.485609  0.926401  0.750000  1
  In  In15  1  0.073599  0.514391  0.250000  1
