# generated using pymatgen
data_Er4SnGe(B2Rh5)2
_symmetry_space_group_name_H-M   'P 1'
_cell_length_a   9.45371000
_cell_length_b   9.45371000
_cell_length_c   3.26897300
_cell_angle_alpha   90.00000000
_cell_angle_beta   90.00000000
_cell_angle_gamma   90.00000000
_symmetry_Int_Tables_number   1
_chemical_formula_structural   Er4SnGe(B2Rh5)2
_chemical_formula_sum   'Er4 Sn1 Ge1 B4 Rh10'
_cell_volume   292.15672344
_cell_formula_units_Z   1
loop_
 _symmetry_equiv_pos_site_id
 _symmetry_equiv_pos_as_xyz
  1  'x, y, z'
loop_
 _atom_site_type_symbol
 _atom_site_label
 _atom_site_symmetry_multiplicity
 _atom_site_fract_x
 _atom_site_fract_y
 _atom_site_fract_z
 _atom_site_occupancy
  Er  Er0  1  0.822889  0.326840  0.000000  1
  Er  Er1  1  0.326840  0.177111  0.000000  1
  Er  Er2  1  0.673160  0.822889  0.000000  1
  Er  Er3  1  0.177111  0.673160  0.000000  1
  Sn  Sn4  1  0.000000  0.000000  0.000000  1
  Ge  Ge5  1  0.500000  0.500000  0.000000  1
  B  B6  1  0.619183  0.123175  0.000000  1
  B  B7  1  0.123175  0.380817  0.000000  1
  B  B8  1  0.876825  0.619183  0.000000  1
  B  B9  1  0.380817  0.876825  0.000000  1
  Rh  Rh10  1  0.073980  0.224663  0.500000  1
  Rh  Rh11  1  0.224663  0.926020  0.500000  1
  Rh  Rh12  1  0.775337  0.073980  0.500000  1
  Rh  Rh13  1  0.926020  0.775337  0.500000  1
  Rh  Rh14  1  0.432811  0.716814  0.500000  1
  Rh  Rh15  1  0.567189  0.283186  0.500000  1
  Rh  Rh16  1  0.716814  0.567189  0.500000  1
  Rh  Rh17  1  0.283186  0.432811  0.500000  1
  Rh  Rh18  1  0.500000  0.000000  0.500000  1
  Rh  Rh19  1  0.000000  0.500000  0.500000  1
