# generated using pymatgen
data_Gd8HoMg(SiB4)4
_symmetry_space_group_name_H-M   'P 1'
_cell_length_a   7.22864100
_cell_length_b   7.22864100
_cell_length_c   8.13838900
_cell_angle_alpha   90.00000000
_cell_angle_beta   90.00000000
_cell_angle_gamma   90.00000000
_symmetry_Int_Tables_number   1
_chemical_formula_structural   Gd8HoMg(SiB4)4
_chemical_formula_sum   'Gd8 Ho1 Mg1 Si4 B16'
_cell_volume   425.25728077
_cell_formula_units_Z   1
loop_
 _symmetry_equiv_pos_site_id
 _symmetry_equiv_pos_as_xyz
  1  'x, y, z'
loop_
 _atom_site_type_symbol
 _atom_site_label
 _atom_site_symmetry_multiplicity
 _atom_site_fract_x
 _atom_site_fract_y
 _atom_site_fract_z
 _atom_site_occupancy
  Gd  Gd0  1  0.682622  0.180180  0.229620  1
  Gd  Gd1  1  0.317378  0.819820  0.770380  1
  Gd  Gd2  1  0.317378  0.819820  0.229620  1
  Gd  Gd3  1  0.819820  0.682622  0.229620  1
  Gd  Gd4  1  0.819820  0.682622  0.770380  1
  Gd  Gd5  1  0.682622  0.180180  0.770380  1
  Gd  Gd6  1  0.180180  0.317378  0.770380  1
  Gd  Gd7  1  0.180180  0.317378  0.229620  1
  Ho  Ho8  1  0.500000  0.500000  0.500000  1
  Mg  Mg9  1  0.000000  0.000000  0.500000  1
  Si  Si10  1  0.115209  0.615525  0.500000  1
  Si  Si11  1  0.884791  0.384475  0.500000  1
  Si  Si12  1  0.384475  0.115209  0.500000  1
  Si  Si13  1  0.615525  0.884791  0.500000  1
  B  B14  1  0.174015  0.038866  0.000000  1
  B  B15  1  0.825985  0.961134  0.000000  1
  B  B16  1  0.961134  0.174015  0.000000  1
  B  B17  1  0.327341  0.539810  0.000000  1
  B  B18  1  0.038866  0.825985  0.000000  1
  B  B19  1  0.672659  0.460190  0.000000  1
  B  B20  1  0.539810  0.672659  0.000000  1
  B  B21  1  0.460190  0.327341  0.000000  1
  B  B22  1  0.089968  0.589166  0.000000  1
  B  B23  1  0.910032  0.410834  0.000000  1
  B  B24  1  0.410834  0.089968  0.000000  1
  B  B25  1  0.589166  0.910032  0.000000  1
  B  B26  1  0.000000  0.000000  0.155135  1
  B  B27  1  0.000000  0.000000  0.844865  1
  B  B28  1  0.500000  0.500000  0.840483  1
  B  B29  1  0.500000  0.500000  0.159517  1
