# generated using pymatgen
data_Na2ScIO6
_symmetry_space_group_name_H-M   'P 1'
_cell_length_a   5.60523666
_cell_length_b   5.60523919
_cell_length_c   5.60524400
_cell_angle_alpha   119.99966587
_cell_angle_beta   119.99980261
_cell_angle_gamma   60.00005055
_symmetry_Int_Tables_number   1
_chemical_formula_structural   Na2ScIO6
_chemical_formula_sum   'Na2 Sc1 I1 O6'
_cell_volume   124.52872433
_cell_formula_units_Z   1
loop_
 _symmetry_equiv_pos_site_id
 _symmetry_equiv_pos_as_xyz
  1  'x, y, z'
loop_
 _atom_site_type_symbol
 _atom_site_label
 _atom_site_symmetry_multiplicity
 _atom_site_fract_x
 _atom_site_fract_y
 _atom_site_fract_z
 _atom_site_occupancy
  Na  Na0  1  0.749998  0.749999  0.250001  1
  Na  Na1  1  0.249999  0.250001  0.750000  1
  Sc  Sc2  1  0.500002  0.500016  0.499996  1
  I  I3  1  0.000001  0.000001  0.999996  1
  O  O4  1  0.762377  0.237620  0.237625  1
  O  O5  1  0.237622  0.762373  0.237623  1
  O  O6  1  0.237625  0.237623  0.237627  1
  O  O7  1  0.762377  0.762372  0.762379  1
  O  O8  1  0.237624  0.762371  0.762375  1
  O  O9  1  0.762375  0.237622  0.762374  1
