# generated using pymatgen
data_EuTm3(Co5P3)4
_symmetry_space_group_name_H-M   'P 1'
_cell_length_a   3.63998500
_cell_length_b   10.27520438
_cell_length_c   11.73194842
_cell_angle_alpha   89.94563706
_cell_angle_beta   90.00000000
_cell_angle_gamma   90.00000000
_symmetry_Int_Tables_number   1
_chemical_formula_structural   EuTm3(Co5P3)4
_chemical_formula_sum   'Eu1 Tm3 Co20 P12'
_cell_volume   438.79332509
_cell_formula_units_Z   1
loop_
 _symmetry_equiv_pos_site_id
 _symmetry_equiv_pos_as_xyz
  1  'x, y, z'
loop_
 _atom_site_type_symbol
 _atom_site_label
 _atom_site_symmetry_multiplicity
 _atom_site_fract_x
 _atom_site_fract_y
 _atom_site_fract_z
 _atom_site_occupancy
  Eu  Eu0  1  0.250000  0.916178  0.203259  1
  Tm  Tm1  1  0.750000  0.083198  0.797112  1
  Tm  Tm2  1  0.750000  0.417297  0.297665  1
  Tm  Tm3  1  0.250000  0.582609  0.702612  1
  Co  Co4  1  0.250000  0.783711  0.491561  1
  Co  Co5  1  0.750000  0.216875  0.509649  1
  Co  Co6  1  0.750000  0.283963  0.007355  1
  Co  Co7  1  0.250000  0.715555  0.990854  1
  Co  Co8  1  0.250000  0.094734  0.985757  1
  Co  Co9  1  0.750000  0.907907  0.007434  1
  Co  Co10  1  0.750000  0.592610  0.513470  1
  Co  Co11  1  0.250000  0.406952  0.487301  1
  Co  Co12  1  0.250000  0.278981  0.677056  1
  Co  Co13  1  0.750000  0.717563  0.324918  1
  Co  Co14  1  0.750000  0.777568  0.822239  1
  Co  Co15  1  0.250000  0.222333  0.176111  1
  Co  Co16  1  0.250000  0.614799  0.198704  1
  Co  Co17  1  0.750000  0.383027  0.800895  1
  Co  Co18  1  0.750000  0.121426  0.303006  1
  Co  Co19  1  0.250000  0.882764  0.699315  1
  Co  Co20  1  0.250000  0.033711  0.434041  1
  Co  Co21  1  0.750000  0.967753  0.569877  1
  Co  Co22  1  0.750000  0.530966  0.068025  1
  Co  Co23  1  0.250000  0.467556  0.931086  1
  P  P24  1  0.250000  0.081728  0.613679  1
  P  P25  1  0.750000  0.918416  0.389541  1
  P  P26  1  0.750000  0.581406  0.887233  1
  P  P27  1  0.250000  0.418340  0.112390  1
  P  P28  1  0.250000  0.230409  0.369928  1
  P  P29  1  0.750000  0.769437  0.629854  1
  P  P30  1  0.750000  0.727821  0.128784  1
  P  P31  1  0.250000  0.270088  0.869796  1
  P  P32  1  0.250000  0.898734  0.890997  1
  P  P33  1  0.750000  0.103348  0.108189  1
  P  P34  1  0.750000  0.399035  0.609147  1
  P  P35  1  0.250000  0.601203  0.391162  1
