# generated using pymatgen
data_Tb5HoP13Rh20
_symmetry_space_group_name_H-M   'P 1'
_cell_length_a   13.36020200
_cell_length_b   13.35925856
_cell_length_c   3.93039800
_cell_angle_alpha   90.00167810
_cell_angle_beta   90.00043310
_cell_angle_gamma   120.00150349
_symmetry_Int_Tables_number   1
_chemical_formula_structural   Tb5HoP13Rh20
_chemical_formula_sum   'Tb5 Ho1 P13 Rh20'
_cell_volume   607.51353972
_cell_formula_units_Z   1
loop_
 _symmetry_equiv_pos_site_id
 _symmetry_equiv_pos_as_xyz
  1  'x, y, z'
loop_
 _atom_site_type_symbol
 _atom_site_label
 _atom_site_symmetry_multiplicity
 _atom_site_fract_x
 _atom_site_fract_y
 _atom_site_fract_z
 _atom_site_occupancy
  Tb  Tb0  1  0.529524  0.717476  0.248416  1
  Tb  Tb1  1  0.282544  0.812059  0.248374  1
  Tb  Tb2  1  0.188006  0.470492  0.248378  1
  Tb  Tb3  1  0.470620  0.282572  0.751590  1
  Tb  Tb4  1  0.717437  0.188059  0.751645  1
  Ho  Ho5  1  0.812060  0.529555  0.751590  1
  P  P6  1  0.525846  0.139024  0.250339  1
  P  P7  1  0.861039  0.387199  0.250336  1
  P  P8  1  0.613438  0.474305  0.250298  1
  P  P9  1  0.945035  0.714656  0.254594  1
  P  P10  1  0.284848  0.230209  0.254638  1
  P  P11  1  0.769767  0.054639  0.254576  1
  P  P12  1  0.386924  0.525714  0.749720  1
  P  P13  1  0.474277  0.861140  0.749693  1
  P  P14  1  0.138828  0.613148  0.749713  1
  P  P15  1  0.715204  0.769873  0.745290  1
  P  P16  1  0.230183  0.945330  0.745406  1
  P  P17  1  0.054595  0.284843  0.745410  1
  P  P18  1  0.999969  0.999946  0.999990  1
  Rh  Rh19  1  0.333298  0.666638  0.751930  1
  Rh  Rh20  1  0.921457  0.250420  0.253953  1
  Rh  Rh21  1  0.750052  0.670700  0.254048  1
  Rh  Rh22  1  0.328822  0.078544  0.254002  1
  Rh  Rh23  1  0.438706  0.022753  0.751427  1
  Rh  Rh24  1  0.977040  0.416054  0.751391  1
  Rh  Rh25  1  0.584316  0.561276  0.751442  1
  Rh  Rh26  1  0.667110  0.333892  0.248033  1
  Rh  Rh27  1  0.094277  0.186996  0.247215  1
  Rh  Rh28  1  0.812957  0.907221  0.247279  1
  Rh  Rh29  1  0.092580  0.905500  0.247234  1
  Rh  Rh30  1  0.022257  0.583998  0.248553  1
  Rh  Rh31  1  0.415973  0.438764  0.248549  1
  Rh  Rh32  1  0.561334  0.977268  0.248581  1
  Rh  Rh33  1  0.671181  0.921487  0.746016  1
  Rh  Rh34  1  0.078341  0.749528  0.746018  1
  Rh  Rh35  1  0.250312  0.328835  0.746004  1
  Rh  Rh36  1  0.905702  0.812966  0.752863  1
  Rh  Rh37  1  0.186905  0.092672  0.752708  1
  Rh  Rh38  1  0.907241  0.094250  0.752759  1
