# generated using pymatgen
data_Zr6Ti4Al12Ir2Pd5
_symmetry_space_group_name_H-M   'P 1'
_cell_length_a   8.84238279
_cell_length_b   8.81980566
_cell_length_c   8.84238355
_cell_angle_alpha   60.08442906
_cell_angle_beta   60.02640753
_cell_angle_gamma   60.08442997
_symmetry_Int_Tables_number   1
_chemical_formula_structural   Zr6Ti4Al12Ir2Pd5
_chemical_formula_sum   'Zr6 Ti4 Al12 Ir2 Pd5'
_cell_volume   488.34027875
_cell_formula_units_Z   1
loop_
 _symmetry_equiv_pos_site_id
 _symmetry_equiv_pos_as_xyz
  1  'x, y, z'
loop_
 _atom_site_type_symbol
 _atom_site_label
 _atom_site_symmetry_multiplicity
 _atom_site_fract_x
 _atom_site_fract_y
 _atom_site_fract_z
 _atom_site_occupancy
  Zr  Zr0  1  0.691672  0.687336  0.309332  1
  Zr  Zr1  1  0.308453  0.691547  0.308453  1
  Zr  Zr2  1  0.691672  0.311659  0.309332  1
  Zr  Zr3  1  0.309332  0.311659  0.691672  1
  Zr  Zr4  1  0.690316  0.309684  0.690316  1
  Zr  Zr5  1  0.309332  0.687336  0.691672  1
  Ti  Ti6  1  0.881856  0.881659  0.354827  1
  Ti  Ti7  1  0.884336  0.355969  0.884336  1
  Ti  Ti8  1  0.354827  0.881659  0.881856  1
  Ti  Ti9  1  0.884336  0.875360  0.884336  1
  Al  Al10  1  0.118650  0.119914  0.641521  1
  Al  Al11  1  0.118236  0.639326  0.118236  1
  Al  Al12  1  0.641521  0.119914  0.118650  1
  Al  Al13  1  0.118236  0.124200  0.118236  1
  Al  Al14  1  0.663851  0.666030  0.004089  1
  Al  Al15  1  0.665621  0.003802  0.665621  1
  Al  Al16  1  0.004089  0.666030  0.663851  1
  Al  Al17  1  0.665621  0.664955  0.665621  1
  Al  Al18  1  0.332814  0.335167  0.996852  1
  Al  Al19  1  0.334552  0.996495  0.334552  1
  Al  Al20  1  0.996852  0.335167  0.332814  1
  Al  Al21  1  0.334552  0.334402  0.334552  1
  Ir  Ir22  1  0.001088  0.998912  0.001088  1
  Ir  Ir23  1  0.996904  0.503096  0.996904  1
  Pd  Pd24  1  0.999696  0.999590  0.500737  1
  Pd  Pd25  1  0.500416  0.999584  0.500416  1
  Pd  Pd26  1  0.999696  0.499977  0.500737  1
  Pd  Pd27  1  0.500737  0.499977  0.999696  1
  Pd  Pd28  1  0.500737  0.999590  0.999696  1
