# generated using pymatgen
data_Nd20IrPd8Ru3
_symmetry_space_group_name_H-M   'P 1'
_cell_length_a   11.46243100
_cell_length_b   11.46243100
_cell_length_c   6.56564900
_cell_angle_alpha   90.00000000
_cell_angle_beta   90.00000000
_cell_angle_gamma   90.00000000
_symmetry_Int_Tables_number   1
_chemical_formula_structural   Nd20IrPd8Ru3
_chemical_formula_sum   'Nd20 Ir1 Pd8 Ru3'
_cell_volume   862.64305525
_cell_formula_units_Z   1
loop_
 _symmetry_equiv_pos_site_id
 _symmetry_equiv_pos_as_xyz
  1  'x, y, z'
loop_
 _atom_site_type_symbol
 _atom_site_label
 _atom_site_symmetry_multiplicity
 _atom_site_fract_x
 _atom_site_fract_y
 _atom_site_fract_z
 _atom_site_occupancy
  Nd  Nd0  1  0.088367  0.296764  0.128759  1
  Nd  Nd1  1  0.796764  0.411633  0.128759  1
  Nd  Nd2  1  0.203236  0.588367  0.128759  1
  Nd  Nd3  1  0.911633  0.703236  0.128759  1
  Nd  Nd4  1  0.413649  0.798123  0.372923  1
  Nd  Nd5  1  0.586351  0.201877  0.372923  1
  Nd  Nd6  1  0.298123  0.086351  0.372923  1
  Nd  Nd7  1  0.701877  0.913649  0.372923  1
  Nd  Nd8  1  0.413383  0.201959  0.872494  1
  Nd  Nd9  1  0.701959  0.086617  0.872494  1
  Nd  Nd10  1  0.298041  0.913383  0.872494  1
  Nd  Nd11  1  0.586617  0.798041  0.872494  1
  Nd  Nd12  1  0.088273  0.702691  0.626899  1
  Nd  Nd13  1  0.911727  0.297309  0.626899  1
  Nd  Nd14  1  0.202691  0.411727  0.626899  1
  Nd  Nd15  1  0.797309  0.588273  0.626899  1
  Nd  Nd16  1  0.000000  0.000000  0.998387  1
  Nd  Nd17  1  0.500000  0.500000  0.998387  1
  Nd  Nd18  1  0.500000  0.500000  0.498389  1
  Nd  Nd19  1  0.000000  0.000000  0.498389  1
  Ir  Ir20  1  0.000000  0.500000  0.882821  1
  Pd  Pd21  1  0.153861  0.846122  0.249244  1
  Pd  Pd22  1  0.346122  0.346139  0.249244  1
  Pd  Pd23  1  0.653878  0.653861  0.249244  1
  Pd  Pd24  1  0.846139  0.153878  0.249244  1
  Pd  Pd25  1  0.346161  0.653588  0.749510  1
  Pd  Pd26  1  0.153588  0.153839  0.749510  1
  Pd  Pd27  1  0.846412  0.846161  0.749510  1
  Pd  Pd28  1  0.653839  0.346412  0.749510  1
  Ru  Ru29  1  0.000000  0.500000  0.379753  1
  Ru  Ru30  1  0.500000  0.000000  0.122714  1
  Ru  Ru31  1  0.500000  0.000000  0.621841  1
