# generated using pymatgen
data_Eu6Hf2TcH27
_symmetry_space_group_name_H-M   'P 1'
_cell_length_a   9.06106600
_cell_length_b   9.06106607
_cell_length_c   5.23182900
_cell_angle_alpha   90.00000000
_cell_angle_beta   90.00000000
_cell_angle_gamma   119.99999244
_symmetry_Int_Tables_number   1
_chemical_formula_structural   Eu6Hf2TcH27
_chemical_formula_sum   'Eu6 Hf2 Tc1 H27'
_cell_volume   371.99987721
_cell_formula_units_Z   1
loop_
 _symmetry_equiv_pos_site_id
 _symmetry_equiv_pos_as_xyz
  1  'x, y, z'
loop_
 _atom_site_type_symbol
 _atom_site_label
 _atom_site_symmetry_multiplicity
 _atom_site_fract_x
 _atom_site_fract_y
 _atom_site_fract_z
 _atom_site_occupancy
  Eu  Eu0  1  0.256666  0.997310  0.500000  1
  Eu  Eu1  1  0.002690  0.259356  0.500000  1
  Eu  Eu2  1  0.740644  0.743334  0.500000  1
  Eu  Eu3  1  0.589555  0.948850  0.000000  1
  Eu  Eu4  1  0.051150  0.640704  0.000000  1
  Eu  Eu5  1  0.359296  0.410445  0.000000  1
  Hf  Hf6  1  0.000000  0.000000  0.000000  1
  Hf  Hf7  1  0.333333  0.666667  0.500000  1
  Tc  Tc8  1  0.666667  0.333333  0.500000  1
  H  H9  1  0.841733  0.000227  0.260964  1
  H  H10  1  0.999773  0.841506  0.260964  1
  H  H11  1  0.841733  0.000227  0.739036  1
  H  H12  1  0.999773  0.841506  0.739036  1
  H  H13  1  0.158494  0.158267  0.260964  1
  H  H14  1  0.158494  0.158267  0.739036  1
  H  H15  1  0.217564  0.991486  0.000000  1
  H  H16  1  0.008514  0.226078  0.000000  1
  H  H17  1  0.773922  0.782436  0.000000  1
  H  H18  1  0.180333  0.507708  0.233559  1
  H  H19  1  0.492292  0.672625  0.233559  1
  H  H20  1  0.180333  0.507708  0.766441  1
  H  H21  1  0.530032  0.208148  0.735548  1
  H  H22  1  0.327375  0.819667  0.233559  1
  H  H23  1  0.492292  0.672625  0.766441  1
  H  H24  1  0.678116  0.469968  0.735548  1
  H  H25  1  0.530032  0.208148  0.264452  1
  H  H26  1  0.327375  0.819667  0.766441  1
  H  H27  1  0.678116  0.469968  0.264452  1
  H  H28  1  0.791852  0.321884  0.735548  1
  H  H29  1  0.791852  0.321884  0.264452  1
  H  H30  1  0.321792  0.442508  0.500000  1
  H  H31  1  0.557492  0.879284  0.500000  1
  H  H32  1  0.490944  0.350151  0.500000  1
  H  H33  1  0.120716  0.678208  0.500000  1
  H  H34  1  0.859209  0.509056  0.500000  1
  H  H35  1  0.649849  0.140791  0.500000  1
