# generated using pymatgen
data_Dy4Lu8In2FeTc2
_symmetry_space_group_name_H-M   'P 1'
_cell_length_a   8.30530993
_cell_length_b   8.30531121
_cell_length_c   8.30530982
_cell_angle_alpha   108.59499626
_cell_angle_beta   108.59499370
_cell_angle_gamma   111.23824940
_symmetry_Int_Tables_number   1
_chemical_formula_structural   Dy4Lu8In2FeTc2
_chemical_formula_sum   'Dy4 Lu8 In2 Fe1 Tc2'
_cell_volume   440.69156401
_cell_formula_units_Z   1
loop_
 _symmetry_equiv_pos_site_id
 _symmetry_equiv_pos_as_xyz
  1  'x, y, z'
loop_
 _atom_site_type_symbol
 _atom_site_label
 _atom_site_symmetry_multiplicity
 _atom_site_fract_x
 _atom_site_fract_y
 _atom_site_fract_z
 _atom_site_occupancy
  Dy  Dy0  1  0.303036  0.303036  0.608478  1
  Dy  Dy1  1  0.694558  0.694558  0.391522  1
  Dy  Dy2  1  0.694558  0.303036  0.000000  1
  Dy  Dy3  1  0.303036  0.694558  0.000000  1
  Lu  Lu4  1  0.188931  0.428086  0.239154  1
  Lu  Lu5  1  0.808369  0.572453  0.764084  1
  Lu  Lu6  1  0.188931  0.949776  0.760846  1
  Lu  Lu7  1  0.949776  0.188931  0.760846  1
  Lu  Lu8  1  0.808369  0.044285  0.235916  1
  Lu  Lu9  1  0.044285  0.808369  0.235916  1
  Lu  Lu10  1  0.428086  0.188931  0.239154  1
  Lu  Lu11  1  0.572453  0.808369  0.764084  1
  In  In12  1  0.998868  0.498868  0.500000  1
  In  In13  1  0.498868  0.998868  0.500000  1
  Fe  Fe14  1  0.631305  0.631305  0.000000  1
  Tc  Tc15  1  0.386028  0.386028  0.000000  1
  Tc  Tc16  1  0.000543  0.000543  0.000000  1
