# generated using pymatgen
data_Tb5YU4O20
_symmetry_space_group_name_H-M   'P 1'
_cell_length_a   6.66274326
_cell_length_b   7.52909144
_cell_length_c   8.43780932
_cell_angle_alpha   101.01889667
_cell_angle_beta   97.65546783
_cell_angle_gamma   107.25113642
_symmetry_Int_Tables_number   1
_chemical_formula_structural   Tb5YU4O20
_chemical_formula_sum   'Tb5 Y1 U4 O20'
_cell_volume   388.55683176
_cell_formula_units_Z   1
loop_
 _symmetry_equiv_pos_site_id
 _symmetry_equiv_pos_as_xyz
  1  'x, y, z'
loop_
 _atom_site_type_symbol
 _atom_site_label
 _atom_site_symmetry_multiplicity
 _atom_site_fract_x
 _atom_site_fract_y
 _atom_site_fract_z
 _atom_site_occupancy
  Tb  Tb0  1  0.614517  0.703661  0.699435  1
  Tb  Tb1  1  0.385483  0.296339  0.300565  1
  Tb  Tb2  1  0.197480  0.896570  0.891480  1
  Tb  Tb3  1  0.000000  0.500000  0.500000  1
  Tb  Tb4  1  0.802520  0.103430  0.108520  1
  Y  Y5  1  0.000000  0.000000  0.500000  1
  U  U6  1  0.401639  0.804198  0.301822  1
  U  U7  1  0.198967  0.400218  0.899665  1
  U  U8  1  0.801033  0.599782  0.100335  1
  U  U9  1  0.598361  0.195802  0.698178  1
  O  O10  1  0.439597  0.532087  0.136895  1
  O  O11  1  0.555605  0.988101  0.840850  1
  O  O12  1  0.269132  0.145242  0.744806  1
  O  O13  1  0.360143  0.594861  0.442011  1
  O  O14  1  0.054585  0.729270  0.331878  1
  O  O15  1  0.444395  0.011899  0.159150  1
  O  O16  1  0.150141  0.184164  0.031978  1
  O  O17  1  0.560403  0.467913  0.863105  1
  O  O18  1  0.854342  0.337387  0.950541  1
  O  O19  1  0.257030  0.605829  0.759346  1
  O  O20  1  0.953532  0.772485  0.651861  1
  O  O21  1  0.354142  0.061958  0.453667  1
  O  O22  1  0.645858  0.938042  0.546333  1
  O  O23  1  0.046468  0.227515  0.348139  1
  O  O24  1  0.742970  0.394171  0.240654  1
  O  O25  1  0.145658  0.662613  0.049459  1
  O  O26  1  0.849859  0.815836  0.968022  1
  O  O27  1  0.945415  0.270730  0.668122  1
  O  O28  1  0.639857  0.405139  0.557989  1
  O  O29  1  0.730868  0.854758  0.255194  1
