# generated using pymatgen
data_Rb12Ta(In2As3)3
_symmetry_space_group_name_H-M   'P 1'
_cell_length_a   9.50505741
_cell_length_b   9.54977406
_cell_length_c   25.02865200
_cell_angle_alpha   86.83578796
_cell_angle_beta   87.14093790
_cell_angle_gamma   63.54470791
_symmetry_Int_Tables_number   1
_chemical_formula_structural   Rb12Ta(In2As3)3
_chemical_formula_sum   'Rb24 Ta2 In12 As18'
_cell_volume   2030.05969585
_cell_formula_units_Z   2
loop_
 _symmetry_equiv_pos_site_id
 _symmetry_equiv_pos_as_xyz
  1  'x, y, z'
loop_
 _atom_site_type_symbol
 _atom_site_label
 _atom_site_symmetry_multiplicity
 _atom_site_fract_x
 _atom_site_fract_y
 _atom_site_fract_z
 _atom_site_occupancy
  Rb  Rb0  1  0.062355  0.945746  0.308185  1
  Rb  Rb1  1  0.850358  0.393526  0.258986  1
  Rb  Rb2  1  0.661342  0.441047  0.433401  1
  Rb  Rb3  1  0.460232  0.884047  0.383724  1
  Rb  Rb4  1  0.380263  0.785661  0.178673  1
  Rb  Rb5  1  0.196863  0.038959  0.533572  1
  Rb  Rb6  1  0.175088  0.234579  0.132436  1
  Rb  Rb7  1  0.714386  0.866613  0.250165  1
  Rb  Rb8  1  0.474849  0.688019  0.814088  1
  Rb  Rb9  1  0.937645  0.054254  0.691815  1
  Rb  Rb10  1  0.759621  0.304791  0.065249  1
  Rb  Rb11  1  0.285614  0.133387  0.749835  1
  Rb  Rb12  1  0.338658  0.558953  0.566599  1
  Rb  Rb13  1  0.539768  0.115953  0.616276  1
  Rb  Rb14  1  0.463358  0.235475  0.983716  1
  Rb  Rb15  1  0.149642  0.606474  0.741014  1
  Rb  Rb16  1  0.619737  0.214339  0.821327  1
  Rb  Rb17  1  0.000000  0.500000  0.500000  1
  Rb  Rb18  1  0.240379  0.695209  0.934751  1
  Rb  Rb19  1  0.536642  0.764525  0.016284  1
  Rb  Rb20  1  0.803137  0.961041  0.466428  1
  Rb  Rb21  1  0.525151  0.311981  0.185912  1
  Rb  Rb22  1  0.000000  0.500000  0.000000  1
  Rb  Rb23  1  0.824912  0.765421  0.867564  1
  Ta  Ta24  1  0.757952  0.440027  0.610722  1
  Ta  Ta25  1  0.242048  0.559973  0.389278  1
  In  In26  1  0.468688  0.774274  0.665586  1
  In  In27  1  0.176570  0.499104  0.265936  1
  In  In28  1  0.918613  0.119621  0.940548  1
  In  In29  1  0.694410  0.944910  0.105444  1
  In  In30  1  0.531312  0.225726  0.334414  1
  In  In31  1  0.081387  0.880379  0.059452  1
  In  In32  1  0.122460  0.268634  0.376318  1
  In  In33  1  0.877540  0.731366  0.623682  1
  In  In34  1  0.053811  0.655200  0.158800  1
  In  In35  1  0.823430  0.500896  0.734064  1
  In  In36  1  0.946189  0.344800  0.841200  1
  In  In37  1  0.305590  0.055090  0.894556  1
  As  As38  1  0.160815  0.091133  0.004377  1
  As  As39  1  0.790522  0.238030  0.550975  1
  As  As40  1  0.580967  0.443673  0.690666  1
  As  As41  1  0.209478  0.761970  0.449025  1
  As  As42  1  0.365001  0.290915  0.435845  1
  As  As43  1  0.302223  0.168229  0.274571  1
  As  As44  1  0.026154  0.393476  0.643074  1
  As  As45  1  0.708187  0.426900  0.918922  1
  As  As46  1  0.634999  0.709085  0.564155  1
  As  As47  1  0.203883  0.381940  0.863940  1
  As  As48  1  0.047362  0.019628  0.838501  1
  As  As49  1  0.697777  0.831771  0.725429  1
  As  As50  1  0.291813  0.573100  0.081078  1
  As  As51  1  0.839185  0.908867  0.995623  1
  As  As52  1  0.419033  0.556327  0.309334  1
  As  As53  1  0.952638  0.980372  0.161499  1
  As  As54  1  0.973846  0.606524  0.356926  1
  As  As55  1  0.796117  0.618060  0.136060  1
