# generated using pymatgen
data_Zr3Al3Zn2Co
_symmetry_space_group_name_H-M   'P 1'
_cell_length_a   6.65974500
_cell_length_b   6.65974444
_cell_length_c   4.00435900
_cell_angle_alpha   90.00000000
_cell_angle_beta   90.00000000
_cell_angle_gamma   119.99999779
_symmetry_Int_Tables_number   1
_chemical_formula_structural   Zr3Al3Zn2Co
_chemical_formula_sum   'Zr3 Al3 Zn2 Co1'
_cell_volume   153.80796003
_cell_formula_units_Z   1
loop_
 _symmetry_equiv_pos_site_id
 _symmetry_equiv_pos_as_xyz
  1  'x, y, z'
loop_
 _atom_site_type_symbol
 _atom_site_label
 _atom_site_symmetry_multiplicity
 _atom_site_fract_x
 _atom_site_fract_y
 _atom_site_fract_z
 _atom_site_occupancy
  Zr  Zr0  1  0.000000  0.400430  0.500000  1
  Zr  Zr1  1  0.599570  0.599570  0.500000  1
  Zr  Zr2  1  0.400430  0.000000  0.500000  1
  Al  Al3  1  0.000000  0.763091  0.000000  1
  Al  Al4  1  0.236909  0.236909  0.000000  1
  Al  Al5  1  0.763091  0.000000  0.000000  1
  Zn  Zn6  1  0.333333  0.666667  0.000000  1
  Zn  Zn7  1  0.666667  0.333333  0.000000  1
  Co  Co8  1  0.000000  0.000000  0.500000  1
