# generated using pymatgen
data_Tb7Co6Sn22Hg
_symmetry_space_group_name_H-M   'P 1'
_cell_length_a   9.71252800
_cell_length_b   9.71252665
_cell_length_c   10.03091900
_cell_angle_alpha   90.00000000
_cell_angle_beta   90.00000000
_cell_angle_gamma   119.99999779
_symmetry_Int_Tables_number   1
_chemical_formula_structural   Tb7Co6Sn22Hg
_chemical_formula_sum   'Tb7 Co6 Sn22 Hg1'
_cell_volume   819.47530783
_cell_formula_units_Z   1
loop_
 _symmetry_equiv_pos_site_id
 _symmetry_equiv_pos_as_xyz
  1  'x, y, z'
loop_
 _atom_site_type_symbol
 _atom_site_label
 _atom_site_symmetry_multiplicity
 _atom_site_fract_x
 _atom_site_fract_y
 _atom_site_fract_z
 _atom_site_occupancy
  Tb  Tb0  1  0.000000  0.000000  0.000000  1
  Tb  Tb1  1  0.520938  0.479062  0.693802  1
  Tb  Tb2  1  0.520938  0.041874  0.693802  1
  Tb  Tb3  1  0.958126  0.479062  0.693802  1
  Tb  Tb4  1  0.041874  0.520938  0.306198  1
  Tb  Tb5  1  0.479062  0.958126  0.306198  1
  Tb  Tb6  1  0.479062  0.520938  0.306198  1
  Co  Co7  1  0.167843  0.832157  0.803256  1
  Co  Co8  1  0.167843  0.335686  0.803256  1
  Co  Co9  1  0.664314  0.832157  0.803256  1
  Co  Co10  1  0.335686  0.167843  0.196744  1
  Co  Co11  1  0.832157  0.664314  0.196744  1
  Co  Co12  1  0.832157  0.167843  0.196744  1
  Sn  Sn13  1  0.666667  0.333333  0.181412  1
  Sn  Sn14  1  0.666667  0.333333  0.881289  1
  Sn  Sn15  1  0.333333  0.666667  0.118711  1
  Sn  Sn16  1  0.346275  0.346275  0.000000  1
  Sn  Sn17  1  0.000000  0.653725  0.000000  1
  Sn  Sn18  1  0.653725  0.000000  0.000000  1
  Sn  Sn19  1  0.653725  0.653725  0.000000  1
  Sn  Sn20  1  0.333333  0.666667  0.818588  1
  Sn  Sn21  1  0.434936  0.217468  0.453264  1
  Sn  Sn22  1  0.217468  0.782532  0.546736  1
  Sn  Sn23  1  0.217468  0.434936  0.546736  1
  Sn  Sn24  1  0.565064  0.782532  0.546736  1
  Sn  Sn25  1  0.116561  0.883439  0.269692  1
  Sn  Sn26  1  0.782532  0.565064  0.453264  1
  Sn  Sn27  1  0.782532  0.217468  0.453264  1
  Sn  Sn28  1  0.346275  0.000000  0.000000  1
  Sn  Sn29  1  0.116561  0.233121  0.269692  1
  Sn  Sn30  1  0.766879  0.883439  0.269692  1
  Sn  Sn31  1  0.233121  0.116561  0.730308  1
  Sn  Sn32  1  0.883439  0.766879  0.730308  1
  Sn  Sn33  1  0.883439  0.116561  0.730308  1
  Sn  Sn34  1  0.000000  0.346275  0.000000  1
  Hg  Hg35  1  0.000000  0.000000  0.500000  1
