# generated using pymatgen
data_DyHf3(Al3Co)6
_symmetry_space_group_name_H-M   'P 1'
_cell_length_a   7.28638700
_cell_length_b   7.27582563
_cell_length_c   9.06043100
_cell_angle_alpha   90.00000000
_cell_angle_beta   90.00000000
_cell_angle_gamma   119.41835935
_symmetry_Int_Tables_number   1
_chemical_formula_structural   DyHf3(Al3Co)6
_chemical_formula_sum   'Dy1 Hf3 Al18 Co6'
_cell_volume   418.39807983
_cell_formula_units_Z   1
loop_
 _symmetry_equiv_pos_site_id
 _symmetry_equiv_pos_as_xyz
  1  'x, y, z'
loop_
 _atom_site_type_symbol
 _atom_site_label
 _atom_site_symmetry_multiplicity
 _atom_site_fract_x
 _atom_site_fract_y
 _atom_site_fract_z
 _atom_site_occupancy
  Dy  Dy0  1  0.327789  0.007886  0.750000  1
  Hf  Hf1  1  0.992367  0.672373  0.250000  1
  Hf  Hf2  1  0.006245  0.327757  0.750000  1
  Hf  Hf3  1  0.673575  0.993044  0.250000  1
  Al  Al4  1  0.117414  0.118274  0.250000  1
  Al  Al5  1  0.875471  0.879856  0.750000  1
  Al  Al6  1  0.329752  0.332389  0.543902  1
  Al  Al7  1  0.670147  0.670101  0.050542  1
  Al  Al8  1  0.329752  0.332389  0.956098  1
  Al  Al9  1  0.670147  0.670101  0.449458  1
  Al  Al10  1  0.338722  0.560617  0.250000  1
  Al  Al11  1  0.666901  0.445819  0.750000  1
  Al  Al12  1  0.561955  0.339816  0.250000  1
  Al  Al13  1  0.439393  0.654777  0.750000  1
  Al  Al14  1  0.994227  0.335012  0.074803  1
  Al  Al15  1  0.002959  0.662265  0.570383  1
  Al  Al16  1  0.335473  0.994464  0.422376  1
  Al  Al17  1  0.667743  0.005404  0.929596  1
  Al  Al18  1  0.002959  0.662265  0.929617  1
  Al  Al19  1  0.994227  0.335012  0.425197  1
  Al  Al20  1  0.667743  0.005404  0.570404  1
  Al  Al21  1  0.335473  0.994464  0.077624  1
  Co  Co22  1  0.998020  0.998874  0.002160  1
  Co  Co23  1  0.998020  0.998874  0.497840  1
  Co  Co24  1  0.673434  0.329184  0.001894  1
  Co  Co25  1  0.328330  0.672200  0.497738  1
  Co  Co26  1  0.328330  0.672200  0.002262  1
  Co  Co27  1  0.673434  0.329184  0.498106  1
