# generated using pymatgen
data_ScRuBr18
_symmetry_space_group_name_H-M   'P 1'
_cell_length_a   9.18437530
_cell_length_b   9.24443673
_cell_length_c   9.08440489
_cell_angle_alpha   87.65832121
_cell_angle_beta   87.67041233
_cell_angle_gamma   88.51890129
_symmetry_Int_Tables_number   1
_chemical_formula_structural   ScRuBr18
_chemical_formula_sum   'Sc1 Ru1 Br18'
_cell_volume   769.79871264
_cell_formula_units_Z   1
loop_
 _symmetry_equiv_pos_site_id
 _symmetry_equiv_pos_as_xyz
  1  'x, y, z'
loop_
 _atom_site_type_symbol
 _atom_site_label
 _atom_site_symmetry_multiplicity
 _atom_site_fract_x
 _atom_site_fract_y
 _atom_site_fract_z
 _atom_site_occupancy
  Sc  Sc0  1  0.000000  0.000000  0.000000  1
  Ru  Ru1  1  0.500000  0.500000  0.500000  1
  Br  Br2  1  0.772511  0.485996  0.503022  1
  Br  Br3  1  0.499499  0.770971  0.466124  1
  Br  Br4  1  0.480996  0.512992  0.774645  1
  Br  Br5  1  0.227489  0.514004  0.496978  1
  Br  Br6  1  0.500501  0.229029  0.533876  1
  Br  Br7  1  0.519004  0.487008  0.225355  1
  Br  Br8  1  0.884216  0.379187  0.738617  1
  Br  Br9  1  0.740752  0.885297  0.379617  1
  Br  Br10  1  0.379644  0.747745  0.882691  1
  Br  Br11  1  0.115784  0.620813  0.261383  1
  Br  Br12  1  0.259248  0.114703  0.620383  1
  Br  Br13  1  0.620356  0.252255  0.117309  1
  Br  Br14  1  0.028418  0.969399  0.707609  1
  Br  Br15  1  0.711183  0.025863  0.972919  1
  Br  Br16  1  0.969939  0.712645  0.033299  1
  Br  Br17  1  0.971582  0.030601  0.292391  1
  Br  Br18  1  0.288817  0.974137  0.027081  1
  Br  Br19  1  0.030061  0.287355  0.966701  1
