# generated using pymatgen
data_Y5Th3(Nb3Si4)4
_symmetry_space_group_name_H-M   'P 1'
_cell_length_a   7.12423269
_cell_length_b   7.12804207
_cell_length_c   13.21163369
_cell_angle_alpha   89.88647194
_cell_angle_beta   90.01909120
_cell_angle_gamma   90.07665694
_symmetry_Int_Tables_number   1
_chemical_formula_structural   Y5Th3(Nb3Si4)4
_chemical_formula_sum   'Y5 Th3 Nb12 Si16'
_cell_volume   670.90898735
_cell_formula_units_Z   1
loop_
 _symmetry_equiv_pos_site_id
 _symmetry_equiv_pos_as_xyz
  1  'x, y, z'
loop_
 _atom_site_type_symbol
 _atom_site_label
 _atom_site_symmetry_multiplicity
 _atom_site_fract_x
 _atom_site_fract_y
 _atom_site_fract_z
 _atom_site_occupancy
  Y  Y0  1  0.999406  0.341549  0.216049  1
  Y  Y1  1  0.999677  0.659268  0.718369  1
  Y  Y2  1  0.158945  0.500186  0.467196  1
  Y  Y3  1  0.500146  0.840332  0.032270  1
  Y  Y4  1  0.840250  0.500334  0.968046  1
  Th  Th5  1  0.497529  0.161533  0.532296  1
  Th  Th6  1  0.339063  0.996534  0.782884  1
  Th  Th7  1  0.661240  0.003595  0.281937  1
  Nb  Nb8  1  0.169114  0.169967  0.999081  1
  Nb  Nb9  1  0.829293  0.831525  0.499322  1
  Nb  Nb10  1  0.331061  0.671065  0.249110  1
  Nb  Nb11  1  0.668145  0.329143  0.750893  1
  Nb  Nb12  1  0.156353  0.990914  0.374328  1
  Nb  Nb13  1  0.845723  0.007329  0.876139  1
  Nb  Nb14  1  0.508755  0.655795  0.626102  1
  Nb  Nb15  1  0.345067  0.493512  0.875898  1
  Nb  Nb16  1  0.491848  0.345123  0.125245  1
  Nb  Nb17  1  0.655817  0.504129  0.374358  1
  Nb  Nb18  1  0.996521  0.156606  0.625424  1
  Nb  Nb19  1  0.004701  0.844255  0.124954  1
  Si  Si20  1  0.287524  0.044670  0.183794  1
  Si  Si21  1  0.715285  0.953526  0.687316  1
  Si  Si22  1  0.453428  0.784927  0.436590  1
  Si  Si23  1  0.206111  0.543430  0.063401  1
  Si  Si24  1  0.546378  0.208853  0.938834  1
  Si  Si25  1  0.797125  0.460130  0.564004  1
  Si  Si26  1  0.039246  0.297687  0.814258  1
  Si  Si27  1  0.958448  0.702632  0.312955  1
  Si  Si28  1  0.364059  0.300216  0.314762  1
  Si  Si29  1  0.634976  0.700441  0.817663  1
  Si  Si30  1  0.199497  0.864534  0.565437  1
  Si  Si31  1  0.127420  0.791920  0.935844  1
  Si  Si32  1  0.797652  0.132558  0.065386  1
  Si  Si33  1  0.878091  0.207775  0.434101  1
  Si  Si34  1  0.291649  0.377276  0.684576  1
  Si  Si35  1  0.704460  0.626731  0.181176  1
