# generated using pymatgen
data_CaLa6Ru4C9
_symmetry_space_group_name_H-M   'P 1'
_cell_length_a   6.57749787
_cell_length_b   6.57749885
_cell_length_c   11.93396339
_cell_angle_alpha   71.04122246
_cell_angle_beta   71.04122829
_cell_angle_gamma   48.42014349
_symmetry_Int_Tables_number   1
_chemical_formula_structural   CaLa6Ru4C9
_chemical_formula_sum   'Ca1 La6 Ru4 C9'
_cell_volume   360.87788058
_cell_formula_units_Z   1
loop_
 _symmetry_equiv_pos_site_id
 _symmetry_equiv_pos_as_xyz
  1  'x, y, z'
loop_
 _atom_site_type_symbol
 _atom_site_label
 _atom_site_symmetry_multiplicity
 _atom_site_fract_x
 _atom_site_fract_y
 _atom_site_fract_z
 _atom_site_occupancy
  Ca  Ca0  1  0.000000  0.000000  0.000000  1
  La  La1  1  0.372343  0.372343  0.847231  1
  La  La2  1  0.144031  0.144031  0.683282  1
  La  La3  1  0.855969  0.855969  0.316718  1
  La  La4  1  0.138229  0.138229  0.382908  1
  La  La5  1  0.861771  0.861771  0.617092  1
  La  La6  1  0.627657  0.627657  0.152769  1
  Ru  Ru7  1  0.358655  0.358655  0.141368  1
  Ru  Ru8  1  0.565314  0.565314  0.571306  1
  Ru  Ru9  1  0.434686  0.434686  0.428694  1
  Ru  Ru10  1  0.641345  0.641345  0.858632  1
  C  C11  1  0.385568  0.385568  0.289819  1
  C  C12  1  0.921064  0.921064  0.820637  1
  C  C13  1  0.391612  0.391612  0.613591  1
  C  C14  1  0.196485  0.196485  0.141291  1
  C  C15  1  0.803515  0.803515  0.858709  1
  C  C16  1  0.500000  0.500000  0.000000  1
  C  C17  1  0.078936  0.078936  0.179363  1
  C  C18  1  0.614432  0.614432  0.710181  1
  C  C19  1  0.608388  0.608388  0.386409  1
