# generated using pymatgen
data_MgTi3(AsRh5)2
_symmetry_space_group_name_H-M   'P 1'
_cell_length_a   3.99727300
_cell_length_b   5.46770336
_cell_length_c   10.66191178
_cell_angle_alpha   89.71092466
_cell_angle_beta   90.00000000
_cell_angle_gamma   90.00000000
_symmetry_Int_Tables_number   1
_chemical_formula_structural   MgTi3(AsRh5)2
_chemical_formula_sum   'Mg1 Ti3 As2 Rh10'
_cell_volume   233.02274366
_cell_formula_units_Z   1
loop_
 _symmetry_equiv_pos_site_id
 _symmetry_equiv_pos_as_xyz
  1  'x, y, z'
loop_
 _atom_site_type_symbol
 _atom_site_label
 _atom_site_symmetry_multiplicity
 _atom_site_fract_x
 _atom_site_fract_y
 _atom_site_fract_z
 _atom_site_occupancy
  Mg  Mg0  1  0.500000  0.829994  0.141847  1
  Ti  Ti1  1  0.500000  0.331603  0.352609  1
  Ti  Ti2  1  0.500000  0.667455  0.642135  1
  Ti  Ti3  1  0.500000  0.164507  0.860312  1
  As  As4  1  0.000000  0.003163  0.500996  1
  As  As5  1  0.000000  0.498140  0.999271  1
  Rh  Rh6  1  0.500000  0.318766  0.106640  1
  Rh  Rh7  1  0.500000  0.684468  0.887802  1
  Rh  Rh8  1  0.500000  0.811455  0.399308  1
  Rh  Rh9  1  0.500000  0.190795  0.608428  1
  Rh  Rh10  1  0.000000  0.925418  0.740932  1
  Rh  Rh11  1  0.000000  0.077842  0.261692  1
  Rh  Rh12  1  0.000000  0.425685  0.756706  1
  Rh  Rh13  1  0.000000  0.568415  0.245766  1
  Rh  Rh14  1  0.000000  0.499126  0.500851  1
  Rh  Rh15  1  0.000000  0.003169  0.994703  1
