# generated using pymatgen
data_Ca2GaPd3
_symmetry_space_group_name_H-M   'P 1'
_cell_length_a   5.68649017
_cell_length_b   5.28592895
_cell_length_c   5.68648900
_cell_angle_alpha   57.45992550
_cell_angle_beta   60.00000102
_cell_angle_gamma   57.45991770
_symmetry_Int_Tables_number   1
_chemical_formula_structural   Ca2GaPd3
_chemical_formula_sum   'Ca2 Ga1 Pd3'
_cell_volume   116.01312484
_cell_formula_units_Z   1
loop_
 _symmetry_equiv_pos_site_id
 _symmetry_equiv_pos_as_xyz
  1  'x, y, z'
loop_
 _atom_site_type_symbol
 _atom_site_label
 _atom_site_symmetry_multiplicity
 _atom_site_fract_x
 _atom_site_fract_y
 _atom_site_fract_z
 _atom_site_occupancy
  Ca  Ca0  1  0.752440  0.742681  0.752440  1
  Ca  Ca1  1  0.497560  0.507319  0.497560  1
  Ga  Ga2  1  0.125000  0.625000  0.125000  1
  Pd  Pd3  1  0.125000  0.125000  0.625000  1
  Pd  Pd4  1  0.625000  0.125000  0.125000  1
  Pd  Pd5  1  0.125000  0.125000  0.125000  1
