# generated using pymatgen
data_YbEu(SnHg)2
_symmetry_space_group_name_H-M   'P 1'
_cell_length_a   4.93492100
_cell_length_b   4.93492029
_cell_length_c   7.78458800
_cell_angle_alpha   90.00000000
_cell_angle_beta   90.00000000
_cell_angle_gamma   119.99998464
_symmetry_Int_Tables_number   1
_chemical_formula_structural   YbEu(SnHg)2
_chemical_formula_sum   'Yb1 Eu1 Sn2 Hg2'
_cell_volume   164.18242973
_cell_formula_units_Z   1
loop_
 _symmetry_equiv_pos_site_id
 _symmetry_equiv_pos_as_xyz
  1  'x, y, z'
loop_
 _atom_site_type_symbol
 _atom_site_label
 _atom_site_symmetry_multiplicity
 _atom_site_fract_x
 _atom_site_fract_y
 _atom_site_fract_z
 _atom_site_occupancy
  Yb  Yb0  1  0.000000  0.000000  0.741394  1
  Eu  Eu1  1  0.000000  0.000000  0.242414  1
  Sn  Sn2  1  0.666667  0.333333  0.951943  1
  Sn  Sn3  1  0.333333  0.666667  0.459244  1
  Hg  Hg4  1  0.666667  0.333333  0.557520  1
  Hg  Hg5  1  0.333333  0.666667  0.041484  1
