# generated using pymatgen
data_Gd6Al2Tc14O
_symmetry_space_group_name_H-M   'P 1'
_cell_length_a   8.05321214
_cell_length_b   8.08010475
_cell_length_c   8.05220600
_cell_angle_alpha   109.07949338
_cell_angle_beta   108.94291753
_cell_angle_gamma   110.46661642
_symmetry_Int_Tables_number   1
_chemical_formula_structural   Gd6Al2Tc14O
_chemical_formula_sum   'Gd6 Al2 Tc14 O1'
_cell_volume   402.90600323
_cell_formula_units_Z   1
loop_
 _symmetry_equiv_pos_site_id
 _symmetry_equiv_pos_as_xyz
  1  'x, y, z'
loop_
 _atom_site_type_symbol
 _atom_site_label
 _atom_site_symmetry_multiplicity
 _atom_site_fract_x
 _atom_site_fract_y
 _atom_site_fract_z
 _atom_site_occupancy
  Gd  Gd0  1  0.267282  0.003523  0.261769  1
  Gd  Gd1  1  0.001732  0.259908  0.259868  1
  Gd  Gd2  1  0.005513  0.741753  0.738231  1
  Gd  Gd3  1  0.272896  0.271241  0.000000  1
  Gd  Gd4  1  0.734840  0.732956  0.000000  1
  Gd  Gd5  1  0.741864  0.000040  0.740132  1
  Al  Al6  1  0.344744  0.999620  0.652876  1
  Al  Al7  1  0.691869  0.346743  0.347124  1
  Tc  Tc8  1  0.998642  0.998409  0.490595  1
  Tc  Tc9  1  0.516145  0.998956  0.000000  1
  Tc  Tc10  1  0.001299  0.499718  0.000000  1
  Tc  Tc11  1  0.508047  0.507813  0.509405  1
  Tc  Tc12  1  0.989262  0.339438  0.655150  1
  Tc  Tc13  1  0.650898  0.656575  0.318600  1
  Tc  Tc14  1  0.339757  0.654020  0.000000  1
  Tc  Tc15  1  0.334112  0.684288  0.344850  1
  Tc  Tc16  1  0.654482  0.319268  0.660338  1
  Tc  Tc17  1  0.332297  0.337974  0.681400  1
  Tc  Tc18  1  0.308399  0.654981  0.656903  1
  Tc  Tc19  1  0.655261  0.334796  0.000000  1
  Tc  Tc20  1  0.994144  0.658932  0.339662  1
  Tc  Tc21  1  0.651497  0.998078  0.343097  1
  O  O22  1  0.005023  0.000975  0.000000  1
