# generated using pymatgen
data_Er5Ga2P10Ir19
_symmetry_space_group_name_H-M   'P 1'
_cell_length_a   12.78523702
_cell_length_b   12.78409522
_cell_length_c   3.96367500
_cell_angle_alpha   90.00000000
_cell_angle_beta   90.00000000
_cell_angle_gamma   119.99704877
_symmetry_Int_Tables_number   1
_chemical_formula_structural   Er5Ga2P10Ir19
_chemical_formula_sum   'Er5 Ga2 P10 Ir19'
_cell_volume   561.07428403
_cell_formula_units_Z   1
loop_
 _symmetry_equiv_pos_site_id
 _symmetry_equiv_pos_as_xyz
  1  'x, y, z'
loop_
 _atom_site_type_symbol
 _atom_site_label
 _atom_site_symmetry_multiplicity
 _atom_site_fract_x
 _atom_site_fract_y
 _atom_site_fract_z
 _atom_site_occupancy
  Er  Er0  1  0.662829  0.329852  0.000000  1
  Er  Er1  1  0.337171  0.667024  0.000000  1
  Er  Er2  1  0.823203  0.819611  0.500000  1
  Er  Er3  1  0.176797  0.996408  0.500000  1
  Er  Er4  1  0.000000  0.183772  0.500000  1
  Ga  Ga5  1  0.644382  0.643885  0.000000  1
  Ga  Ga6  1  0.355618  0.999503  0.000000  1
  P  P7  1  0.682947  0.166828  0.500000  1
  P  P8  1  0.819932  0.511625  0.500000  1
  P  P9  1  0.479556  0.310398  0.500000  1
  P  P10  1  0.180068  0.691693  0.500000  1
  P  P11  1  0.520444  0.830842  0.500000  1
  P  P12  1  0.317053  0.483881  0.500000  1
  P  P13  1  0.000000  0.356972  0.000000  1
  P  P14  1  0.175439  0.176327  0.000000  1
  P  P15  1  0.824561  0.000887  0.000000  1
  P  P16  1  0.000000  0.815840  0.000000  1
  Ir  Ir17  1  0.813857  0.183220  0.000000  1
  Ir  Ir18  1  0.825891  0.614298  0.000000  1
  Ir  Ir19  1  0.376720  0.208025  0.000000  1
  Ir  Ir20  1  0.174109  0.788407  0.000000  1
  Ir  Ir21  1  0.623280  0.831304  0.000000  1
  Ir  Ir22  1  0.186143  0.369363  0.000000  1
  Ir  Ir23  1  0.438686  0.458622  0.000000  1
  Ir  Ir24  1  0.561314  0.019936  0.000000  1
  Ir  Ir25  1  0.000000  0.534075  0.000000  1
  Ir  Ir26  1  0.277997  0.283959  0.500000  1
  Ir  Ir27  1  0.722003  0.005962  0.500000  1
  Ir  Ir28  1  0.000000  0.714677  0.500000  1
  Ir  Ir29  1  0.861736  0.357260  0.500000  1
  Ir  Ir30  1  0.631625  0.503194  0.500000  1
  Ir  Ir31  1  0.490985  0.135406  0.500000  1
  Ir  Ir32  1  0.368375  0.871568  0.500000  1
  Ir  Ir33  1  0.509015  0.644419  0.500000  1
  Ir  Ir34  1  0.138264  0.495523  0.500000  1
  Ir  Ir35  1  0.000000  0.995436  0.000000  1
