# generated using pymatgen
data_La5Zn2Ru3
_symmetry_space_group_name_H-M   'P 1'
_cell_length_a   8.59702509
_cell_length_b   8.59702484
_cell_length_c   8.59702500
_cell_angle_alpha   109.47122102
_cell_angle_beta   109.47122041
_cell_angle_gamma   109.47122480
_symmetry_Int_Tables_number   1
_chemical_formula_structural   La5Zn2Ru3
_chemical_formula_sum   'La10 Zn4 Ru6'
_cell_volume   489.12814288
_cell_formula_units_Z   2
loop_
 _symmetry_equiv_pos_site_id
 _symmetry_equiv_pos_as_xyz
  1  'x, y, z'
loop_
 _atom_site_type_symbol
 _atom_site_label
 _atom_site_symmetry_multiplicity
 _atom_site_fract_x
 _atom_site_fract_y
 _atom_site_fract_z
 _atom_site_occupancy
  La  La0  1  0.250000  0.689899  0.439900  1
  La  La1  1  0.750000  0.810101  0.060101  1
  La  La2  1  0.439900  0.250000  0.689899  1
  La  La3  1  0.689899  0.439900  0.250000  1
  La  La4  1  0.060101  0.750000  0.810101  1
  La  La5  1  0.810101  0.060101  0.750000  1
  La  La6  1  0.216215  0.216215  0.216215  1
  La  La7  1  0.500001  0.000000  0.283785  1
  La  La8  1  0.283785  0.500001  0.000000  1
  La  La9  1  0.000000  0.283785  0.500001  1
  Zn  Zn10  1  0.500001  0.000000  0.915102  1
  Zn  Zn11  1  0.584898  0.584898  0.584898  1
  Zn  Zn12  1  0.915102  0.500001  0.000000  1
  Zn  Zn13  1  0.000000  0.915102  0.500001  1
  Ru  Ru14  1  0.250001  0.125115  0.875115  1
  Ru  Ru15  1  0.750000  0.374884  0.624884  1
  Ru  Ru16  1  0.875115  0.250001  0.125115  1
  Ru  Ru17  1  0.125115  0.875115  0.250001  1
  Ru  Ru18  1  0.624884  0.750000  0.374884  1
  Ru  Ru19  1  0.374884  0.624884  0.750000  1
