# generated using pymatgen
data_Cs2MnSiS4
_symmetry_space_group_name_H-M   'P 1'
_cell_length_a   13.57615418
_cell_length_b   12.11923569
_cell_length_c   7.39942400
_cell_angle_alpha   84.45975705
_cell_angle_beta   62.68728092
_cell_angle_gamma   32.85295956
_symmetry_Int_Tables_number   1
_chemical_formula_structural   Cs2MnSiS4
_chemical_formula_sum   'Cs4 Mn2 Si2 S8'
_cell_volume   469.71548476
_cell_formula_units_Z   2
loop_
 _symmetry_equiv_pos_site_id
 _symmetry_equiv_pos_as_xyz
  1  'x, y, z'
loop_
 _atom_site_type_symbol
 _atom_site_label
 _atom_site_symmetry_multiplicity
 _atom_site_fract_x
 _atom_site_fract_y
 _atom_site_fract_z
 _atom_site_occupancy
  Cs  Cs0  1  0.571587  0.571587  0.928413  1
  Cs  Cs1  1  0.928413  0.928413  0.571587  1
  Cs  Cs2  1  0.321587  0.321587  0.678413  1
  Cs  Cs3  1  0.678413  0.678413  0.321587  1
  Mn  Mn4  1  0.000000  0.000000  0.000000  1
  Mn  Mn5  1  0.250000  0.250000  0.250000  1
  Si  Si6  1  0.750000  0.750000  0.750000  1
  Si  Si7  1  0.500000  0.500000  0.500000  1
  S  S8  1  0.242565  0.859982  0.577053  1
  S  S9  1  0.320401  0.577053  0.859982  1
  S  S10  1  0.577053  0.320401  0.242565  1
  S  S11  1  0.859982  0.242565  0.320401  1
  S  S12  1  0.390018  0.007435  0.929599  1
  S  S13  1  0.929599  0.672947  0.390018  1
  S  S14  1  0.672947  0.929599  0.007435  1
  S  S15  1  0.007435  0.390018  0.672947  1
