# generated using pymatgen
data_Dy11ThTc3Pt
_symmetry_space_group_name_H-M   'P 1'
_cell_length_a   6.35395567
_cell_length_b   7.36716371
_cell_length_c   9.29700800
_cell_angle_alpha   90.00000000
_cell_angle_beta   90.00000000
_cell_angle_gamma   90.57073705
_symmetry_Int_Tables_number   1
_chemical_formula_structural   Dy11ThTc3Pt
_chemical_formula_sum   'Dy11 Th1 Tc3 Pt1'
_cell_volume   435.17722519
_cell_formula_units_Z   1
loop_
 _symmetry_equiv_pos_site_id
 _symmetry_equiv_pos_as_xyz
  1  'x, y, z'
loop_
 _atom_site_type_symbol
 _atom_site_label
 _atom_site_symmetry_multiplicity
 _atom_site_fract_x
 _atom_site_fract_y
 _atom_site_fract_z
 _atom_site_occupancy
  Dy  Dy0  1  0.329685  0.678056  0.067285  1
  Dy  Dy1  1  0.167685  0.177327  0.436117  1
  Dy  Dy2  1  0.669355  0.315183  0.562362  1
  Dy  Dy3  1  0.834569  0.829280  0.936797  1
  Dy  Dy4  1  0.669355  0.315183  0.937638  1
  Dy  Dy5  1  0.834569  0.829280  0.563203  1
  Dy  Dy6  1  0.329685  0.678056  0.432715  1
  Dy  Dy7  1  0.167685  0.177327  0.063883  1
  Dy  Dy8  1  0.624995  0.040552  0.250000  1
  Dy  Dy9  1  0.132608  0.457082  0.750000  1
  Dy  Dy10  1  0.368302  0.964528  0.750000  1
  Th  Th11  1  0.860638  0.548818  0.250000  1
  Tc  Tc12  1  0.023680  0.872799  0.250000  1
  Tc  Tc13  1  0.480978  0.389256  0.250000  1
  Tc  Tc14  1  0.959113  0.113838  0.750000  1
  Pt  Pt15  1  0.547096  0.613433  0.750000  1
