# generated using pymatgen
data_Sm(BrO3)3
_symmetry_space_group_name_H-M   'P 1'
_cell_length_a   8.02977428
_cell_length_b   8.02977440
_cell_length_c   8.29348952
_cell_angle_alpha   83.88586071
_cell_angle_beta   83.88586171
_cell_angle_gamma   78.18092821
_symmetry_Int_Tables_number   1
_chemical_formula_structural   Sm(BrO3)3
_chemical_formula_sum   'Sm2 Br6 O18'
_cell_volume   518.45304458
_cell_formula_units_Z   2
loop_
 _symmetry_equiv_pos_site_id
 _symmetry_equiv_pos_as_xyz
  1  'x, y, z'
loop_
 _atom_site_type_symbol
 _atom_site_label
 _atom_site_symmetry_multiplicity
 _atom_site_fract_x
 _atom_site_fract_y
 _atom_site_fract_z
 _atom_site_occupancy
  Sm  Sm0  1  0.235573  0.746456  0.973608  1
  Sm  Sm1  1  0.746456  0.235573  0.473608  1
  Br  Br2  1  0.170977  0.367063  0.277422  1
  Br  Br3  1  0.367063  0.170977  0.777422  1
  Br  Br4  1  0.082610  0.821443  0.557389  1
  Br  Br5  1  0.821443  0.082610  0.057389  1
  Br  Br6  1  0.680732  0.570881  0.795251  1
  Br  Br7  1  0.570881  0.680732  0.295251  1
  O  O8  1  0.152102  0.509251  0.109010  1
  O  O9  1  0.509251  0.152102  0.609010  1
  O  O10  1  0.965523  0.338032  0.317341  1
  O  O11  1  0.338032  0.965523  0.817341  1
  O  O12  1  0.281975  0.188595  0.211254  1
  O  O13  1  0.188595  0.281975  0.711254  1
  O  O14  1  0.083623  0.731481  0.752920  1
  O  O15  1  0.731481  0.083623  0.252920  1
  O  O16  1  0.941895  0.009574  0.579066  1
  O  O17  1  0.009574  0.941895  0.079066  1
  O  O18  1  0.987594  0.700983  0.463900  1
  O  O19  1  0.700983  0.987594  0.963900  1
  O  O20  1  0.467705  0.570062  0.839070  1
  O  O21  1  0.570062  0.467705  0.339070  1
  O  O22  1  0.746636  0.393125  0.691946  1
  O  O23  1  0.393125  0.746636  0.191946  1
  O  O24  1  0.764487  0.520624  0.970623  1
  O  O25  1  0.520624  0.764487  0.470623  1
