# generated using pymatgen
data_Dy2YCo8TcP6
_symmetry_space_group_name_H-M   'P 1'
_cell_length_a   3.71140500
_cell_length_b   10.50926700
_cell_length_c   12.21537700
_cell_angle_alpha   90.00000000
_cell_angle_beta   90.00000000
_cell_angle_gamma   90.00000000
_symmetry_Int_Tables_number   1
_chemical_formula_structural   Dy2YCo8TcP6
_chemical_formula_sum   'Dy4 Y2 Co16 Tc2 P12'
_cell_volume   476.45034905
_cell_formula_units_Z   2
loop_
 _symmetry_equiv_pos_site_id
 _symmetry_equiv_pos_as_xyz
  1  'x, y, z'
loop_
 _atom_site_type_symbol
 _atom_site_label
 _atom_site_symmetry_multiplicity
 _atom_site_fract_x
 _atom_site_fract_y
 _atom_site_fract_z
 _atom_site_occupancy
  Dy  Dy0  1  0.500000  0.817842  0.206132  1
  Dy  Dy1  1  0.500000  0.182158  0.206132  1
  Dy  Dy2  1  0.000000  0.682158  0.793868  1
  Dy  Dy3  1  0.000000  0.317842  0.793868  1
  Y  Y4  1  0.000000  0.500000  0.523622  1
  Y  Y5  1  0.500000  0.000000  0.476378  1
  Co  Co6  1  0.500000  0.500000  0.702927  1
  Co  Co7  1  0.000000  0.000000  0.297073  1
  Co  Co8  1  0.000000  0.500000  0.987172  1
  Co  Co9  1  0.500000  0.000000  0.012828  1
  Co  Co10  1  0.500000  0.332195  0.990015  1
  Co  Co11  1  0.500000  0.667805  0.990015  1
  Co  Co12  1  0.000000  0.167805  0.009985  1
  Co  Co13  1  0.000000  0.832195  0.009985  1
  Co  Co14  1  0.500000  0.296568  0.431049  1
  Co  Co15  1  0.500000  0.703432  0.431049  1
  Co  Co16  1  0.000000  0.203432  0.568951  1
  Co  Co17  1  0.000000  0.796568  0.568951  1
  Co  Co18  1  0.500000  0.879094  0.708000  1
  Co  Co19  1  0.500000  0.120906  0.708000  1
  Co  Co20  1  0.000000  0.620906  0.292000  1
  Co  Co21  1  0.000000  0.379094  0.292000  1
  Tc  Tc22  1  0.500000  0.500000  0.156365  1
  Tc  Tc23  1  0.000000  0.000000  0.843635  1
  P  P24  1  0.500000  0.500000  0.881212  1
  P  P25  1  0.000000  0.000000  0.118788  1
  P  P26  1  0.500000  0.500000  0.348080  1
  P  P27  1  0.000000  0.000000  0.651920  1
  P  P28  1  0.500000  0.311451  0.616049  1
  P  P29  1  0.500000  0.688549  0.616049  1
  P  P30  1  0.000000  0.188549  0.383951  1
  P  P31  1  0.000000  0.811451  0.383951  1
  P  P32  1  0.500000  0.846134  0.892855  1
  P  P33  1  0.500000  0.153866  0.892855  1
  P  P34  1  0.000000  0.653866  0.107145  1
  P  P35  1  0.000000  0.346134  0.107145  1
