# generated using pymatgen
data_TmZr(Al3Rh)3
_symmetry_space_group_name_H-M   'P 1'
_cell_length_a   7.51362701
_cell_length_b   7.49709782
_cell_length_c   9.34337900
_cell_angle_alpha   90.00000000
_cell_angle_beta   90.00000000
_cell_angle_gamma   119.69722616
_symmetry_Int_Tables_number   1
_chemical_formula_structural   TmZr(Al3Rh)3
_chemical_formula_sum   'Tm2 Zr2 Al18 Rh6'
_cell_volume   457.18750128
_cell_formula_units_Z   2
loop_
 _symmetry_equiv_pos_site_id
 _symmetry_equiv_pos_as_xyz
  1  'x, y, z'
loop_
 _atom_site_type_symbol
 _atom_site_label
 _atom_site_symmetry_multiplicity
 _atom_site_fract_x
 _atom_site_fract_y
 _atom_site_fract_z
 _atom_site_occupancy
  Tm  Tm0  1  0.670417  0.994036  0.250000  1
  Tm  Tm1  1  0.329583  0.005964  0.750000  1
  Zr  Zr2  1  0.994755  0.670710  0.250000  1
  Zr  Zr3  1  0.005245  0.329290  0.750000  1
  Al  Al4  1  0.124052  0.122346  0.250000  1
  Al  Al5  1  0.875948  0.877654  0.750000  1
  Al  Al6  1  0.998908  0.336848  0.075406  1
  Al  Al7  1  0.001092  0.663152  0.924594  1
  Al  Al8  1  0.001092  0.663152  0.575406  1
  Al  Al9  1  0.332238  0.997781  0.421412  1
  Al  Al10  1  0.998908  0.336848  0.424594  1
  Al  Al11  1  0.667762  0.002219  0.578588  1
  Al  Al12  1  0.667762  0.002219  0.921412  1
  Al  Al13  1  0.332238  0.997781  0.078588  1
  Al  Al14  1  0.330899  0.333154  0.556439  1
  Al  Al15  1  0.669101  0.666846  0.443561  1
  Al  Al16  1  0.669101  0.666846  0.056439  1
  Al  Al17  1  0.330899  0.333154  0.943561  1
  Al  Al18  1  0.333959  0.548934  0.250000  1
  Al  Al19  1  0.666041  0.451066  0.750000  1
  Al  Al20  1  0.556097  0.343472  0.250000  1
  Al  Al21  1  0.443903  0.656528  0.750000  1
  Rh  Rh22  1  0.671831  0.327001  0.999297  1
  Rh  Rh23  1  0.328169  0.672999  0.000703  1
  Rh  Rh24  1  0.328169  0.672999  0.499297  1
  Rh  Rh25  1  0.671831  0.327001  0.500703  1
  Rh  Rh26  1  0.000000  0.000000  0.000000  1
  Rh  Rh27  1  0.000000  0.000000  0.500000  1
