# generated using pymatgen
data_Tb4Dy3Tm(ReC2)4
_symmetry_space_group_name_H-M   'P 1'
_cell_length_a   5.12120900
_cell_length_b   6.59386249
_cell_length_c   9.87202321
_cell_angle_alpha   89.92309389
_cell_angle_beta   90.00000000
_cell_angle_gamma   90.00000000
_symmetry_Int_Tables_number   1
_chemical_formula_structural   Tb4Dy3Tm(ReC2)4
_chemical_formula_sum   'Tb4 Dy3 Tm1 Re4 C8'
_cell_volume   333.36358881
_cell_formula_units_Z   1
loop_
 _symmetry_equiv_pos_site_id
 _symmetry_equiv_pos_as_xyz
  1  'x, y, z'
loop_
 _atom_site_type_symbol
 _atom_site_label
 _atom_site_symmetry_multiplicity
 _atom_site_fract_x
 _atom_site_fract_y
 _atom_site_fract_z
 _atom_site_occupancy
  Tb  Tb0  1  0.750000  0.466340  0.785760  1
  Tb  Tb1  1  0.250000  0.033292  0.283944  1
  Tb  Tb2  1  0.750000  0.967211  0.715484  1
  Tb  Tb3  1  0.250000  0.533058  0.214152  1
  Dy  Dy4  1  0.750000  0.821802  0.055760  1
  Dy  Dy5  1  0.250000  0.678503  0.556833  1
  Dy  Dy6  1  0.750000  0.321153  0.443537  1
  Tm  Tm7  1  0.250000  0.176162  0.942843  1
  Re  Re8  1  0.750000  0.278879  0.133336  1
  Re  Re9  1  0.250000  0.221442  0.635763  1
  Re  Re10  1  0.750000  0.778805  0.364877  1
  Re  Re11  1  0.250000  0.721544  0.866254  1
  C  C12  1  0.750000  0.175584  0.950824  1
  C  C13  1  0.250000  0.826424  0.048273  1
  C  C14  1  0.750000  0.676883  0.547740  1
  C  C15  1  0.250000  0.323189  0.452585  1
  C  C16  1  0.750000  0.046201  0.258665  1
  C  C17  1  0.250000  0.453137  0.761198  1
  C  C18  1  0.750000  0.545794  0.240264  1
  C  C19  1  0.250000  0.954598  0.741909  1
