# generated using pymatgen
data_Tb2HoEr(Sn5Rh3)2
_symmetry_space_group_name_H-M   'P 1'
_cell_length_a   13.47091702
_cell_length_b   13.47091677
_cell_length_c   7.25538252
_cell_angle_alpha   90.02597601
_cell_angle_beta   89.97402337
_cell_angle_gamma   161.07048915
_symmetry_Int_Tables_number   1
_chemical_formula_structural   Tb2HoEr(Sn5Rh3)2
_chemical_formula_sum   'Tb2 Ho1 Er1 Sn10 Rh6'
_cell_volume   427.11190415
_cell_formula_units_Z   1
loop_
 _symmetry_equiv_pos_site_id
 _symmetry_equiv_pos_as_xyz
  1  'x, y, z'
loop_
 _atom_site_type_symbol
 _atom_site_label
 _atom_site_symmetry_multiplicity
 _atom_site_fract_x
 _atom_site_fract_y
 _atom_site_fract_z
 _atom_site_occupancy
  Tb  Tb0  1  0.172078  0.827922  0.744929  1
  Tb  Tb1  1  0.827857  0.172143  0.244993  1
  Ho  Ho2  1  0.523857  0.476143  0.261751  1
  Er  Er3  1  0.475972  0.524028  0.761387  1
  Sn  Sn4  1  0.881143  0.118857  0.769986  1
  Sn  Sn5  1  0.118976  0.881024  0.270099  1
  Sn  Sn6  1  0.704725  0.295275  0.451710  1
  Sn  Sn7  1  0.295388  0.704612  0.951683  1
  Sn  Sn8  1  0.596069  0.403931  0.885814  1
  Sn  Sn9  1  0.403812  0.596188  0.385727  1
  Sn  Sn10  1  0.952828  0.047172  0.101176  1
  Sn  Sn11  1  0.046999  0.953001  0.601720  1
  Sn  Sn12  1  0.291072  0.708928  0.522577  1
  Sn  Sn13  1  0.708960  0.291040  0.022414  1
  Rh  Rh14  1  0.050110  0.949890  0.982136  1
  Rh  Rh15  1  0.949830  0.050170  0.482224  1
  Rh  Rh16  1  0.777569  0.222431  0.736232  1
  Rh  Rh17  1  0.222567  0.777433  0.236206  1
  Rh  Rh18  1  0.394589  0.605411  0.015265  1
  Rh  Rh19  1  0.605601  0.394399  0.515970  1
