# generated using pymatgen
data_Sr2AsBrO4
_symmetry_space_group_name_H-M   'P 1'
_cell_length_a   6.67416300
_cell_length_b   7.62213900
_cell_length_c   11.79175600
_cell_angle_alpha   90.00000000
_cell_angle_beta   90.00000000
_cell_angle_gamma   90.00000000
_symmetry_Int_Tables_number   1
_chemical_formula_structural   Sr2AsBrO4
_chemical_formula_sum   'Sr8 As4 Br4 O16'
_cell_volume   599.86311371
_cell_formula_units_Z   4
loop_
 _symmetry_equiv_pos_site_id
 _symmetry_equiv_pos_as_xyz
  1  'x, y, z'
loop_
 _atom_site_type_symbol
 _atom_site_label
 _atom_site_symmetry_multiplicity
 _atom_site_fract_x
 _atom_site_fract_y
 _atom_site_fract_z
 _atom_site_occupancy
  Sr  Sr0  1  0.626625  0.250000  0.000000  1
  Sr  Sr1  1  0.373375  0.750000  0.000000  1
  Sr  Sr2  1  0.373375  0.750000  0.500000  1
  Sr  Sr3  1  0.626625  0.250000  0.500000  1
  Sr  Sr4  1  0.119630  0.028071  0.250000  1
  Sr  Sr5  1  0.880370  0.971929  0.750000  1
  Sr  Sr6  1  0.880370  0.528071  0.250000  1
  Sr  Sr7  1  0.119630  0.471929  0.750000  1
  As  As8  1  0.127912  0.250000  0.000000  1
  As  As9  1  0.872088  0.750000  0.000000  1
  As  As10  1  0.872088  0.750000  0.500000  1
  As  As11  1  0.127912  0.250000  0.500000  1
  Br  Br12  1  0.472673  0.330115  0.250000  1
  Br  Br13  1  0.527327  0.669885  0.750000  1
  Br  Br14  1  0.527327  0.830115  0.250000  1
  Br  Br15  1  0.472673  0.169885  0.750000  1
  O  O16  1  0.028601  0.768007  0.117257  1
  O  O17  1  0.971399  0.231993  0.882743  1
  O  O18  1  0.971399  0.231993  0.617257  1
  O  O19  1  0.971399  0.268007  0.382743  1
  O  O20  1  0.028601  0.768007  0.382743  1
  O  O21  1  0.028601  0.731993  0.617257  1
  O  O22  1  0.028601  0.731993  0.882743  1
  O  O23  1  0.971399  0.268007  0.117257  1
  O  O24  1  0.281799  0.074065  0.028057  1
  O  O25  1  0.718201  0.925935  0.971943  1
  O  O26  1  0.718201  0.925935  0.528057  1
  O  O27  1  0.718201  0.574065  0.471943  1
  O  O28  1  0.281799  0.074065  0.471943  1
  O  O29  1  0.281799  0.425935  0.528057  1
  O  O30  1  0.281799  0.425935  0.971943  1
  O  O31  1  0.718201  0.574065  0.028057  1
