# generated using pymatgen
data_La3HoCoI5
_symmetry_space_group_name_H-M   'P 1'
_cell_length_a   9.85299902
_cell_length_b   9.85300003
_cell_length_c   9.28646604
_cell_angle_alpha   76.65568435
_cell_angle_beta   76.65568376
_cell_angle_gamma   25.31483042
_symmetry_Int_Tables_number   1
_chemical_formula_structural   La3HoCoI5
_chemical_formula_sum   'La3 Ho1 Co1 I5'
_cell_volume   374.55262689
_cell_formula_units_Z   1
loop_
 _symmetry_equiv_pos_site_id
 _symmetry_equiv_pos_as_xyz
  1  'x, y, z'
loop_
 _atom_site_type_symbol
 _atom_site_label
 _atom_site_symmetry_multiplicity
 _atom_site_fract_x
 _atom_site_fract_y
 _atom_site_fract_z
 _atom_site_occupancy
  La  La0  1  0.867122  0.867122  0.062936  1
  La  La1  1  0.133145  0.133145  0.925734  1
  La  La2  1  0.500795  0.500795  0.223869  1
  Ho  Ho3  1  0.499749  0.499749  0.796530  1
  Co  Co4  1  0.000183  0.000183  0.998191  1
  I  I5  1  0.675640  0.675640  0.167388  1
  I  I6  1  0.331042  0.331042  0.818610  1
  I  I7  1  0.663149  0.663149  0.652339  1
  I  I8  1  0.329746  0.329746  0.340559  1
  I  I9  1  0.999428  0.999428  0.513844  1
