# generated using pymatgen
data_InSn3Pd7Rh
_symmetry_space_group_name_H-M   'P 1'
_cell_length_a   4.30633600
_cell_length_b   5.79997201
_cell_length_c   8.24842910
_cell_angle_alpha   89.30235159
_cell_angle_beta   90.00000000
_cell_angle_gamma   90.00000000
_symmetry_Int_Tables_number   1
_chemical_formula_structural   InSn3Pd7Rh
_chemical_formula_sum   'In1 Sn3 Pd7 Rh1'
_cell_volume   206.00267559
_cell_formula_units_Z   1
loop_
 _symmetry_equiv_pos_site_id
 _symmetry_equiv_pos_as_xyz
  1  'x, y, z'
loop_
 _atom_site_type_symbol
 _atom_site_label
 _atom_site_symmetry_multiplicity
 _atom_site_fract_x
 _atom_site_fract_y
 _atom_site_fract_z
 _atom_site_occupancy
  In  In0  1  0.250000  0.696875  0.390979  1
  Sn  Sn1  1  0.750000  0.288380  0.610720  1
  Sn  Sn2  1  0.750000  0.811069  0.890066  1
  Sn  Sn3  1  0.250000  0.202208  0.105613  1
  Pd  Pd4  1  0.250000  0.668370  0.062044  1
  Pd  Pd5  1  0.750000  0.945896  0.213673  1
  Pd  Pd6  1  0.750000  0.442953  0.285620  1
  Pd  Pd7  1  0.750000  0.347874  0.934466  1
  Pd  Pd8  1  0.750000  0.827988  0.566164  1
  Pd  Pd9  1  0.250000  0.165159  0.433495  1
  Pd  Pd10  1  0.250000  0.549588  0.715052  1
  Rh  Rh11  1  0.250000  0.053637  0.792108  1
