# generated using pymatgen
data_SrZnSbH
_symmetry_space_group_name_H-M   'P 1'
_cell_length_a   4.41463400
_cell_length_b   4.38633600
_cell_length_c   17.94040600
_cell_angle_alpha   90.00000000
_cell_angle_beta   90.00000000
_cell_angle_gamma   90.00000000
_symmetry_Int_Tables_number   1
_chemical_formula_structural   SrZnSbH
_chemical_formula_sum   'Sr4 Zn4 Sb4 H4'
_cell_volume   347.39924247
_cell_formula_units_Z   4
loop_
 _symmetry_equiv_pos_site_id
 _symmetry_equiv_pos_as_xyz
  1  'x, y, z'
loop_
 _atom_site_type_symbol
 _atom_site_label
 _atom_site_symmetry_multiplicity
 _atom_site_fract_x
 _atom_site_fract_y
 _atom_site_fract_z
 _atom_site_occupancy
  Sr  Sr0  1  0.250000  0.752621  0.568505  1
  Sr  Sr1  1  0.750000  0.247379  0.431495  1
  Sr  Sr2  1  0.750000  0.252621  0.931495  1
  Sr  Sr3  1  0.250000  0.747379  0.068505  1
  Zn  Zn4  1  0.250000  0.266024  0.749900  1
  Zn  Zn5  1  0.750000  0.733976  0.250100  1
  Zn  Zn6  1  0.750000  0.766024  0.750100  1
  Zn  Zn7  1  0.250000  0.233976  0.249900  1
  Sb  Sb8  1  0.250000  0.738207  0.343567  1
  Sb  Sb9  1  0.750000  0.261793  0.656433  1
  Sb  Sb10  1  0.750000  0.238207  0.156433  1
  Sb  Sb11  1  0.250000  0.761793  0.843567  1
  H  H12  1  0.250000  0.249247  0.000109  1
  H  H13  1  0.750000  0.750753  0.999891  1
  H  H14  1  0.750000  0.749247  0.499891  1
  H  H15  1  0.250000  0.250753  0.500109  1
