# generated using pymatgen
data_Tm3Ag(Pt2O7)2
_symmetry_space_group_name_H-M   'P 1'
_cell_length_a   7.28445021
_cell_length_b   7.28445022
_cell_length_c   7.14403981
_cell_angle_alpha   59.34768644
_cell_angle_beta   59.34768958
_cell_angle_gamma   60.00000594
_symmetry_Int_Tables_number   1
_chemical_formula_structural   Tm3Ag(Pt2O7)2
_chemical_formula_sum   'Tm3 Ag1 Pt4 O14'
_cell_volume   265.38068980
_cell_formula_units_Z   1
loop_
 _symmetry_equiv_pos_site_id
 _symmetry_equiv_pos_as_xyz
  1  'x, y, z'
loop_
 _atom_site_type_symbol
 _atom_site_label
 _atom_site_symmetry_multiplicity
 _atom_site_fract_x
 _atom_site_fract_y
 _atom_site_fract_z
 _atom_site_occupancy
  Tm  Tm0  1  0.625000  0.625000  0.625000  1
  Tm  Tm1  1  0.625000  0.125000  0.625000  1
  Tm  Tm2  1  0.125000  0.625000  0.625000  1
  Ag  Ag3  1  0.625000  0.625000  0.125000  1
  Pt  Pt4  1  0.125000  0.125000  0.125000  1
  Pt  Pt5  1  0.625000  0.125000  0.125000  1
  Pt  Pt6  1  0.125000  0.625000  0.125000  1
  Pt  Pt7  1  0.125000  0.125000  0.625000  1
  O  O8  1  0.029861  0.466993  0.473284  1
  O  O9  1  0.791323  0.791323  0.222402  1
  O  O10  1  0.791323  0.194952  0.222402  1
  O  O11  1  0.466993  0.029861  0.473284  1
  O  O12  1  0.029861  0.029861  0.473284  1
  O  O13  1  0.055048  0.458677  0.027598  1
  O  O14  1  0.746596  0.746596  0.760211  1
  O  O15  1  0.503404  0.503404  0.489789  1
  O  O16  1  0.783007  0.220139  0.776716  1
  O  O17  1  0.194952  0.791323  0.222402  1
  O  O18  1  0.220139  0.220139  0.776716  1
  O  O19  1  0.458677  0.055048  0.027598  1
  O  O20  1  0.458677  0.458677  0.027598  1
  O  O21  1  0.220139  0.783007  0.776716  1
