# generated using pymatgen
data_Li3Tm8Sc8Si16Os
_symmetry_space_group_name_H-M   'P 1'
_cell_length_a   6.81556475
_cell_length_b   7.28759929
_cell_length_c   13.86473300
_cell_angle_alpha   90.00000000
_cell_angle_beta   90.00000000
_cell_angle_gamma   90.24029484
_symmetry_Int_Tables_number   1
_chemical_formula_structural   Li3Tm8Sc8Si16Os
_chemical_formula_sum   'Li3 Tm8 Sc8 Si16 Os1'
_cell_volume   688.64282043
_cell_formula_units_Z   1
loop_
 _symmetry_equiv_pos_site_id
 _symmetry_equiv_pos_as_xyz
  1  'x, y, z'
loop_
 _atom_site_type_symbol
 _atom_site_label
 _atom_site_symmetry_multiplicity
 _atom_site_fract_x
 _atom_site_fract_y
 _atom_site_fract_z
 _atom_site_occupancy
  Li  Li0  1  0.842833  0.492798  0.250000  1
  Li  Li1  1  0.342125  0.007214  0.250000  1
  Li  Li2  1  0.659470  0.988236  0.750000  1
  Tm  Tm3  1  0.013750  0.183907  0.094106  1
  Tm  Tm4  1  0.989520  0.820910  0.901883  1
  Tm  Tm5  1  0.491180  0.680308  0.902721  1
  Tm  Tm6  1  0.989520  0.820910  0.598117  1
  Tm  Tm7  1  0.514694  0.318259  0.096656  1
  Tm  Tm8  1  0.013750  0.183907  0.405894  1
  Tm  Tm9  1  0.514694  0.318259  0.403344  1
  Tm  Tm10  1  0.491180  0.680308  0.597279  1
  Sc  Sc11  1  0.330465  0.174292  0.627714  1
  Sc  Sc12  1  0.671941  0.823168  0.373746  1
  Sc  Sc13  1  0.171375  0.675369  0.375514  1
  Sc  Sc14  1  0.671941  0.823168  0.126254  1
  Sc  Sc15  1  0.820967  0.324758  0.629404  1
  Sc  Sc16  1  0.330465  0.174292  0.872286  1
  Sc  Sc17  1  0.820967  0.324758  0.870596  1
  Sc  Sc18  1  0.171375  0.675369  0.124486  1
  Si  Si19  1  0.032018  0.115148  0.750000  1
  Si  Si20  1  0.975528  0.899037  0.250000  1
  Si  Si21  1  0.473441  0.599317  0.250000  1
  Si  Si22  1  0.511561  0.410351  0.750000  1
  Si  Si23  1  0.276716  0.857068  0.750000  1
  Si  Si24  1  0.722563  0.124826  0.250000  1
  Si  Si25  1  0.217215  0.375833  0.250000  1
  Si  Si26  1  0.794188  0.626032  0.750000  1
  Si  Si27  1  0.155282  0.466479  0.549296  1
  Si  Si28  1  0.839529  0.537366  0.467380  1
  Si  Si29  1  0.340697  0.962157  0.465885  1
  Si  Si30  1  0.839529  0.537366  0.032620  1
  Si  Si31  1  0.661323  0.036463  0.535950  1
  Si  Si32  1  0.155282  0.466479  0.950704  1
  Si  Si33  1  0.661323  0.036463  0.964050  1
  Si  Si34  1  0.340697  0.962157  0.034115  1
  Os  Os35  1  0.150892  0.497272  0.750000  1
