# generated using pymatgen
data_RbDy2CuS4
_symmetry_space_group_name_H-M   'P 1'
_cell_length_a   3.98249800
_cell_length_b   7.16399637
_cell_length_c   13.80891300
_cell_angle_alpha   90.00000000
_cell_angle_beta   90.00000000
_cell_angle_gamma   73.86196438
_symmetry_Int_Tables_number   1
_chemical_formula_structural   RbDy2CuS4
_chemical_formula_sum   'Rb2 Dy4 Cu2 S8'
_cell_volume   378.45188238
_cell_formula_units_Z   2
loop_
 _symmetry_equiv_pos_site_id
 _symmetry_equiv_pos_as_xyz
  1  'x, y, z'
loop_
 _atom_site_type_symbol
 _atom_site_label
 _atom_site_symmetry_multiplicity
 _atom_site_fract_x
 _atom_site_fract_y
 _atom_site_fract_z
 _atom_site_occupancy
  Rb  Rb0  1  0.892947  0.214107  0.250000  1
  Rb  Rb1  1  0.107053  0.785892  0.750000  1
  Dy  Dy2  1  0.634414  0.731172  0.062175  1
  Dy  Dy3  1  0.634414  0.731172  0.437825  1
  Dy  Dy4  1  0.365585  0.268828  0.562175  1
  Dy  Dy5  1  0.365585  0.268828  0.937825  1
  Cu  Cu6  1  0.164629  0.670741  0.250000  1
  Cu  Cu7  1  0.835370  0.329260  0.750000  1
  S  S8  1  0.000000  0.000000  0.000000  1
  S  S9  1  0.259637  0.480723  0.108299  1
  S  S10  1  0.575435  0.849132  0.250000  1
  S  S11  1  0.259637  0.480723  0.391701  1
  S  S12  1  0.000000  0.000000  0.500000  1
  S  S13  1  0.740362  0.519277  0.608299  1
  S  S14  1  0.424564  0.150868  0.750000  1
  S  S15  1  0.740362  0.519277  0.891701  1
