# generated using pymatgen
data_YbSm3(GaRu)4
_symmetry_space_group_name_H-M   'P 1'
_cell_length_a   7.42693695
_cell_length_b   4.53430200
_cell_length_c   7.07528132
_cell_angle_alpha   90.00000000
_cell_angle_beta   89.69542704
_cell_angle_gamma   90.00000000
_symmetry_Int_Tables_number   1
_chemical_formula_structural   YbSm3(GaRu)4
_chemical_formula_sum   'Yb1 Sm3 Ga4 Ru4'
_cell_volume   238.26363081
_cell_formula_units_Z   1
loop_
 _symmetry_equiv_pos_site_id
 _symmetry_equiv_pos_as_xyz
  1  'x, y, z'
loop_
 _atom_site_type_symbol
 _atom_site_label
 _atom_site_symmetry_multiplicity
 _atom_site_fract_x
 _atom_site_fract_y
 _atom_site_fract_z
 _atom_site_occupancy
  Yb  Yb0  1  0.980968  0.250000  0.805159  1
  Sm  Sm1  1  0.019626  0.750001  0.192478  1
  Sm  Sm2  1  0.523802  0.750001  0.304406  1
  Sm  Sm3  1  0.478018  0.250000  0.694655  1
  Ga  Ga4  1  0.306138  0.250000  0.108141  1
  Ga  Ga5  1  0.807498  0.250000  0.394398  1
  Ga  Ga6  1  0.189326  0.750001  0.610411  1
  Ga  Ga7  1  0.696351  0.750001  0.892755  1
  Ru  Ru8  1  0.652498  0.250000  0.063005  1
  Ru  Ru9  1  0.153619  0.250000  0.436189  1
  Ru  Ru10  1  0.845408  0.750001  0.563716  1
  Ru  Ru11  1  0.346751  0.750001  0.934685  1
