# generated using pymatgen
data_Zr10Bi5PbAu2
_symmetry_space_group_name_H-M   'P 1'
_cell_length_a   8.92560200
_cell_length_b   8.92733874
_cell_length_c   5.99688700
_cell_angle_alpha   90.00000000
_cell_angle_beta   90.00000000
_cell_angle_gamma   119.99355742
_symmetry_Int_Tables_number   1
_chemical_formula_structural   Zr10Bi5PbAu2
_chemical_formula_sum   'Zr10 Bi5 Pb1 Au2'
_cell_volume   413.85120022
_cell_formula_units_Z   1
loop_
 _symmetry_equiv_pos_site_id
 _symmetry_equiv_pos_as_xyz
  1  'x, y, z'
loop_
 _atom_site_type_symbol
 _atom_site_label
 _atom_site_symmetry_multiplicity
 _atom_site_fract_x
 _atom_site_fract_y
 _atom_site_fract_z
 _atom_site_occupancy
  Zr  Zr0  1  0.333796  0.667099  0.999283  1
  Zr  Zr1  1  0.666699  0.332901  0.500717  1
  Zr  Zr2  1  0.666699  0.332901  0.999283  1
  Zr  Zr3  1  0.333796  0.667099  0.500717  1
  Zr  Zr4  1  0.273533  0.000000  0.250000  1
  Zr  Zr5  1  0.275495  0.274137  0.750000  1
  Zr  Zr6  1  0.001358  0.725863  0.750000  1
  Zr  Zr7  1  0.999811  0.274449  0.250000  1
  Zr  Zr8  1  0.725364  0.725551  0.250000  1
  Zr  Zr9  1  0.724056  0.000000  0.750000  1
  Bi  Bi10  1  0.616680  0.000000  0.250000  1
  Bi  Bi11  1  0.618207  0.617626  0.750000  1
  Bi  Bi12  1  0.000581  0.382374  0.750000  1
  Bi  Bi13  1  0.000232  0.617595  0.250000  1
  Bi  Bi14  1  0.382636  0.382405  0.250000  1
  Pb  Pb15  1  0.381152  0.000000  0.750000  1
  Au  Au16  1  0.999952  0.000000  0.999145  1
  Au  Au17  1  0.999952  0.000000  0.500855  1
