# generated using pymatgen
data_Tm11LuTcRu3
_symmetry_space_group_name_H-M   'P 1'
_cell_length_a   6.22378096
_cell_length_b   7.29651407
_cell_length_c   8.98723959
_cell_angle_alpha   90.01523422
_cell_angle_beta   90.08559830
_cell_angle_gamma   90.01310781
_symmetry_Int_Tables_number   1
_chemical_formula_structural   Tm11LuTcRu3
_chemical_formula_sum   'Tm11 Lu1 Tc1 Ru3'
_cell_volume   408.12719335
_cell_formula_units_Z   1
loop_
 _symmetry_equiv_pos_site_id
 _symmetry_equiv_pos_as_xyz
  1  'x, y, z'
loop_
 _atom_site_type_symbol
 _atom_site_label
 _atom_site_symmetry_multiplicity
 _atom_site_fract_x
 _atom_site_fract_y
 _atom_site_fract_z
 _atom_site_occupancy
  Tm  Tm0  1  0.630571  0.040117  0.249669  1
  Tm  Tm1  1  0.367142  0.958316  0.750352  1
  Tm  Tm2  1  0.132571  0.457838  0.750348  1
  Tm  Tm3  1  0.873626  0.541313  0.249660  1
  Tm  Tm4  1  0.833018  0.823864  0.937095  1
  Tm  Tm5  1  0.665118  0.324480  0.938189  1
  Tm  Tm6  1  0.832482  0.823344  0.563131  1
  Tm  Tm7  1  0.332229  0.676167  0.063244  1
  Tm  Tm8  1  0.166613  0.176513  0.435706  1
  Tm  Tm9  1  0.332466  0.676112  0.436686  1
  Tm  Tm10  1  0.665238  0.324551  0.562049  1
  Lu  Lu11  1  0.166583  0.175897  0.063997  1
  Tc  Tc12  1  0.463624  0.384008  0.249599  1
  Ru  Ru13  1  0.538162  0.617403  0.749976  1
  Ru  Ru14  1  0.963085  0.115693  0.750640  1
  Ru  Ru15  1  0.037472  0.884383  0.249659  1
