# generated using pymatgen
data_YHo(Si7Ir3)2
_symmetry_space_group_name_H-M   'P 1'
_cell_length_a   8.05190567
_cell_length_b   8.05190505
_cell_length_c   8.05190534
_cell_angle_alpha   56.48169996
_cell_angle_beta   56.48170639
_cell_angle_gamma   56.48169591
_symmetry_Int_Tables_number   1
_chemical_formula_structural   YHo(Si7Ir3)2
_chemical_formula_sum   'Y1 Ho1 Si14 Ir6'
_cell_volume   339.11086985
_cell_formula_units_Z   1
loop_
 _symmetry_equiv_pos_site_id
 _symmetry_equiv_pos_as_xyz
  1  'x, y, z'
loop_
 _atom_site_type_symbol
 _atom_site_label
 _atom_site_symmetry_multiplicity
 _atom_site_fract_x
 _atom_site_fract_y
 _atom_site_fract_z
 _atom_site_occupancy
  Y  Y0  1  0.000000  0.000000  0.000000  1
  Ho  Ho1  1  0.500000  0.500000  0.500000  1
  Si  Si2  1  0.850553  0.064007  0.672548  1
  Si  Si3  1  0.672548  0.850553  0.064007  1
  Si  Si4  1  0.064007  0.672548  0.850553  1
  Si  Si5  1  0.649688  0.827206  0.436071  1
  Si  Si6  1  0.250127  0.250127  0.250127  1
  Si  Si7  1  0.749873  0.749873  0.749873  1
  Si  Si8  1  0.172794  0.563929  0.350312  1
  Si  Si9  1  0.563929  0.350312  0.172794  1
  Si  Si10  1  0.350312  0.172794  0.563929  1
  Si  Si11  1  0.935993  0.327452  0.149447  1
  Si  Si12  1  0.327452  0.149447  0.935993  1
  Si  Si13  1  0.149447  0.935993  0.327452  1
  Si  Si14  1  0.827206  0.436071  0.649688  1
  Si  Si15  1  0.436071  0.649688  0.827206  1
  Ir  Ir16  1  0.749693  0.070995  0.429504  1
  Ir  Ir17  1  0.429504  0.749693  0.070995  1
  Ir  Ir18  1  0.070995  0.429504  0.749693  1
  Ir  Ir19  1  0.250307  0.929005  0.570496  1
  Ir  Ir20  1  0.570496  0.250307  0.929005  1
  Ir  Ir21  1  0.929005  0.570496  0.250307  1
