# generated using pymatgen
data_Pr4Sm4Sc12Si15Ag
_symmetry_space_group_name_H-M   'P 1'
_cell_length_a   7.25615181
_cell_length_b   7.48859713
_cell_length_c   14.28339189
_cell_angle_alpha   89.96166382
_cell_angle_beta   89.65190143
_cell_angle_gamma   90.24890194
_symmetry_Int_Tables_number   1
_chemical_formula_structural   Pr4Sm4Sc12Si15Ag
_chemical_formula_sum   'Pr4 Sm4 Sc12 Si15 Ag1'
_cell_volume   776.11479285
_cell_formula_units_Z   1
loop_
 _symmetry_equiv_pos_site_id
 _symmetry_equiv_pos_as_xyz
  1  'x, y, z'
loop_
 _atom_site_type_symbol
 _atom_site_label
 _atom_site_symmetry_multiplicity
 _atom_site_fract_x
 _atom_site_fract_y
 _atom_site_fract_z
 _atom_site_occupancy
  Pr  Pr0  1  0.011863  0.172808  0.098522  1
  Pr  Pr1  1  0.987703  0.829299  0.903457  1
  Pr  Pr2  1  0.488137  0.673024  0.904194  1
  Pr  Pr3  1  0.990092  0.832984  0.596450  1
  Sm  Sm4  1  0.511900  0.325693  0.098367  1
  Sm  Sm5  1  0.008689  0.171700  0.397642  1
  Sm  Sm6  1  0.512686  0.323989  0.399396  1
  Sm  Sm7  1  0.494034  0.676683  0.600652  1
  Sc  Sc8  1  0.162813  0.498408  0.753186  1
  Sc  Sc9  1  0.837499  0.500384  0.251069  1
  Sc  Sc10  1  0.338494  0.997508  0.248727  1
  Sc  Sc11  1  0.665325  0.999800  0.751666  1
  Sc  Sc12  1  0.343752  0.172642  0.627326  1
  Sc  Sc13  1  0.665013  0.823132  0.373699  1
  Sc  Sc14  1  0.166642  0.675097  0.371360  1
  Sc  Sc15  1  0.669919  0.824734  0.125278  1
  Sc  Sc16  1  0.823799  0.325613  0.624375  1
  Sc  Sc17  1  0.329462  0.174976  0.875743  1
  Sc  Sc18  1  0.829974  0.323815  0.875955  1
  Sc  Sc19  1  0.169192  0.675120  0.125597  1
  Si  Si20  1  0.037443  0.129446  0.749471  1
  Si  Si21  1  0.963866  0.876806  0.249935  1
  Si  Si22  1  0.465498  0.620325  0.248467  1
  Si  Si23  1  0.536330  0.379367  0.751597  1
  Si  Si24  1  0.288758  0.881133  0.749976  1
  Si  Si25  1  0.709142  0.121403  0.249427  1
  Si  Si26  1  0.214185  0.378054  0.249794  1
  Si  Si27  1  0.789513  0.619530  0.750800  1
  Si  Si28  1  0.836986  0.537767  0.457552  1
  Si  Si29  1  0.342662  0.961082  0.460563  1
  Si  Si30  1  0.846118  0.536218  0.040173  1
  Si  Si31  1  0.652992  0.037568  0.537172  1
  Si  Si32  1  0.150618  0.462883  0.961694  1
  Si  Si33  1  0.651256  0.039389  0.961163  1
  Si  Si34  1  0.348154  0.964646  0.040844  1
  Ag  Ag35  1  0.159492  0.456974  0.538710  1
