# generated using pymatgen
data_RbLa5PrIrBr12
_symmetry_space_group_name_H-M   'P 1'
_cell_length_a   9.67830020
_cell_length_b   9.81729097
_cell_length_c   9.66000769
_cell_angle_alpha   104.80226704
_cell_angle_beta   104.64413582
_cell_angle_gamma   104.31285013
_symmetry_Int_Tables_number   1
_chemical_formula_structural   RbLa5PrIrBr12
_chemical_formula_sum   'Rb1 La5 Pr1 Ir1 Br12'
_cell_volume   809.45251237
_cell_formula_units_Z   1
loop_
 _symmetry_equiv_pos_site_id
 _symmetry_equiv_pos_as_xyz
  1  'x, y, z'
loop_
 _atom_site_type_symbol
 _atom_site_label
 _atom_site_symmetry_multiplicity
 _atom_site_fract_x
 _atom_site_fract_y
 _atom_site_fract_z
 _atom_site_occupancy
  Rb  Rb0  1  0.500272  0.499976  0.500378  1
  La  La1  1  0.105990  0.317987  0.009684  1
  La  La2  1  0.304315  0.009817  0.101474  1
  La  La3  1  0.010121  0.101251  0.305258  1
  La  La4  1  0.989480  0.897392  0.694240  1
  La  La5  1  0.695669  0.990013  0.898586  1
  Pr  Pr6  1  0.894720  0.686176  0.989882  1
  Ir  Ir7  1  0.000041  0.000154  0.999797  1
  Br  Br8  1  0.213582  0.673732  0.075103  1
  Br  Br9  1  0.427366  0.332541  0.115068  1
  Br  Br10  1  0.671324  0.074551  0.215935  1
  Br  Br11  1  0.925459  0.785612  0.326193  1
  Br  Br12  1  0.114419  0.425433  0.334921  1
  Br  Br13  1  0.336151  0.116195  0.429706  1
  Br  Br14  1  0.663853  0.883615  0.570184  1
  Br  Br15  1  0.885570  0.574133  0.667281  1
  Br  Br16  1  0.073882  0.212382  0.671423  1
  Br  Br17  1  0.328599  0.925140  0.784069  1
  Br  Br18  1  0.574438  0.666824  0.885835  1
  Br  Br19  1  0.784752  0.327077  0.924985  1
