# generated using pymatgen
data_Yb10Pt3Au
_symmetry_space_group_name_H-M   'P 1'
_cell_length_a   8.60802194
_cell_length_b   8.61729493
_cell_length_c   7.64451580
_cell_angle_alpha   83.37363940
_cell_angle_beta   83.06704540
_cell_angle_gamma   45.01167378
_symmetry_Int_Tables_number   1
_chemical_formula_structural   Yb10Pt3Au
_chemical_formula_sum   'Yb10 Pt3 Au1'
_cell_volume   397.75183578
_cell_formula_units_Z   1
loop_
 _symmetry_equiv_pos_site_id
 _symmetry_equiv_pos_as_xyz
  1  'x, y, z'
loop_
 _atom_site_type_symbol
 _atom_site_label
 _atom_site_symmetry_multiplicity
 _atom_site_fract_x
 _atom_site_fract_y
 _atom_site_fract_z
 _atom_site_occupancy
  Yb  Yb0  1  0.020755  0.802981  0.926627  1
  Yb  Yb1  1  0.199859  0.982212  0.581608  1
  Yb  Yb2  1  0.979769  0.198574  0.082534  1
  Yb  Yb3  1  0.790971  0.032956  0.416156  1
  Yb  Yb4  1  0.367325  0.194672  0.826982  1
  Yb  Yb5  1  0.791744  0.637942  0.678036  1
  Yb  Yb6  1  0.639237  0.795436  0.178617  1
  Yb  Yb7  1  0.201491  0.359056  0.314906  1
  Yb  Yb8  1  0.583067  0.419336  0.754696  1
  Yb  Yb9  1  0.428024  0.576384  0.241901  1
  Pt  Pt10  1  0.396220  0.822698  0.916072  1
  Pt  Pt11  1  0.820412  0.398595  0.416022  1
  Pt  Pt12  1  0.599947  0.179854  0.083896  1
  Au  Au13  1  0.181179  0.599303  0.581948  1
