# generated using pymatgen
data_Tb4YSi12Ir19
_symmetry_space_group_name_H-M   'P 1'
_cell_length_a   12.83020200
_cell_length_b   12.83020398
_cell_length_c   4.01859100
_cell_angle_alpha   90.00000000
_cell_angle_beta   90.00000000
_cell_angle_gamma   120.00000521
_symmetry_Int_Tables_number   1
_chemical_formula_structural   Tb4YSi12Ir19
_chemical_formula_sum   'Tb4 Y1 Si12 Ir19'
_cell_volume   572.89030298
_cell_formula_units_Z   1
loop_
 _symmetry_equiv_pos_site_id
 _symmetry_equiv_pos_as_xyz
  1  'x, y, z'
loop_
 _atom_site_type_symbol
 _atom_site_label
 _atom_site_symmetry_multiplicity
 _atom_site_fract_x
 _atom_site_fract_y
 _atom_site_fract_z
 _atom_site_occupancy
  Tb  Tb0  1  0.999992  0.184500  0.500000  1
  Tb  Tb1  1  0.815500  0.815493  0.500000  1
  Tb  Tb2  1  0.184507  0.000008  0.500000  1
  Tb  Tb3  1  0.333333  0.666667  0.000000  1
  Y  Y4  1  0.666667  0.333333  0.000000  1
  Si  Si5  1  0.481050  0.311977  0.500000  1
  Si  Si6  1  0.817749  0.000028  0.000000  1
  Si  Si7  1  0.182279  0.182251  0.000000  1
  Si  Si8  1  0.999972  0.817721  0.000000  1
  Si  Si9  1  0.367876  0.999855  0.000000  1
  Si  Si10  1  0.688023  0.169074  0.500000  1
  Si  Si11  1  0.830926  0.518950  0.500000  1
  Si  Si12  1  0.519025  0.831000  0.500000  1
  Si  Si13  1  0.169000  0.688024  0.500000  1
  Si  Si14  1  0.311976  0.480975  0.500000  1
  Si  Si15  1  0.000145  0.368021  0.000000  1
  Si  Si16  1  0.631979  0.632124  0.000000  1
  Ir  Ir17  1  0.805552  0.182711  0.000000  1
  Ir  Ir18  1  0.377159  0.194448  0.000000  1
  Ir  Ir19  1  0.638595  0.512248  0.500000  1
  Ir  Ir20  1  0.873654  0.361405  0.500000  1
  Ir  Ir21  1  0.361612  0.874103  0.500000  1
  Ir  Ir22  1  0.512491  0.638388  0.500000  1
  Ir  Ir23  1  0.125897  0.487509  0.500000  1
  Ir  Ir24  1  0.817289  0.622841  0.000000  1
  Ir  Ir25  1  0.622580  0.817650  0.000000  1
  Ir  Ir26  1  0.182350  0.804928  0.000000  1
  Ir  Ir27  1  0.195072  0.377420  0.000000  1
  Ir  Ir28  1  0.999953  0.716761  0.500000  1
  Ir  Ir29  1  0.283239  0.283192  0.500000  1
  Ir  Ir30  1  0.716808  0.000047  0.500000  1
  Ir  Ir31  1  0.999451  0.552075  0.000000  1
  Ir  Ir32  1  0.447925  0.447376  0.000000  1
  Ir  Ir33  1  0.552624  0.000549  0.000000  1
  Ir  Ir34  1  0.000000  0.000000  0.000000  1
  Ir  Ir35  1  0.487752  0.126346  0.500000  1
