# generated using pymatgen
data_Li3MgAs6Ir6Rh
_symmetry_space_group_name_H-M   'P 1'
_cell_length_a   7.00811937
_cell_length_b   7.00812024
_cell_length_c   6.98455485
_cell_angle_alpha   109.46328866
_cell_angle_beta   109.46329230
_cell_angle_gamma   109.43041874
_symmetry_Int_Tables_number   1
_chemical_formula_structural   Li3MgAs6Ir6Rh
_chemical_formula_sum   'Li3 Mg1 As6 Ir6 Rh1'
_cell_volume   264.25497143
_cell_formula_units_Z   1
loop_
 _symmetry_equiv_pos_site_id
 _symmetry_equiv_pos_as_xyz
  1  'x, y, z'
loop_
 _atom_site_type_symbol
 _atom_site_label
 _atom_site_symmetry_multiplicity
 _atom_site_fract_x
 _atom_site_fract_y
 _atom_site_fract_z
 _atom_site_occupancy
  Li  Li0  1  0.500148  0.000146  0.000283  1
  Li  Li1  1  0.999854  0.499852  0.999717  1
  Li  Li2  1  0.500122  0.499878  0.500000  1
  Mg  Mg3  1  0.999991  0.000009  0.500000  1
  As  As4  1  0.684541  0.684549  0.992436  1
  As  As5  1  0.315451  0.315459  0.007564  1
  As  As6  1  0.000195  0.684489  0.691711  1
  As  As7  1  0.000281  0.316019  0.308401  1
  As  As8  1  0.683981  0.999719  0.691599  1
  As  As9  1  0.315511  0.999805  0.308289  1
  Ir  Ir10  1  0.999991  0.000009  0.000000  1
  Ir  Ir11  1  0.247861  0.496878  0.748409  1
  Ir  Ir12  1  0.751425  0.248575  0.500000  1
  Ir  Ir13  1  0.497209  0.248319  0.748097  1
  Ir  Ir14  1  0.503122  0.752139  0.251591  1
  Ir  Ir15  1  0.751681  0.502791  0.251903  1
  Rh  Rh16  1  0.248636  0.751364  0.500000  1
