# generated using pymatgen
data_Dy4ScZn2Bi
_symmetry_space_group_name_H-M   'P 1'
_cell_length_a   8.50582621
_cell_length_b   8.50582649
_cell_length_c   8.50582684
_cell_angle_alpha   123.32721218
_cell_angle_beta   123.32721014
_cell_angle_gamma   84.32765933
_symmetry_Int_Tables_number   1
_chemical_formula_structural   Dy4ScZn2Bi
_chemical_formula_sum   'Dy8 Sc2 Zn4 Bi2'
_cell_volume   411.05872019
_cell_formula_units_Z   2
loop_
 _symmetry_equiv_pos_site_id
 _symmetry_equiv_pos_as_xyz
  1  'x, y, z'
loop_
 _atom_site_type_symbol
 _atom_site_label
 _atom_site_symmetry_multiplicity
 _atom_site_fract_x
 _atom_site_fract_y
 _atom_site_fract_z
 _atom_site_occupancy
  Dy  Dy0  1  0.511861  0.011861  0.807045  1
  Dy  Dy1  1  0.204817  0.704817  0.192955  1
  Dy  Dy2  1  0.011861  0.204817  0.500000  1
  Dy  Dy3  1  0.704817  0.511861  0.500000  1
  Dy  Dy4  1  0.488139  0.988139  0.192955  1
  Dy  Dy5  1  0.795183  0.295183  0.807045  1
  Dy  Dy6  1  0.988139  0.795183  0.500000  1
  Dy  Dy7  1  0.295183  0.488139  0.500000  1
  Sc  Sc8  1  0.500000  0.500000  0.000000  1
  Sc  Sc9  1  0.000000  0.000000  0.000000  1
  Zn  Zn10  1  0.141959  0.641959  0.783916  1
  Zn  Zn11  1  0.858041  0.358041  0.216084  1
  Zn  Zn12  1  0.641959  0.858041  0.500000  1
  Zn  Zn13  1  0.358041  0.141959  0.500000  1
  Bi  Bi14  1  0.250000  0.250000  0.000000  1
  Bi  Bi15  1  0.750000  0.750000  0.000000  1
