# generated using pymatgen
data_U4Mn7(SiP)3
_symmetry_space_group_name_H-M   'P 1'
_cell_length_a   6.74384029
_cell_length_b   6.74383941
_cell_length_c   6.74384100
_cell_angle_alpha   109.51223242
_cell_angle_beta   109.46639272
_cell_angle_gamma   109.43505011
_symmetry_Int_Tables_number   1
_chemical_formula_structural   U4Mn7(SiP)3
_chemical_formula_sum   'U4 Mn7 Si3 P3'
_cell_volume   236.10202246
_cell_formula_units_Z   1
loop_
 _symmetry_equiv_pos_site_id
 _symmetry_equiv_pos_as_xyz
  1  'x, y, z'
loop_
 _atom_site_type_symbol
 _atom_site_label
 _atom_site_symmetry_multiplicity
 _atom_site_fract_x
 _atom_site_fract_y
 _atom_site_fract_z
 _atom_site_occupancy
  U  U0  1  0.505076  0.505828  0.504356  1
  U  U1  1  0.998529  0.494172  0.999247  1
  U  U2  1  0.505076  0.000718  0.999247  1
  U  U3  1  0.998529  0.999282  0.504356  1
  Mn  Mn4  1  0.500248  0.747976  0.248223  1
  Mn  Mn5  1  0.747597  0.247329  0.500267  1
  Mn  Mn6  1  0.252936  0.752671  0.500267  1
  Mn  Mn7  1  0.256907  0.500000  0.756907  1
  Mn  Mn8  1  0.990532  0.000000  0.990532  1
  Mn  Mn9  1  0.500248  0.252024  0.752272  1
  Mn  Mn10  1  0.747283  0.500000  0.247283  1
  Si  Si11  1  0.003484  0.677690  0.681175  1
  Si  Si12  1  0.003484  0.322310  0.325794  1
  Si  Si13  1  0.309791  0.000000  0.309791  1
  P  P14  1  0.675190  0.000000  0.675190  1
  P  P15  1  0.689872  0.687327  0.002546  1
  P  P16  1  0.315219  0.312673  0.002546  1
