# generated using pymatgen
data_Zr10AlGe2Bi5
_symmetry_space_group_name_H-M   'P 1'
_cell_length_a   8.75309600
_cell_length_b   8.81789666
_cell_length_c   5.97364600
_cell_angle_alpha   90.00000000
_cell_angle_beta   90.00000000
_cell_angle_gamma   119.75719359
_symmetry_Int_Tables_number   1
_chemical_formula_structural   Zr10AlGe2Bi5
_chemical_formula_sum   'Zr10 Al1 Ge2 Bi5'
_cell_volume   400.27106656
_cell_formula_units_Z   1
loop_
 _symmetry_equiv_pos_site_id
 _symmetry_equiv_pos_as_xyz
  1  'x, y, z'
loop_
 _atom_site_type_symbol
 _atom_site_label
 _atom_site_symmetry_multiplicity
 _atom_site_fract_x
 _atom_site_fract_y
 _atom_site_fract_z
 _atom_site_occupancy
  Zr  Zr0  1  0.270766  0.000000  0.250000  1
  Zr  Zr1  1  0.257009  0.255889  0.750000  1
  Zr  Zr2  1  0.001119  0.744111  0.750000  1
  Zr  Zr3  1  0.986640  0.255799  0.250000  1
  Zr  Zr4  1  0.730840  0.744201  0.250000  1
  Zr  Zr5  1  0.742927  0.000000  0.750000  1
  Zr  Zr6  1  0.339619  0.674994  0.004312  1
  Zr  Zr7  1  0.664626  0.325006  0.495688  1
  Zr  Zr8  1  0.664626  0.325006  0.004312  1
  Zr  Zr9  1  0.339619  0.674994  0.495688  1
  Al  Al10  1  0.606644  0.000000  0.250000  1
  Ge  Ge11  1  0.000947  0.000000  0.007414  1
  Ge  Ge12  1  0.000947  0.000000  0.492586  1
  Bi  Bi13  1  0.606166  0.603890  0.750000  1
  Bi  Bi14  1  0.002274  0.396110  0.750000  1
  Bi  Bi15  1  0.997741  0.609855  0.250000  1
  Bi  Bi16  1  0.387886  0.390145  0.250000  1
  Bi  Bi17  1  0.399607  0.000000  0.750000  1
