# generated using pymatgen
data_Tb2Dy4Al24Os5Pt3
_symmetry_space_group_name_H-M   'P 1'
_cell_length_a   8.83387686
_cell_length_b   8.85510052
_cell_length_c   9.53912641
_cell_angle_alpha   89.98890334
_cell_angle_beta   89.70135782
_cell_angle_gamma   119.65603892
_symmetry_Int_Tables_number   1
_chemical_formula_structural   Tb2Dy4Al24Os5Pt3
_chemical_formula_sum   'Tb2 Dy4 Al24 Os5 Pt3'
_cell_volume   648.44150830
_cell_formula_units_Z   1
loop_
 _symmetry_equiv_pos_site_id
 _symmetry_equiv_pos_as_xyz
  1  'x, y, z'
loop_
 _atom_site_type_symbol
 _atom_site_label
 _atom_site_symmetry_multiplicity
 _atom_site_fract_x
 _atom_site_fract_y
 _atom_site_fract_z
 _atom_site_occupancy
  Tb  Tb0  1  0.188003  0.382790  0.250953  1
  Tb  Tb1  1  0.811997  0.617210  0.749047  1
  Dy  Dy2  1  0.614432  0.813894  0.252019  1
  Dy  Dy3  1  0.385568  0.186106  0.747981  1
  Dy  Dy4  1  0.194401  0.809962  0.251157  1
  Dy  Dy5  1  0.805599  0.190038  0.748843  1
  Al  Al6  1  0.335843  0.671332  0.028526  1
  Al  Al7  1  0.664157  0.328668  0.971474  1
  Al  Al8  1  0.669309  0.331413  0.526194  1
  Al  Al9  1  0.330691  0.668587  0.473806  1
  Al  Al10  1  0.158259  0.325129  0.575800  1
  Al  Al11  1  0.841741  0.674871  0.424200  1
  Al  Al12  1  0.674219  0.841053  0.575594  1
  Al  Al13  1  0.837225  0.676687  0.078487  1
  Al  Al14  1  0.325781  0.158947  0.424406  1
  Al  Al15  1  0.162775  0.323313  0.921513  1
  Al  Al16  1  0.164149  0.835660  0.575284  1
  Al  Al17  1  0.325644  0.158704  0.075794  1
  Al  Al18  1  0.835851  0.164340  0.424716  1
  Al  Al19  1  0.674356  0.841296  0.924206  1
  Al  Al20  1  0.832093  0.158989  0.076464  1
  Al  Al21  1  0.167907  0.841011  0.923536  1
  Al  Al22  1  0.560513  0.124188  0.249477  1
  Al  Al23  1  0.439487  0.875812  0.750523  1
  Al  Al24  1  0.874098  0.438553  0.252908  1
  Al  Al25  1  0.125902  0.561447  0.747092  1
  Al  Al26  1  0.563149  0.437464  0.249411  1
  Al  Al27  1  0.436851  0.562536  0.750589  1
  Al  Al28  1  0.998581  0.001545  0.250328  1
  Al  Al29  1  0.001419  0.998455  0.749672  1
  Os  Os30  1  0.500000  0.000000  0.000000  1
  Os  Os31  1  0.500000  0.000000  0.500000  1
  Os  Os32  1  0.000000  0.500000  0.500000  1
  Os  Os33  1  0.000000  0.000000  0.000000  1
  Os  Os34  1  0.000000  0.000000  0.500000  1
  Pt  Pt35  1  0.000000  0.500000  0.000000  1
  Pt  Pt36  1  0.500000  0.500000  0.000000  1
  Pt  Pt37  1  0.500000  0.500000  0.500000  1
