# generated using pymatgen
data_Dy6Al24Os3Ru2Pt3
_symmetry_space_group_name_H-M   'P 1'
_cell_length_a   8.86139777
_cell_length_b   8.83581045
_cell_length_c   9.52975118
_cell_angle_alpha   90.11079187
_cell_angle_beta   89.77375277
_cell_angle_gamma   120.11299507
_symmetry_Int_Tables_number   1
_chemical_formula_structural   Dy6Al24Os3Ru2Pt3
_chemical_formula_sum   'Dy6 Al24 Os3 Ru2 Pt3'
_cell_volume   645.44881605
_cell_formula_units_Z   1
loop_
 _symmetry_equiv_pos_site_id
 _symmetry_equiv_pos_as_xyz
  1  'x, y, z'
loop_
 _atom_site_type_symbol
 _atom_site_label
 _atom_site_symmetry_multiplicity
 _atom_site_fract_x
 _atom_site_fract_y
 _atom_site_fract_z
 _atom_site_occupancy
  Dy  Dy0  1  0.189466  0.804949  0.250983  1
  Dy  Dy1  1  0.196057  0.387925  0.251449  1
  Dy  Dy2  1  0.614408  0.802380  0.251482  1
  Dy  Dy3  1  0.810534  0.195051  0.749017  1
  Dy  Dy4  1  0.803943  0.612075  0.748551  1
  Dy  Dy5  1  0.385592  0.197620  0.748518  1
  Al  Al6  1  0.561446  0.437853  0.249514  1
  Al  Al7  1  0.562539  0.125170  0.249892  1
  Al  Al8  1  0.874670  0.437135  0.252194  1
  Al  Al9  1  0.438554  0.562147  0.750486  1
  Al  Al10  1  0.437461  0.874830  0.750108  1
  Al  Al11  1  0.125330  0.562865  0.747806  1
  Al  Al12  1  0.325157  0.166696  0.422477  1
  Al  Al13  1  0.842885  0.166290  0.421582  1
  Al  Al14  1  0.836194  0.671607  0.423638  1
  Al  Al15  1  0.674843  0.833304  0.577523  1
  Al  Al16  1  0.157115  0.833710  0.578418  1
  Al  Al17  1  0.163806  0.328393  0.576362  1
  Al  Al18  1  0.675254  0.832901  0.922017  1
  Al  Al19  1  0.161978  0.839541  0.919518  1
  Al  Al20  1  0.167779  0.325554  0.921399  1
  Al  Al21  1  0.324746  0.167099  0.077983  1
  Al  Al22  1  0.838022  0.160459  0.080482  1
  Al  Al23  1  0.832221  0.674446  0.078601  1
  Al  Al24  1  0.668707  0.337611  0.525223  1
  Al  Al25  1  0.331293  0.662389  0.474777  1
  Al  Al26  1  0.335509  0.664781  0.027466  1
  Al  Al27  1  0.664491  0.335219  0.972534  1
  Al  Al28  1  0.999801  0.997628  0.250157  1
  Al  Al29  1  0.000199  0.002372  0.749843  1
  Os  Os30  1  0.500000  0.500000  0.500000  1
  Os  Os31  1  0.000000  0.500000  0.500000  1
  Os  Os32  1  0.500000  0.500000  0.000000  1
  Ru  Ru33  1  0.000000  0.000000  0.500000  1
  Ru  Ru34  1  0.000000  0.000000  0.000000  1
  Pt  Pt35  1  0.500000  0.000000  0.500000  1
  Pt  Pt36  1  0.500000  0.000000  0.000000  1
  Pt  Pt37  1  0.000000  0.500000  0.000000  1
