# generated using pymatgen
data_Sc20Cd3Ag3Ru2
_symmetry_space_group_name_H-M   'P 1'
_cell_length_a   8.90537400
_cell_length_b   8.90537340
_cell_length_c   9.14956200
_cell_angle_alpha   90.00000000
_cell_angle_beta   90.00000000
_cell_angle_gamma   119.99999480
_symmetry_Int_Tables_number   1
_chemical_formula_structural   Sc20Cd3Ag3Ru2
_chemical_formula_sum   'Sc20 Cd3 Ag3 Ru2'
_cell_volume   628.39866864
_cell_formula_units_Z   1
loop_
 _symmetry_equiv_pos_site_id
 _symmetry_equiv_pos_as_xyz
  1  'x, y, z'
loop_
 _atom_site_type_symbol
 _atom_site_label
 _atom_site_symmetry_multiplicity
 _atom_site_fract_x
 _atom_site_fract_y
 _atom_site_fract_z
 _atom_site_occupancy
  Sc  Sc0  1  0.000000  0.000000  0.481118  1
  Sc  Sc1  1  0.000000  0.000000  0.018882  1
  Sc  Sc2  1  0.209695  0.790305  0.443720  1
  Sc  Sc3  1  0.209695  0.419391  0.443720  1
  Sc  Sc4  1  0.580609  0.790305  0.443720  1
  Sc  Sc5  1  0.790655  0.209345  0.555881  1
  Sc  Sc6  1  0.790655  0.581310  0.555881  1
  Sc  Sc7  1  0.418690  0.209345  0.555881  1
  Sc  Sc8  1  0.790655  0.209345  0.944119  1
  Sc  Sc9  1  0.790655  0.581310  0.944119  1
  Sc  Sc10  1  0.418690  0.209345  0.944119  1
  Sc  Sc11  1  0.209695  0.790305  0.056280  1
  Sc  Sc12  1  0.209695  0.419391  0.056280  1
  Sc  Sc13  1  0.580609  0.790305  0.056280  1
  Sc  Sc14  1  0.539677  0.460323  0.250000  1
  Sc  Sc15  1  0.539677  0.079353  0.250000  1
  Sc  Sc16  1  0.920647  0.460323  0.250000  1
  Sc  Sc17  1  0.459458  0.540542  0.750000  1
  Sc  Sc18  1  0.459458  0.918915  0.750000  1
  Sc  Sc19  1  0.081085  0.540542  0.750000  1
  Cd  Cd20  1  0.112814  0.887186  0.750000  1
  Cd  Cd21  1  0.112814  0.225627  0.750000  1
  Cd  Cd22  1  0.774373  0.887186  0.750000  1
  Ag  Ag23  1  0.880028  0.119972  0.250000  1
  Ag  Ag24  1  0.880028  0.760057  0.250000  1
  Ag  Ag25  1  0.239943  0.119972  0.250000  1
  Ru  Ru26  1  0.333333  0.666667  0.250000  1
  Ru  Ru27  1  0.666667  0.333333  0.750000  1
