# generated using pymatgen
data_Zr3Co5Ni(B2Ir)3
_symmetry_space_group_name_H-M   'P 1'
_cell_length_a   5.85822970
_cell_length_b   5.85822952
_cell_length_c   5.88042659
_cell_angle_alpha   95.58862110
_cell_angle_beta   95.58861527
_cell_angle_gamma   95.39894395
_symmetry_Int_Tables_number   1
_chemical_formula_structural   Zr3Co5Ni(B2Ir)3
_chemical_formula_sum   'Zr3 Co5 Ni1 B6 Ir3'
_cell_volume   198.79973872
_cell_formula_units_Z   1
loop_
 _symmetry_equiv_pos_site_id
 _symmetry_equiv_pos_as_xyz
  1  'x, y, z'
loop_
 _atom_site_type_symbol
 _atom_site_label
 _atom_site_symmetry_multiplicity
 _atom_site_fract_x
 _atom_site_fract_y
 _atom_site_fract_z
 _atom_site_occupancy
  Zr  Zr0  1  0.001355  0.001355  0.998433  1
  Zr  Zr1  1  0.667674  0.667674  0.670237  1
  Zr  Zr2  1  0.331790  0.331790  0.334096  1
  Co  Co3  1  0.691717  0.209829  0.690741  1
  Co  Co4  1  0.209829  0.691717  0.690741  1
  Co  Co5  1  0.309307  0.788979  0.307927  1
  Co  Co6  1  0.309795  0.309795  0.792125  1
  Co  Co7  1  0.788979  0.309307  0.307927  1
  Ni  Ni8  1  0.692584  0.692584  0.210182  1
  B  B9  1  0.618448  0.378436  0.998362  1
  B  B10  1  0.002614  0.613533  0.386182  1
  B  B11  1  0.385427  0.999639  0.614600  1
  B  B12  1  0.999639  0.385427  0.614600  1
  B  B13  1  0.613533  0.002614  0.386182  1
  B  B14  1  0.378436  0.618448  0.998362  1
  Ir  Ir15  1  0.000041  0.000041  0.499819  1
  Ir  Ir16  1  0.499273  0.999559  0.999742  1
  Ir  Ir17  1  0.999559  0.499273  0.999742  1
