# generated using pymatgen
data_YHo(H2Cl)2
_symmetry_space_group_name_H-M   'P 1'
_cell_length_a   11.03381043
_cell_length_b   11.03381061
_cell_length_c   11.03380994
_cell_angle_alpha   19.33291201
_cell_angle_beta   19.33290809
_cell_angle_gamma   19.33291216
_symmetry_Int_Tables_number   1
_chemical_formula_structural   YHo(H2Cl)2
_chemical_formula_sum   'Y1 Ho1 H4 Cl2'
_cell_volume   128.70974097
_cell_formula_units_Z   1
loop_
 _symmetry_equiv_pos_site_id
 _symmetry_equiv_pos_as_xyz
  1  'x, y, z'
loop_
 _atom_site_type_symbol
 _atom_site_label
 _atom_site_symmetry_multiplicity
 _atom_site_fract_x
 _atom_site_fract_y
 _atom_site_fract_z
 _atom_site_occupancy
  Y  Y0  1  0.883015  0.883015  0.883015  1
  Ho  Ho1  1  0.116991  0.116991  0.116991  1
  H  H2  1  0.814807  0.814807  0.814807  1
  H  H3  1  0.184615  0.184615  0.184615  1
  H  H4  1  0.542647  0.542647  0.542647  1
  H  H5  1  0.457178  0.457178  0.457178  1
  Cl  Cl6  1  0.729538  0.729538  0.729538  1
  Cl  Cl7  1  0.271210  0.271210  0.271210  1
