# generated using pymatgen
data_Tb13Tm2Lu5Pb16
_symmetry_space_group_name_H-M   'P 1'
_cell_length_a   8.17309548
_cell_length_b   8.25850291
_cell_length_c   15.62043901
_cell_angle_alpha   89.99772048
_cell_angle_beta   90.08099231
_cell_angle_gamma   90.19559272
_symmetry_Int_Tables_number   1
_chemical_formula_structural   Tb13Tm2Lu5Pb16
_chemical_formula_sum   'Tb13 Tm2 Lu5 Pb16'
_cell_volume   1054.33389749
_cell_formula_units_Z   1
loop_
 _symmetry_equiv_pos_site_id
 _symmetry_equiv_pos_as_xyz
  1  'x, y, z'
loop_
 _atom_site_type_symbol
 _atom_site_label
 _atom_site_symmetry_multiplicity
 _atom_site_fract_x
 _atom_site_fract_y
 _atom_site_fract_z
 _atom_site_occupancy
  Tb  Tb0  1  0.125882  0.342030  0.120302  1
  Tb  Tb1  1  0.623652  0.159125  0.121739  1
  Tb  Tb2  1  0.123411  0.341824  0.379293  1
  Tb  Tb3  1  0.376019  0.841880  0.621339  1
  Tb  Tb4  1  0.876662  0.657989  0.878968  1
  Tb  Tb5  1  0.534861  0.323523  0.900682  1
  Tb  Tb6  1  0.035730  0.176699  0.599175  1
  Tb  Tb7  1  0.465226  0.677638  0.401513  1
  Tb  Tb8  1  0.964050  0.823907  0.099255  1
  Tb  Tb9  1  0.466911  0.677838  0.098335  1
  Tb  Tb10  1  0.967440  0.823113  0.402234  1
  Tb  Tb11  1  0.533059  0.323286  0.598518  1
  Tb  Tb12  1  0.034396  0.174888  0.899718  1
  Tm  Tm13  1  0.373638  0.843832  0.876592  1
  Tm  Tm14  1  0.872631  0.656240  0.622001  1
  Lu  Lu15  1  0.627028  0.156210  0.378981  1
  Lu  Lu16  1  0.206864  0.505819  0.750132  1
  Lu  Lu17  1  0.706958  0.995174  0.749466  1
  Lu  Lu18  1  0.792159  0.494775  0.251455  1
  Lu  Lu19  1  0.293575  0.004733  0.249950  1
  Pb  Pb20  1  0.282912  0.031675  0.041891  1
  Pb  Pb21  1  0.780908  0.464639  0.457619  1
  Pb  Pb22  1  0.719326  0.964148  0.542912  1
  Pb  Pb23  1  0.219964  0.536518  0.955371  1
  Pb  Pb24  1  0.713323  0.965515  0.955505  1
  Pb  Pb25  1  0.212829  0.535028  0.544779  1
  Pb  Pb26  1  0.287788  0.035559  0.455736  1
  Pb  Pb27  1  0.782959  0.466939  0.044563  1
  Pb  Pb28  1  0.569865  0.626254  0.750378  1
  Pb  Pb29  1  0.068871  0.873498  0.748880  1
  Pb  Pb30  1  0.430993  0.373793  0.251897  1
  Pb  Pb31  1  0.929514  0.124625  0.250510  1
  Pb  Pb32  1  0.346749  0.156090  0.749976  1
  Pb  Pb33  1  0.846730  0.344204  0.749372  1
  Pb  Pb34  1  0.653884  0.845131  0.250870  1
  Pb  Pb35  1  0.153234  0.655861  0.250096  1
