# generated using pymatgen
data_NdSm3Np2O12
_symmetry_space_group_name_H-M   'P 1'
_cell_length_a   5.66843700
_cell_length_b   7.99753054
_cell_length_c   12.09823630
_cell_angle_alpha   74.11639287
_cell_angle_beta   90.00000000
_cell_angle_gamma   90.00000000
_symmetry_Int_Tables_number   1
_chemical_formula_structural   NdSm3Np2O12
_chemical_formula_sum   'Nd2 Sm6 Np4 O24'
_cell_volume   527.51515422
_cell_formula_units_Z   2
loop_
 _symmetry_equiv_pos_site_id
 _symmetry_equiv_pos_as_xyz
  1  'x, y, z'
loop_
 _atom_site_type_symbol
 _atom_site_label
 _atom_site_symmetry_multiplicity
 _atom_site_fract_x
 _atom_site_fract_y
 _atom_site_fract_z
 _atom_site_occupancy
  Nd  Nd0  1  0.693895  0.500000  0.750000  1
  Nd  Nd1  1  0.306105  0.500000  0.250000  1
  Sm  Sm2  1  0.743340  0.000000  0.750000  1
  Sm  Sm3  1  0.256660  0.000000  0.250000  1
  Sm  Sm4  1  0.188207  0.795116  0.577954  1
  Sm  Sm5  1  0.811793  0.795116  0.077954  1
  Sm  Sm6  1  0.188207  0.204884  0.922046  1
  Sm  Sm7  1  0.811793  0.204884  0.422046  1
  Np  Np8  1  0.253896  0.723355  0.885634  1
  Np  Np9  1  0.746104  0.723355  0.385634  1
  Np  Np10  1  0.253896  0.276645  0.614366  1
  Np  Np11  1  0.746104  0.276645  0.114366  1
  O  O12  1  0.044197  0.941851  0.896225  1
  O  O13  1  0.543957  0.848817  0.931138  1
  O  O14  1  0.955803  0.941851  0.396225  1
  O  O15  1  0.447930  0.797814  0.729160  1
  O  O16  1  0.456043  0.848817  0.431138  1
  O  O17  1  0.970649  0.714776  0.768178  1
  O  O18  1  0.552070  0.797814  0.229160  1
  O  O19  1  0.870775  0.631390  0.550285  1
  O  O20  1  0.380097  0.486242  0.885471  1
  O  O21  1  0.029351  0.714776  0.268178  1
  O  O22  1  0.380097  0.513758  0.614529  1
  O  O23  1  0.870775  0.368610  0.949715  1
  O  O24  1  0.129225  0.631390  0.050285  1
  O  O25  1  0.619903  0.486242  0.385471  1
  O  O26  1  0.970649  0.285224  0.731822  1
  O  O27  1  0.619903  0.513758  0.114529  1
  O  O28  1  0.129225  0.368610  0.449715  1
  O  O29  1  0.447930  0.202186  0.770840  1
  O  O30  1  0.029351  0.285224  0.231822  1
  O  O31  1  0.543957  0.151183  0.568862  1
  O  O32  1  0.552070  0.202186  0.270840  1
  O  O33  1  0.044197  0.058149  0.603775  1
  O  O34  1  0.456043  0.151183  0.068862  1
  O  O35  1  0.955803  0.058149  0.103775  1
