# generated using pymatgen
data_MgTi3CuPt11
_symmetry_space_group_name_H-M   'P 1'
_cell_length_a   5.57876700
_cell_length_b   5.56927439
_cell_length_c   9.07166100
_cell_angle_alpha   90.00000000
_cell_angle_beta   90.00000000
_cell_angle_gamma   120.05639318
_symmetry_Int_Tables_number   1
_chemical_formula_structural   MgTi3CuPt11
_chemical_formula_sum   'Mg1 Ti3 Cu1 Pt11'
_cell_volume   243.95358955
_cell_formula_units_Z   1
loop_
 _symmetry_equiv_pos_site_id
 _symmetry_equiv_pos_as_xyz
  1  'x, y, z'
loop_
 _atom_site_type_symbol
 _atom_site_label
 _atom_site_symmetry_multiplicity
 _atom_site_fract_x
 _atom_site_fract_y
 _atom_site_fract_z
 _atom_site_occupancy
  Mg  Mg0  1  0.331216  0.662434  0.250000  1
  Ti  Ti1  1  0.002334  0.004667  0.500700  1
  Ti  Ti2  1  0.002334  0.004667  0.999300  1
  Ti  Ti3  1  0.667922  0.335842  0.750000  1
  Cu  Cu4  1  0.828432  0.656866  0.250000  1
  Pt  Pt5  1  0.505686  0.503676  0.498370  1
  Pt  Pt6  1  0.502524  0.005047  0.502487  1
  Pt  Pt7  1  0.997989  0.503676  0.498370  1
  Pt  Pt8  1  0.505686  0.503676  0.001630  1
  Pt  Pt9  1  0.502524  0.005047  0.997513  1
  Pt  Pt10  1  0.997989  0.503676  0.001630  1
  Pt  Pt11  1  0.332261  0.161677  0.250000  1
  Pt  Pt12  1  0.829415  0.161677  0.250000  1
  Pt  Pt13  1  0.164157  0.328315  0.750000  1
  Pt  Pt14  1  0.663358  0.829529  0.750000  1
  Pt  Pt15  1  0.166171  0.829529  0.750000  1
