# generated using pymatgen
data_SmTh3(Rh2Pb)2
_symmetry_space_group_name_H-M   'P 1'
_cell_length_a   7.88924418
_cell_length_b   7.88924423
_cell_length_c   3.77031200
_cell_angle_alpha   90.00000000
_cell_angle_beta   90.00000000
_cell_angle_gamma   91.81348383
_symmetry_Int_Tables_number   1
_chemical_formula_structural   SmTh3(Rh2Pb)2
_chemical_formula_sum   'Sm1 Th3 Rh4 Pb2'
_cell_volume   234.54734120
_cell_formula_units_Z   1
loop_
 _symmetry_equiv_pos_site_id
 _symmetry_equiv_pos_as_xyz
  1  'x, y, z'
loop_
 _atom_site_type_symbol
 _atom_site_label
 _atom_site_symmetry_multiplicity
 _atom_site_fract_x
 _atom_site_fract_y
 _atom_site_fract_z
 _atom_site_occupancy
  Sm  Sm0  1  0.829147  0.670853  0.500000  1
  Th  Th1  1  0.672686  0.168825  0.500000  1
  Th  Th2  1  0.331175  0.827314  0.500000  1
  Th  Th3  1  0.169064  0.330936  0.500000  1
  Rh  Rh4  1  0.140586  0.626571  0.000000  1
  Rh  Rh5  1  0.873429  0.359414  0.000000  1
  Rh  Rh6  1  0.616556  0.883444  0.000000  1
  Rh  Rh7  1  0.361101  0.138899  0.000000  1
  Pb  Pb8  1  0.998640  0.992388  0.000000  1
  Pb  Pb9  1  0.507612  0.501360  0.000000  1
