# generated using pymatgen
data_Li2UCr2O10
_symmetry_space_group_name_H-M   'P 1'
_cell_length_a   5.29554355
_cell_length_b   5.80393738
_cell_length_c   8.16097296
_cell_angle_alpha   107.78606260
_cell_angle_beta   97.86854601
_cell_angle_gamma   106.22611660
_symmetry_Int_Tables_number   1
_chemical_formula_structural   Li2UCr2O10
_chemical_formula_sum   'Li2 U1 Cr2 O10'
_cell_volume   222.44587380
_cell_formula_units_Z   1
loop_
 _symmetry_equiv_pos_site_id
 _symmetry_equiv_pos_as_xyz
  1  'x, y, z'
loop_
 _atom_site_type_symbol
 _atom_site_label
 _atom_site_symmetry_multiplicity
 _atom_site_fract_x
 _atom_site_fract_y
 _atom_site_fract_z
 _atom_site_occupancy
  Li  Li0  1  0.475433  0.207552  0.419226  1
  Li  Li1  1  0.524565  0.792448  0.580774  1
  U  U2  1  0.000000  0.000000  0.000000  1
  Cr  Cr3  1  0.927832  0.643110  0.302379  1
  Cr  Cr4  1  0.072168  0.356890  0.697621  1
  O  O5  1  0.809413  0.775609  0.163742  1
  O  O6  1  0.324115  0.072731  0.151261  1
  O  O7  1  0.971044  0.370081  0.182365  1
  O  O8  1  0.711102  0.577905  0.422010  1
  O  O9  1  0.221477  0.848645  0.433576  1
  O  O10  1  0.778522  0.151354  0.566423  1
  O  O11  1  0.288899  0.422095  0.577991  1
  O  O12  1  0.028957  0.629920  0.817636  1
  O  O13  1  0.675886  0.927269  0.848739  1
  O  O14  1  0.190587  0.224391  0.836258  1
