# generated using pymatgen
data_Nd2B4Os2RuRh
_symmetry_space_group_name_H-M   'P 1'
_cell_length_a   6.86173953
_cell_length_b   6.03484223
_cell_length_c   5.63977811
_cell_angle_alpha   71.90433594
_cell_angle_beta   56.71921704
_cell_angle_gamma   51.23438752
_symmetry_Int_Tables_number   1
_chemical_formula_structural   Nd2B4Os2RuRh
_chemical_formula_sum   'Nd2 B4 Os2 Ru1 Rh1'
_cell_volume   152.03465387
_cell_formula_units_Z   1
loop_
 _symmetry_equiv_pos_site_id
 _symmetry_equiv_pos_as_xyz
  1  'x, y, z'
loop_
 _atom_site_type_symbol
 _atom_site_label
 _atom_site_symmetry_multiplicity
 _atom_site_fract_x
 _atom_site_fract_y
 _atom_site_fract_z
 _atom_site_occupancy
  Nd  Nd0  1  0.998238  0.998238  0.001762  1
  Nd  Nd1  1  0.249394  0.249394  0.250606  1
  B  B2  1  0.311706  0.693514  0.311917  1
  B  B3  1  0.693514  0.311706  0.682864  1
  B  B4  1  0.573574  0.924519  0.572002  1
  B  B5  1  0.924519  0.573574  0.929905  1
  Os  Os6  1  0.613562  0.613562  0.886438  1
  Os  Os7  1  0.885918  0.885918  0.614082  1
  Ru  Ru8  1  0.634525  0.634525  0.365475  1
  Rh  Rh9  1  0.365050  0.365050  0.634950  1
