# generated using pymatgen
data_Li4Tb3ThPt4
_symmetry_space_group_name_H-M   'P 1'
_cell_length_a   4.00306800
_cell_length_b   7.04662573
_cell_length_c   8.45347300
_cell_angle_alpha   90.07916298
_cell_angle_beta   90.00000000
_cell_angle_gamma   90.00000000
_symmetry_Int_Tables_number   1
_chemical_formula_structural   Li4Tb3ThPt4
_chemical_formula_sum   'Li4 Tb3 Th1 Pt4'
_cell_volume   238.45636969
_cell_formula_units_Z   1
loop_
 _symmetry_equiv_pos_site_id
 _symmetry_equiv_pos_as_xyz
  1  'x, y, z'
loop_
 _atom_site_type_symbol
 _atom_site_label
 _atom_site_symmetry_multiplicity
 _atom_site_fract_x
 _atom_site_fract_y
 _atom_site_fract_z
 _atom_site_occupancy
  Li  Li0  1  0.250000  0.627738  0.562448  1
  Li  Li1  1  0.250000  0.130266  0.938728  1
  Li  Li2  1  0.750000  0.378079  0.443181  1
  Li  Li3  1  0.750000  0.866685  0.053278  1
  Tb  Tb4  1  0.250000  0.546071  0.181382  1
  Tb  Tb5  1  0.750000  0.955937  0.690045  1
  Tb  Tb6  1  0.750000  0.453969  0.814731  1
  Th  Th7  1  0.250000  0.043003  0.311137  1
  Pt  Pt8  1  0.250000  0.245390  0.618123  1
  Pt  Pt9  1  0.250000  0.743762  0.879519  1
  Pt  Pt10  1  0.750000  0.756941  0.382373  1
  Pt  Pt11  1  0.750000  0.252160  0.125050  1
