# generated using pymatgen
data_TbErGa2NiIr
_symmetry_space_group_name_H-M   'P 1'
_cell_length_a   4.28486300
_cell_length_b   6.78153600
_cell_length_c   7.64399300
_cell_angle_alpha   90.00000000
_cell_angle_beta   90.00000000
_cell_angle_gamma   90.00000000
_symmetry_Int_Tables_number   1
_chemical_formula_structural   TbErGa2NiIr
_chemical_formula_sum   'Tb2 Er2 Ga4 Ni2 Ir2'
_cell_volume   222.11878695
_cell_formula_units_Z   2
loop_
 _symmetry_equiv_pos_site_id
 _symmetry_equiv_pos_as_xyz
  1  'x, y, z'
loop_
 _atom_site_type_symbol
 _atom_site_label
 _atom_site_symmetry_multiplicity
 _atom_site_fract_x
 _atom_site_fract_y
 _atom_site_fract_z
 _atom_site_occupancy
  Tb  Tb0  1  0.750000  0.024094  0.685764  1
  Tb  Tb1  1  0.750000  0.524094  0.814236  1
  Er  Er2  1  0.250000  0.978073  0.311153  1
  Er  Er3  1  0.250000  0.478073  0.188847  1
  Ga  Ga4  1  0.250000  0.345419  0.574755  1
  Ga  Ga5  1  0.250000  0.845419  0.925245  1
  Ga  Ga6  1  0.750000  0.659538  0.439789  1
  Ga  Ga7  1  0.750000  0.159538  0.060211  1
  Ni  Ni8  1  0.250000  0.221434  0.886797  1
  Ni  Ni9  1  0.250000  0.721434  0.613203  1
  Ir  Ir10  1  0.750000  0.771443  0.113579  1
  Ir  Ir11  1  0.750000  0.271443  0.386421  1
