# generated using pymatgen
data_Tb4TlPd3RhPb
_symmetry_space_group_name_H-M   'P 1'
_cell_length_a   7.85335339
_cell_length_b   7.85497929
_cell_length_c   3.67262600
_cell_angle_alpha   90.00000000
_cell_angle_beta   90.00000000
_cell_angle_gamma   89.86637094
_symmetry_Int_Tables_number   1
_chemical_formula_structural   Tb4TlPd3RhPb
_chemical_formula_sum   'Tb4 Tl1 Pd3 Rh1 Pb1'
_cell_volume   226.55607297
_cell_formula_units_Z   1
loop_
 _symmetry_equiv_pos_site_id
 _symmetry_equiv_pos_as_xyz
  1  'x, y, z'
loop_
 _atom_site_type_symbol
 _atom_site_label
 _atom_site_symmetry_multiplicity
 _atom_site_fract_x
 _atom_site_fract_y
 _atom_site_fract_z
 _atom_site_occupancy
  Tb  Tb0  1  0.664678  0.171224  0.500000  1
  Tb  Tb1  1  0.177562  0.315032  0.500000  1
  Tb  Tb2  1  0.833429  0.674478  0.500000  1
  Tb  Tb3  1  0.320982  0.842792  0.500000  1
  Tl  Tl4  1  0.998003  0.001025  0.000000  1
  Pd  Pd5  1  0.126287  0.623420  0.000000  1
  Pd  Pd6  1  0.627518  0.872019  0.000000  1
  Pd  Pd7  1  0.876114  0.373613  0.000000  1
  Rh  Rh8  1  0.376735  0.125114  0.000000  1
  Pb  Pb9  1  0.498692  0.501284  0.000000  1
