# generated using pymatgen
data_Gd4Er4Tc3B24Os
_symmetry_space_group_name_H-M   'P 1'
_cell_length_a   3.67577100
_cell_length_b   9.15668789
_cell_length_c   11.55875907
_cell_angle_alpha   89.96083709
_cell_angle_beta   90.00000000
_cell_angle_gamma   90.00000000
_symmetry_Int_Tables_number   1
_chemical_formula_structural   Gd4Er4Tc3B24Os
_chemical_formula_sum   'Gd4 Er4 Tc3 B24 Os1'
_cell_volume   389.04332495
_cell_formula_units_Z   1
loop_
 _symmetry_equiv_pos_site_id
 _symmetry_equiv_pos_as_xyz
  1  'x, y, z'
loop_
 _atom_site_type_symbol
 _atom_site_label
 _atom_site_symmetry_multiplicity
 _atom_site_fract_x
 _atom_site_fract_y
 _atom_site_fract_z
 _atom_site_occupancy
  Gd  Gd0  1  0.000000  0.323323  0.413741  1
  Gd  Gd1  1  0.000000  0.675764  0.584353  1
  Gd  Gd2  1  0.000000  0.822786  0.087220  1
  Gd  Gd3  1  0.000000  0.177953  0.914894  1
  Er  Er4  1  0.000000  0.942695  0.369765  1
  Er  Er5  1  0.000000  0.058243  0.630152  1
  Er  Er6  1  0.000000  0.442942  0.130503  1
  Er  Er7  1  0.000000  0.556790  0.869420  1
  Tc  Tc8  1  0.000000  0.638951  0.319987  1
  Tc  Tc9  1  0.000000  0.360714  0.680683  1
  Tc  Tc10  1  0.000000  0.138469  0.179157  1
  B  B11  1  0.500000  0.553739  0.432111  1
  B  B12  1  0.500000  0.446313  0.567698  1
  B  B13  1  0.500000  0.053629  0.067468  1
  B  B14  1  0.500000  0.945637  0.932191  1
  B  B15  1  0.500000  0.749354  0.417884  1
  B  B16  1  0.500000  0.250668  0.582126  1
  B  B17  1  0.500000  0.249706  0.081941  1
  B  B18  1  0.500000  0.750758  0.917639  1
  B  B19  1  0.500000  0.791845  0.265428  1
  B  B20  1  0.500000  0.208376  0.735124  1
  B  B21  1  0.500000  0.291521  0.234475  1
  B  B22  1  0.500000  0.708992  0.765481  1
  B  B23  1  0.500000  0.630661  0.185386  1
  B  B24  1  0.500000  0.369643  0.815078  1
  B  B25  1  0.500000  0.129994  0.314099  1
  B  B26  1  0.500000  0.869501  0.685681  1
  B  B27  1  0.500000  0.982274  0.212107  1
  B  B28  1  0.500000  0.016618  0.787908  1
  B  B29  1  0.500000  0.482786  0.287443  1
  B  B30  1  0.500000  0.517198  0.712337  1
  B  B31  1  0.500000  0.600021  0.027444  1
  B  B32  1  0.500000  0.400993  0.972413  1
  B  B33  1  0.500000  0.099352  0.472530  1
  B  B34  1  0.500000  0.900526  0.527963  1
  Os  Os35  1  0.000000  0.861264  0.820167  1
