# generated using pymatgen
data_DyYFeSi5Rh2
_symmetry_space_group_name_H-M   'P 1'
_cell_length_a   8.04297290
_cell_length_b   8.04377059
_cell_length_c   5.63764937
_cell_angle_alpha   70.94949004
_cell_angle_beta   70.94648818
_cell_angle_gamma   93.61142891
_symmetry_Int_Tables_number   1
_chemical_formula_structural   DyYFeSi5Rh2
_chemical_formula_sum   'Dy2 Y2 Fe2 Si10 Rh4'
_cell_volume   319.94753730
_cell_formula_units_Z   2
loop_
 _symmetry_equiv_pos_site_id
 _symmetry_equiv_pos_as_xyz
  1  'x, y, z'
loop_
 _atom_site_type_symbol
 _atom_site_label
 _atom_site_symmetry_multiplicity
 _atom_site_fract_x
 _atom_site_fract_y
 _atom_site_fract_z
 _atom_site_occupancy
  Dy  Dy0  1  0.864152  0.596908  0.766647  1
  Dy  Dy1  1  0.129119  0.401368  0.243480  1
  Y  Y2  1  0.402855  0.135904  0.733624  1
  Y  Y3  1  0.598841  0.870795  0.256397  1
  Fe  Fe4  1  0.544169  0.261511  0.128804  1
  Fe  Fe5  1  0.738914  0.456054  0.370666  1
  Si  Si6  1  0.763036  0.237465  0.749817  1
  Si  Si7  1  0.220757  0.778782  0.250187  1
  Si  Si8  1  0.522258  0.477861  0.750180  1
  Si  Si9  1  0.497880  0.502056  0.249793  1
  Si  Si10  1  0.209132  0.790359  0.750296  1
  Si  Si11  1  0.784030  0.216396  0.249745  1
  Si  Si12  1  0.278055  0.069562  0.326368  1
  Si  Si13  1  0.734468  0.941108  0.663295  1
  Si  Si14  1  0.930757  0.721671  0.173641  1
  Si  Si15  1  0.058571  0.265762  0.836690  1
  Rh  Rh16  1  0.458863  0.736960  0.876381  1
  Rh  Rh17  1  0.262647  0.540830  0.624047  1
  Rh  Rh18  1  0.998973  0.001082  0.250019  1
  Rh  Rh19  1  0.002524  0.997564  0.749922  1
