# generated using pymatgen
data_Sc5Sn6MoRu12
_symmetry_space_group_name_H-M   'P 1'
_cell_length_a   4.53381500
_cell_length_b   6.41944300
_cell_length_c   13.59467600
_cell_angle_alpha   90.00000000
_cell_angle_beta   89.99959129
_cell_angle_gamma   90.00000000
_symmetry_Int_Tables_number   1
_chemical_formula_structural   Sc5Sn6MoRu12
_chemical_formula_sum   'Sc5 Sn6 Mo1 Ru12'
_cell_volume   395.66715801
_cell_formula_units_Z   1
loop_
 _symmetry_equiv_pos_site_id
 _symmetry_equiv_pos_as_xyz
  1  'x, y, z'
loop_
 _atom_site_type_symbol
 _atom_site_label
 _atom_site_symmetry_multiplicity
 _atom_site_fract_x
 _atom_site_fract_y
 _atom_site_fract_z
 _atom_site_occupancy
  Sc  Sc0  1  0.499928  0.500001  0.165900  1
  Sc  Sc1  1  0.999924  0.000000  0.334245  1
  Sc  Sc2  1  0.500001  0.500001  0.500000  1
  Sc  Sc3  1  0.000076  0.000000  0.665754  1
  Sc  Sc4  1  0.500071  0.500001  0.834101  1
  Sn  Sn5  1  0.000000  0.500001  0.000000  1
  Sn  Sn6  1  0.499925  0.000000  0.170739  1
  Sn  Sn7  1  0.999929  0.500001  0.332135  1
  Sn  Sn8  1  0.500001  0.000000  0.500000  1
  Sn  Sn9  1  0.000067  0.500001  0.667864  1
  Sn  Sn10  1  0.500074  0.000000  0.829262  1
  Mo  Mo11  1  0.000000  0.000000  0.000000  1
  Ru  Ru12  1  0.500001  0.233453  0.000000  1
  Ru  Ru13  1  0.500001  0.766547  0.000000  1
  Ru  Ru14  1  0.999907  0.243302  0.159793  1
  Ru  Ru15  1  0.999907  0.756698  0.159793  1
  Ru  Ru16  1  0.499906  0.252611  0.332120  1
  Ru  Ru17  1  0.499906  0.747388  0.332120  1
  Ru  Ru18  1  0.000000  0.250338  0.500000  1
  Ru  Ru19  1  0.000000  0.749665  0.500000  1
  Ru  Ru20  1  0.500093  0.252611  0.667879  1
  Ru  Ru21  1  0.500093  0.747388  0.667879  1
  Ru  Ru22  1  0.000093  0.243302  0.840207  1
  Ru  Ru23  1  0.000093  0.756698  0.840207  1
