# generated using pymatgen
data_Si4Ni4IrRh3
_symmetry_space_group_name_H-M   'P 1'
_cell_length_a   3.68629200
_cell_length_b   5.66815834
_cell_length_c   7.04760567
_cell_angle_alpha   90.14205244
_cell_angle_beta   90.00000000
_cell_angle_gamma   90.00000000
_symmetry_Int_Tables_number   1
_chemical_formula_structural   Si4Ni4IrRh3
_chemical_formula_sum   'Si4 Ni4 Ir1 Rh3'
_cell_volume   147.25565060
_cell_formula_units_Z   1
loop_
 _symmetry_equiv_pos_site_id
 _symmetry_equiv_pos_as_xyz
  1  'x, y, z'
loop_
 _atom_site_type_symbol
 _atom_site_label
 _atom_site_symmetry_multiplicity
 _atom_site_fract_x
 _atom_site_fract_y
 _atom_site_fract_z
 _atom_site_occupancy
  Si  Si0  1  0.250000  0.249344  0.625690  1
  Si  Si1  1  0.250000  0.749562  0.874177  1
  Si  Si2  1  0.750000  0.750854  0.372892  1
  Si  Si3  1  0.750000  0.249520  0.127186  1
  Ni  Ni4  1  0.250000  0.144037  0.941327  1
  Ni  Ni5  1  0.250000  0.643315  0.558333  1
  Ni  Ni6  1  0.750000  0.856139  0.057904  1
  Ni  Ni7  1  0.750000  0.357628  0.442393  1
  Ir  Ir8  1  0.750000  0.462325  0.821504  1
  Rh  Rh9  1  0.250000  0.037962  0.321769  1
  Rh  Rh10  1  0.250000  0.536756  0.178651  1
  Rh  Rh11  1  0.750000  0.962555  0.678172  1
