# generated using pymatgen
data_Ho7TmTi9Si16Tc3
_symmetry_space_group_name_H-M   'P 1'
_cell_length_a   6.95567843
_cell_length_b   6.95613428
_cell_length_c   12.77538240
_cell_angle_alpha   90.06141006
_cell_angle_beta   89.95029948
_cell_angle_gamma   90.02525087
_symmetry_Int_Tables_number   1
_chemical_formula_structural   Ho7TmTi9Si16Tc3
_chemical_formula_sum   'Ho7 Tm1 Ti9 Si16 Tc3'
_cell_volume   618.13154364
_cell_formula_units_Z   1
loop_
 _symmetry_equiv_pos_site_id
 _symmetry_equiv_pos_as_xyz
  1  'x, y, z'
loop_
 _atom_site_type_symbol
 _atom_site_label
 _atom_site_symmetry_multiplicity
 _atom_site_fract_x
 _atom_site_fract_y
 _atom_site_fract_z
 _atom_site_occupancy
  Ho  Ho0  1  0.498633  0.841852  0.719251  1
  Ho  Ho1  1  0.500177  0.158571  0.217942  1
  Ho  Ho2  1  0.841730  0.498694  0.280686  1
  Ho  Ho3  1  0.158633  0.500174  0.782102  1
  Ho  Ho4  1  0.658791  0.999422  0.968460  1
  Ho  Ho5  1  0.001648  0.340557  0.532662  1
  Ho  Ho6  1  0.999457  0.658785  0.031607  1
  Tm  Tm7  1  0.340930  0.001028  0.467216  1
  Ti  Ti8  1  0.673740  0.674130  0.499973  1
  Ti  Ti9  1  0.152093  0.005453  0.877084  1
  Ti  Ti10  1  0.494593  0.653528  0.124655  1
  Ti  Ti11  1  0.504644  0.347789  0.627569  1
  Ti  Ti12  1  0.653536  0.494547  0.875344  1
  Ti  Ti13  1  0.347909  0.504804  0.372347  1
  Ti  Ti14  1  0.847335  0.992412  0.376036  1
  Ti  Ti15  1  0.005588  0.152101  0.122884  1
  Ti  Ti16  1  0.992498  0.847408  0.623899  1
  Si  Si17  1  0.200261  0.129394  0.683645  1
  Si  Si18  1  0.370401  0.700574  0.933063  1
  Si  Si19  1  0.631059  0.296650  0.434370  1
  Si  Si20  1  0.700610  0.370369  0.066973  1
  Si  Si21  1  0.297177  0.632122  0.565458  1
  Si  Si22  1  0.799032  0.870099  0.183619  1
  Si  Si23  1  0.129861  0.199658  0.316434  1
  Si  Si24  1  0.870006  0.799076  0.816373  1
  Si  Si25  1  0.290658  0.952073  0.066769  1
  Si  Si26  1  0.546788  0.790759  0.316081  1
  Si  Si27  1  0.452163  0.210440  0.816786  1
  Si  Si28  1  0.790399  0.547143  0.684140  1
  Si  Si29  1  0.210502  0.452025  0.183216  1
  Si  Si30  1  0.707174  0.049098  0.567341  1
  Si  Si31  1  0.952023  0.290690  0.933267  1
  Si  Si32  1  0.049633  0.708237  0.432505  1
  Tc  Tc33  1  0.328052  0.328086  0.000029  1
  Tc  Tc34  1  0.174060  0.828346  0.248856  1
  Tc  Tc35  1  0.828206  0.173900  0.751355  1
