# generated using pymatgen
data_Sr9NdTi10O30
_symmetry_space_group_name_H-M   'P 1'
_cell_length_a   5.55919700
_cell_length_b   5.55919700
_cell_length_c   39.79434400
_cell_angle_alpha   90.00000000
_cell_angle_beta   90.00000000
_cell_angle_gamma   90.00000000
_symmetry_Int_Tables_number   1
_chemical_formula_structural   Sr9NdTi10O30
_chemical_formula_sum   'Sr18 Nd2 Ti20 O60'
_cell_volume   1229.83112031
_cell_formula_units_Z   2
loop_
 _symmetry_equiv_pos_site_id
 _symmetry_equiv_pos_as_xyz
  1  'x, y, z'
loop_
 _atom_site_type_symbol
 _atom_site_label
 _atom_site_symmetry_multiplicity
 _atom_site_fract_x
 _atom_site_fract_y
 _atom_site_fract_z
 _atom_site_occupancy
  Sr  Sr0  1  0.000000  0.500000  0.550161  1
  Sr  Sr1  1  0.500000  0.000000  0.449839  1
  Sr  Sr2  1  0.500000  0.000000  0.347491  1
  Sr  Sr3  1  0.000000  0.500000  0.248134  1
  Sr  Sr4  1  0.000000  0.500000  0.347782  1
  Sr  Sr5  1  0.500000  0.000000  0.148725  1
  Sr  Sr6  1  0.500000  0.000000  0.248097  1
  Sr  Sr7  1  0.000000  0.500000  0.049541  1
  Sr  Sr8  1  0.000000  0.500000  0.148727  1
  Sr  Sr9  1  0.500000  0.000000  0.950459  1
  Sr  Sr10  1  0.500000  0.000000  0.049542  1
  Sr  Sr11  1  0.000000  0.500000  0.851275  1
  Sr  Sr12  1  0.000000  0.500000  0.950458  1
  Sr  Sr13  1  0.500000  0.000000  0.751866  1
  Sr  Sr14  1  0.500000  0.000000  0.851273  1
  Sr  Sr15  1  0.000000  0.500000  0.652509  1
  Sr  Sr16  1  0.000000  0.500000  0.751903  1
  Sr  Sr17  1  0.500000  0.000000  0.652218  1
  Nd  Nd18  1  0.500000  0.000000  0.552083  1
  Nd  Nd19  1  0.000000  0.500000  0.447917  1
  Ti  Ti20  1  0.000000  0.000000  0.500000  1
  Ti  Ti21  1  0.500000  0.500000  0.399030  1
  Ti  Ti22  1  0.500000  0.500000  0.500000  1
  Ti  Ti23  1  0.000000  0.000000  0.298119  1
  Ti  Ti24  1  0.000000  0.000000  0.399030  1
  Ti  Ti25  1  0.500000  0.500000  0.198291  1
  Ti  Ti26  1  0.500000  0.500000  0.298119  1
  Ti  Ti27  1  0.000000  0.000000  0.098952  1
  Ti  Ti28  1  0.000000  0.000000  0.198291  1
  Ti  Ti29  1  0.500000  0.500000  0.000000  1
  Ti  Ti30  1  0.500000  0.500000  0.098952  1
  Ti  Ti31  1  0.000000  0.000000  0.901048  1
  Ti  Ti32  1  0.000000  0.000000  0.000000  1
  Ti  Ti33  1  0.500000  0.500000  0.801709  1
  Ti  Ti34  1  0.500000  0.500000  0.901048  1
  Ti  Ti35  1  0.000000  0.000000  0.701881  1
  Ti  Ti36  1  0.000000  0.000000  0.801709  1
  Ti  Ti37  1  0.500000  0.500000  0.600970  1
  Ti  Ti38  1  0.500000  0.500000  0.701881  1
  Ti  Ti39  1  0.000000  0.000000  0.600970  1
  O  O40  1  0.000000  0.000000  0.548618  1
  O  O41  1  0.697371  0.197371  0.502405  1
  O  O42  1  0.197371  0.302629  0.497595  1
  O  O43  1  0.500000  0.500000  0.451382  1
  O  O44  1  0.500000  0.500000  0.548618  1
  O  O45  1  0.215295  0.715295  0.403733  1
  O  O46  1  0.802629  0.697371  0.497595  1
  O  O47  1  0.724209  0.775791  0.402383  1
  O  O48  1  0.302629  0.802629  0.502405  1
  O  O49  1  0.000000  0.000000  0.352333  1
  O  O50  1  0.000000  0.000000  0.451382  1
  O  O51  1  0.734883  0.234883  0.301758  1
  O  O52  1  0.275791  0.224209  0.402383  1
  O  O53  1  0.235017  0.264983  0.301631  1
  O  O54  1  0.784705  0.284705  0.403733  1
  O  O55  1  0.500000  0.500000  0.251318  1
  O  O56  1  0.500000  0.500000  0.352333  1
  O  O57  1  0.233708  0.733708  0.201007  1
  O  O58  1  0.764983  0.735017  0.301631  1
  O  O59  1  0.733701  0.766299  0.200983  1
  O  O60  1  0.265117  0.765117  0.301758  1
  O  O61  1  0.000000  0.000000  0.150701  1
  O  O62  1  0.000000  0.000000  0.251318  1
  O  O63  1  0.733157  0.233157  0.100450  1
  O  O64  1  0.266299  0.233701  0.200983  1
  O  O65  1  0.233156  0.266844  0.100443  1
  O  O66  1  0.766292  0.266292  0.201007  1
  O  O67  1  0.500000  0.500000  0.050219  1
  O  O68  1  0.500000  0.500000  0.150701  1
  O  O69  1  0.232947  0.732947  0.000002  1
  O  O70  1  0.766844  0.733156  0.100443  1
  O  O71  1  0.732947  0.767053  0.999998  1
  O  O72  1  0.266843  0.766843  0.100450  1
  O  O73  1  0.000000  0.000000  0.949781  1
  O  O74  1  0.000000  0.000000  0.050219  1
  O  O75  1  0.733156  0.233156  0.899557  1
  O  O76  1  0.267053  0.232947  0.999998  1
  O  O77  1  0.233157  0.266843  0.899550  1
  O  O78  1  0.767053  0.267053  0.000002  1
  O  O79  1  0.500000  0.500000  0.849299  1
  O  O80  1  0.500000  0.500000  0.949781  1
  O  O81  1  0.233701  0.733701  0.799017  1
  O  O82  1  0.766843  0.733157  0.899550  1
  O  O83  1  0.733708  0.766292  0.798993  1
  O  O84  1  0.266844  0.766844  0.899557  1
  O  O85  1  0.000000  0.000000  0.748682  1
  O  O86  1  0.000000  0.000000  0.849299  1
  O  O87  1  0.735017  0.235017  0.698369  1
  O  O88  1  0.266292  0.233708  0.798993  1
  O  O89  1  0.234883  0.265117  0.698242  1
  O  O90  1  0.766299  0.266299  0.799017  1
  O  O91  1  0.500000  0.500000  0.647667  1
  O  O92  1  0.500000  0.500000  0.748682  1
  O  O93  1  0.224209  0.724209  0.597617  1
  O  O94  1  0.765117  0.734883  0.698242  1
  O  O95  1  0.715295  0.784705  0.596267  1
  O  O96  1  0.264983  0.764983  0.698369  1
  O  O97  1  0.000000  0.000000  0.647667  1
  O  O98  1  0.284705  0.215295  0.596267  1
  O  O99  1  0.775791  0.275791  0.597617  1
