# generated using pymatgen
data_Pr2Y4VCo17P12
_symmetry_space_group_name_H-M   'P 1'
_cell_length_a   3.72390900
_cell_length_b   10.58833200
_cell_length_c   12.28711100
_cell_angle_alpha   90.00000000
_cell_angle_beta   90.00000000
_cell_angle_gamma   90.00000000
_symmetry_Int_Tables_number   1
_chemical_formula_structural   Pr2Y4VCo17P12
_chemical_formula_sum   'Pr2 Y4 V1 Co17 P12'
_cell_volume   484.48060033
_cell_formula_units_Z   1
loop_
 _symmetry_equiv_pos_site_id
 _symmetry_equiv_pos_as_xyz
  1  'x, y, z'
loop_
 _atom_site_type_symbol
 _atom_site_label
 _atom_site_symmetry_multiplicity
 _atom_site_fract_x
 _atom_site_fract_y
 _atom_site_fract_z
 _atom_site_occupancy
  Pr  Pr0  1  0.000000  0.500000  0.523814  1
  Pr  Pr1  1  0.500000  0.000000  0.477124  1
  Y  Y2  1  0.500000  0.817556  0.204917  1
  Y  Y3  1  0.500000  0.182444  0.204917  1
  Y  Y4  1  0.000000  0.682620  0.797279  1
  Y  Y5  1  0.000000  0.317380  0.797279  1
  V  V6  1  0.500000  0.500000  0.151021  1
  Co  Co7  1  0.000000  0.000000  0.843010  1
  Co  Co8  1  0.500000  0.500000  0.705178  1
  Co  Co9  1  0.000000  0.000000  0.293656  1
  Co  Co10  1  0.000000  0.500000  0.986452  1
  Co  Co11  1  0.500000  0.000000  0.014073  1
  Co  Co12  1  0.500000  0.331855  0.992756  1
  Co  Co13  1  0.500000  0.668145  0.992756  1
  Co  Co14  1  0.000000  0.166088  0.005954  1
  Co  Co15  1  0.000000  0.833912  0.005954  1
  Co  Co16  1  0.500000  0.295739  0.429795  1
  Co  Co17  1  0.500000  0.704261  0.429795  1
  Co  Co18  1  0.000000  0.203670  0.571046  1
  Co  Co19  1  0.000000  0.796330  0.571046  1
  Co  Co20  1  0.500000  0.880011  0.712057  1
  Co  Co21  1  0.500000  0.119989  0.712057  1
  Co  Co22  1  0.000000  0.620674  0.288204  1
  Co  Co23  1  0.000000  0.379326  0.288204  1
  P  P24  1  0.500000  0.500000  0.883022  1
  P  P25  1  0.000000  0.000000  0.116100  1
  P  P26  1  0.500000  0.500000  0.341309  1
  P  P27  1  0.000000  0.000000  0.661756  1
  P  P28  1  0.500000  0.306512  0.618290  1
  P  P29  1  0.500000  0.693488  0.618290  1
  P  P30  1  0.000000  0.193143  0.383112  1
  P  P31  1  0.000000  0.806857  0.383112  1
  P  P32  1  0.500000  0.848829  0.893421  1
  P  P33  1  0.500000  0.151171  0.893421  1
  P  P34  1  0.000000  0.654769  0.104914  1
  P  P35  1  0.000000  0.345231  0.104914  1
