# generated using pymatgen
data_Zr16Re3Ni4Os
_symmetry_space_group_name_H-M   'P 1'
_cell_length_a   8.78507299
_cell_length_b   8.78507101
_cell_length_c   8.73164609
_cell_angle_alpha   59.79738589
_cell_angle_beta   59.79738805
_cell_angle_gamma   59.99999924
_symmetry_Int_Tables_number   1
_chemical_formula_structural   Zr16Re3Ni4Os
_chemical_formula_sum   'Zr16 Re3 Ni4 Os1'
_cell_volume   475.04520523
_cell_formula_units_Z   1
loop_
 _symmetry_equiv_pos_site_id
 _symmetry_equiv_pos_as_xyz
  1  'x, y, z'
loop_
 _atom_site_type_symbol
 _atom_site_label
 _atom_site_symmetry_multiplicity
 _atom_site_fract_x
 _atom_site_fract_y
 _atom_site_fract_z
 _atom_site_occupancy
  Zr  Zr0  1  0.191393  0.602928  0.602752  1
  Zr  Zr1  1  0.602928  0.191393  0.602752  1
  Zr  Zr2  1  0.602928  0.602928  0.602752  1
  Zr  Zr3  1  0.602806  0.602806  0.191583  1
  Zr  Zr4  1  0.455645  0.455645  0.044867  1
  Zr  Zr5  1  0.043359  0.043359  0.456294  1
  Zr  Zr6  1  0.455645  0.043842  0.044867  1
  Zr  Zr7  1  0.043359  0.456987  0.456294  1
  Zr  Zr8  1  0.043842  0.455645  0.044867  1
  Zr  Zr9  1  0.456987  0.043359  0.456294  1
  Zr  Zr10  1  0.816192  0.816192  0.182146  1
  Zr  Zr11  1  0.184361  0.184361  0.814869  1
  Zr  Zr12  1  0.816192  0.185469  0.182146  1
  Zr  Zr13  1  0.184361  0.816408  0.814869  1
  Zr  Zr14  1  0.185469  0.816192  0.182146  1
  Zr  Zr15  1  0.816408  0.184361  0.814869  1
  Re  Re16  1  0.505071  0.831155  0.832619  1
  Re  Re17  1  0.831155  0.505071  0.832619  1
  Re  Re18  1  0.831155  0.831155  0.832619  1
  Ni  Ni19  1  0.828010  0.390108  0.391773  1
  Ni  Ni20  1  0.390108  0.828010  0.391773  1
  Ni  Ni21  1  0.390108  0.390108  0.391773  1
  Ni  Ni22  1  0.390926  0.390926  0.827222  1
  Os  Os23  1  0.831587  0.831587  0.505239  1
