# generated using pymatgen
data_Tb4YHo3Pt4
_symmetry_space_group_name_H-M   'P 1'
_cell_length_a   4.76736200
_cell_length_b   7.17496829
_cell_length_c   8.83054160
_cell_angle_alpha   89.91065038
_cell_angle_beta   90.00000000
_cell_angle_gamma   90.00000000
_symmetry_Int_Tables_number   1
_chemical_formula_structural   Tb4YHo3Pt4
_chemical_formula_sum   'Tb4 Y1 Ho3 Pt4'
_cell_volume   302.05423493
_cell_formula_units_Z   1
loop_
 _symmetry_equiv_pos_site_id
 _symmetry_equiv_pos_as_xyz
  1  'x, y, z'
loop_
 _atom_site_type_symbol
 _atom_site_label
 _atom_site_symmetry_multiplicity
 _atom_site_fract_x
 _atom_site_fract_y
 _atom_site_fract_z
 _atom_site_occupancy
  Tb  Tb0  1  0.750000  0.644843  0.420034  1
  Tb  Tb1  1  0.250000  0.990739  0.331120  1
  Tb  Tb2  1  0.250000  0.489622  0.167924  1
  Tb  Tb3  1  0.750000  0.010303  0.669350  1
  Y  Y4  1  0.750000  0.509895  0.830914  1
  Ho  Ho5  1  0.250000  0.856007  0.920362  1
  Ho  Ho6  1  0.250000  0.355059  0.580400  1
  Ho  Ho7  1  0.750000  0.144020  0.079629  1
  Pt  Pt8  1  0.250000  0.256862  0.906705  1
  Pt  Pt9  1  0.250000  0.757727  0.594530  1
  Pt  Pt10  1  0.750000  0.743645  0.092161  1
  Pt  Pt11  1  0.750000  0.241278  0.406872  1
