# generated using pymatgen
data_Ho8GePdPt23
_symmetry_space_group_name_H-M   'P 1'
_cell_length_a   8.34428800
_cell_length_b   8.34428800
_cell_length_c   8.35234100
_cell_angle_alpha   90.00000000
_cell_angle_beta   90.00000000
_cell_angle_gamma   90.00000000
_symmetry_Int_Tables_number   1
_chemical_formula_structural   Ho8GePdPt23
_chemical_formula_sum   'Ho8 Ge1 Pd1 Pt23'
_cell_volume   581.54963473
_cell_formula_units_Z   1
loop_
 _symmetry_equiv_pos_site_id
 _symmetry_equiv_pos_as_xyz
  1  'x, y, z'
loop_
 _atom_site_type_symbol
 _atom_site_label
 _atom_site_symmetry_multiplicity
 _atom_site_fract_x
 _atom_site_fract_y
 _atom_site_fract_z
 _atom_site_occupancy
  Ho  Ho0  1  0.252808  0.252808  0.253089  1
  Ho  Ho1  1  0.746917  0.746917  0.746808  1
  Ho  Ho2  1  0.747192  0.747192  0.253089  1
  Ho  Ho3  1  0.746917  0.253083  0.746808  1
  Ho  Ho4  1  0.253083  0.253083  0.746808  1
  Ho  Ho5  1  0.252808  0.747192  0.253089  1
  Ho  Ho6  1  0.253083  0.746917  0.746808  1
  Ho  Ho7  1  0.747192  0.252808  0.253089  1
  Ge  Ge8  1  0.000000  0.000000  0.001305  1
  Pd  Pd9  1  0.000000  0.000000  0.710565  1
  Pt  Pt10  1  0.260145  0.500000  0.999975  1
  Pt  Pt11  1  0.739855  0.500000  0.999975  1
  Pt  Pt12  1  0.000000  0.259801  0.499956  1
  Pt  Pt13  1  0.500000  0.260145  0.999975  1
  Pt  Pt14  1  0.000000  0.740199  0.499956  1
  Pt  Pt15  1  0.500000  0.739855  0.999975  1
  Pt  Pt16  1  0.500000  0.000000  0.259908  1
  Pt  Pt17  1  0.259801  0.000000  0.499956  1
  Pt  Pt18  1  0.500000  0.000000  0.739375  1
  Pt  Pt19  1  0.740199  0.000000  0.499956  1
  Pt  Pt20  1  0.000000  0.500000  0.259908  1
  Pt  Pt21  1  0.000000  0.500000  0.739375  1
  Pt  Pt22  1  0.252745  0.500000  0.500018  1
  Pt  Pt23  1  0.747255  0.500000  0.500018  1
  Pt  Pt24  1  0.500000  0.252745  0.500018  1
  Pt  Pt25  1  0.500000  0.747255  0.500018  1
  Pt  Pt26  1  0.500000  0.500000  0.252993  1
  Pt  Pt27  1  0.500000  0.500000  0.747155  1
  Pt  Pt28  1  0.290535  0.000000  0.999398  1
  Pt  Pt29  1  0.709465  0.000000  0.999398  1
  Pt  Pt30  1  0.000000  0.290535  0.999398  1
  Pt  Pt31  1  0.000000  0.709465  0.999398  1
  Pt  Pt32  1  0.000000  0.000000  0.292439  1
