# generated using pymatgen
data_YHo4Tl3InNi2
_symmetry_space_group_name_H-M   'P 1'
_cell_length_a   3.60955700
_cell_length_b   8.25847036
_cell_length_c   18.36007700
_cell_angle_alpha   89.73645905
_cell_angle_beta   90.00000000
_cell_angle_gamma   90.00000000
_symmetry_Int_Tables_number   1
_chemical_formula_structural   YHo4Tl3InNi2
_chemical_formula_sum   'Y2 Ho8 Tl6 In2 Ni4'
_cell_volume   547.29744779
_cell_formula_units_Z   2
loop_
 _symmetry_equiv_pos_site_id
 _symmetry_equiv_pos_as_xyz
  1  'x, y, z'
loop_
 _atom_site_type_symbol
 _atom_site_label
 _atom_site_symmetry_multiplicity
 _atom_site_fract_x
 _atom_site_fract_y
 _atom_site_fract_z
 _atom_site_occupancy
  Y  Y0  1  0.000000  0.000000  0.000000  1
  Y  Y1  1  0.000000  0.500000  0.500000  1
  Ho  Ho2  1  0.000000  0.113798  0.409852  1
  Ho  Ho3  1  0.000000  0.886202  0.590148  1
  Ho  Ho4  1  0.000000  0.386285  0.906743  1
  Ho  Ho5  1  0.000000  0.613715  0.093257  1
  Ho  Ho6  1  0.000000  0.243711  0.221260  1
  Ho  Ho7  1  0.000000  0.756289  0.778740  1
  Ho  Ho8  1  0.000000  0.254608  0.718547  1
  Ho  Ho9  1  0.000000  0.745392  0.281453  1
  Tl  Tl10  1  0.500000  0.422896  0.348135  1
  Tl  Tl11  1  0.500000  0.577104  0.651865  1
  Tl  Tl12  1  0.500000  0.078722  0.846420  1
  Tl  Tl13  1  0.500000  0.921278  0.153580  1
  Tl  Tl14  1  0.500000  0.297494  0.066073  1
  Tl  Tl15  1  0.500000  0.702506  0.933927  1
  In  In16  1  0.500000  0.201785  0.566252  1
  In  In17  1  0.500000  0.798215  0.433748  1
  Ni  Ni18  1  0.500000  0.020147  0.304884  1
  Ni  Ni19  1  0.500000  0.979853  0.695116  1
  Ni  Ni20  1  0.500000  0.476566  0.801775  1
  Ni  Ni21  1  0.500000  0.523434  0.198225  1
