# generated using pymatgen
data_Lu2InGa2
_symmetry_space_group_name_H-M   'P 1'
_cell_length_a   7.10815300
_cell_length_b   7.10815300
_cell_length_c   4.35472000
_cell_angle_alpha   90.00000000
_cell_angle_beta   90.00000000
_cell_angle_gamma   90.00000000
_symmetry_Int_Tables_number   1
_chemical_formula_structural   Lu2InGa2
_chemical_formula_sum   'Lu4 In2 Ga4'
_cell_volume   220.02588192
_cell_formula_units_Z   2
loop_
 _symmetry_equiv_pos_site_id
 _symmetry_equiv_pos_as_xyz
  1  'x, y, z'
loop_
 _atom_site_type_symbol
 _atom_site_label
 _atom_site_symmetry_multiplicity
 _atom_site_fract_x
 _atom_site_fract_y
 _atom_site_fract_z
 _atom_site_occupancy
  Lu  Lu0  1  0.671445  0.171445  0.500000  1
  Lu  Lu1  1  0.328555  0.828555  0.500000  1
  Lu  Lu2  1  0.171445  0.328555  0.500000  1
  Lu  Lu3  1  0.828555  0.671445  0.500000  1
  In  In4  1  0.500000  0.500000  0.000000  1
  In  In5  1  0.000000  0.000000  0.000000  1
  Ga  Ga6  1  0.127175  0.627175  0.000000  1
  Ga  Ga7  1  0.872825  0.372825  0.000000  1
  Ga  Ga8  1  0.627175  0.872825  0.000000  1
  Ga  Ga9  1  0.372825  0.127175  0.000000  1
