# generated using pymatgen
data_Tb4YbDy2CoI12
_symmetry_space_group_name_H-M   'P 1'
_cell_length_a   9.71218151
_cell_length_b   9.80922915
_cell_length_c   9.80770893
_cell_angle_alpha   106.92988873
_cell_angle_beta   107.12533781
_cell_angle_gamma   106.78565773
_symmetry_Int_Tables_number   1
_chemical_formula_structural   Tb4YbDy2CoI12
_chemical_formula_sum   'Tb4 Yb1 Dy2 Co1 I12'
_cell_volume   779.27068367
_cell_formula_units_Z   1
loop_
 _symmetry_equiv_pos_site_id
 _symmetry_equiv_pos_as_xyz
  1  'x, y, z'
loop_
 _atom_site_type_symbol
 _atom_site_label
 _atom_site_symmetry_multiplicity
 _atom_site_fract_x
 _atom_site_fract_y
 _atom_site_fract_z
 _atom_site_occupancy
  Tb  Tb0  1  0.283253  0.023096  0.092034  1
  Tb  Tb1  1  0.976459  0.903862  0.703346  1
  Tb  Tb2  1  0.903942  0.703567  0.975728  1
  Tb  Tb3  1  0.716869  0.977149  0.908408  1
  Yb  Yb4  1  0.499990  0.500054  0.500033  1
  Dy  Dy5  1  0.023677  0.096235  0.295328  1
  Dy  Dy6  1  0.095677  0.295093  0.024373  1
  Co  Co7  1  0.000128  0.000022  0.000071  1
  I  I8  1  0.149941  0.457079  0.378384  1
  I  I9  1  0.457331  0.378558  0.151511  1
  I  I10  1  0.379089  0.151359  0.456888  1
  I  I11  1  0.849449  0.541900  0.620755  1
  I  I12  1  0.541608  0.621523  0.848031  1
  I  I13  1  0.619928  0.848655  0.543225  1
  I  I14  1  0.679731  0.071941  0.222959  1
  I  I15  1  0.072426  0.224597  0.679517  1
  I  I16  1  0.225585  0.679841  0.072876  1
  I  I17  1  0.321409  0.928387  0.777884  1
  I  I18  1  0.928054  0.777228  0.321230  1
  I  I19  1  0.775453  0.319854  0.927419  1
