# generated using pymatgen
data_Sm3Ga6Ni7Ir2
_symmetry_space_group_name_H-M   'P 1'
_cell_length_a   8.88456858
_cell_length_b   9.02993329
_cell_length_c   4.15352200
_cell_angle_alpha   90.00000000
_cell_angle_beta   90.00000000
_cell_angle_gamma   120.54271781
_symmetry_Int_Tables_number   1
_chemical_formula_structural   Sm3Ga6Ni7Ir2
_chemical_formula_sum   'Sm3 Ga6 Ni7 Ir2'
_cell_volume   286.99008771
_cell_formula_units_Z   1
loop_
 _symmetry_equiv_pos_site_id
 _symmetry_equiv_pos_as_xyz
  1  'x, y, z'
loop_
 _atom_site_type_symbol
 _atom_site_label
 _atom_site_symmetry_multiplicity
 _atom_site_fract_x
 _atom_site_fract_y
 _atom_site_fract_z
 _atom_site_occupancy
  Sm  Sm0  1  0.665920  0.332209  0.500000  1
  Sm  Sm1  1  0.334080  0.666290  0.500000  1
  Sm  Sm2  1  0.000000  0.990320  0.000000  1
  Ga  Ga3  1  0.272076  0.277458  0.500000  1
  Ga  Ga4  1  0.727924  0.005382  0.500000  1
  Ga  Ga5  1  0.000000  0.715706  0.500000  1
  Ga  Ga6  1  0.525872  0.533922  0.000000  1
  Ga  Ga7  1  0.474128  0.008050  0.000000  1
  Ga  Ga8  1  0.000000  0.469892  0.000000  1
  Ni  Ni9  1  0.800639  0.169519  0.000000  1
  Ni  Ni10  1  0.831697  0.615098  0.000000  1
  Ni  Ni11  1  0.380156  0.219463  0.000000  1
  Ni  Ni12  1  0.168303  0.783402  0.000000  1
  Ni  Ni13  1  0.619844  0.839308  0.000000  1
  Ni  Ni14  1  0.199361  0.368881  0.000000  1
  Ni  Ni15  1  0.000000  0.288278  0.500000  1
  Ir  Ir16  1  0.710197  0.713509  0.500000  1
  Ir  Ir17  1  0.289803  0.003312  0.500000  1
