# generated using pymatgen
data_CeHo3(TlPd2)2
_symmetry_space_group_name_H-M   'P 1'
_cell_length_a   7.76313400
_cell_length_b   7.76313378
_cell_length_c   3.71198100
_cell_angle_alpha   90.00000000
_cell_angle_beta   90.00000000
_cell_angle_gamma   90.58437568
_symmetry_Int_Tables_number   1
_chemical_formula_structural   CeHo3(TlPd2)2
_chemical_formula_sum   'Ce1 Ho3 Tl2 Pd4'
_cell_volume   223.69553118
_cell_formula_units_Z   1
loop_
 _symmetry_equiv_pos_site_id
 _symmetry_equiv_pos_as_xyz
  1  'x, y, z'
loop_
 _atom_site_type_symbol
 _atom_site_label
 _atom_site_symmetry_multiplicity
 _atom_site_fract_x
 _atom_site_fract_y
 _atom_site_fract_z
 _atom_site_occupancy
  Ce  Ce0  1  0.327581  0.827581  0.500000  1
  Ho  Ho1  1  0.826355  0.670140  0.500000  1
  Ho  Ho2  1  0.170140  0.326355  0.500000  1
  Ho  Ho3  1  0.673684  0.173684  0.500000  1
  Tl  Tl4  1  0.997215  0.000738  0.000000  1
  Tl  Tl5  1  0.500738  0.497215  0.000000  1
  Pd  Pd6  1  0.373113  0.126898  0.000000  1
  Pd  Pd7  1  0.874751  0.374751  0.000000  1
  Pd  Pd8  1  0.129526  0.629526  0.000000  1
  Pd  Pd9  1  0.626898  0.873113  0.000000  1
