# generated using pymatgen
data_Tb3TmSc4In3Co
_symmetry_space_group_name_H-M   'P 1'
_cell_length_a   9.92701000
_cell_length_b   9.92701014
_cell_length_c   6.97981800
_cell_angle_alpha   90.00000000
_cell_angle_beta   90.00000000
_cell_angle_gamma   119.99999955
_symmetry_Int_Tables_number   1
_chemical_formula_structural   Tb3TmSc4In3Co
_chemical_formula_sum   'Tb6 Tm2 Sc8 In6 Co2'
_cell_volume   595.67813177
_cell_formula_units_Z   2
loop_
 _symmetry_equiv_pos_site_id
 _symmetry_equiv_pos_as_xyz
  1  'x, y, z'
loop_
 _atom_site_type_symbol
 _atom_site_label
 _atom_site_symmetry_multiplicity
 _atom_site_fract_x
 _atom_site_fract_y
 _atom_site_fract_z
 _atom_site_occupancy
  Tb  Tb0  1  0.533322  0.066646  0.508867  1
  Tb  Tb1  1  0.933354  0.466678  0.508867  1
  Tb  Tb2  1  0.533322  0.466678  0.508867  1
  Tb  Tb3  1  0.466678  0.933354  0.008867  1
  Tb  Tb4  1  0.066646  0.533322  0.008867  1
  Tb  Tb5  1  0.466678  0.533322  0.008867  1
  Tm  Tm6  1  0.000000  0.000000  0.504569  1
  Tm  Tm7  1  0.000000  0.000000  0.004569  1
  Sc  Sc8  1  0.179584  0.359169  0.716785  1
  Sc  Sc9  1  0.640831  0.820416  0.716785  1
  Sc  Sc10  1  0.179584  0.820416  0.716785  1
  Sc  Sc11  1  0.820416  0.640831  0.216785  1
  Sc  Sc12  1  0.359169  0.179584  0.216785  1
  Sc  Sc13  1  0.820416  0.179584  0.216785  1
  Sc  Sc14  1  0.666667  0.333333  0.912228  1
  Sc  Sc15  1  0.333333  0.666667  0.412228  1
  In  In16  1  0.836915  0.673830  0.771109  1
  In  In17  1  0.326170  0.163085  0.771109  1
  In  In18  1  0.836915  0.163085  0.771109  1
  In  In19  1  0.163085  0.326170  0.271109  1
  In  In20  1  0.673830  0.836915  0.271109  1
  In  In21  1  0.163085  0.836915  0.271109  1
  Co  Co22  1  0.666667  0.333333  0.271922  1
  Co  Co23  1  0.333333  0.666667  0.771922  1
