# generated using pymatgen
data_Dy5Y3Mg2(SiB4)4
_symmetry_space_group_name_H-M   'P 1'
_cell_length_a   7.17620001
_cell_length_b   7.17635601
_cell_length_c   7.85037900
_cell_angle_alpha   89.99771969
_cell_angle_beta   89.99791035
_cell_angle_gamma   89.99514568
_symmetry_Int_Tables_number   1
_chemical_formula_structural   Dy5Y3Mg2(SiB4)4
_chemical_formula_sum   'Dy5 Y3 Mg2 Si4 B16'
_cell_volume   404.28639962
_cell_formula_units_Z   1
loop_
 _symmetry_equiv_pos_site_id
 _symmetry_equiv_pos_as_xyz
  1  'x, y, z'
loop_
 _atom_site_type_symbol
 _atom_site_label
 _atom_site_symmetry_multiplicity
 _atom_site_fract_x
 _atom_site_fract_y
 _atom_site_fract_z
 _atom_site_occupancy
  Dy  Dy0  1  0.682949  0.182894  0.233525  1
  Dy  Dy1  1  0.317050  0.816998  0.766433  1
  Dy  Dy2  1  0.317084  0.817033  0.233514  1
  Dy  Dy3  1  0.817058  0.682980  0.233425  1
  Dy  Dy4  1  0.817040  0.682973  0.766569  1
  Y  Y5  1  0.682911  0.182860  0.766072  1
  Y  Y6  1  0.182858  0.317154  0.766196  1
  Y  Y7  1  0.182861  0.317183  0.233797  1
  Mg  Mg8  1  0.999985  0.999896  0.499971  1
  Mg  Mg9  1  0.500051  0.500094  0.499969  1
  Si  Si10  1  0.115299  0.615566  0.499972  1
  Si  Si11  1  0.884516  0.384787  0.499907  1
  Si  Si12  1  0.384728  0.115130  0.499896  1
  Si  Si13  1  0.615305  0.884563  0.499904  1
  B  B14  1  0.173664  0.039659  0.999990  1
  B  B15  1  0.826354  0.959989  0.000109  1
  B  B16  1  0.960032  0.173595  0.000024  1
  B  B17  1  0.326377  0.540083  0.000031  1
  B  B18  1  0.039844  0.826242  0.000030  1
  B  B19  1  0.673731  0.460271  0.000026  1
  B  B20  1  0.539892  0.673714  0.999990  1
  B  B21  1  0.460222  0.326406  0.000109  1
  B  B22  1  0.089561  0.589717  0.999984  1
  B  B23  1  0.910367  0.410523  0.000140  1
  B  B24  1  0.410462  0.089460  0.000148  1
  B  B25  1  0.589632  0.910290  0.000148  1
  B  B26  1  0.999910  0.999873  0.162338  1
  B  B27  1  0.000076  0.999794  0.837722  1
  B  B28  1  0.500055  0.500220  0.837725  1
  B  B29  1  0.500128  0.500055  0.162339  1
