# generated using pymatgen
data_Li2ThAs2
_symmetry_space_group_name_H-M   'P 1'
_cell_length_a   4.31325900
_cell_length_b   4.31325800
_cell_length_c   6.95805300
_cell_angle_alpha   90.00000000
_cell_angle_beta   90.00000000
_cell_angle_gamma   120.00000001
_symmetry_Int_Tables_number   1
_chemical_formula_structural   Li2ThAs2
_chemical_formula_sum   'Li2 Th1 As2'
_cell_volume   112.10612409
_cell_formula_units_Z   1
loop_
 _symmetry_equiv_pos_site_id
 _symmetry_equiv_pos_as_xyz
  1  'x, y, z'
loop_
 _atom_site_type_symbol
 _atom_site_label
 _atom_site_symmetry_multiplicity
 _atom_site_fract_x
 _atom_site_fract_y
 _atom_site_fract_z
 _atom_site_occupancy
  Li  Li0  1  0.666667  0.333333  0.377125  1
  Li  Li1  1  0.333333  0.666667  0.622875  1
  Th  Th2  1  0.000000  0.000000  0.000000  1
  As  As3  1  0.666667  0.333333  0.761384  1
  As  As4  1  0.333333  0.666667  0.238616  1
