# generated using pymatgen
data_LaYbPr2(AlPt)4
_symmetry_space_group_name_H-M   'P 1'
_cell_length_a   4.50056700
_cell_length_b   7.12238307
_cell_length_c   7.91695915
_cell_angle_alpha   90.95182302
_cell_angle_beta   90.00000000
_cell_angle_gamma   90.00000000
_symmetry_Int_Tables_number   1
_chemical_formula_structural   LaYbPr2(AlPt)4
_chemical_formula_sum   'La1 Yb1 Pr2 Al4 Pt4'
_cell_volume   253.74122613
_cell_formula_units_Z   1
loop_
 _symmetry_equiv_pos_site_id
 _symmetry_equiv_pos_as_xyz
  1  'x, y, z'
loop_
 _atom_site_type_symbol
 _atom_site_label
 _atom_site_symmetry_multiplicity
 _atom_site_fract_x
 _atom_site_fract_y
 _atom_site_fract_z
 _atom_site_occupancy
  La  La0  1  0.250000  0.531190  0.171448  1
  Yb  Yb1  1  0.750000  0.467111  0.820611  1
  Pr  Pr2  1  0.250000  0.035564  0.322002  1
  Pr  Pr3  1  0.750000  0.964792  0.680132  1
  Al  Al4  1  0.250000  0.142486  0.934933  1
  Al  Al5  1  0.250000  0.636351  0.566174  1
  Al  Al6  1  0.750000  0.858617  0.060882  1
  Al  Al7  1  0.750000  0.362658  0.443027  1
  Pt  Pt8  1  0.250000  0.282712  0.624718  1
  Pt  Pt9  1  0.250000  0.781089  0.881651  1
  Pt  Pt10  1  0.750000  0.718912  0.377596  1
  Pt  Pt11  1  0.750000  0.218521  0.116826  1
