# generated using pymatgen
data_NaDy3As6Ir7
_symmetry_space_group_name_H-M   'P 1'
_cell_length_a   7.25552597
_cell_length_b   7.27838990
_cell_length_c   7.25552599
_cell_angle_alpha   109.53506095
_cell_angle_beta   109.40730134
_cell_angle_gamma   109.53506255
_symmetry_Int_Tables_number   1
_chemical_formula_structural   NaDy3As6Ir7
_chemical_formula_sum   'Na1 Dy3 As6 Ir7'
_cell_volume   294.71922291
_cell_formula_units_Z   1
loop_
 _symmetry_equiv_pos_site_id
 _symmetry_equiv_pos_as_xyz
  1  'x, y, z'
loop_
 _atom_site_type_symbol
 _atom_site_label
 _atom_site_symmetry_multiplicity
 _atom_site_fract_x
 _atom_site_fract_y
 _atom_site_fract_z
 _atom_site_occupancy
  Na  Na0  1  0.000000  0.500000  0.000000  1
  Dy  Dy1  1  0.000000  0.000000  0.500000  1
  Dy  Dy2  1  0.500000  0.000000  0.000000  1
  Dy  Dy3  1  0.500000  0.500000  0.500000  1
  As  As4  1  0.314655  0.991968  0.314655  1
  As  As5  1  0.000000  0.322687  0.314655  1
  As  As6  1  0.000000  0.677313  0.685345  1
  As  As7  1  0.314655  0.322687  0.000000  1
  As  As8  1  0.685345  0.677313  0.000000  1
  As  As9  1  0.685345  0.008032  0.685345  1
  Ir  Ir10  1  0.747772  0.500000  0.252228  1
  Ir  Ir11  1  0.504455  0.752228  0.252228  1
  Ir  Ir12  1  0.495545  0.247772  0.747772  1
  Ir  Ir13  1  0.747772  0.247772  0.495545  1
  Ir  Ir14  1  0.252228  0.752228  0.504455  1
  Ir  Ir15  1  0.252228  0.500000  0.747772  1
  Ir  Ir16  1  0.000000  0.000000  0.000000  1
