# generated using pymatgen
data_Ca5Ho(Si3Os)8
_symmetry_space_group_name_H-M   'P 1'
_cell_length_a   10.18430316
_cell_length_b   10.18430226
_cell_length_c   8.19595500
_cell_angle_alpha   89.99046266
_cell_angle_beta   89.99046298
_cell_angle_gamma   132.55431374
_symmetry_Int_Tables_number   1
_chemical_formula_structural   Ca5Ho(Si3Os)8
_chemical_formula_sum   'Ca5 Ho1 Si24 Os8'
_cell_volume   626.20337870
_cell_formula_units_Z   1
loop_
 _symmetry_equiv_pos_site_id
 _symmetry_equiv_pos_as_xyz
  1  'x, y, z'
loop_
 _atom_site_type_symbol
 _atom_site_label
 _atom_site_symmetry_multiplicity
 _atom_site_fract_x
 _atom_site_fract_y
 _atom_site_fract_z
 _atom_site_occupancy
  Ca  Ca0  1  0.500000  0.500000  0.500000  1
  Ca  Ca1  1  0.501020  0.000879  0.749942  1
  Ca  Ca2  1  0.999121  0.498980  0.250058  1
  Ca  Ca3  1  0.498980  0.999121  0.250058  1
  Ca  Ca4  1  0.000879  0.501020  0.749942  1
  Ho  Ho5  1  0.000000  0.000000  0.000000  1
  Si  Si6  1  0.793937  0.206063  0.500000  1
  Si  Si7  1  0.293692  0.706308  0.000000  1
  Si  Si8  1  0.206063  0.793937  0.500000  1
  Si  Si9  1  0.706308  0.293692  0.000000  1
  Si  Si10  1  0.334964  0.334964  0.831013  1
  Si  Si11  1  0.665036  0.665036  0.168987  1
  Si  Si12  1  0.167442  0.167442  0.333416  1
  Si  Si13  1  0.832558  0.832558  0.666584  1
  Si  Si14  1  0.124518  0.890635  0.728619  1
  Si  Si15  1  0.109365  0.875482  0.271381  1
  Si  Si16  1  0.609247  0.375851  0.229696  1
  Si  Si17  1  0.624149  0.390753  0.770304  1
  Si  Si18  1  0.875482  0.109365  0.271381  1
  Si  Si19  1  0.890635  0.124518  0.728619  1
  Si  Si20  1  0.390753  0.624149  0.770304  1
  Si  Si21  1  0.375851  0.609247  0.229696  1
  Si  Si22  1  0.346773  0.113383  0.507377  1
  Si  Si23  1  0.886617  0.653227  0.492623  1
  Si  Si24  1  0.389679  0.155025  0.006436  1
  Si  Si25  1  0.844975  0.610321  0.993564  1
  Si  Si26  1  0.653227  0.886617  0.492623  1
  Si  Si27  1  0.113383  0.346773  0.507377  1
  Si  Si28  1  0.610321  0.844975  0.993564  1
  Si  Si29  1  0.155025  0.389679  0.006436  1
  Os  Os30  1  0.668908  0.331092  0.500000  1
  Os  Os31  1  0.167803  0.832197  0.000000  1
  Os  Os32  1  0.331092  0.668908  0.500000  1
  Os  Os33  1  0.832197  0.167803  0.000000  1
  Os  Os34  1  0.125540  0.125540  0.627702  1
  Os  Os35  1  0.874460  0.874460  0.372298  1
  Os  Os36  1  0.370547  0.370547  0.123571  1
  Os  Os37  1  0.629453  0.629453  0.876429  1
