# generated using pymatgen
data_Ho4Ga12Co
_symmetry_space_group_name_H-M   'P 1'
_cell_length_a   7.39821245
_cell_length_b   7.39719261
_cell_length_c   7.39821133
_cell_angle_alpha   109.46842458
_cell_angle_beta   109.47402617
_cell_angle_gamma   109.46841816
_symmetry_Int_Tables_number   1
_chemical_formula_structural   Ho4Ga12Co
_chemical_formula_sum   'Ho4 Ga12 Co1'
_cell_volume   311.68330113
_cell_formula_units_Z   1
loop_
 _symmetry_equiv_pos_site_id
 _symmetry_equiv_pos_as_xyz
  1  'x, y, z'
loop_
 _atom_site_type_symbol
 _atom_site_label
 _atom_site_symmetry_multiplicity
 _atom_site_fract_x
 _atom_site_fract_y
 _atom_site_fract_z
 _atom_site_occupancy
  Ho  Ho0  1  0.000000  0.000000  0.500000  1
  Ho  Ho1  1  0.500000  0.000000  0.000000  1
  Ho  Ho2  1  0.500000  0.500000  0.500000  1
  Ho  Ho3  1  0.000000  0.500000  0.000000  1
  Ga  Ga4  1  0.750062  0.250062  0.500123  1
  Ga  Ga5  1  0.750062  0.500000  0.249938  1
  Ga  Ga6  1  0.500123  0.250062  0.750062  1
  Ga  Ga7  1  0.249938  0.500000  0.750062  1
  Ga  Ga8  1  0.249938  0.749938  0.499877  1
  Ga  Ga9  1  0.499877  0.749938  0.249938  1
  Ga  Ga10  1  0.716910  0.716767  0.000000  1
  Ga  Ga11  1  0.283090  0.999857  0.283090  1
  Ga  Ga12  1  0.000000  0.283233  0.283090  1
  Ga  Ga13  1  0.283090  0.283233  0.000000  1
  Ga  Ga14  1  0.716910  0.000143  0.716910  1
  Ga  Ga15  1  0.000000  0.716767  0.716910  1
  Co  Co16  1  0.000000  0.000000  0.000000  1
