# generated using pymatgen
data_Dy4Sc4Cr3CoB24
_symmetry_space_group_name_H-M   'P 1'
_cell_length_a   3.45334400
_cell_length_b   8.97873053
_cell_length_c   11.35250692
_cell_angle_alpha   89.93326009
_cell_angle_beta   90.00000000
_cell_angle_gamma   90.00000000
_symmetry_Int_Tables_number   1
_chemical_formula_structural   Dy4Sc4Cr3CoB24
_chemical_formula_sum   'Dy4 Sc4 Cr3 Co1 B24'
_cell_volume   352.00291532
_cell_formula_units_Z   1
loop_
 _symmetry_equiv_pos_site_id
 _symmetry_equiv_pos_as_xyz
  1  'x, y, z'
loop_
 _atom_site_type_symbol
 _atom_site_label
 _atom_site_symmetry_multiplicity
 _atom_site_fract_x
 _atom_site_fract_y
 _atom_site_fract_z
 _atom_site_occupancy
  Dy  Dy0  1  0.000000  0.821033  0.084634  1
  Dy  Dy1  1  0.000000  0.177846  0.913816  1
  Dy  Dy2  1  0.000000  0.322893  0.415707  1
  Dy  Dy3  1  0.000000  0.677718  0.585348  1
  Sc  Sc4  1  0.000000  0.444202  0.130329  1
  Sc  Sc5  1  0.000000  0.555983  0.870379  1
  Sc  Sc6  1  0.000000  0.942982  0.370193  1
  Sc  Sc7  1  0.000000  0.056119  0.629334  1
  Cr  Cr8  1  0.000000  0.859171  0.818708  1
  Cr  Cr9  1  0.000000  0.641519  0.316931  1
  Cr  Cr10  1  0.000000  0.358488  0.681964  1
  Co  Co11  1  0.000000  0.141157  0.181946  1
  B  B12  1  0.500000  0.056242  0.068318  1
  B  B13  1  0.500000  0.945383  0.932812  1
  B  B14  1  0.500000  0.554926  0.431908  1
  B  B15  1  0.500000  0.445446  0.568195  1
  B  B16  1  0.500000  0.251547  0.083087  1
  B  B17  1  0.500000  0.746817  0.917326  1
  B  B18  1  0.500000  0.752941  0.417067  1
  B  B19  1  0.500000  0.247171  0.582739  1
  B  B20  1  0.500000  0.292371  0.235199  1
  B  B21  1  0.500000  0.705680  0.764906  1
  B  B22  1  0.500000  0.795397  0.264010  1
  B  B23  1  0.500000  0.205508  0.735234  1
  B  B24  1  0.500000  0.129833  0.316745  1
  B  B25  1  0.500000  0.870799  0.683820  1
  B  B26  1  0.500000  0.629694  0.183025  1
  B  B27  1  0.500000  0.370056  0.816563  1
  B  B28  1  0.500000  0.482039  0.286117  1
  B  B29  1  0.500000  0.517448  0.714101  1
  B  B30  1  0.500000  0.985340  0.213457  1
  B  B31  1  0.500000  0.017796  0.786499  1
  B  B32  1  0.500000  0.097073  0.472906  1
  B  B33  1  0.500000  0.903117  0.525851  1
  B  B34  1  0.500000  0.596409  0.026334  1
  B  B35  1  0.500000  0.401857  0.974492  1
