# generated using pymatgen
data_Zr6GaPb2
_symmetry_space_group_name_H-M   'P 1'
_cell_length_a   7.81568300
_cell_length_b   7.81568273
_cell_length_c   3.92489900
_cell_angle_alpha   90.00000000
_cell_angle_beta   90.00000000
_cell_angle_gamma   119.99999692
_symmetry_Int_Tables_number   1
_chemical_formula_structural   Zr6GaPb2
_chemical_formula_sum   'Zr6 Ga1 Pb2'
_cell_volume   207.63137888
_cell_formula_units_Z   1
loop_
 _symmetry_equiv_pos_site_id
 _symmetry_equiv_pos_as_xyz
  1  'x, y, z'
loop_
 _atom_site_type_symbol
 _atom_site_label
 _atom_site_symmetry_multiplicity
 _atom_site_fract_x
 _atom_site_fract_y
 _atom_site_fract_z
 _atom_site_occupancy
  Zr  Zr0  1  0.757659  0.000000  0.000000  1
  Zr  Zr1  1  0.242341  0.242341  0.000000  1
  Zr  Zr2  1  0.000000  0.757658  0.000000  1
  Zr  Zr3  1  0.390807  0.000000  0.500000  1
  Zr  Zr4  1  0.000000  0.390807  0.500000  1
  Zr  Zr5  1  0.609193  0.609193  0.500000  1
  Ga  Ga6  1  0.000000  0.000000  0.500000  1
  Pb  Pb7  1  0.666667  0.333334  0.000000  1
  Pb  Pb8  1  0.333333  0.666666  0.000000  1
