# generated using pymatgen
data_Tm2GaB2Ir2Ru3
_symmetry_space_group_name_H-M   'P 1'
_cell_length_a   9.60803600
_cell_length_b   9.56562500
_cell_length_c   3.07174100
_cell_angle_alpha   90.00000000
_cell_angle_beta   90.00000000
_cell_angle_gamma   90.00000000
_symmetry_Int_Tables_number   1
_chemical_formula_structural   Tm2GaB2Ir2Ru3
_chemical_formula_sum   'Tm4 Ga2 B4 Ir4 Ru6'
_cell_volume   282.31409880
_cell_formula_units_Z   2
loop_
 _symmetry_equiv_pos_site_id
 _symmetry_equiv_pos_as_xyz
  1  'x, y, z'
loop_
 _atom_site_type_symbol
 _atom_site_label
 _atom_site_symmetry_multiplicity
 _atom_site_fract_x
 _atom_site_fract_y
 _atom_site_fract_z
 _atom_site_occupancy
  Tm  Tm0  1  0.825654  0.325023  0.000000  1
  Tm  Tm1  1  0.174346  0.674977  0.000000  1
  Tm  Tm2  1  0.325654  0.174977  0.000000  1
  Tm  Tm3  1  0.674346  0.825023  0.000000  1
  Ga  Ga4  1  0.500000  0.500000  0.000000  1
  Ga  Ga5  1  0.000000  0.000000  0.000000  1
  B  B6  1  0.624227  0.120129  0.000000  1
  B  B7  1  0.375773  0.879871  0.000000  1
  B  B8  1  0.124227  0.379871  0.000000  1
  B  B9  1  0.875773  0.620129  0.000000  1
  Ir  Ir10  1  0.429404  0.716726  0.500000  1
  Ir  Ir11  1  0.570596  0.283274  0.500000  1
  Ir  Ir12  1  0.070596  0.216726  0.500000  1
  Ir  Ir13  1  0.929404  0.783274  0.500000  1
  Ru  Ru14  1  0.500000  0.000000  0.500000  1
  Ru  Ru15  1  0.000000  0.500000  0.500000  1
  Ru  Ru16  1  0.716997  0.568068  0.500000  1
  Ru  Ru17  1  0.283003  0.431932  0.500000  1
  Ru  Ru18  1  0.216997  0.931932  0.500000  1
  Ru  Ru19  1  0.783003  0.068068  0.500000  1
