# generated using pymatgen
data_Ca7Y(Si4Mo3)4
_symmetry_space_group_name_H-M   'P 1'
_cell_length_a   6.75856162
_cell_length_b   6.97192014
_cell_length_c   13.07274000
_cell_angle_alpha   90.03832090
_cell_angle_beta   90.08601286
_cell_angle_gamma   89.90012577
_symmetry_Int_Tables_number   1
_chemical_formula_structural   Ca7Y(Si4Mo3)4
_chemical_formula_sum   'Ca7 Y1 Si16 Mo12'
_cell_volume   615.98772713
_cell_formula_units_Z   1
loop_
 _symmetry_equiv_pos_site_id
 _symmetry_equiv_pos_as_xyz
  1  'x, y, z'
loop_
 _atom_site_type_symbol
 _atom_site_label
 _atom_site_symmetry_multiplicity
 _atom_site_fract_x
 _atom_site_fract_y
 _atom_site_fract_z
 _atom_site_occupancy
  Ca  Ca0  1  0.498645  0.333571  0.090958  1
  Ca  Ca1  1  0.998258  0.166640  0.408774  1
  Ca  Ca2  1  0.501272  0.667097  0.591619  1
  Ca  Ca3  1  0.001305  0.831581  0.907132  1
  Ca  Ca4  1  0.501251  0.667740  0.907725  1
  Ca  Ca5  1  0.001089  0.832182  0.591518  1
  Ca  Ca6  1  0.498234  0.333923  0.409552  1
  Y  Y7  1  0.000027  0.169465  0.093819  1
  Si  Si8  1  0.656946  0.043209  0.546154  1
  Si  Si9  1  0.157854  0.457568  0.954174  1
  Si  Si10  1  0.342870  0.956318  0.045897  1
  Si  Si11  1  0.842885  0.543282  0.453634  1
  Si  Si12  1  0.342838  0.956500  0.453874  1
  Si  Si13  1  0.841995  0.544617  0.045375  1
  Si  Si14  1  0.658709  0.042935  0.953846  1
  Si  Si15  1  0.157040  0.456337  0.546291  1
  Si  Si16  1  0.534996  0.371732  0.750262  1
  Si  Si17  1  0.034854  0.126817  0.749607  1
  Si  Si18  1  0.465017  0.630258  0.249094  1
  Si  Si19  1  0.964721  0.870327  0.250546  1
  Si  Si20  1  0.801003  0.627754  0.749808  1
  Si  Si21  1  0.301508  0.871278  0.749852  1
  Si  Si22  1  0.199587  0.372065  0.251113  1
  Si  Si23  1  0.696051  0.129539  0.251094  1
  Mo  Mo24  1  0.834869  0.330476  0.628058  1
  Mo  Mo25  1  0.333709  0.168616  0.872688  1
  Mo  Mo26  1  0.165082  0.668502  0.127169  1
  Mo  Mo27  1  0.665611  0.830672  0.371736  1
  Mo  Mo28  1  0.165669  0.668904  0.371592  1
  Mo  Mo29  1  0.668175  0.833396  0.127132  1
  Mo  Mo30  1  0.835924  0.329720  0.872940  1
  Mo  Mo31  1  0.334612  0.168549  0.628151  1
  Mo  Mo32  1  0.660936  0.010994  0.750155  1
  Mo  Mo33  1  0.161132  0.488337  0.750337  1
  Mo  Mo34  1  0.337365  0.990649  0.249539  1
  Mo  Mo35  1  0.837963  0.508450  0.248785  1
