# generated using pymatgen
data_K3U(VS4)2
_symmetry_space_group_name_H-M   'P 1'
_cell_length_a   9.01419860
_cell_length_b   10.05201424
_cell_length_c   10.74627300
_cell_angle_alpha   107.26311819
_cell_angle_beta   103.21670682
_cell_angle_gamma   114.05372609
_symmetry_Int_Tables_number   1
_chemical_formula_structural   K3U(VS4)2
_chemical_formula_sum   'K6 U2 V4 S16'
_cell_volume   777.89746724
_cell_formula_units_Z   2
loop_
 _symmetry_equiv_pos_site_id
 _symmetry_equiv_pos_as_xyz
  1  'x, y, z'
loop_
 _atom_site_type_symbol
 _atom_site_label
 _atom_site_symmetry_multiplicity
 _atom_site_fract_x
 _atom_site_fract_y
 _atom_site_fract_z
 _atom_site_occupancy
  K  K0  1  0.000000  0.500000  0.000000  1
  K  K1  1  0.500000  0.500000  0.000000  1
  K  K2  1  0.256908  0.007004  0.013946  1
  K  K3  1  0.487825  0.737976  0.475638  1
  K  K4  1  0.512174  0.262022  0.524362  1
  K  K5  1  0.743092  0.992996  0.986053  1
  U  U6  1  0.992866  0.242758  0.485791  1
  U  U7  1  0.007135  0.757242  0.514209  1
  V  V8  1  0.747291  0.348438  0.252736  1
  V  V9  1  0.005505  0.904332  0.252651  1
  V  V10  1  0.994495  0.095669  0.747350  1
  V  V11  1  0.252708  0.651562  0.747264  1
  S  S12  1  0.646190  0.270549  0.028216  1
  S  S13  1  0.882084  0.757649  0.028224  1
  S  S14  1  0.132437  0.161725  0.295995  1
  S  S15  1  0.663688  0.134342  0.296034  1
  S  S16  1  0.035213  0.482896  0.351760  1
  S  S17  1  0.816691  0.868939  0.351764  1
  S  S18  1  0.198313  0.850914  0.355059  1
  S  S19  1  0.656710  0.504193  0.355027  1
  S  S20  1  0.343289  0.495806  0.644972  1
  S  S21  1  0.801686  0.149086  0.644940  1
  S  S22  1  0.183309  0.131060  0.648236  1
  S  S23  1  0.964786  0.517103  0.648240  1
  S  S24  1  0.336311  0.865657  0.703965  1
  S  S25  1  0.867563  0.838274  0.704004  1
  S  S26  1  0.117917  0.242351  0.971777  1
  S  S27  1  0.353809  0.729451  0.971785  1
