# generated using pymatgen
data_Rb8Tm(WBr8)3
_symmetry_space_group_name_H-M   'P 1'
_cell_length_a   13.33717443
_cell_length_b   13.33717370
_cell_length_c   13.33717461
_cell_angle_alpha   131.59289720
_cell_angle_beta   131.59289719
_cell_angle_gamma   70.87276212
_symmetry_Int_Tables_number   1
_chemical_formula_structural   Rb8Tm(WBr8)3
_chemical_formula_sum   'Rb8 Tm1 W3 Br24'
_cell_volume   1299.58740376
_cell_formula_units_Z   1
loop_
 _symmetry_equiv_pos_site_id
 _symmetry_equiv_pos_as_xyz
  1  'x, y, z'
loop_
 _atom_site_type_symbol
 _atom_site_label
 _atom_site_symmetry_multiplicity
 _atom_site_fract_x
 _atom_site_fract_y
 _atom_site_fract_z
 _atom_site_occupancy
  Rb  Rb0  1  0.117999  0.640143  0.998753  1
  Rb  Rb1  1  0.359857  0.882001  0.001247  1
  Rb  Rb2  1  0.641390  0.640143  0.522143  1
  Rb  Rb3  1  0.359857  0.358610  0.477857  1
  Rb  Rb4  1  0.880754  0.358610  0.998753  1
  Rb  Rb5  1  0.880754  0.882001  0.522143  1
  Rb  Rb6  1  0.117999  0.119246  0.477857  1
  Rb  Rb7  1  0.641390  0.119246  0.001247  1
  Tm  Tm8  1  0.000000  0.000000  0.000000  1
  W  W9  1  0.750000  0.250000  0.500000  1
  W  W10  1  0.500000  0.500000  0.000000  1
  W  W11  1  0.250000  0.750000  0.500000  1
  Br  Br12  1  0.252800  0.999733  0.253067  1
  Br  Br13  1  0.000267  0.747200  0.746933  1
  Br  Br14  1  0.251580  0.984455  0.732877  1
  Br  Br15  1  0.748699  0.481295  0.732597  1
  Br  Br16  1  0.481297  0.748420  0.732877  1
  Br  Br17  1  0.126845  0.126845  0.000000  1
  Br  Br18  1  0.499661  0.732084  0.232423  1
  Br  Br19  1  0.866810  0.366810  0.500000  1
  Br  Br20  1  0.000267  0.253334  0.253067  1
  Br  Br21  1  0.383221  0.383221  0.000000  1
  Br  Br22  1  0.616779  0.616779  0.000000  1
  Br  Br23  1  0.499661  0.267237  0.767577  1
  Br  Br24  1  0.267916  0.500339  0.767577  1
  Br  Br25  1  0.518705  0.251301  0.267403  1
  Br  Br26  1  0.366789  0.866789  0.500000  1
  Br  Br27  1  0.633190  0.133190  0.500000  1
  Br  Br28  1  0.251580  0.518703  0.267123  1
  Br  Br29  1  0.133211  0.633211  0.500000  1
  Br  Br30  1  0.015545  0.748420  0.267123  1
  Br  Br31  1  0.983899  0.251301  0.732597  1
  Br  Br32  1  0.746666  0.999733  0.746933  1
  Br  Br33  1  0.732763  0.500339  0.232423  1
  Br  Br34  1  0.748699  0.016101  0.267403  1
  Br  Br35  1  0.873155  0.873155  0.000000  1
