# generated using pymatgen
data_Ca4(Al8Pt3)3
_symmetry_space_group_name_H-M   'P 1'
_cell_length_a   7.49611331
_cell_length_b   7.54971843
_cell_length_c   13.45937523
_cell_angle_alpha   84.53480136
_cell_angle_beta   79.04963361
_cell_angle_gamma   59.89457633
_symmetry_Int_Tables_number   1
_chemical_formula_structural   Ca4(Al8Pt3)3
_chemical_formula_sum   'Ca4 Al24 Pt9'
_cell_volume   646.96327065
_cell_formula_units_Z   1
loop_
 _symmetry_equiv_pos_site_id
 _symmetry_equiv_pos_as_xyz
  1  'x, y, z'
loop_
 _atom_site_type_symbol
 _atom_site_label
 _atom_site_symmetry_multiplicity
 _atom_site_fract_x
 _atom_site_fract_y
 _atom_site_fract_z
 _atom_site_occupancy
  Ca  Ca0  1  0.394016  0.168288  0.807657  1
  Ca  Ca1  1  0.605984  0.831712  0.192343  1
  Ca  Ca2  1  0.733254  0.499508  0.807745  1
  Ca  Ca3  1  0.266746  0.500492  0.192255  1
  Al  Al4  1  0.686739  0.833625  0.947379  1
  Al  Al5  1  0.313261  0.166375  0.052621  1
  Al  Al6  1  0.148556  0.830898  0.558948  1
  Al  Al7  1  0.851444  0.169102  0.441052  1
  Al  Al8  1  0.480509  0.166007  0.557750  1
  Al  Al9  1  0.519491  0.833993  0.442250  1
  Al  Al10  1  0.216287  0.164718  0.330353  1
  Al  Al11  1  0.783713  0.835282  0.669647  1
  Al  Al12  1  0.437000  0.507550  0.669170  1
  Al  Al13  1  0.563000  0.492450  0.330830  1
  Al  Al14  1  0.109804  0.158674  0.668201  1
  Al  Al15  1  0.890196  0.841326  0.331799  1
  Al  Al16  1  0.349725  0.501246  0.948117  1
  Al  Al17  1  0.650275  0.498754  0.051883  1
  Al  Al18  1  0.014496  0.166384  0.955518  1
  Al  Al19  1  0.985504  0.833616  0.044482  1
  Al  Al20  1  0.185252  0.499733  0.442300  1
  Al  Al21  1  0.814748  0.500267  0.557700  1
  Al  Al22  1  0.733569  0.164517  0.182927  1
  Al  Al23  1  0.266431  0.835483  0.817073  1
  Al  Al24  1  0.061733  0.629899  0.815589  1
  Al  Al25  1  0.938267  0.370101  0.184411  1
  Al  Al26  1  0.855242  0.041887  0.815916  1
  Al  Al27  1  0.144758  0.958113  0.184084  1
  Pt  Pt28  1  0.121321  0.492851  0.636807  1
  Pt  Pt29  1  0.878679  0.507149  0.363193  1
  Pt  Pt30  1  0.657210  0.170893  0.999777  1
  Pt  Pt31  1  0.342790  0.829107  0.000223  1
  Pt  Pt32  1  0.537523  0.167378  0.363084  1
  Pt  Pt33  1  0.462477  0.832622  0.636916  1
  Pt  Pt34  1  0.781319  0.173310  0.635264  1
  Pt  Pt35  1  0.218681  0.826690  0.364736  1
  Pt  Pt36  1  0.000000  0.500000  0.000000  1
