# generated using pymatgen
data_Yb7Cd2SnN2
_symmetry_space_group_name_H-M   'P 1'
_cell_length_a   12.64022020
_cell_length_b   12.64022108
_cell_length_c   4.84500100
_cell_angle_alpha   90.00000000
_cell_angle_beta   90.00000000
_cell_angle_gamma   157.99503088
_symmetry_Int_Tables_number   1
_chemical_formula_structural   Yb7Cd2SnN2
_chemical_formula_sum   'Yb7 Cd2 Sn1 N2'
_cell_volume   290.04929280
_cell_formula_units_Z   1
loop_
 _symmetry_equiv_pos_site_id
 _symmetry_equiv_pos_as_xyz
  1  'x, y, z'
loop_
 _atom_site_type_symbol
 _atom_site_label
 _atom_site_symmetry_multiplicity
 _atom_site_fract_x
 _atom_site_fract_y
 _atom_site_fract_z
 _atom_site_occupancy
  Yb  Yb0  1  0.909572  0.090428  0.000000  1
  Yb  Yb1  1  0.692176  0.307824  0.000000  1
  Yb  Yb2  1  0.500000  0.500000  0.000000  1
  Yb  Yb3  1  0.307824  0.692176  0.000000  1
  Yb  Yb4  1  0.090428  0.909572  0.000000  1
  Yb  Yb5  1  0.595073  0.404927  0.500000  1
  Yb  Yb6  1  0.404927  0.595073  0.500000  1
  Cd  Cd7  1  0.798571  0.201428  0.500000  1
  Cd  Cd8  1  0.201428  0.798571  0.500000  1
  Sn  Sn9  1  0.000000  0.000000  0.500000  1
  N  N10  1  0.602408  0.397591  0.000000  1
  N  N11  1  0.397591  0.602408  0.000000  1
