# generated using pymatgen
data_GaTe19
_symmetry_space_group_name_H-M   'P 1'
_cell_length_a   7.96740280
_cell_length_b   8.94102754
_cell_length_c   10.12016500
_cell_angle_alpha   103.09486428
_cell_angle_beta   96.93454965
_cell_angle_gamma   107.31739481
_symmetry_Int_Tables_number   1
_chemical_formula_structural   GaTe19
_chemical_formula_sum   'Ga1 Te19'
_cell_volume   656.48094483
_cell_formula_units_Z   1
loop_
 _symmetry_equiv_pos_site_id
 _symmetry_equiv_pos_as_xyz
  1  'x, y, z'
loop_
 _atom_site_type_symbol
 _atom_site_label
 _atom_site_symmetry_multiplicity
 _atom_site_fract_x
 _atom_site_fract_y
 _atom_site_fract_z
 _atom_site_occupancy
  Ga  Ga0  1  0.000000  0.500000  0.000000  1
  Te  Te1  1  0.796100  0.581320  0.617291  1
  Te  Te2  1  0.621726  0.200038  0.204763  1
  Te  Te3  1  0.378274  0.799962  0.795237  1
  Te  Te4  1  0.602769  0.684686  0.194926  1
  Te  Te5  1  0.203900  0.418680  0.382709  1
  Te  Te6  1  0.397231  0.315314  0.805074  1
  Te  Te7  1  0.000000  0.000000  0.000000  1
  Te  Te8  1  0.192496  0.909438  0.392669  1
  Te  Te9  1  0.807504  0.090562  0.607331  1
  Te  Te10  1  0.701713  0.630196  0.903957  1
  Te  Te11  1  0.511379  0.252579  0.495251  1
  Te  Te12  1  0.720431  0.152088  0.910006  1
  Te  Te13  1  0.279569  0.847912  0.089994  1
  Te  Te14  1  0.488621  0.747421  0.504749  1
  Te  Te15  1  0.097749  0.462723  0.710196  1
  Te  Te16  1  0.298287  0.369804  0.096043  1
  Te  Te17  1  0.909921  0.041258  0.300379  1
  Te  Te18  1  0.090079  0.958742  0.699621  1
  Te  Te19  1  0.902251  0.537277  0.289804  1
