# generated using pymatgen
data_Yb4Zn5Ru3
_symmetry_space_group_name_H-M   'P 1'
_cell_length_a   5.32875427
_cell_length_b   5.41071200
_cell_length_c   8.86368600
_cell_angle_alpha   90.00000000
_cell_angle_beta   90.00000000
_cell_angle_gamma   120.50861764
_symmetry_Int_Tables_number   1
_chemical_formula_structural   Yb4Zn5Ru3
_chemical_formula_sum   'Yb4 Zn5 Ru3'
_cell_volume   220.17924587
_cell_formula_units_Z   1
loop_
 _symmetry_equiv_pos_site_id
 _symmetry_equiv_pos_as_xyz
  1  'x, y, z'
loop_
 _atom_site_type_symbol
 _atom_site_label
 _atom_site_symmetry_multiplicity
 _atom_site_fract_x
 _atom_site_fract_y
 _atom_site_fract_z
 _atom_site_occupancy
  Yb  Yb0  1  0.663785  0.331866  0.553333  1
  Yb  Yb1  1  0.335433  0.667760  0.443357  1
  Yb  Yb2  1  0.335433  0.667760  0.056643  1
  Yb  Yb3  1  0.663785  0.331866  0.946667  1
  Zn  Zn4  1  0.160236  0.325258  0.750000  1
  Zn  Zn5  1  0.160205  0.834909  0.750000  1
  Zn  Zn6  1  0.678399  0.839192  0.750000  1
  Zn  Zn7  1  0.812337  0.658038  0.250000  1
  Zn  Zn8  1  0.812396  0.154354  0.250000  1
  Ru  Ru9  1  0.030540  0.015216  0.490716  1
  Ru  Ru10  1  0.030540  0.015216  0.009284  1
  Ru  Ru11  1  0.316911  0.158566  0.250000  1
