# generated using pymatgen
data_Sr3Nd(Si3Pd5)4
_symmetry_space_group_name_H-M   'P 1'
_cell_length_a   4.07261600
_cell_length_b   20.00252627
_cell_length_c   7.34585157
_cell_angle_alpha   89.85444906
_cell_angle_beta   90.00000000
_cell_angle_gamma   90.00000000
_symmetry_Int_Tables_number   1
_chemical_formula_structural   Sr3Nd(Si3Pd5)4
_chemical_formula_sum   'Sr3 Nd1 Si12 Pd20'
_cell_volume   598.41029944
_cell_formula_units_Z   1
loop_
 _symmetry_equiv_pos_site_id
 _symmetry_equiv_pos_as_xyz
  1  'x, y, z'
loop_
 _atom_site_type_symbol
 _atom_site_label
 _atom_site_symmetry_multiplicity
 _atom_site_fract_x
 _atom_site_fract_y
 _atom_site_fract_z
 _atom_site_occupancy
  Sr  Sr0  1  0.750000  0.642779  0.122445  1
  Sr  Sr1  1  0.250000  0.356598  0.877512  1
  Sr  Sr2  1  0.250000  0.857782  0.623617  1
  Nd  Nd3  1  0.750000  0.143695  0.376370  1
  Si  Si4  1  0.750000  0.736900  0.627935  1
  Si  Si5  1  0.250000  0.261195  0.371190  1
  Si  Si6  1  0.250000  0.763361  0.128472  1
  Si  Si7  1  0.750000  0.236187  0.872944  1
  Si  Si8  1  0.750000  0.925203  0.343932  1
  Si  Si9  1  0.250000  0.075770  0.650466  1
  Si  Si10  1  0.250000  0.574680  0.844381  1
  Si  Si11  1  0.750000  0.424686  0.156473  1
  Si  Si12  1  0.750000  0.917343  0.915600  1
  Si  Si13  1  0.250000  0.084372  0.093308  1
  Si  Si14  1  0.250000  0.583408  0.414309  1
  Si  Si15  1  0.750000  0.415627  0.583931  1
  Pd  Pd16  1  0.750000  0.799532  0.324286  1
  Pd  Pd17  1  0.250000  0.199281  0.673030  1
  Pd  Pd18  1  0.250000  0.700415  0.824466  1
  Pd  Pd19  1  0.750000  0.299143  0.177179  1
  Pd  Pd20  1  0.750000  0.993827  0.626231  1
  Pd  Pd21  1  0.250000  0.007555  0.372813  1
  Pd  Pd22  1  0.250000  0.505626  0.127232  1
  Pd  Pd23  1  0.750000  0.494113  0.872718  1
  Pd  Pd24  1  0.750000  0.512897  0.379046  1
  Pd  Pd25  1  0.250000  0.486711  0.620338  1
  Pd  Pd26  1  0.250000  0.989080  0.878966  1
  Pd  Pd27  1  0.750000  0.013563  0.121691  1
  Pd  Pd28  1  0.750000  0.796611  0.932678  1
  Pd  Pd29  1  0.250000  0.203694  0.068173  1
  Pd  Pd30  1  0.250000  0.703802  0.433544  1
  Pd  Pd31  1  0.750000  0.295514  0.568750  1
  Pd  Pd32  1  0.750000  0.616191  0.641587  1
  Pd  Pd33  1  0.250000  0.382932  0.358046  1
  Pd  Pd34  1  0.250000  0.884440  0.141990  1
  Pd  Pd35  1  0.750000  0.115487  0.854349  1
