# generated using pymatgen
data_Tm12Fe2OsPb2
_symmetry_space_group_name_H-M   'P 1'
_cell_length_a   8.32230849
_cell_length_b   8.32235316
_cell_length_c   8.32230991
_cell_angle_alpha   108.59493302
_cell_angle_beta   108.61548338
_cell_angle_gamma   111.21726213
_symmetry_Int_Tables_number   1
_chemical_formula_structural   Tm12Fe2OsPb2
_chemical_formula_sum   'Tm12 Fe2 Os1 Pb2'
_cell_volume   443.41406179
_cell_formula_units_Z   1
loop_
 _symmetry_equiv_pos_site_id
 _symmetry_equiv_pos_as_xyz
  1  'x, y, z'
loop_
 _atom_site_type_symbol
 _atom_site_label
 _atom_site_symmetry_multiplicity
 _atom_site_fract_x
 _atom_site_fract_y
 _atom_site_fract_z
 _atom_site_occupancy
  Tm  Tm0  1  0.193117  0.427781  0.234665  1
  Tm  Tm1  1  0.806883  0.572219  0.765335  1
  Tm  Tm2  1  0.193116  0.958453  0.765336  1
  Tm  Tm3  1  0.958446  0.193114  0.765334  1
  Tm  Tm4  1  0.806884  0.041547  0.234664  1
  Tm  Tm5  1  0.041554  0.806886  0.234666  1
  Tm  Tm6  1  0.427780  0.193114  0.234669  1
  Tm  Tm7  1  0.572220  0.806886  0.765331  1
  Tm  Tm8  1  0.309223  0.309247  0.618470  1
  Tm  Tm9  1  0.690777  0.690753  0.381530  1
  Tm  Tm10  1  0.690776  0.309247  0.000023  1
  Tm  Tm11  1  0.309224  0.690753  0.999977  1
  Fe  Fe12  1  0.385268  0.385270  0.000002  1
  Fe  Fe13  1  0.614732  0.614730  0.999998  1
  Os  Os14  1  0.000000  0.000000  0.000000  1
  Pb  Pb15  1  0.000000  0.500000  0.500000  1
  Pb  Pb16  1  0.500000  0.000000  0.500000  1
