# generated using pymatgen
data_Lu12Th4Mg3CdIr4
_symmetry_space_group_name_H-M   'P 1'
_cell_length_a   9.64559622
_cell_length_b   9.66317063
_cell_length_c   9.66317100
_cell_angle_alpha   60.00000215
_cell_angle_beta   59.93971211
_cell_angle_gamma   59.93971219
_symmetry_Int_Tables_number   1
_chemical_formula_structural   Lu12Th4Mg3CdIr4
_chemical_formula_sum   'Lu12 Th4 Mg3 Cd1 Ir4'
_cell_volume   636.29285640
_cell_formula_units_Z   1
loop_
 _symmetry_equiv_pos_site_id
 _symmetry_equiv_pos_as_xyz
  1  'x, y, z'
loop_
 _atom_site_type_symbol
 _atom_site_label
 _atom_site_symmetry_multiplicity
 _atom_site_fract_x
 _atom_site_fract_y
 _atom_site_fract_z
 _atom_site_occupancy
  Lu  Lu0  1  0.813858  0.186211  0.186211  1
  Lu  Lu1  1  0.186611  0.813487  0.813487  1
  Lu  Lu2  1  0.186611  0.813487  0.186416  1
  Lu  Lu3  1  0.813858  0.186211  0.813721  1
  Lu  Lu4  1  0.186611  0.186416  0.813487  1
  Lu  Lu5  1  0.813858  0.813721  0.186211  1
  Lu  Lu6  1  0.935166  0.566241  0.566241  1
  Lu  Lu7  1  0.566612  0.933336  0.933336  1
  Lu  Lu8  1  0.566612  0.933336  0.566717  1
  Lu  Lu9  1  0.935166  0.566241  0.932352  1
  Lu  Lu10  1  0.566612  0.566717  0.933336  1
  Lu  Lu11  1  0.935166  0.932352  0.566241  1
  Th  Th12  1  0.350238  0.350389  0.350389  1
  Th  Th13  1  0.350238  0.350389  0.948983  1
  Th  Th14  1  0.350238  0.948983  0.350389  1
  Th  Th15  1  0.949495  0.350168  0.350168  1
  Mg  Mg16  1  0.581297  0.582247  0.582247  1
  Mg  Mg17  1  0.581297  0.582247  0.254208  1
  Mg  Mg18  1  0.581297  0.254208  0.582247  1
  Cd  Cd19  1  0.248787  0.583737  0.583737  1
  Ir  Ir20  1  0.141823  0.142215  0.142215  1
  Ir  Ir21  1  0.141823  0.142215  0.573744  1
  Ir  Ir22  1  0.141823  0.573744  0.142215  1
  Ir  Ir23  1  0.574898  0.141700  0.141700  1
