# generated using pymatgen
data_Li4Pr4BiSb3
_symmetry_space_group_name_H-M   'P 1'
_cell_length_a   4.68838600
_cell_length_b   7.63415900
_cell_length_c   8.19546900
_cell_angle_alpha   89.94136948
_cell_angle_beta   90.00000000
_cell_angle_gamma   90.00000000
_symmetry_Int_Tables_number   1
_chemical_formula_structural   Li4Pr4BiSb3
_chemical_formula_sum   'Li4 Pr4 Bi1 Sb3'
_cell_volume   293.33112353
_cell_formula_units_Z   1
loop_
 _symmetry_equiv_pos_site_id
 _symmetry_equiv_pos_as_xyz
  1  'x, y, z'
loop_
 _atom_site_type_symbol
 _atom_site_label
 _atom_site_symmetry_multiplicity
 _atom_site_fract_x
 _atom_site_fract_y
 _atom_site_fract_z
 _atom_site_occupancy
  Li  Li0  1  0.250000  0.183173  0.923422  1
  Li  Li1  1  0.250000  0.684407  0.577973  1
  Li  Li2  1  0.750000  0.815127  0.080062  1
  Li  Li3  1  0.750000  0.322310  0.417675  1
  Pr  Pr4  1  0.250000  0.000739  0.281174  1
  Pr  Pr5  1  0.250000  0.503874  0.210264  1
  Pr  Pr6  1  0.750000  0.992930  0.717592  1
  Pr  Pr7  1  0.750000  0.498712  0.791085  1
  Bi  Bi8  1  0.250000  0.273008  0.589528  1
  Sb  Sb9  1  0.250000  0.773277  0.910802  1
  Sb  Sb10  1  0.750000  0.726362  0.410194  1
  Sb  Sb11  1  0.750000  0.226082  0.090226  1
