# generated using pymatgen
data_LuSc2Ga5Ni
_symmetry_space_group_name_H-M   'P 1'
_cell_length_a   6.70406624
_cell_length_b   6.63498303
_cell_length_c   4.07723300
_cell_angle_alpha   90.00000000
_cell_angle_beta   90.00000000
_cell_angle_gamma   119.65971992
_symmetry_Int_Tables_number   1
_chemical_formula_structural   LuSc2Ga5Ni
_chemical_formula_sum   'Lu1 Sc2 Ga5 Ni1'
_cell_volume   157.59891876
_cell_formula_units_Z   1
loop_
 _symmetry_equiv_pos_site_id
 _symmetry_equiv_pos_as_xyz
  1  'x, y, z'
loop_
 _atom_site_type_symbol
 _atom_site_label
 _atom_site_symmetry_multiplicity
 _atom_site_fract_x
 _atom_site_fract_y
 _atom_site_fract_z
 _atom_site_occupancy
  Lu  Lu0  1  0.000000  0.589505  0.500000  1
  Sc  Sc1  1  0.592666  0.997855  0.500000  1
  Sc  Sc2  1  0.407334  0.405189  0.500000  1
  Ga  Ga3  1  0.238590  0.001762  0.000000  1
  Ga  Ga4  1  0.000000  0.237601  0.000000  1
  Ga  Ga5  1  0.659295  0.328222  0.000000  1
  Ga  Ga6  1  0.340705  0.668928  0.000000  1
  Ga  Ga7  1  0.761410  0.763172  0.000000  1
  Ni  Ni8  1  0.000000  0.007766  0.500000  1
