# generated using pymatgen
data_DyEr3Ti3GaIr4
_symmetry_space_group_name_H-M   'P 1'
_cell_length_a   4.31175500
_cell_length_b   6.93727939
_cell_length_c   7.96348504
_cell_angle_alpha   92.76561543
_cell_angle_beta   90.00000000
_cell_angle_gamma   90.00000000
_symmetry_Int_Tables_number   1
_chemical_formula_structural   DyEr3Ti3GaIr4
_chemical_formula_sum   'Dy1 Er3 Ti3 Ga1 Ir4'
_cell_volume   237.92512175
_cell_formula_units_Z   1
loop_
 _symmetry_equiv_pos_site_id
 _symmetry_equiv_pos_as_xyz
  1  'x, y, z'
loop_
 _atom_site_type_symbol
 _atom_site_label
 _atom_site_symmetry_multiplicity
 _atom_site_fract_x
 _atom_site_fract_y
 _atom_site_fract_z
 _atom_site_occupancy
  Dy  Dy0  1  0.250000  0.979581  0.314581  1
  Er  Er1  1  0.250000  0.469375  0.171725  1
  Er  Er2  1  0.750000  0.030100  0.688209  1
  Er  Er3  1  0.750000  0.513090  0.825243  1
  Ti  Ti4  1  0.250000  0.365755  0.570210  1
  Ti  Ti5  1  0.250000  0.864904  0.938666  1
  Ti  Ti6  1  0.750000  0.634189  0.432137  1
  Ga  Ga7  1  0.750000  0.146157  0.070474  1
  Ir  Ir8  1  0.250000  0.225043  0.873667  1
  Ir  Ir9  1  0.250000  0.726786  0.603060  1
  Ir  Ir10  1  0.750000  0.767803  0.111919  1
  Ir  Ir11  1  0.750000  0.277216  0.400108  1
