# generated using pymatgen
data_SmCdGa3Ni
_symmetry_space_group_name_H-M   'P 1'
_cell_length_a   4.23488851
_cell_length_b   6.54698600
_cell_length_c   8.23839640
_cell_angle_alpha   90.00000000
_cell_angle_beta   104.89340158
_cell_angle_gamma   90.00000000
_symmetry_Int_Tables_number   1
_chemical_formula_structural   SmCdGa3Ni
_chemical_formula_sum   'Sm2 Cd2 Ga6 Ni2'
_cell_volume   220.74229568
_cell_formula_units_Z   2
loop_
 _symmetry_equiv_pos_site_id
 _symmetry_equiv_pos_as_xyz
  1  'x, y, z'
loop_
 _atom_site_type_symbol
 _atom_site_label
 _atom_site_symmetry_multiplicity
 _atom_site_fract_x
 _atom_site_fract_y
 _atom_site_fract_z
 _atom_site_occupancy
  Sm  Sm0  1  0.874956  0.750000  0.749911  1
  Sm  Sm1  1  0.125044  0.250000  0.250089  1
  Cd  Cd2  1  0.500000  0.500000  0.000000  1
  Cd  Cd3  1  0.500000  0.000000  0.000000  1
  Ga  Ga4  1  0.073856  0.750000  0.147714  1
  Ga  Ga5  1  0.926144  0.250000  0.852286  1
  Ga  Ga6  1  0.688433  0.550770  0.376865  1
  Ga  Ga7  1  0.311567  0.449230  0.623135  1
  Ga  Ga8  1  0.688433  0.949230  0.376865  1
  Ga  Ga9  1  0.311567  0.050770  0.623135  1
  Ni  Ni10  1  0.221827  0.750000  0.443653  1
  Ni  Ni11  1  0.778173  0.250000  0.556347  1
