# generated using pymatgen
data_Hf5Zr3Cr2Fe9Si16Ru
_symmetry_space_group_name_H-M   'P 1'
_cell_length_a   9.70100753
_cell_length_b   9.68056169
_cell_length_c   12.97259300
_cell_angle_alpha   53.40367635
_cell_angle_beta   53.43319413
_cell_angle_gamma   31.27420449
_symmetry_Int_Tables_number   1
_chemical_formula_structural   Hf5Zr3Cr2Fe9Si16Ru
_chemical_formula_sum   'Hf5 Zr3 Cr2 Fe9 Si16 Ru1'
_cell_volume   496.78150567
_cell_formula_units_Z   1
loop_
 _symmetry_equiv_pos_site_id
 _symmetry_equiv_pos_as_xyz
  1  'x, y, z'
loop_
 _atom_site_type_symbol
 _atom_site_label
 _atom_site_symmetry_multiplicity
 _atom_site_fract_x
 _atom_site_fract_y
 _atom_site_fract_z
 _atom_site_occupancy
  Hf  Hf0  1  0.039384  0.290474  0.640662  1
  Hf  Hf1  1  0.704117  0.963183  0.860867  1
  Hf  Hf2  1  0.962897  0.704048  0.360344  1
  Hf  Hf3  1  0.293775  0.040129  0.139717  1
  Hf  Hf4  1  0.291427  0.568097  0.642598  1
  Zr  Zr5  1  0.434507  0.708362  0.855591  1
  Zr  Zr6  1  0.710657  0.436112  0.353448  1
  Zr  Zr7  1  0.568473  0.290249  0.144153  1
  Cr  Cr8  1  0.488339  0.750766  0.565322  1
  Cr  Cr9  1  0.755392  0.490077  0.063245  1
  Fe  Fe10  1  0.897624  0.142478  0.584010  1
  Fe  Fe11  1  0.858692  0.099664  0.915894  1
  Fe  Fe12  1  0.101932  0.855868  0.416705  1
  Fe  Fe13  1  0.144375  0.896853  0.082392  1
  Fe  Fe14  1  0.829088  0.650621  0.778693  1
  Fe  Fe15  1  0.349275  0.171948  0.723613  1
  Fe  Fe16  1  0.170989  0.350261  0.221985  1
  Fe  Fe17  1  0.650158  0.829534  0.276610  1
  Fe  Fe18  1  0.236616  0.520841  0.935587  1
  Si  Si19  1  0.966635  0.259505  0.895038  1
  Si  Si20  1  0.741637  0.030741  0.607672  1
  Si  Si21  1  0.032187  0.740103  0.104584  1
  Si  Si22  1  0.259402  0.965465  0.395692  1
  Si  Si23  1  0.135660  0.395192  0.895546  1
  Si  Si24  1  0.608977  0.858162  0.607232  1
  Si  Si25  1  0.865515  0.610117  0.102740  1
  Si  Si26  1  0.391780  0.131887  0.396007  1
  Si  Si27  1  0.082556  0.573743  0.568934  1
  Si  Si28  1  0.423635  0.918668  0.933384  1
  Si  Si29  1  0.916443  0.425171  0.433376  1
  Si  Si30  1  0.566194  0.094839  0.064709  1
  Si  Si31  1  0.616016  0.380042  0.751736  1
  Si  Si32  1  0.380213  0.623623  0.246920  1
  Si  Si33  1  0.120157  0.876788  0.751277  1
  Si  Si34  1  0.886461  0.118143  0.246851  1
  Ru  Ru35  1  0.518817  0.238249  0.436866  1
