# generated using pymatgen
data_Er2Fe4Co6Ni2P7
_symmetry_space_group_name_H-M   'P 1'
_cell_length_a   8.97294049
_cell_length_b   9.00364382
_cell_length_c   3.62205800
_cell_angle_alpha   90.00000000
_cell_angle_beta   90.00000000
_cell_angle_gamma   119.89052655
_symmetry_Int_Tables_number   1
_chemical_formula_structural   Er2Fe4Co6Ni2P7
_chemical_formula_sum   'Er2 Fe4 Co6 Ni2 P7'
_cell_volume   253.69806318
_cell_formula_units_Z   1
loop_
 _symmetry_equiv_pos_site_id
 _symmetry_equiv_pos_as_xyz
  1  'x, y, z'
loop_
 _atom_site_type_symbol
 _atom_site_label
 _atom_site_symmetry_multiplicity
 _atom_site_fract_x
 _atom_site_fract_y
 _atom_site_fract_z
 _atom_site_occupancy
  Er  Er0  1  0.999449  0.000389  0.000000  1
  Er  Er1  1  0.334510  0.667808  0.500000  1
  Fe  Fe2  1  0.391041  0.176439  0.000000  1
  Fe  Fe3  1  0.883810  0.457510  0.500000  1
  Fe  Fe4  1  0.543000  0.428496  0.500000  1
  Fe  Fe5  1  0.571744  0.113844  0.500000  1
  Co  Co6  1  0.606486  0.901747  0.000000  1
  Co  Co7  1  0.822571  0.215331  0.000000  1
  Co  Co8  1  0.785493  0.608521  0.000000  1
  Co  Co9  1  0.051705  0.282985  0.500000  1
  Co  Co10  1  0.716405  0.767924  0.500000  1
  Co  Co11  1  0.230616  0.945156  0.500000  1
  Ni  Ni12  1  0.100175  0.704599  0.000000  1
  Ni  Ni13  1  0.296749  0.396606  0.000000  1
  P  P14  1  0.074446  0.443451  0.000000  1
  P  P15  1  0.556995  0.633814  0.000000  1
  P  P16  1  0.374043  0.927673  0.000000  1
  P  P17  1  0.779055  0.043304  0.500000  1
  P  P18  1  0.953775  0.737623  0.500000  1
  P  P19  1  0.263607  0.214220  0.500000  1
  P  P20  1  0.664328  0.332558  0.000000  1
