# generated using pymatgen
data_Pm2Os3Ru
_symmetry_space_group_name_H-M   'P 1'
_cell_length_a   5.33968710
_cell_length_b   5.52291189
_cell_length_c   5.33968700
_cell_angle_alpha   61.09150350
_cell_angle_beta   60.00000684
_cell_angle_gamma   61.09150131
_symmetry_Int_Tables_number   1
_chemical_formula_structural   Pm2Os3Ru
_chemical_formula_sum   'Pm2 Os3 Ru1'
_cell_volume   113.15040697
_cell_formula_units_Z   1
loop_
 _symmetry_equiv_pos_site_id
 _symmetry_equiv_pos_as_xyz
  1  'x, y, z'
loop_
 _atom_site_type_symbol
 _atom_site_label
 _atom_site_symmetry_multiplicity
 _atom_site_fract_x
 _atom_site_fract_y
 _atom_site_fract_z
 _atom_site_occupancy
  Pm  Pm0  1  0.748806  0.753584  0.748806  1
  Pm  Pm1  1  0.501194  0.496416  0.501194  1
  Os  Os2  1  0.125000  0.125000  0.125000  1
  Os  Os3  1  0.625000  0.125000  0.125000  1
  Os  Os4  1  0.125000  0.125000  0.625000  1
  Ru  Ru5  1  0.125000  0.625000  0.125000  1
