# generated using pymatgen
data_Ce2Nd7Er(USe10)2
_symmetry_space_group_name_H-M   'P 1'
_cell_length_a   7.85637558
_cell_length_b   8.42076582
_cell_length_c   12.50865862
_cell_angle_alpha   89.74219210
_cell_angle_beta   90.02469663
_cell_angle_gamma   89.79397709
_symmetry_Int_Tables_number   1
_chemical_formula_structural   Ce2Nd7Er(USe10)2
_chemical_formula_sum   'Ce2 Nd7 Er1 U2 Se20'
_cell_volume   827.51775295
_cell_formula_units_Z   1
loop_
 _symmetry_equiv_pos_site_id
 _symmetry_equiv_pos_as_xyz
  1  'x, y, z'
loop_
 _atom_site_type_symbol
 _atom_site_label
 _atom_site_symmetry_multiplicity
 _atom_site_fract_x
 _atom_site_fract_y
 _atom_site_fract_z
 _atom_site_occupancy
  Ce  Ce0  1  0.078428  0.748998  0.490061  1
  Ce  Ce1  1  0.421554  0.749344  0.990501  1
  Nd  Nd2  1  0.976004  0.001073  0.821365  1
  Nd  Nd3  1  0.478829  0.998471  0.677322  1
  Nd  Nd4  1  0.019712  0.501986  0.179695  1
  Nd  Nd5  1  0.479916  0.501774  0.677473  1
  Nd  Nd6  1  0.020001  0.997578  0.180258  1
  Nd  Nd7  1  0.525020  0.999139  0.322293  1
  Nd  Nd8  1  0.976976  0.499353  0.821600  1
  Er  Er9  1  0.516194  0.495866  0.318544  1
  U  U10  1  0.931339  0.252292  0.506852  1
  U  U11  1  0.569879  0.251110  0.009148  1
  Se  Se12  1  0.835477  0.961669  0.594577  1
  Se  Se13  1  0.658100  0.540087  0.102000  1
  Se  Se14  1  0.169894  0.451301  0.403132  1
  Se  Se15  1  0.335712  0.049380  0.903751  1
  Se  Se16  1  0.165490  0.048260  0.403177  1
  Se  Se17  1  0.336384  0.451315  0.903007  1
  Se  Se18  1  0.839190  0.541093  0.597420  1
  Se  Se19  1  0.663806  0.960382  0.097054  1
  Se  Se20  1  0.823275  0.746077  0.314593  1
  Se  Se21  1  0.674442  0.750915  0.812937  1
  Se  Se22  1  0.171886  0.249141  0.682500  1
  Se  Se23  1  0.331045  0.252579  0.184847  1
  Se  Se24  1  0.463026  0.743801  0.496859  1
  Se  Se25  1  0.037417  0.750278  0.000697  1
  Se  Se26  1  0.547309  0.257071  0.496808  1
  Se  Se27  1  0.953406  0.250551  0.000687  1
  Se  Se28  1  0.200205  0.750942  0.716973  1
  Se  Se29  1  0.303708  0.744972  0.218903  1
  Se  Se30  1  0.800151  0.253545  0.287454  1
  Se  Se31  1  0.696223  0.249659  0.787510  1
