# generated using pymatgen
data_Ce2Er3Sn3Au
_symmetry_space_group_name_H-M   'P 1'
_cell_length_a   9.36883800
_cell_length_b   9.36883825
_cell_length_c   6.41060800
_cell_angle_alpha   90.00000000
_cell_angle_beta   90.00000000
_cell_angle_gamma   119.99999912
_symmetry_Int_Tables_number   1
_chemical_formula_structural   Ce2Er3Sn3Au
_chemical_formula_sum   'Ce4 Er6 Sn6 Au2'
_cell_volume   487.30551586
_cell_formula_units_Z   2
loop_
 _symmetry_equiv_pos_site_id
 _symmetry_equiv_pos_as_xyz
  1  'x, y, z'
loop_
 _atom_site_type_symbol
 _atom_site_label
 _atom_site_symmetry_multiplicity
 _atom_site_fract_x
 _atom_site_fract_y
 _atom_site_fract_z
 _atom_site_occupancy
  Ce  Ce0  1  0.333333  0.666667  0.500000  1
  Ce  Ce1  1  0.666667  0.333333  0.500000  1
  Ce  Ce2  1  0.666667  0.333333  0.000000  1
  Ce  Ce3  1  0.333333  0.666667  0.000000  1
  Er  Er4  1  0.271124  0.000000  0.750000  1
  Er  Er5  1  0.728876  0.000000  0.250000  1
  Er  Er6  1  0.000000  0.271124  0.750000  1
  Er  Er7  1  0.000000  0.728876  0.250000  1
  Er  Er8  1  0.728876  0.728876  0.750000  1
  Er  Er9  1  0.271124  0.271124  0.250000  1
  Sn  Sn10  1  0.621279  0.000000  0.750000  1
  Sn  Sn11  1  0.378721  0.000000  0.250000  1
  Sn  Sn12  1  0.000000  0.621279  0.750000  1
  Sn  Sn13  1  0.000000  0.378721  0.250000  1
  Sn  Sn14  1  0.378721  0.378721  0.750000  1
  Sn  Sn15  1  0.621279  0.621279  0.250000  1
  Au  Au16  1  0.000000  0.000000  0.500000  1
  Au  Au17  1  0.000000  0.000000  0.000000  1
