# generated using pymatgen
data_NdTmP7Ru12
_symmetry_space_group_name_H-M   'P 1'
_cell_length_a   9.43588400
_cell_length_b   9.43588328
_cell_length_c   3.96307100
_cell_angle_alpha   90.00000000
_cell_angle_beta   90.00000000
_cell_angle_gamma   120.00000158
_symmetry_Int_Tables_number   1
_chemical_formula_structural   NdTmP7Ru12
_chemical_formula_sum   'Nd1 Tm1 P7 Ru12'
_cell_volume   305.58190308
_cell_formula_units_Z   1
loop_
 _symmetry_equiv_pos_site_id
 _symmetry_equiv_pos_as_xyz
  1  'x, y, z'
loop_
 _atom_site_type_symbol
 _atom_site_label
 _atom_site_symmetry_multiplicity
 _atom_site_fract_x
 _atom_site_fract_y
 _atom_site_fract_z
 _atom_site_occupancy
  Nd  Nd0  1  0.333333  0.666667  0.000000  1
  Tm  Tm1  1  0.666667  0.333333  0.500000  1
  P  P2  1  0.603901  0.718637  0.500000  1
  P  P3  1  0.000000  0.000000  0.000000  1
  P  P4  1  0.281363  0.885263  0.500000  1
  P  P5  1  0.114737  0.396099  0.500000  1
  P  P6  1  0.885588  0.572009  0.000000  1
  P  P7  1  0.427991  0.313579  0.000000  1
  P  P8  1  0.686421  0.114412  0.000000  1
  Ru  Ru9  1  0.559498  0.954891  0.500000  1
  Ru  Ru10  1  0.395395  0.440502  0.500000  1
  Ru  Ru11  1  0.914774  0.120254  0.500000  1
  Ru  Ru12  1  0.205480  0.085226  0.500000  1
  Ru  Ru13  1  0.879746  0.794520  0.500000  1
  Ru  Ru14  1  0.728495  0.892779  0.000000  1
  Ru  Ru15  1  0.107221  0.835715  0.000000  1
  Ru  Ru16  1  0.164285  0.271505  0.000000  1
  Ru  Ru17  1  0.423094  0.068955  0.000000  1
  Ru  Ru18  1  0.931045  0.354141  0.000000  1
  Ru  Ru19  1  0.645859  0.576906  0.000000  1
  Ru  Ru20  1  0.045109  0.604605  0.500000  1
