# generated using pymatgen
data_Tm2Fe3Co(PRh)6
_symmetry_space_group_name_H-M   'P 1'
_cell_length_a   3.79725600
_cell_length_b   10.59914400
_cell_length_c   12.22566000
_cell_angle_alpha   90.00000000
_cell_angle_beta   90.00000000
_cell_angle_gamma   90.00000000
_symmetry_Int_Tables_number   1
_chemical_formula_structural   Tm2Fe3Co(PRh)6
_chemical_formula_sum   'Tm4 Fe6 Co2 P12 Rh12'
_cell_volume   492.05424545
_cell_formula_units_Z   2
loop_
 _symmetry_equiv_pos_site_id
 _symmetry_equiv_pos_as_xyz
  1  'x, y, z'
loop_
 _atom_site_type_symbol
 _atom_site_label
 _atom_site_symmetry_multiplicity
 _atom_site_fract_x
 _atom_site_fract_y
 _atom_site_fract_z
 _atom_site_occupancy
  Tm  Tm0  1  0.250000  0.577188  0.711355  1
  Tm  Tm1  1  0.250000  0.922812  0.211355  1
  Tm  Tm2  1  0.750000  0.419229  0.289258  1
  Tm  Tm3  1  0.750000  0.080771  0.789258  1
  Fe  Fe4  1  0.750000  0.122409  0.301936  1
  Fe  Fe5  1  0.750000  0.377591  0.801936  1
  Fe  Fe6  1  0.250000  0.460664  0.934782  1
  Fe  Fe7  1  0.250000  0.039336  0.434782  1
  Fe  Fe8  1  0.750000  0.541047  0.068065  1
  Fe  Fe9  1  0.750000  0.958953  0.568065  1
  Co  Co10  1  0.250000  0.877921  0.698891  1
  Co  Co11  1  0.250000  0.622079  0.198891  1
  P  P12  1  0.250000  0.438103  0.111755  1
  P  P13  1  0.250000  0.061897  0.611755  1
  P  P14  1  0.750000  0.561054  0.888578  1
  P  P15  1  0.750000  0.938946  0.388578  1
  P  P16  1  0.250000  0.273793  0.864548  1
  P  P17  1  0.250000  0.226207  0.364548  1
  P  P18  1  0.750000  0.730468  0.132719  1
  P  P19  1  0.750000  0.769532  0.632719  1
  P  P20  1  0.250000  0.601225  0.381749  1
  P  P21  1  0.250000  0.898775  0.881749  1
  P  P22  1  0.750000  0.398465  0.620036  1
  P  P23  1  0.750000  0.101535  0.120036  1
  Rh  Rh24  1  0.250000  0.715993  0.993406  1
  Rh  Rh25  1  0.250000  0.784007  0.493406  1
  Rh  Rh26  1  0.750000  0.285454  0.008325  1
  Rh  Rh27  1  0.750000  0.214546  0.508325  1
  Rh  Rh28  1  0.250000  0.407414  0.475335  1
  Rh  Rh29  1  0.250000  0.092586  0.975335  1
  Rh  Rh30  1  0.750000  0.589465  0.521634  1
  Rh  Rh31  1  0.750000  0.910535  0.021634  1
  Rh  Rh32  1  0.250000  0.231392  0.174399  1
  Rh  Rh33  1  0.250000  0.268608  0.674399  1
  Rh  Rh34  1  0.750000  0.769114  0.823227  1
  Rh  Rh35  1  0.750000  0.730886  0.323227  1
