# generated using pymatgen
data_Y4Ga18Ir3RuPt2
_symmetry_space_group_name_H-M   'P 1'
_cell_length_a   7.61231993
_cell_length_b   7.61232416
_cell_length_c   9.49672150
_cell_angle_alpha   90.03231482
_cell_angle_beta   90.03234762
_cell_angle_gamma   119.94087771
_symmetry_Int_Tables_number   1
_chemical_formula_structural   Y4Ga18Ir3RuPt2
_chemical_formula_sum   'Y4 Ga18 Ir3 Ru1 Pt2'
_cell_volume   476.86647267
_cell_formula_units_Z   1
loop_
 _symmetry_equiv_pos_site_id
 _symmetry_equiv_pos_as_xyz
  1  'x, y, z'
loop_
 _atom_site_type_symbol
 _atom_site_label
 _atom_site_symmetry_multiplicity
 _atom_site_fract_x
 _atom_site_fract_y
 _atom_site_fract_z
 _atom_site_occupancy
  Y  Y0  1  0.996294  0.670276  0.249663  1
  Y  Y1  1  0.003674  0.329826  0.750076  1
  Y  Y2  1  0.670174  0.996326  0.249924  1
  Y  Y3  1  0.329723  0.003706  0.750336  1
  Ga  Ga4  1  0.132725  0.133408  0.249940  1
  Ga  Ga5  1  0.866591  0.867274  0.750059  1
  Ga  Ga6  1  0.996351  0.337708  0.080437  1
  Ga  Ga7  1  0.998745  0.659801  0.919679  1
  Ga  Ga8  1  0.000980  0.662536  0.581857  1
  Ga  Ga9  1  0.337464  0.999021  0.418143  1
  Ga  Ga10  1  0.998903  0.337969  0.418505  1
  Ga  Ga11  1  0.662031  0.001097  0.581495  1
  Ga  Ga12  1  0.662290  0.003648  0.919563  1
  Ga  Ga13  1  0.340199  0.001255  0.080321  1
  Ga  Ga14  1  0.336455  0.336656  0.567602  1
  Ga  Ga15  1  0.663345  0.663545  0.432398  1
  Ga  Ga16  1  0.663611  0.660883  0.065883  1
  Ga  Ga17  1  0.339118  0.336389  0.934118  1
  Ga  Ga18  1  0.336671  0.546376  0.249641  1
  Ga  Ga19  1  0.662847  0.451290  0.751998  1
  Ga  Ga20  1  0.548710  0.337153  0.248002  1
  Ga  Ga21  1  0.453625  0.663330  0.750359  1
  Ir  Ir22  1  0.328406  0.671593  0.000000  1
  Ir  Ir23  1  0.328489  0.671511  0.500000  1
  Ir  Ir24  1  0.671056  0.328945  0.500000  1
  Ru  Ru25  1  0.671646  0.328354  0.000000  1
  Pt  Pt26  1  0.999991  0.000009  0.000000  1
  Pt  Pt27  1  0.999887  0.000112  0.500000  1
