# generated using pymatgen
data_DyEr2In3GePt2
_symmetry_space_group_name_H-M   'P 1'
_cell_length_a   7.46141781
_cell_length_b   7.47676653
_cell_length_c   4.12544900
_cell_angle_alpha   90.00000000
_cell_angle_beta   90.00000000
_cell_angle_gamma   120.03144331
_symmetry_Int_Tables_number   1
_chemical_formula_structural   DyEr2In3GePt2
_chemical_formula_sum   'Dy1 Er2 In3 Ge1 Pt2'
_cell_volume   199.25046457
_cell_formula_units_Z   1
loop_
 _symmetry_equiv_pos_site_id
 _symmetry_equiv_pos_as_xyz
  1  'x, y, z'
loop_
 _atom_site_type_symbol
 _atom_site_label
 _atom_site_symmetry_multiplicity
 _atom_site_fract_x
 _atom_site_fract_y
 _atom_site_fract_z
 _atom_site_occupancy
  Dy  Dy0  1  0.597236  0.009208  0.500000  1
  Er  Er1  1  0.412244  0.402008  0.500000  1
  Er  Er2  1  0.989334  0.587774  0.500000  1
  In  In3  1  0.749425  0.742964  0.000000  1
  In  In4  1  0.994130  0.251023  0.000000  1
  In  In5  1  0.256820  0.006494  0.000000  1
  Ge  Ge6  1  0.332565  0.665636  0.000000  1
  Pt  Pt7  1  0.667070  0.334873  0.000000  1
  Pt  Pt8  1  0.001175  0.000021  0.500000  1
