# generated using pymatgen
data_Sm2Si3Rh
_symmetry_space_group_name_H-M   'P 1'
_cell_length_a   8.24200500
_cell_length_b   8.24200464
_cell_length_c   8.20476500
_cell_angle_alpha   90.00000000
_cell_angle_beta   90.00000000
_cell_angle_gamma   120.00000547
_symmetry_Int_Tables_number   1
_chemical_formula_structural   Sm2Si3Rh
_chemical_formula_sum   'Sm8 Si12 Rh4'
_cell_volume   482.68353253
_cell_formula_units_Z   4
loop_
 _symmetry_equiv_pos_site_id
 _symmetry_equiv_pos_as_xyz
  1  'x, y, z'
loop_
 _atom_site_type_symbol
 _atom_site_label
 _atom_site_symmetry_multiplicity
 _atom_site_fract_x
 _atom_site_fract_y
 _atom_site_fract_z
 _atom_site_occupancy
  Sm  Sm0  1  0.000000  0.000000  0.250000  1
  Sm  Sm1  1  0.000000  0.000000  0.750000  1
  Sm  Sm2  1  0.501059  0.498941  0.250000  1
  Sm  Sm3  1  0.501059  0.002119  0.250000  1
  Sm  Sm4  1  0.997881  0.498941  0.250000  1
  Sm  Sm5  1  0.498941  0.501059  0.750000  1
  Sm  Sm6  1  0.498941  0.997881  0.750000  1
  Sm  Sm7  1  0.002119  0.501059  0.750000  1
  Si  Si8  1  0.166301  0.833699  0.500687  1
  Si  Si9  1  0.166301  0.332602  0.500687  1
  Si  Si10  1  0.667398  0.833699  0.500687  1
  Si  Si11  1  0.833699  0.166301  0.499313  1
  Si  Si12  1  0.833699  0.667398  0.499313  1
  Si  Si13  1  0.332602  0.166301  0.499313  1
  Si  Si14  1  0.833699  0.166301  0.000687  1
  Si  Si15  1  0.833699  0.667398  0.000687  1
  Si  Si16  1  0.332602  0.166301  0.000687  1
  Si  Si17  1  0.166301  0.833699  0.999313  1
  Si  Si18  1  0.166301  0.332602  0.999313  1
  Si  Si19  1  0.667398  0.833699  0.999313  1
  Rh  Rh20  1  0.333333  0.666667  0.495430  1
  Rh  Rh21  1  0.666667  0.333333  0.504570  1
  Rh  Rh22  1  0.666667  0.333333  0.995430  1
  Rh  Rh23  1  0.333333  0.666667  0.004570  1
