# generated using pymatgen
data_Li2HoLuAu2
_symmetry_space_group_name_H-M   'P 1'
_cell_length_a   4.07646100
_cell_length_b   7.14163793
_cell_length_c   8.57632600
_cell_angle_alpha   89.37571118
_cell_angle_beta   90.00000000
_cell_angle_gamma   90.00000000
_symmetry_Int_Tables_number   1
_chemical_formula_structural   Li2HoLuAu2
_chemical_formula_sum   'Li4 Ho2 Lu2 Au4'
_cell_volume   249.66440015
_cell_formula_units_Z   2
loop_
 _symmetry_equiv_pos_site_id
 _symmetry_equiv_pos_as_xyz
  1  'x, y, z'
loop_
 _atom_site_type_symbol
 _atom_site_label
 _atom_site_symmetry_multiplicity
 _atom_site_fract_x
 _atom_site_fract_y
 _atom_site_fract_z
 _atom_site_occupancy
  Li  Li0  1  0.250000  0.625947  0.557992  1
  Li  Li1  1  0.750000  0.374053  0.442008  1
  Li  Li2  1  0.750000  0.877961  0.057994  1
  Li  Li3  1  0.250000  0.122039  0.942006  1
  Ho  Ho4  1  0.250000  0.550480  0.179598  1
  Ho  Ho5  1  0.750000  0.449520  0.820402  1
  Lu  Lu6  1  0.750000  0.949956  0.676531  1
  Lu  Lu7  1  0.250000  0.050044  0.323469  1
  Au  Au8  1  0.250000  0.748139  0.871155  1
  Au  Au9  1  0.750000  0.251861  0.128845  1
  Au  Au10  1  0.750000  0.758603  0.375576  1
  Au  Au11  1  0.250000  0.241397  0.624424  1
