# generated using pymatgen
data_Zr6BeAsSe
_symmetry_space_group_name_H-M   'P 1'
_cell_length_a   7.37164000
_cell_length_b   7.37164093
_cell_length_c   3.74464200
_cell_angle_alpha   90.00000000
_cell_angle_beta   90.00000000
_cell_angle_gamma   120.00000482
_symmetry_Int_Tables_number   1
_chemical_formula_structural   Zr6BeAsSe
_chemical_formula_sum   'Zr6 Be1 As1 Se1'
_cell_volume   176.22568409
_cell_formula_units_Z   1
loop_
 _symmetry_equiv_pos_site_id
 _symmetry_equiv_pos_as_xyz
  1  'x, y, z'
loop_
 _atom_site_type_symbol
 _atom_site_label
 _atom_site_symmetry_multiplicity
 _atom_site_fract_x
 _atom_site_fract_y
 _atom_site_fract_z
 _atom_site_occupancy
  Zr  Zr0  1  0.243406  0.002073  0.000000  1
  Zr  Zr1  1  0.758666  0.756594  0.000000  1
  Zr  Zr2  1  0.997927  0.241334  0.000000  1
  Zr  Zr3  1  0.995927  0.586968  0.500000  1
  Zr  Zr4  1  0.413032  0.408959  0.500000  1
  Zr  Zr5  1  0.591041  0.004073  0.500000  1
  Be  Be6  1  0.000000  0.000000  0.500000  1
  As  As7  1  0.666667  0.333333  0.000000  1
  Se  Se8  1  0.333333  0.666667  0.000000  1
