# generated using pymatgen
data_Tm4Lu(OsO6)2
_symmetry_space_group_name_H-M   'P 1'
_cell_length_a   6.77958576
_cell_length_b   6.77958653
_cell_length_c   7.36742517
_cell_angle_alpha   74.01362780
_cell_angle_beta   74.01362475
_cell_angle_gamma   48.82550364
_symmetry_Int_Tables_number   1
_chemical_formula_structural   Tm4Lu(OsO6)2
_chemical_formula_sum   'Tm4 Lu1 Os2 O12'
_cell_volume   242.94994654
_cell_formula_units_Z   1
loop_
 _symmetry_equiv_pos_site_id
 _symmetry_equiv_pos_as_xyz
  1  'x, y, z'
loop_
 _atom_site_type_symbol
 _atom_site_label
 _atom_site_symmetry_multiplicity
 _atom_site_fract_x
 _atom_site_fract_y
 _atom_site_fract_z
 _atom_site_occupancy
  Tm  Tm0  1  0.800005  0.800005  0.359227  1
  Tm  Tm1  1  0.199995  0.199995  0.640773  1
  Tm  Tm2  1  0.187333  0.187333  0.174118  1
  Tm  Tm3  1  0.812667  0.812667  0.825882  1
  Lu  Lu4  1  0.500000  0.500000  0.500000  1
  Os  Os5  1  0.280612  0.719388  0.000000  1
  Os  Os6  1  0.719388  0.280612  0.000000  1
  O  O7  1  0.413577  0.923214  0.911415  1
  O  O8  1  0.076786  0.586423  0.088585  1
  O  O9  1  0.586423  0.076786  0.088585  1
  O  O10  1  0.923214  0.413577  0.911415  1
  O  O11  1  0.599264  0.098156  0.570656  1
  O  O12  1  0.901844  0.400736  0.429344  1
  O  O13  1  0.400736  0.901844  0.429344  1
  O  O14  1  0.000778  0.000778  0.821241  1
  O  O15  1  0.999222  0.999222  0.178759  1
  O  O16  1  0.497738  0.497738  0.793053  1
  O  O17  1  0.502262  0.502262  0.206947  1
  O  O18  1  0.098156  0.599264  0.570656  1
