# generated using pymatgen
data_TiBr23
_symmetry_space_group_name_H-M   'P 1'
_cell_length_a   6.58022328
_cell_length_b   10.85307976
_cell_length_c   17.45629500
_cell_angle_alpha   89.63402097
_cell_angle_beta   90.46346690
_cell_angle_gamma   87.71809821
_symmetry_Int_Tables_number   1
_chemical_formula_structural   TiBr23
_chemical_formula_sum   'Ti1 Br23'
_cell_volume   1245.59591230
_cell_formula_units_Z   1
loop_
 _symmetry_equiv_pos_site_id
 _symmetry_equiv_pos_as_xyz
  1  'x, y, z'
loop_
 _atom_site_type_symbol
 _atom_site_label
 _atom_site_symmetry_multiplicity
 _atom_site_fract_x
 _atom_site_fract_y
 _atom_site_fract_z
 _atom_site_occupancy
  Ti  Ti0  1  0.501959  0.297142  0.424017  1
  Br  Br1  1  0.582265  0.791110  0.319373  1
  Br  Br2  1  0.072650  0.382214  0.126376  1
  Br  Br3  1  0.715216  0.322285  0.529836  1
  Br  Br4  1  0.161747  0.795649  0.511018  1
  Br  Br5  1  0.404278  0.250846  0.109800  1
  Br  Br6  1  0.628906  0.734896  0.885427  1
  Br  Br7  1  0.247113  0.453177  0.420477  1
  Br  Br8  1  0.870454  0.750095  0.401746  1
  Br  Br9  1  0.720463  0.126558  0.069437  1
  Br  Br10  1  0.239529  0.825451  0.194073  1
  Br  Br11  1  0.788848  0.679390  0.663854  1
  Br  Br12  1  0.065360  0.495288  0.687176  1
  Br  Br13  1  0.391493  0.878478  0.804573  1
  Br  Br14  1  0.759065  0.157005  0.845478  1
  Br  Br15  1  0.157120  0.601334  0.158384  1
  Br  Br16  1  0.494262  0.719471  0.568982  1
  Br  Br17  1  0.349920  0.106894  0.432768  1
  Br  Br18  1  0.910673  0.590452  0.939255  1
  Br  Br19  1  0.840278  0.371793  0.891078  1
  Br  Br20  1  0.695076  0.305966  0.312323  1
  Br  Br21  1  0.950824  0.974090  0.144729  1
  Br  Br22  1  0.367194  0.374471  0.720847  1
  Br  Br23  1  0.085306  0.015946  0.838973  1
