# generated using pymatgen
data_Li3Dy4MgPt4
_symmetry_space_group_name_H-M   'P 1'
_cell_length_a   4.02732700
_cell_length_b   7.05738900
_cell_length_c   8.54596911
_cell_angle_alpha   89.96753322
_cell_angle_beta   90.00000000
_cell_angle_gamma   90.00000000
_symmetry_Int_Tables_number   1
_chemical_formula_structural   Li3Dy4MgPt4
_chemical_formula_sum   'Li3 Dy4 Mg1 Pt4'
_cell_volume   242.89702696
_cell_formula_units_Z   1
loop_
 _symmetry_equiv_pos_site_id
 _symmetry_equiv_pos_as_xyz
  1  'x, y, z'
loop_
 _atom_site_type_symbol
 _atom_site_label
 _atom_site_symmetry_multiplicity
 _atom_site_fract_x
 _atom_site_fract_y
 _atom_site_fract_z
 _atom_site_occupancy
  Li  Li0  1  0.250000  0.374075  0.558318  1
  Li  Li1  1  0.250000  0.869311  0.940196  1
  Li  Li2  1  0.750000  0.624880  0.443772  1
  Dy  Dy3  1  0.250000  0.949677  0.324313  1
  Dy  Dy4  1  0.250000  0.456911  0.183273  1
  Dy  Dy5  1  0.750000  0.049269  0.677932  1
  Dy  Dy6  1  0.750000  0.549179  0.817861  1
  Mg  Mg7  1  0.750000  0.125478  0.058405  1
  Pt  Pt8  1  0.250000  0.254759  0.875202  1
  Pt  Pt9  1  0.250000  0.757289  0.625317  1
  Pt  Pt10  1  0.750000  0.744418  0.123959  1
  Pt  Pt11  1  0.750000  0.244752  0.371450  1
