# generated using pymatgen
data_Sr6Dy2CrRhO12
_symmetry_space_group_name_H-M   'P 1'
_cell_length_a   6.85589000
_cell_length_b   6.85588980
_cell_length_c   6.85589021
_cell_angle_alpha   92.18765068
_cell_angle_beta   92.18765251
_cell_angle_gamma   92.18764942
_symmetry_Int_Tables_number   1
_chemical_formula_structural   Sr6Dy2CrRhO12
_chemical_formula_sum   'Sr6 Dy2 Cr1 Rh1 O12'
_cell_volume   321.52588357
_cell_formula_units_Z   1
loop_
 _symmetry_equiv_pos_site_id
 _symmetry_equiv_pos_as_xyz
  1  'x, y, z'
loop_
 _atom_site_type_symbol
 _atom_site_label
 _atom_site_symmetry_multiplicity
 _atom_site_fract_x
 _atom_site_fract_y
 _atom_site_fract_z
 _atom_site_occupancy
  Sr  Sr0  1  0.750831  0.382782  0.118843  1
  Sr  Sr1  1  0.617219  0.881157  0.249169  1
  Sr  Sr2  1  0.118843  0.750832  0.382781  1
  Sr  Sr3  1  0.881157  0.249169  0.617219  1
  Sr  Sr4  1  0.382781  0.118844  0.750831  1
  Sr  Sr5  1  0.249169  0.617218  0.881158  1
  Dy  Dy6  1  0.250696  0.250696  0.250696  1
  Dy  Dy7  1  0.749304  0.749305  0.749304  1
  Cr  Cr8  1  0.000000  0.000000  0.000000  1
  Rh  Rh9  1  0.500000  0.500000  0.500000  1
  O  O10  1  0.911520  0.714262  0.042778  1
  O  O11  1  0.285737  0.957223  0.088481  1
  O  O12  1  0.410417  0.543796  0.207426  1
  O  O13  1  0.957223  0.088481  0.285737  1
  O  O14  1  0.543795  0.207426  0.410417  1
  O  O15  1  0.792575  0.589583  0.456205  1
  O  O16  1  0.207425  0.410417  0.543795  1
  O  O17  1  0.456205  0.792574  0.589584  1
  O  O18  1  0.042778  0.911519  0.714263  1
  O  O19  1  0.589583  0.456205  0.792574  1
  O  O20  1  0.714263  0.042778  0.911520  1
  O  O21  1  0.088480  0.285738  0.957222  1
