# generated using pymatgen
data_HoIn3B4Ir9Pb
_symmetry_space_group_name_H-M   'P 1'
_cell_length_a   5.64727500
_cell_length_b   5.64727422
_cell_length_c   10.46077100
_cell_angle_alpha   90.00000000
_cell_angle_beta   90.00000000
_cell_angle_gamma   119.99999871
_symmetry_Int_Tables_number   1
_chemical_formula_structural   HoIn3B4Ir9Pb
_chemical_formula_sum   'Ho1 In3 B4 Ir9 Pb1'
_cell_volume   288.91636731
_cell_formula_units_Z   1
loop_
 _symmetry_equiv_pos_site_id
 _symmetry_equiv_pos_as_xyz
  1  'x, y, z'
loop_
 _atom_site_type_symbol
 _atom_site_label
 _atom_site_symmetry_multiplicity
 _atom_site_fract_x
 _atom_site_fract_y
 _atom_site_fract_z
 _atom_site_occupancy
  Ho  Ho0  1  0.000000  0.000000  0.915287  1
  In  In1  1  0.666667  0.333333  0.507512  1
  In  In2  1  0.000000  0.000000  0.319760  1
  In  In3  1  0.333333  0.666667  0.507512  1
  B  B4  1  0.666667  0.333333  0.155006  1
  B  B5  1  0.333333  0.666667  0.865705  1
  B  B6  1  0.666667  0.333333  0.865705  1
  B  B7  1  0.333333  0.666667  0.155006  1
  Ir  Ir8  1  0.000000  0.501980  0.281955  1
  Ir  Ir9  1  0.471084  0.000000  0.736836  1
  Ir  Ir10  1  0.501980  0.000000  0.281955  1
  Ir  Ir11  1  0.000000  0.496063  0.011978  1
  Ir  Ir12  1  0.528916  0.528916  0.736836  1
  Ir  Ir13  1  0.000000  0.471084  0.736836  1
  Ir  Ir14  1  0.503937  0.503937  0.011978  1
  Ir  Ir15  1  0.496063  0.000000  0.011978  1
  Ir  Ir16  1  0.498020  0.498020  0.281955  1
  Pb  Pb17  1  0.000000  0.000000  0.616202  1
