# generated using pymatgen
data_NaW(SO4)3
_symmetry_space_group_name_H-M   'P 1'
_cell_length_a   8.60544360
_cell_length_b   9.41757415
_cell_length_c   8.71093155
_cell_angle_alpha   109.96167680
_cell_angle_beta   105.32656935
_cell_angle_gamma   110.96134270
_symmetry_Int_Tables_number   1
_chemical_formula_structural   NaW(SO4)3
_chemical_formula_sum   'Na2 W2 S6 O24'
_cell_volume   556.33895431
_cell_formula_units_Z   2
loop_
 _symmetry_equiv_pos_site_id
 _symmetry_equiv_pos_as_xyz
  1  'x, y, z'
loop_
 _atom_site_type_symbol
 _atom_site_label
 _atom_site_symmetry_multiplicity
 _atom_site_fract_x
 _atom_site_fract_y
 _atom_site_fract_z
 _atom_site_occupancy
  Na  Na0  1  0.850870  0.453599  0.234252  1
  Na  Na1  1  0.748184  0.136075  0.591056  1
  W  W2  1  0.012499  0.985281  0.998981  1
  W  W3  1  0.492848  0.503567  0.502893  1
  S  S4  1  0.555498  0.888830  0.767436  1
  S  S5  1  0.201220  0.411057  0.097726  1
  S  S6  1  0.094538  0.202269  0.448938  1
  S  S7  1  0.898455  0.796521  0.552949  1
  S  S8  1  0.774057  0.561489  0.891387  1
  S  S9  1  0.478148  0.135112  0.249988  1
  O  O10  1  0.023484  0.889460  0.757486  1
  O  O11  1  0.275362  0.042123  0.108578  1
  O  O12  1  0.997429  0.745573  0.456593  1
  O  O13  1  0.509687  0.013776  0.299328  1
  O  O14  1  0.104017  0.473510  0.190459  1
  O  O15  1  0.431040  0.838337  0.843029  1
  O  O16  1  0.493713  0.728633  0.581049  1
  O  O17  1  0.239040  0.463066  0.970430  1
  O  O18  1  0.246336  0.379847  0.480734  1
  O  O19  1  0.080092  0.204620  0.992980  1
  O  O20  1  0.380390  0.440656  0.236418  1
  O  O21  1  0.812547  0.892278  0.509273  1
  O  O22  1  0.184364  0.135623  0.543706  1
  O  O23  1  0.609223  0.562782  0.767356  1
  O  O24  1  0.933522  0.755887  0.986208  1
  O  O25  1  0.741817  0.619542  0.519160  1
  O  O26  1  0.731138  0.533053  0.030331  1
  O  O27  1  0.494554  0.276284  0.422742  1
  O  O28  1  0.594813  0.220662  0.181588  1
  O  O29  1  0.830790  0.452607  0.787259  1
  O  O30  1  0.584034  0.033583  0.733502  1
  O  O31  1  0.958560  0.241297  0.489315  1
  O  O32  1  0.749113  0.925810  0.887817  1
  O  O33  1  0.007910  0.085682  0.241272  1
