# generated using pymatgen
data_Nd4Br5N
_symmetry_space_group_name_H-M   'P 1'
_cell_length_a   9.29437880
_cell_length_b   9.29437774
_cell_length_c   8.43114733
_cell_angle_alpha   102.95520750
_cell_angle_beta   102.95520581
_cell_angle_gamma   23.87615489
_symmetry_Int_Tables_number   1
_chemical_formula_structural   Nd4Br5N
_chemical_formula_sum   'Nd4 Br5 N1'
_cell_volume   286.95511609
_cell_formula_units_Z   1
loop_
 _symmetry_equiv_pos_site_id
 _symmetry_equiv_pos_as_xyz
  1  'x, y, z'
loop_
 _atom_site_type_symbol
 _atom_site_label
 _atom_site_symmetry_multiplicity
 _atom_site_fract_x
 _atom_site_fract_y
 _atom_site_fract_z
 _atom_site_occupancy
  Nd  Nd0  1  0.640322  0.640322  0.071827  1
  Nd  Nd1  1  0.998619  0.998619  0.203382  1
  Nd  Nd2  1  0.001381  0.001381  0.796618  1
  Nd  Nd3  1  0.359678  0.359678  0.928173  1
  Br  Br4  1  0.829626  0.829626  0.179386  1
  Br  Br5  1  0.163145  0.163145  0.345053  1
  Br  Br6  1  0.500000  0.500000  0.500000  1
  Br  Br7  1  0.836855  0.836855  0.654947  1
  Br  Br8  1  0.170374  0.170374  0.820614  1
  N  N9  1  0.500000  0.500000  0.000000  1
