# generated using pymatgen
data_Ba4Na2PtAu3
_symmetry_space_group_name_H-M   'P 1'
_cell_length_a   8.71500803
_cell_length_b   8.71500780
_cell_length_c   4.47265300
_cell_angle_alpha   90.00000000
_cell_angle_beta   90.00000000
_cell_angle_gamma   90.63220464
_symmetry_Int_Tables_number   1
_chemical_formula_structural   Ba4Na2PtAu3
_chemical_formula_sum   'Ba4 Na2 Pt1 Au3'
_cell_volume   339.68341223
_cell_formula_units_Z   1
loop_
 _symmetry_equiv_pos_site_id
 _symmetry_equiv_pos_as_xyz
  1  'x, y, z'
loop_
 _atom_site_type_symbol
 _atom_site_label
 _atom_site_symmetry_multiplicity
 _atom_site_fract_x
 _atom_site_fract_y
 _atom_site_fract_z
 _atom_site_occupancy
  Ba  Ba0  1  0.668738  0.168738  0.500000  1
  Ba  Ba1  1  0.317873  0.817873  0.500000  1
  Ba  Ba2  1  0.171595  0.343809  0.500000  1
  Ba  Ba3  1  0.843809  0.671595  0.500000  1
  Na  Na4  1  0.001542  0.999747  0.000000  1
  Na  Na5  1  0.499747  0.501542  0.000000  1
  Pt  Pt6  1  0.122177  0.622177  0.000000  1
  Au  Au7  1  0.876656  0.376656  0.000000  1
  Au  Au8  1  0.623380  0.874483  0.000000  1
  Au  Au9  1  0.374483  0.123380  0.000000  1
