# generated using pymatgen
data_Tm29S32
_symmetry_space_group_name_H-M   'P 1'
_cell_length_a   13.37849490
_cell_length_b   13.37849514
_cell_length_c   13.37849500
_cell_angle_alpha   131.84886505
_cell_angle_beta   131.84886598
_cell_angle_gamma   70.46783105
_symmetry_Int_Tables_number   1
_chemical_formula_structural   Tm29S32
_chemical_formula_sum   'Tm29 S32'
_cell_volume   1301.95041385
_cell_formula_units_Z   1
loop_
 _symmetry_equiv_pos_site_id
 _symmetry_equiv_pos_as_xyz
  1  'x, y, z'
loop_
 _atom_site_type_symbol
 _atom_site_label
 _atom_site_symmetry_multiplicity
 _atom_site_fract_x
 _atom_site_fract_y
 _atom_site_fract_z
 _atom_site_occupancy
  Tm  Tm0  1  0.125142  0.874694  0.749517  1
  Tm  Tm1  1  0.374657  0.622816  0.248183  1
  Tm  Tm2  1  0.625343  0.377184  0.751817  1
  Tm  Tm3  1  0.874858  0.125306  0.250483  1
  Tm  Tm4  1  0.748919  0.748919  0.497841  1
  Tm  Tm5  1  0.000000  0.500000  0.000000  1
  Tm  Tm6  1  0.251081  0.251081  0.502159  1
  Tm  Tm7  1  0.500000  0.000000  0.000000  1
  Tm  Tm8  1  0.874691  0.125142  0.749520  1
  Tm  Tm9  1  0.125309  0.874858  0.250480  1
  Tm  Tm10  1  0.377181  0.625343  0.751817  1
  Tm  Tm11  1  0.622819  0.374657  0.248183  1
  Tm  Tm12  1  0.625370  0.873523  0.248187  1
  Tm  Tm13  1  0.874819  0.624360  0.749509  1
  Tm  Tm14  1  0.125181  0.375640  0.250491  1
  Tm  Tm15  1  0.374630  0.126477  0.751813  1
  Tm  Tm16  1  0.000000  0.000000  0.500000  1
  Tm  Tm17  1  0.251064  0.748927  0.999994  1
  Tm  Tm18  1  0.500000  0.500000  0.500000  1
  Tm  Tm19  1  0.748936  0.251073  0.000006  1
  Tm  Tm20  1  0.126475  0.374637  0.751816  1
  Tm  Tm21  1  0.375640  0.125179  0.250492  1
  Tm  Tm22  1  0.624360  0.874821  0.749508  1
  Tm  Tm23  1  0.873525  0.625363  0.248184  1
  Tm  Tm24  1  0.500000  0.000000  0.500000  1
  Tm  Tm25  1  0.751151  0.751148  0.000001  1
  Tm  Tm26  1  0.000000  0.500000  0.500000  1
  Tm  Tm27  1  0.248849  0.248852  0.999999  1
  Tm  Tm28  1  0.000000  0.000000  0.000000  1
  S  S29  1  0.874988  0.874977  0.499882  1
  S  S30  1  0.124994  0.624888  0.999975  1
  S  S31  1  0.375099  0.375105  0.500121  1
  S  S32  1  0.624901  0.125006  0.999990  1
  S  S33  1  0.125012  0.125023  0.500118  1
  S  S34  1  0.375099  0.874994  0.000010  1
  S  S35  1  0.624901  0.624895  0.499879  1
  S  S36  1  0.875006  0.375112  0.000025  1
  S  S37  1  0.749181  0.999999  0.749180  1
  S  S38  1  0.000276  0.749938  0.250335  1
  S  S39  1  0.250641  0.500005  0.750646  1
  S  S40  1  0.500406  0.250067  0.250343  1
  S  S41  1  0.375030  0.875041  0.499989  1
  S  S42  1  0.626083  0.626081  0.999999  1
  S  S43  1  0.875056  0.375049  0.499999  1
  S  S44  1  0.124633  0.124636  0.000008  1
  S  S45  1  0.500009  0.250666  0.750674  1
  S  S46  1  0.749947  0.000282  0.250351  1
  S  S47  1  0.999994  0.749173  0.749169  1
  S  S48  1  0.250062  0.500411  0.250343  1
  S  S49  1  0.250819  0.000001  0.250820  1
  S  S50  1  0.499594  0.749933  0.749657  1
  S  S51  1  0.749359  0.499995  0.249354  1
  S  S52  1  0.999724  0.250062  0.749665  1
  S  S53  1  0.624970  0.124959  0.500011  1
  S  S54  1  0.875367  0.875364  0.999992  1
  S  S55  1  0.124944  0.624951  0.500001  1
  S  S56  1  0.373917  0.373919  0.000001  1
  S  S57  1  0.499991  0.749334  0.249326  1
  S  S58  1  0.749938  0.499589  0.749657  1
  S  S59  1  0.000006  0.250827  0.250831  1
  S  S60  1  0.250053  0.999718  0.749649  1
