# generated using pymatgen
data_CsK10Rb(AlTe3)4
_symmetry_space_group_name_H-M   'P 1'
_cell_length_a   14.55763318
_cell_length_b   8.80668477
_cell_length_c   11.25502890
_cell_angle_alpha   52.83997314
_cell_angle_beta   89.29982294
_cell_angle_gamma   89.29290278
_symmetry_Int_Tables_number   1
_chemical_formula_structural   CsK10Rb(AlTe3)4
_chemical_formula_sum   'Cs1 K10 Rb1 Al4 Te12'
_cell_volume   1149.84925181
_cell_formula_units_Z   1
loop_
 _symmetry_equiv_pos_site_id
 _symmetry_equiv_pos_as_xyz
  1  'x, y, z'
loop_
 _atom_site_type_symbol
 _atom_site_label
 _atom_site_symmetry_multiplicity
 _atom_site_fract_x
 _atom_site_fract_y
 _atom_site_fract_z
 _atom_site_occupancy
  Cs  Cs0  1  0.689250  0.835340  0.936318  1
  K  K1  1  0.815137  0.845612  0.434754  1
  K  K2  1  0.895385  0.315501  0.403446  1
  K  K3  1  0.614066  0.359590  0.474137  1
  K  K4  1  0.108949  0.640321  0.024413  1
  K  K5  1  0.385652  0.640774  0.525691  1
  K  K6  1  0.891341  0.359486  0.975645  1
  K  K7  1  0.611594  0.301972  0.910862  1
  K  K8  1  0.104770  0.684360  0.596572  1
  K  K9  1  0.387971  0.698144  0.089251  1
  K  K10  1  0.185070  0.154261  0.565322  1
  Rb  Rb11  1  0.309936  0.164143  0.064873  1
  Al  Al12  1  0.066614  0.943237  0.159503  1
  Al  Al13  1  0.566400  0.042126  0.346154  1
  Al  Al14  1  0.432830  0.957221  0.653840  1
  Al  Al15  1  0.934287  0.057827  0.840225  1
  Te  Te16  1  0.409132  0.197491  0.355696  1
  Te  Te17  1  0.903416  0.822646  0.139921  1
  Te  Te18  1  0.589813  0.801684  0.642903  1
  Te  Te19  1  0.097672  0.177853  0.860468  1
  Te  Te20  1  0.699578  0.293035  0.213034  1
  Te  Te21  1  0.190132  0.669530  0.303388  1
  Te  Te22  1  0.300859  0.702111  0.789435  1
  Te  Te23  1  0.811447  0.333953  0.695005  1
  Te  Te24  1  0.548288  0.854989  0.236272  1
  Te  Te25  1  0.055297  0.138975  0.264343  1
  Te  Te26  1  0.449842  0.145971  0.763176  1
  Te  Te27  1  0.945271  0.861849  0.735354  1
