# generated using pymatgen
data_Be17(NbCo)6
_symmetry_space_group_name_H-M   'P 1'
_cell_length_a   7.53466021
_cell_length_b   7.51451223
_cell_length_c   7.51451100
_cell_angle_alpha   60.00000102
_cell_angle_beta   60.08841819
_cell_angle_gamma   60.08841729
_symmetry_Int_Tables_number   1
_chemical_formula_structural   Be17(NbCo)6
_chemical_formula_sum   'Be17 Nb6 Co6'
_cell_volume   301.25156559
_cell_formula_units_Z   1
loop_
 _symmetry_equiv_pos_site_id
 _symmetry_equiv_pos_as_xyz
  1  'x, y, z'
loop_
 _atom_site_type_symbol
 _atom_site_label
 _atom_site_symmetry_multiplicity
 _atom_site_fract_x
 _atom_site_fract_y
 _atom_site_fract_z
 _atom_site_occupancy
  Be  Be0  1  0.324878  0.326223  0.326223  1
  Be  Be1  1  0.675122  0.673777  0.673777  1
  Be  Be2  1  0.324878  0.326223  0.022676  1
  Be  Be3  1  0.324878  0.022676  0.326223  1
  Be  Be4  1  0.675122  0.673777  0.977324  1
  Be  Be5  1  0.675122  0.977324  0.673777  1
  Be  Be6  1  0.028344  0.323886  0.323886  1
  Be  Be7  1  0.971656  0.676114  0.676114  1
  Be  Be8  1  0.500000  0.000000  0.000000  1
  Be  Be9  1  0.000000  0.500000  0.500000  1
  Be  Be10  1  0.000000  0.500000  0.000000  1
  Be  Be11  1  0.500000  0.000000  0.500000  1
  Be  Be12  1  0.000000  0.000000  0.500000  1
  Be  Be13  1  0.500000  0.500000  0.000000  1
  Be  Be14  1  0.000000  0.000000  0.000000  1
  Be  Be15  1  0.635619  0.121460  0.121460  1
  Be  Be16  1  0.364381  0.878540  0.878540  1
  Nb  Nb17  1  0.712558  0.293264  0.293264  1
  Nb  Nb18  1  0.287442  0.706736  0.706736  1
  Nb  Nb19  1  0.287442  0.706736  0.299086  1
  Nb  Nb20  1  0.712558  0.293264  0.700914  1
  Nb  Nb21  1  0.287442  0.299086  0.706736  1
  Nb  Nb22  1  0.712558  0.700914  0.293264  1
  Co  Co23  1  0.127123  0.118724  0.118724  1
  Co  Co24  1  0.872877  0.881276  0.881276  1
  Co  Co25  1  0.127123  0.118724  0.635429  1
  Co  Co26  1  0.127123  0.635429  0.118724  1
  Co  Co27  1  0.872877  0.881276  0.364571  1
  Co  Co28  1  0.872877  0.364571  0.881276  1
