# generated using pymatgen
data_Gd2ErIn5
_symmetry_space_group_name_H-M   'P 1'
_cell_length_a   6.55573300
_cell_length_b   10.46737300
_cell_length_c   12.33856600
_cell_angle_alpha   90.00000000
_cell_angle_beta   90.00000000
_cell_angle_gamma   90.00000000
_symmetry_Int_Tables_number   1
_chemical_formula_structural   Gd2ErIn5
_chemical_formula_sum   'Gd8 Er4 In20'
_cell_volume   846.68847113
_cell_formula_units_Z   4
loop_
 _symmetry_equiv_pos_site_id
 _symmetry_equiv_pos_as_xyz
  1  'x, y, z'
loop_
 _atom_site_type_symbol
 _atom_site_label
 _atom_site_symmetry_multiplicity
 _atom_site_fract_x
 _atom_site_fract_y
 _atom_site_fract_z
 _atom_site_occupancy
  Gd  Gd0  1  0.890341  0.493160  0.142273  1
  Gd  Gd1  1  0.609659  0.006840  0.642273  1
  Gd  Gd2  1  0.109659  0.993160  0.857727  1
  Gd  Gd3  1  0.390341  0.506840  0.357727  1
  Gd  Gd4  1  0.109659  0.506840  0.857727  1
  Gd  Gd5  1  0.390341  0.993160  0.357727  1
  Gd  Gd6  1  0.890341  0.006840  0.142273  1
  Gd  Gd7  1  0.609659  0.493160  0.642273  1
  Er  Er8  1  0.350486  0.750000  0.056228  1
  Er  Er9  1  0.149514  0.750000  0.556228  1
  Er  Er10  1  0.649514  0.250000  0.943772  1
  Er  Er11  1  0.850486  0.250000  0.443772  1
  In  In12  1  0.616002  0.750000  0.504485  1
  In  In13  1  0.883998  0.750000  0.004485  1
  In  In14  1  0.383998  0.250000  0.495515  1
  In  In15  1  0.116002  0.250000  0.995515  1
  In  In16  1  0.651115  0.750000  0.245312  1
  In  In17  1  0.848885  0.750000  0.745312  1
  In  In18  1  0.348885  0.250000  0.754688  1
  In  In19  1  0.151115  0.250000  0.254688  1
  In  In20  1  0.123847  0.750000  0.284272  1
  In  In21  1  0.376153  0.750000  0.784272  1
  In  In22  1  0.876153  0.250000  0.715728  1
  In  In23  1  0.623847  0.250000  0.215728  1
  In  In24  1  0.875414  0.544074  0.401605  1
  In  In25  1  0.624586  0.955926  0.901605  1
  In  In26  1  0.124586  0.044074  0.598395  1
  In  In27  1  0.375414  0.455926  0.098395  1
  In  In28  1  0.124586  0.455926  0.598395  1
  In  In29  1  0.375414  0.044074  0.098395  1
  In  In30  1  0.875414  0.955926  0.401605  1
  In  In31  1  0.624586  0.544074  0.901605  1
