# generated using pymatgen
data_HoErTm(CdGa)3
_symmetry_space_group_name_H-M   'P 1'
_cell_length_a   7.22235103
_cell_length_b   7.22878963
_cell_length_c   4.38658800
_cell_angle_alpha   90.00000000
_cell_angle_beta   90.00000000
_cell_angle_gamma   119.90149482
_symmetry_Int_Tables_number   1
_chemical_formula_structural   HoErTm(CdGa)3
_chemical_formula_sum   'Ho1 Er1 Tm1 Cd3 Ga3'
_cell_volume   198.53262461
_cell_formula_units_Z   1
loop_
 _symmetry_equiv_pos_site_id
 _symmetry_equiv_pos_as_xyz
  1  'x, y, z'
loop_
 _atom_site_type_symbol
 _atom_site_label
 _atom_site_symmetry_multiplicity
 _atom_site_fract_x
 _atom_site_fract_y
 _atom_site_fract_z
 _atom_site_occupancy
  Ho  Ho0  1  0.575041  0.999885  0.500000  1
  Er  Er1  1  0.999753  0.575165  0.500000  1
  Tm  Tm2  1  0.424624  0.424768  0.500000  1
  Cd  Cd3  1  0.751207  0.751043  0.000000  1
  Cd  Cd4  1  0.248406  0.000078  0.000000  1
  Cd  Cd5  1  0.000243  0.248735  0.000000  1
  Ga  Ga6  1  0.666716  0.334097  0.000000  1
  Ga  Ga7  1  0.333292  0.665950  0.000000  1
  Ga  Ga8  1  0.000718  0.000282  0.500000  1
