# generated using pymatgen
data_YbYAlNi7B2
_symmetry_space_group_name_H-M   'P 1'
_cell_length_a   5.06303300
_cell_length_b   5.06303258
_cell_length_c   6.80917900
_cell_angle_alpha   90.00000000
_cell_angle_beta   90.00000000
_cell_angle_gamma   119.99999622
_symmetry_Int_Tables_number   1
_chemical_formula_structural   YbYAlNi7B2
_chemical_formula_sum   'Yb1 Y1 Al1 Ni7 B2'
_cell_volume   151.16347924
_cell_formula_units_Z   1
loop_
 _symmetry_equiv_pos_site_id
 _symmetry_equiv_pos_as_xyz
  1  'x, y, z'
loop_
 _atom_site_type_symbol
 _atom_site_label
 _atom_site_symmetry_multiplicity
 _atom_site_fract_x
 _atom_site_fract_y
 _atom_site_fract_z
 _atom_site_occupancy
  Yb  Yb0  1  0.000000  0.000000  0.000000  1
  Y  Y1  1  0.000000  0.000000  0.500000  1
  Al  Al2  1  0.666667  0.333333  0.500000  1
  Ni  Ni3  1  0.333333  0.666667  0.500000  1
  Ni  Ni4  1  0.499451  0.500549  0.797929  1
  Ni  Ni5  1  0.499451  0.998900  0.797929  1
  Ni  Ni6  1  0.001100  0.500549  0.797929  1
  Ni  Ni7  1  0.499451  0.500549  0.202071  1
  Ni  Ni8  1  0.499451  0.998900  0.202071  1
  Ni  Ni9  1  0.001100  0.500549  0.202071  1
  B  B10  1  0.666667  0.333333  0.000000  1
  B  B11  1  0.333333  0.666667  0.000000  1
