# generated using pymatgen
data_Dy8MgSc(SiB4)4
_symmetry_space_group_name_H-M   'P 1'
_cell_length_a   7.16645100
_cell_length_b   7.16645100
_cell_length_c   7.91439500
_cell_angle_alpha   90.00000000
_cell_angle_beta   90.00000000
_cell_angle_gamma   90.00000000
_symmetry_Int_Tables_number   1
_chemical_formula_structural   Dy8MgSc(SiB4)4
_chemical_formula_sum   'Dy8 Mg1 Sc1 Si4 B16'
_cell_volume   406.46765619
_cell_formula_units_Z   1
loop_
 _symmetry_equiv_pos_site_id
 _symmetry_equiv_pos_as_xyz
  1  'x, y, z'
loop_
 _atom_site_type_symbol
 _atom_site_label
 _atom_site_symmetry_multiplicity
 _atom_site_fract_x
 _atom_site_fract_y
 _atom_site_fract_z
 _atom_site_occupancy
  Dy  Dy0  1  0.680995  0.181618  0.230840  1
  Dy  Dy1  1  0.319005  0.818382  0.769160  1
  Dy  Dy2  1  0.319005  0.818382  0.230840  1
  Dy  Dy3  1  0.818382  0.680995  0.230840  1
  Dy  Dy4  1  0.818382  0.680995  0.769160  1
  Dy  Dy5  1  0.680995  0.181618  0.769160  1
  Dy  Dy6  1  0.181618  0.319005  0.769160  1
  Dy  Dy7  1  0.181618  0.319005  0.230840  1
  Mg  Mg8  1  0.500000  0.500000  0.500000  1
  Sc  Sc9  1  0.000000  0.000000  0.500000  1
  Si  Si10  1  0.112205  0.620663  0.500000  1
  Si  Si11  1  0.887795  0.379337  0.500000  1
  Si  Si12  1  0.379337  0.112205  0.500000  1
  Si  Si13  1  0.620663  0.887795  0.500000  1
  B  B14  1  0.173110  0.039537  0.000000  1
  B  B15  1  0.826890  0.960463  0.000000  1
  B  B16  1  0.960463  0.173110  0.000000  1
  B  B17  1  0.325622  0.538542  0.000000  1
  B  B18  1  0.039537  0.826890  0.000000  1
  B  B19  1  0.674378  0.461458  0.000000  1
  B  B20  1  0.538542  0.674378  0.000000  1
  B  B21  1  0.461458  0.325622  0.000000  1
  B  B22  1  0.088444  0.589280  0.000000  1
  B  B23  1  0.911556  0.410720  0.000000  1
  B  B24  1  0.410720  0.088444  0.000000  1
  B  B25  1  0.589280  0.911556  0.000000  1
  B  B26  1  0.000000  0.000000  0.165521  1
  B  B27  1  0.000000  0.000000  0.834479  1
  B  B28  1  0.500000  0.500000  0.839564  1
  B  B29  1  0.500000  0.500000  0.160436  1
