# generated using pymatgen
data_Ho5Er(BO3)6
_symmetry_space_group_name_H-M   'P 1'
_cell_length_a   6.55131481
_cell_length_b   6.55354705
_cell_length_c   9.59862966
_cell_angle_alpha   70.39945494
_cell_angle_beta   70.40316315
_cell_angle_gamma   60.06811202
_symmetry_Int_Tables_number   1
_chemical_formula_structural   Ho5Er(BO3)6
_chemical_formula_sum   'Ho5 Er1 B6 O18'
_cell_volume   329.24638605
_cell_formula_units_Z   1
loop_
 _symmetry_equiv_pos_site_id
 _symmetry_equiv_pos_as_xyz
  1  'x, y, z'
loop_
 _atom_site_type_symbol
 _atom_site_label
 _atom_site_symmetry_multiplicity
 _atom_site_fract_x
 _atom_site_fract_y
 _atom_site_fract_z
 _atom_site_occupancy
  Ho  Ho0  1  0.000030  0.499979  0.500005  1
  Ho  Ho1  1  0.500008  0.000018  0.999932  1
  Ho  Ho2  1  0.170747  0.657697  0.999381  1
  Ho  Ho3  1  0.342516  0.829159  0.500630  1
  Ho  Ho4  1  0.829226  0.342281  0.000697  1
  Er  Er5  1  0.657550  0.170823  0.499392  1
  B  B6  1  0.917621  0.842438  0.746455  1
  B  B7  1  0.158285  0.082224  0.753153  1
  B  B8  1  0.081813  0.157839  0.253542  1
  B  B9  1  0.842004  0.918043  0.246889  1
  B  B10  1  0.675784  0.324084  0.749797  1
  B  B11  1  0.324556  0.675346  0.250164  1
  O  O12  1  0.965615  0.782819  0.602069  1
  O  O13  1  0.217928  0.033803  0.897617  1
  O  O14  1  0.033056  0.217840  0.397923  1
  O  O15  1  0.782182  0.966206  0.102480  1
  O  O16  1  0.870074  0.684385  0.888632  1
  O  O17  1  0.316710  0.129963  0.611130  1
  O  O18  1  0.129832  0.315669  0.111364  1
  O  O19  1  0.683993  0.870633  0.389038  1
  O  O20  1  0.517554  0.385564  0.892197  1
  O  O21  1  0.614304  0.482133  0.607419  1
  O  O22  1  0.482625  0.614278  0.107699  1
  O  O23  1  0.386550  0.516479  0.392395  1
  O  O24  1  0.916864  0.300631  0.751808  1
  O  O25  1  0.699099  0.083497  0.747556  1
  O  O26  1  0.083320  0.699277  0.248209  1
  O  O27  1  0.300654  0.916542  0.252066  1
  O  O28  1  0.135677  0.864555  0.749858  1
  O  O29  1  0.863821  0.135796  0.250503  1
