# generated using pymatgen
data_HoEr23Ru14
_symmetry_space_group_name_H-M   'P 1'
_cell_length_a   11.21000329
_cell_length_b   8.30774090
_cell_length_c   11.15381499
_cell_angle_alpha   56.50607516
_cell_angle_beta   89.99643376
_cell_angle_gamma   90.02660704
_symmetry_Int_Tables_number   1
_chemical_formula_structural   HoEr23Ru14
_chemical_formula_sum   'Ho1 Er23 Ru14'
_cell_volume   866.26168759
_cell_formula_units_Z   1
loop_
 _symmetry_equiv_pos_site_id
 _symmetry_equiv_pos_as_xyz
  1  'x, y, z'
loop_
 _atom_site_type_symbol
 _atom_site_label
 _atom_site_symmetry_multiplicity
 _atom_site_fract_x
 _atom_site_fract_y
 _atom_site_fract_z
 _atom_site_occupancy
  Ho  Ho0  1  0.705479  0.241845  0.531593  1
  Er  Er1  1  0.205794  0.757656  0.968716  1
  Er  Er2  1  0.844695  0.507410  0.655329  1
  Er  Er3  1  0.344554  0.492580  0.844740  1
  Er  Er4  1  0.155485  0.492206  0.344964  1
  Er  Er5  1  0.655408  0.507913  0.154866  1
  Er  Er6  1  0.006797  0.851733  0.362025  1
  Er  Er7  1  0.506748  0.148296  0.137972  1
  Er  Er8  1  0.993344  0.148517  0.637996  1
  Er  Er9  1  0.493235  0.851640  0.862001  1
  Er  Er10  1  0.794153  0.241952  0.031348  1
  Er  Er11  1  0.294239  0.757815  0.468854  1
  Er  Er12  1  0.931159  0.777134  0.090277  1
  Er  Er13  1  0.430776  0.223098  0.409440  1
  Er  Er14  1  0.068637  0.223013  0.909602  1
  Er  Er15  1  0.568639  0.776807  0.590479  1
  Er  Er16  1  0.301478  0.241680  0.674838  1
  Er  Er17  1  0.801741  0.758007  0.825449  1
  Er  Er18  1  0.698505  0.758490  0.324937  1
  Er  Er19  1  0.198396  0.241799  0.174795  1
  Er  Er20  1  0.925609  0.279641  0.293367  1
  Er  Er21  1  0.425605  0.720566  0.206467  1
  Er  Er22  1  0.074763  0.720682  0.706524  1
  Er  Er23  1  0.574638  0.279411  0.793720  1
  Ru  Ru24  1  0.499446  0.500647  0.499942  1
  Ru  Ru25  1  0.000004  0.499757  0.000035  1
  Ru  Ru26  1  0.648100  0.923488  0.033350  1
  Ru  Ru27  1  0.148279  0.076650  0.466495  1
  Ru  Ru28  1  0.351725  0.076386  0.966779  1
  Ru  Ru29  1  0.851814  0.923096  0.533486  1
  Ru  Ru30  1  0.398299  0.484741  0.103416  1
  Ru  Ru31  1  0.898472  0.515501  0.396446  1
  Ru  Ru32  1  0.601573  0.515229  0.896771  1
  Ru  Ru33  1  0.101781  0.484908  0.603258  1
  Ru  Ru34  1  0.820833  0.099117  0.848581  1
  Ru  Ru35  1  0.320667  0.900940  0.651531  1
  Ru  Ru36  1  0.179448  0.900901  0.151386  1
  Ru  Ru37  1  0.679679  0.098744  0.348223  1
