# generated using pymatgen
data_Ho3Er3Th2(CdIr)2
_symmetry_space_group_name_H-M   'P 1'
_cell_length_a   9.70865760
_cell_length_b   9.70865790
_cell_length_c   9.70865700
_cell_angle_alpha   59.99999967
_cell_angle_beta   59.99999863
_cell_angle_gamma   60.00000013
_symmetry_Int_Tables_number   1
_chemical_formula_structural   Ho3Er3Th2(CdIr)2
_chemical_formula_sum   'Ho6 Er6 Th4 Cd4 Ir4'
_cell_volume   647.08679650
_cell_formula_units_Z   2
loop_
 _symmetry_equiv_pos_site_id
 _symmetry_equiv_pos_as_xyz
  1  'x, y, z'
loop_
 _atom_site_type_symbol
 _atom_site_label
 _atom_site_symmetry_multiplicity
 _atom_site_fract_x
 _atom_site_fract_y
 _atom_site_fract_z
 _atom_site_occupancy
  Ho  Ho0  1  0.185421  0.814579  0.814579  1
  Ho  Ho1  1  0.814579  0.185421  0.185421  1
  Ho  Ho2  1  0.814579  0.185421  0.814579  1
  Ho  Ho3  1  0.185421  0.814579  0.185421  1
  Ho  Ho4  1  0.814579  0.814579  0.185421  1
  Ho  Ho5  1  0.185421  0.185421  0.814579  1
  Er  Er6  1  0.062818  0.437182  0.437182  1
  Er  Er7  1  0.437182  0.062818  0.062818  1
  Er  Er8  1  0.437182  0.062818  0.437182  1
  Er  Er9  1  0.062818  0.437182  0.062818  1
  Er  Er10  1  0.437182  0.437182  0.062818  1
  Er  Er11  1  0.062818  0.062818  0.437182  1
  Th  Th12  1  0.600374  0.600374  0.600374  1
  Th  Th13  1  0.600374  0.600374  0.198879  1
  Th  Th14  1  0.600374  0.198879  0.600374  1
  Th  Th15  1  0.198879  0.600374  0.600374  1
  Cd  Cd16  1  0.832846  0.832846  0.832846  1
  Cd  Cd17  1  0.832846  0.832846  0.501461  1
  Cd  Cd18  1  0.832846  0.501461  0.832846  1
  Cd  Cd19  1  0.501461  0.832846  0.832846  1
  Ir  Ir20  1  0.392897  0.392897  0.392897  1
  Ir  Ir21  1  0.392897  0.392897  0.821309  1
  Ir  Ir22  1  0.392897  0.821309  0.392897  1
  Ir  Ir23  1  0.821309  0.392897  0.392897  1
