# generated using pymatgen
data_Na2H2PdF8
_symmetry_space_group_name_H-M   'P 1'
_cell_length_a   5.50099814
_cell_length_b   5.61246070
_cell_length_c   5.61246051
_cell_angle_alpha   95.71926879
_cell_angle_beta   105.53169863
_cell_angle_gamma   105.53170002
_symmetry_Int_Tables_number   1
_chemical_formula_structural   Na2H2PdF8
_chemical_formula_sum   'Na2 H2 Pd1 F8'
_cell_volume   158.09118592
_cell_formula_units_Z   1
loop_
 _symmetry_equiv_pos_site_id
 _symmetry_equiv_pos_as_xyz
  1  'x, y, z'
loop_
 _atom_site_type_symbol
 _atom_site_label
 _atom_site_symmetry_multiplicity
 _atom_site_fract_x
 _atom_site_fract_y
 _atom_site_fract_z
 _atom_site_occupancy
  Na  Na0  1  0.499999  0.729037  0.270961  1
  Na  Na1  1  0.499999  0.270961  0.729037  1
  H  H2  1  0.783013  0.348364  0.348364  1
  H  H3  1  0.216987  0.651637  0.651637  1
  Pd  Pd4  1  0.000000  0.000000  0.000000  1
  F  F5  1  0.766578  0.670911  0.005388  1
  F  F6  1  0.770375  0.143164  0.143164  1
  F  F7  1  0.233422  0.994613  0.329090  1
  F  F8  1  0.734032  0.459473  0.459473  1
  F  F9  1  0.265968  0.540527  0.540527  1
  F  F10  1  0.766578  0.005388  0.670911  1
  F  F11  1  0.229625  0.856835  0.856835  1
  F  F12  1  0.233422  0.329090  0.994613  1
