# generated using pymatgen
data_Sr9Th(PN5)2
_symmetry_space_group_name_H-M   'P 1'
_cell_length_a   7.48520859
_cell_length_b   7.48520810
_cell_length_c   8.67016100
_cell_angle_alpha   76.20459968
_cell_angle_beta   76.20460060
_cell_angle_gamma   95.56810402
_symmetry_Int_Tables_number   1
_chemical_formula_structural   Sr9Th(PN5)2
_chemical_formula_sum   'Sr9 Th1 P2 N10'
_cell_volume   452.01310269
_cell_formula_units_Z   1
loop_
 _symmetry_equiv_pos_site_id
 _symmetry_equiv_pos_as_xyz
  1  'x, y, z'
loop_
 _atom_site_type_symbol
 _atom_site_label
 _atom_site_symmetry_multiplicity
 _atom_site_fract_x
 _atom_site_fract_y
 _atom_site_fract_z
 _atom_site_occupancy
  Sr  Sr0  1  0.608930  0.608930  0.628813  1
  Sr  Sr1  1  0.679158  0.679158  0.997428  1
  Sr  Sr2  1  0.327295  0.327295  0.992040  1
  Sr  Sr3  1  0.927415  0.927415  0.201547  1
  Sr  Sr4  1  0.071895  0.071895  0.795236  1
  Sr  Sr5  1  0.559753  0.088579  0.759078  1
  Sr  Sr6  1  0.915521  0.438300  0.243127  1
  Sr  Sr7  1  0.438300  0.915521  0.243127  1
  Sr  Sr8  1  0.088579  0.559753  0.759078  1
  Th  Th9  1  0.406124  0.406124  0.367618  1
  P  P10  1  0.758505  0.242633  0.001474  1
  P  P11  1  0.242633  0.758505  0.001474  1
  N  N12  1  0.636179  0.636179  0.325893  1
  N  N13  1  0.346423  0.346423  0.647203  1
  N  N14  1  0.719323  0.022830  0.993408  1
  N  N15  1  0.976926  0.277163  0.015410  1
  N  N16  1  0.277163  0.976926  0.015410  1
  N  N17  1  0.022830  0.719323  0.993408  1
  N  N18  1  0.392531  0.726056  0.837644  1
  N  N19  1  0.275072  0.603391  0.171967  1
  N  N20  1  0.603391  0.275072  0.171967  1
  N  N21  1  0.726056  0.392531  0.837644  1
