# generated using pymatgen
data_DyEr3CrOsC4
_symmetry_space_group_name_H-M   'P 1'
_cell_length_a   5.02789400
_cell_length_b   6.45604610
_cell_length_c   9.73072943
_cell_angle_alpha   90.05384114
_cell_angle_beta   90.00000000
_cell_angle_gamma   90.00000000
_symmetry_Int_Tables_number   1
_chemical_formula_structural   DyEr3CrOsC4
_chemical_formula_sum   'Dy2 Er6 Cr2 Os2 C8'
_cell_volume   315.86240733
_cell_formula_units_Z   2
loop_
 _symmetry_equiv_pos_site_id
 _symmetry_equiv_pos_as_xyz
  1  'x, y, z'
loop_
 _atom_site_type_symbol
 _atom_site_label
 _atom_site_symmetry_multiplicity
 _atom_site_fract_x
 _atom_site_fract_y
 _atom_site_fract_z
 _atom_site_occupancy
  Dy  Dy0  1  0.750000  0.972465  0.715919  1
  Dy  Dy1  1  0.250000  0.027535  0.284081  1
  Er  Er2  1  0.250000  0.681750  0.558684  1
  Er  Er3  1  0.750000  0.318250  0.441316  1
  Er  Er4  1  0.750000  0.822093  0.054486  1
  Er  Er5  1  0.250000  0.177907  0.945514  1
  Er  Er6  1  0.250000  0.530970  0.216078  1
  Er  Er7  1  0.750000  0.469030  0.783922  1
  Cr  Cr8  1  0.250000  0.724554  0.862354  1
  Cr  Cr9  1  0.750000  0.275446  0.137646  1
  Os  Os10  1  0.750000  0.775312  0.362902  1
  Os  Os11  1  0.250000  0.224688  0.637098  1
  C  C12  1  0.250000  0.463695  0.764016  1
  C  C13  1  0.750000  0.536305  0.235984  1
  C  C14  1  0.750000  0.046783  0.255685  1
  C  C15  1  0.250000  0.953217  0.744315  1
  C  C16  1  0.250000  0.813597  0.040646  1
  C  C17  1  0.750000  0.186403  0.959354  1
  C  C18  1  0.750000  0.676429  0.549095  1
  C  C19  1  0.250000  0.323571  0.450905  1
