# generated using pymatgen
data_SmLu2Cu2Ni7
_symmetry_space_group_name_H-M   'P 1'
_cell_length_a   4.98118137
_cell_length_b   4.97850475
_cell_length_c   16.00503500
_cell_angle_alpha   90.00000000
_cell_angle_beta   90.00000000
_cell_angle_gamma   119.97349769
_symmetry_Int_Tables_number   1
_chemical_formula_structural   SmLu2Cu2Ni7
_chemical_formula_sum   'Sm2 Lu4 Cu4 Ni14'
_cell_volume   343.82263110
_cell_formula_units_Z   2
loop_
 _symmetry_equiv_pos_site_id
 _symmetry_equiv_pos_as_xyz
  1  'x, y, z'
loop_
 _atom_site_type_symbol
 _atom_site_label
 _atom_site_symmetry_multiplicity
 _atom_site_fract_x
 _atom_site_fract_y
 _atom_site_fract_z
 _atom_site_occupancy
  Sm  Sm0  1  0.333330  0.666669  0.750000  1
  Sm  Sm1  1  0.666670  0.333331  0.250000  1
  Lu  Lu2  1  0.333165  0.666615  0.539172  1
  Lu  Lu3  1  0.666835  0.333385  0.039172  1
  Lu  Lu4  1  0.666835  0.333385  0.460828  1
  Lu  Lu5  1  0.333165  0.666615  0.960828  1
  Cu  Cu6  1  0.333221  0.666632  0.250000  1
  Cu  Cu7  1  0.666779  0.333368  0.750000  1
  Cu  Cu8  1  0.000079  0.999997  0.250000  1
  Cu  Cu9  1  0.999921  0.000003  0.750000  1
  Ni  Ni10  1  0.000000  0.000000  0.000000  1
  Ni  Ni11  1  0.000000  0.000000  0.500000  1
  Ni  Ni12  1  0.167987  0.335912  0.123298  1
  Ni  Ni13  1  0.832013  0.664088  0.623298  1
  Ni  Ni14  1  0.664160  0.832102  0.123299  1
  Ni  Ni15  1  0.168038  0.832089  0.123281  1
  Ni  Ni16  1  0.831962  0.167911  0.623281  1
  Ni  Ni17  1  0.335840  0.167898  0.623299  1
  Ni  Ni18  1  0.832013  0.664088  0.876702  1
  Ni  Ni19  1  0.831962  0.167911  0.876719  1
  Ni  Ni20  1  0.335840  0.167898  0.876701  1
  Ni  Ni21  1  0.664160  0.832102  0.376701  1
  Ni  Ni22  1  0.168038  0.832089  0.376719  1
  Ni  Ni23  1  0.167987  0.335912  0.376702  1
