# generated using pymatgen
data_AcIrN
_symmetry_space_group_name_H-M   'P 1'
_cell_length_a   3.86145800
_cell_length_b   3.86145800
_cell_length_c   7.99243200
_cell_angle_alpha   90.00000000
_cell_angle_beta   90.00000000
_cell_angle_gamma   90.00000000
_symmetry_Int_Tables_number   1
_chemical_formula_structural   AcIrN
_chemical_formula_sum   'Ac2 Ir2 N2'
_cell_volume   119.17401771
_cell_formula_units_Z   2
loop_
 _symmetry_equiv_pos_site_id
 _symmetry_equiv_pos_as_xyz
  1  'x, y, z'
loop_
 _atom_site_type_symbol
 _atom_site_label
 _atom_site_symmetry_multiplicity
 _atom_site_fract_x
 _atom_site_fract_y
 _atom_site_fract_z
 _atom_site_occupancy
  Ac  Ac0  1  0.000000  0.000000  0.249999  1
  Ac  Ac1  1  0.000000  0.000000  0.750000  1
  Ir  Ir2  1  0.499999  0.499999  0.000000  1
  Ir  Ir3  1  0.499999  0.499999  0.500000  1
  N  N4  1  0.499999  0.000000  0.000000  1
  N  N5  1  0.000000  0.499999  0.500000  1
