# generated using pymatgen
data_Yb3HoTm2(CoSn6)2
_symmetry_space_group_name_H-M   'P 1'
_cell_length_a   8.33309670
_cell_length_b   8.33309591
_cell_length_c   13.21004154
_cell_angle_alpha   90.01172279
_cell_angle_beta   89.98828443
_cell_angle_gamma   147.80627830
_symmetry_Int_Tables_number   1
_chemical_formula_structural   Yb3HoTm2(CoSn6)2
_chemical_formula_sum   'Yb3 Ho1 Tm2 Co2 Sn12'
_cell_volume   488.72863163
_cell_formula_units_Z   1
loop_
 _symmetry_equiv_pos_site_id
 _symmetry_equiv_pos_as_xyz
  1  'x, y, z'
loop_
 _atom_site_type_symbol
 _atom_site_label
 _atom_site_symmetry_multiplicity
 _atom_site_fract_x
 _atom_site_fract_y
 _atom_site_fract_z
 _atom_site_occupancy
  Yb  Yb0  1  0.099572  0.900428  0.597335  1
  Yb  Yb1  1  0.099912  0.900088  0.903535  1
  Yb  Yb2  1  0.900592  0.099408  0.402211  1
  Ho  Ho3  1  0.898367  0.101633  0.095996  1
  Tm  Tm4  1  0.901116  0.098884  0.753183  1
  Tm  Tm5  1  0.098713  0.901287  0.247536  1
  Co  Co6  1  0.298246  0.701754  0.249126  1
  Co  Co7  1  0.704065  0.295935  0.750721  1
  Sn  Sn8  1  0.758377  0.241623  0.572125  1
  Sn  Sn9  1  0.424829  0.575171  0.578586  1
  Sn  Sn10  1  0.574519  0.425481  0.421951  1
  Sn  Sn11  1  0.732016  0.267984  0.248760  1
  Sn  Sn12  1  0.268649  0.731351  0.750163  1
  Sn  Sn13  1  0.241225  0.758775  0.071987  1
  Sn  Sn14  1  0.242203  0.757797  0.427166  1
  Sn  Sn15  1  0.573155  0.426845  0.075730  1
  Sn  Sn16  1  0.455289  0.544711  0.248204  1
  Sn  Sn17  1  0.545281  0.454719  0.750659  1
  Sn  Sn18  1  0.758163  0.241837  0.929510  1
  Sn  Sn19  1  0.425712  0.574288  0.925519  1
