# generated using pymatgen
data_K6ZnTe4
_symmetry_space_group_name_H-M   'P 1'
_cell_length_a   10.93235700
_cell_length_b   10.93235598
_cell_length_c   8.53659000
_cell_angle_alpha   90.00000000
_cell_angle_beta   90.00000000
_cell_angle_gamma   120.00000005
_symmetry_Int_Tables_number   1
_chemical_formula_structural   K6ZnTe4
_chemical_formula_sum   'K12 Zn2 Te8'
_cell_volume   883.57338396
_cell_formula_units_Z   2
loop_
 _symmetry_equiv_pos_site_id
 _symmetry_equiv_pos_as_xyz
  1  'x, y, z'
loop_
 _atom_site_type_symbol
 _atom_site_label
 _atom_site_symmetry_multiplicity
 _atom_site_fract_x
 _atom_site_fract_y
 _atom_site_fract_z
 _atom_site_occupancy
  K  K0  1  0.147411  0.852589  0.543727  1
  K  K1  1  0.294822  0.147411  0.043727  1
  K  K2  1  0.852589  0.705178  0.043727  1
  K  K3  1  0.147411  0.294822  0.543727  1
  K  K4  1  0.705178  0.852589  0.543727  1
  K  K5  1  0.852589  0.147411  0.043727  1
  K  K6  1  0.527026  0.472974  0.365686  1
  K  K7  1  0.054053  0.527026  0.865686  1
  K  K8  1  0.472974  0.945947  0.865686  1
  K  K9  1  0.527026  0.054053  0.365686  1
  K  K10  1  0.945947  0.472974  0.365686  1
  K  K11  1  0.472974  0.527026  0.865686  1
  Zn  Zn12  1  0.333333  0.666667  0.252375  1
  Zn  Zn13  1  0.666667  0.333333  0.752375  1
  Te  Te14  1  0.333333  0.666667  0.574502  1
  Te  Te15  1  0.666667  0.333333  0.074502  1
  Te  Te16  1  0.195480  0.804520  0.151529  1
  Te  Te17  1  0.390958  0.195480  0.651529  1
  Te  Te18  1  0.804520  0.609042  0.651529  1
  Te  Te19  1  0.195480  0.390958  0.151529  1
  Te  Te20  1  0.609042  0.804520  0.151529  1
  Te  Te21  1  0.804520  0.195480  0.651529  1
