# generated using pymatgen
data_Tb7Sn22BiRu6
_symmetry_space_group_name_H-M   'P 1'
_cell_length_a   9.88957600
_cell_length_b   9.88957423
_cell_length_c   10.10908300
_cell_angle_alpha   90.00000000
_cell_angle_beta   90.00000000
_cell_angle_gamma   120.00000593
_symmetry_Int_Tables_number   1
_chemical_formula_structural   Tb7Sn22BiRu6
_chemical_formula_sum   'Tb7 Sn22 Bi1 Ru6'
_cell_volume   856.24418428
_cell_formula_units_Z   1
loop_
 _symmetry_equiv_pos_site_id
 _symmetry_equiv_pos_as_xyz
  1  'x, y, z'
loop_
 _atom_site_type_symbol
 _atom_site_label
 _atom_site_symmetry_multiplicity
 _atom_site_fract_x
 _atom_site_fract_y
 _atom_site_fract_z
 _atom_site_occupancy
  Tb  Tb0  1  0.000000  0.000000  0.000000  1
  Tb  Tb1  1  0.483965  0.516035  0.302873  1
  Tb  Tb2  1  0.516035  0.483965  0.697127  1
  Tb  Tb3  1  0.483965  0.967931  0.302873  1
  Tb  Tb4  1  0.516035  0.032069  0.697127  1
  Tb  Tb5  1  0.032069  0.516035  0.302873  1
  Tb  Tb6  1  0.967931  0.483965  0.697127  1
  Sn  Sn7  1  0.349126  0.000000  0.000000  1
  Sn  Sn8  1  0.650874  0.000000  0.000000  1
  Sn  Sn9  1  0.000000  0.349126  0.000000  1
  Sn  Sn10  1  0.000000  0.650874  0.000000  1
  Sn  Sn11  1  0.650874  0.650874  0.000000  1
  Sn  Sn12  1  0.349126  0.349126  0.000000  1
  Sn  Sn13  1  0.333333  0.666667  0.820764  1
  Sn  Sn14  1  0.666667  0.333333  0.179236  1
  Sn  Sn15  1  0.779751  0.220249  0.461540  1
  Sn  Sn16  1  0.220249  0.779751  0.538460  1
  Sn  Sn17  1  0.779751  0.559502  0.461540  1
  Sn  Sn18  1  0.220249  0.440498  0.538460  1
  Sn  Sn19  1  0.440498  0.220249  0.461540  1
  Sn  Sn20  1  0.559502  0.779751  0.538460  1
  Sn  Sn21  1  0.333333  0.666667  0.125699  1
  Sn  Sn22  1  0.666667  0.333333  0.874301  1
  Sn  Sn23  1  0.118909  0.881091  0.272330  1
  Sn  Sn24  1  0.881091  0.118909  0.727670  1
  Sn  Sn25  1  0.118909  0.237819  0.272330  1
  Sn  Sn26  1  0.881091  0.762181  0.727670  1
  Sn  Sn27  1  0.762181  0.881091  0.272330  1
  Sn  Sn28  1  0.237819  0.118909  0.727670  1
  Bi  Bi29  1  0.000000  0.000000  0.500000  1
  Ru  Ru30  1  0.830466  0.169534  0.201916  1
  Ru  Ru31  1  0.169534  0.830466  0.798084  1
  Ru  Ru32  1  0.830466  0.660931  0.201916  1
  Ru  Ru33  1  0.169534  0.339069  0.798084  1
  Ru  Ru34  1  0.339069  0.169534  0.201916  1
  Ru  Ru35  1  0.660931  0.830466  0.798084  1
