# generated using pymatgen
data_Ta7Ir20Os
_symmetry_space_group_name_H-M   'P 1'
_cell_length_a   5.56765569
_cell_length_b   5.56027563
_cell_length_c   15.81603924
_cell_angle_alpha   89.99994256
_cell_angle_beta   89.98288481
_cell_angle_gamma   119.95612879
_symmetry_Int_Tables_number   1
_chemical_formula_structural   Ta7Ir20Os
_chemical_formula_sum   'Ta7 Ir20 Os1'
_cell_volume   424.21776547
_cell_formula_units_Z   1
loop_
 _symmetry_equiv_pos_site_id
 _symmetry_equiv_pos_as_xyz
  1  'x, y, z'
loop_
 _atom_site_type_symbol
 _atom_site_label
 _atom_site_symmetry_multiplicity
 _atom_site_fract_x
 _atom_site_fract_y
 _atom_site_fract_z
 _atom_site_occupancy
  Ta  Ta0  1  0.998436  0.999218  0.998628  1
  Ta  Ta1  1  0.333377  0.666689  0.142890  1
  Ta  Ta2  1  0.999547  0.999773  0.281106  1
  Ta  Ta3  1  0.666188  0.333095  0.430392  1
  Ta  Ta4  1  0.333769  0.666884  0.570470  1
  Ta  Ta5  1  0.998374  0.999187  0.719978  1
  Ta  Ta6  1  0.667743  0.333872  0.856981  1
  Ir  Ir7  1  0.501051  0.000409  0.999515  1
  Ir  Ir8  1  0.000522  0.500261  0.000238  1
  Ir  Ir9  1  0.501050  0.500641  0.999515  1
  Ir  Ir10  1  0.338238  0.169120  0.143465  1
  Ir  Ir11  1  0.829529  0.169417  0.142616  1
  Ir  Ir12  1  0.829528  0.660113  0.142615  1
  Ir  Ir13  1  0.498952  0.997901  0.286047  1
  Ir  Ir14  1  0.498952  0.501051  0.286047  1
  Ir  Ir15  1  0.001514  0.500757  0.285964  1
  Ir  Ir16  1  0.166273  0.332946  0.428230  1
  Ir  Ir17  1  0.166273  0.833328  0.428230  1
  Ir  Ir18  1  0.666918  0.833460  0.428293  1
  Ir  Ir19  1  0.332855  0.166428  0.571147  1
  Ir  Ir20  1  0.833372  0.166582  0.571477  1
  Ir  Ir21  1  0.833372  0.666791  0.571477  1
  Ir  Ir22  1  0.998642  0.499321  0.714040  1
  Ir  Ir23  1  0.501859  0.499589  0.714446  1
  Ir  Ir24  1  0.501859  0.002270  0.714446  1
  Ir  Ir25  1  0.170103  0.339990  0.857240  1
  Ir  Ir26  1  0.170104  0.830113  0.857240  1
  Os  Os27  1  0.661602  0.830801  0.857276  1
