# generated using pymatgen
data_Tb12Co3Si8Ni
_symmetry_space_group_name_H-M   'P 1'
_cell_length_a   4.12473900
_cell_length_b   11.13698920
_cell_length_c   11.38367818
_cell_angle_alpha   90.08628374
_cell_angle_beta   90.00000000
_cell_angle_gamma   90.00000000
_symmetry_Int_Tables_number   1
_chemical_formula_structural   Tb12Co3Si8Ni
_chemical_formula_sum   'Tb12 Co3 Si8 Ni1'
_cell_volume   522.93340905
_cell_formula_units_Z   1
loop_
 _symmetry_equiv_pos_site_id
 _symmetry_equiv_pos_as_xyz
  1  'x, y, z'
loop_
 _atom_site_type_symbol
 _atom_site_label
 _atom_site_symmetry_multiplicity
 _atom_site_fract_x
 _atom_site_fract_y
 _atom_site_fract_z
 _atom_site_occupancy
  Tb  Tb0  1  0.250000  0.060817  0.881589  1
  Tb  Tb1  1  0.250000  0.440362  0.381735  1
  Tb  Tb2  1  0.750000  0.941303  0.118927  1
  Tb  Tb3  1  0.750000  0.559170  0.618944  1
  Tb  Tb4  1  0.250000  0.125194  0.557736  1
  Tb  Tb5  1  0.250000  0.373306  0.057782  1
  Tb  Tb6  1  0.750000  0.873986  0.442017  1
  Tb  Tb7  1  0.750000  0.623603  0.943416  1
  Tb  Tb8  1  0.250000  0.803204  0.714349  1
  Tb  Tb9  1  0.250000  0.698305  0.217091  1
  Tb  Tb10  1  0.750000  0.198938  0.283146  1
  Tb  Tb11  1  0.750000  0.301663  0.783432  1
  Co  Co12  1  0.250000  0.363591  0.630408  1
  Co  Co13  1  0.250000  0.135687  0.130274  1
  Co  Co14  1  0.750000  0.635392  0.370075  1
  Si  Si15  1  0.250000  0.815209  0.973634  1
  Si  Si16  1  0.250000  0.683847  0.473900  1
  Si  Si17  1  0.750000  0.183270  0.025999  1
  Si  Si18  1  0.750000  0.316354  0.526597  1
  Si  Si19  1  0.250000  0.495277  0.801686  1
  Si  Si20  1  0.250000  0.005382  0.301580  1
  Si  Si21  1  0.750000  0.504968  0.198337  1
  Si  Si22  1  0.750000  0.995536  0.697256  1
  Ni  Ni23  1  0.750000  0.865636  0.870090  1
