# generated using pymatgen
data_Ho8Re3B24Os
_symmetry_space_group_name_H-M   'P 1'
_cell_length_a   3.66462500
_cell_length_b   9.14428559
_cell_length_c   11.52340001
_cell_angle_alpha   90.07172870
_cell_angle_beta   90.00000000
_cell_angle_gamma   90.00000000
_symmetry_Int_Tables_number   1
_chemical_formula_structural   Ho8Re3B24Os
_chemical_formula_sum   'Ho8 Re3 B24 Os1'
_cell_volume   386.15318285
_cell_formula_units_Z   1
loop_
 _symmetry_equiv_pos_site_id
 _symmetry_equiv_pos_as_xyz
  1  'x, y, z'
loop_
 _atom_site_type_symbol
 _atom_site_label
 _atom_site_symmetry_multiplicity
 _atom_site_fract_x
 _atom_site_fract_y
 _atom_site_fract_z
 _atom_site_occupancy
  Ho  Ho0  1  0.000000  0.321333  0.414164  1
  Ho  Ho1  1  0.000000  0.677777  0.587607  1
  Ho  Ho2  1  0.000000  0.824159  0.084373  1
  Ho  Ho3  1  0.000000  0.177182  0.913545  1
  Ho  Ho4  1  0.000000  0.942226  0.370070  1
  Ho  Ho5  1  0.000000  0.056751  0.629339  1
  Ho  Ho6  1  0.000000  0.442549  0.129836  1
  Ho  Ho7  1  0.000000  0.557273  0.870928  1
  Re  Re8  1  0.000000  0.362490  0.678139  1
  Re  Re9  1  0.000000  0.138072  0.179682  1
  Re  Re10  1  0.000000  0.862003  0.820804  1
  B  B11  1  0.500000  0.553634  0.432912  1
  B  B12  1  0.500000  0.447187  0.566646  1
  B  B13  1  0.500000  0.053027  0.066748  1
  B  B14  1  0.500000  0.947197  0.933016  1
  B  B15  1  0.500000  0.748498  0.418592  1
  B  B16  1  0.500000  0.250652  0.581025  1
  B  B17  1  0.500000  0.249146  0.081190  1
  B  B18  1  0.500000  0.751352  0.918945  1
  B  B19  1  0.500000  0.790586  0.265320  1
  B  B20  1  0.500000  0.208453  0.734511  1
  B  B21  1  0.500000  0.291454  0.235112  1
  B  B22  1  0.500000  0.708333  0.765576  1
  B  B23  1  0.500000  0.630924  0.185733  1
  B  B24  1  0.500000  0.369751  0.814239  1
  B  B25  1  0.500000  0.130604  0.315019  1
  B  B26  1  0.500000  0.869193  0.685406  1
  B  B27  1  0.500000  0.981776  0.211821  1
  B  B28  1  0.500000  0.018307  0.787791  1
  B  B29  1  0.500000  0.482766  0.288248  1
  B  B30  1  0.500000  0.518663  0.711943  1
  B  B31  1  0.500000  0.601508  0.028788  1
  B  B32  1  0.500000  0.398887  0.972048  1
  B  B33  1  0.500000  0.100293  0.471622  1
  B  B34  1  0.500000  0.898097  0.528065  1
  Os  Os35  1  0.000000  0.637897  0.321194  1
