# generated using pymatgen
data_YbPu7(Si3Ir)4
_symmetry_space_group_name_H-M   'P 1'
_cell_length_a   8.18397800
_cell_length_b   8.19284436
_cell_length_c   8.02841400
_cell_angle_alpha   90.00000000
_cell_angle_beta   90.00000000
_cell_angle_gamma   119.96420730
_symmetry_Int_Tables_number   1
_chemical_formula_structural   YbPu7(Si3Ir)4
_chemical_formula_sum   'Yb1 Pu7 Si12 Ir4'
_cell_volume   466.35439478
_cell_formula_units_Z   1
loop_
 _symmetry_equiv_pos_site_id
 _symmetry_equiv_pos_as_xyz
  1  'x, y, z'
loop_
 _atom_site_type_symbol
 _atom_site_label
 _atom_site_symmetry_multiplicity
 _atom_site_fract_x
 _atom_site_fract_y
 _atom_site_fract_z
 _atom_site_occupancy
  Yb  Yb0  1  0.501205  0.002410  0.250000  1
  Pu  Pu1  1  0.499252  0.998506  0.750000  1
  Pu  Pu2  1  0.999578  0.499781  0.250000  1
  Pu  Pu3  1  0.999993  0.500025  0.750000  1
  Pu  Pu4  1  0.500205  0.499781  0.250000  1
  Pu  Pu5  1  0.500031  0.500025  0.750000  1
  Pu  Pu6  1  0.000142  0.000285  0.250000  1
  Pu  Pu7  1  0.999804  0.999610  0.750000  1
  Si  Si8  1  0.163313  0.326628  0.998084  1
  Si  Si9  1  0.836765  0.673532  0.998965  1
  Si  Si10  1  0.668671  0.834528  0.998189  1
  Si  Si11  1  0.836765  0.673532  0.501035  1
  Si  Si12  1  0.331149  0.165335  0.997611  1
  Si  Si13  1  0.163313  0.326628  0.501916  1
  Si  Si14  1  0.165858  0.834528  0.998189  1
  Si  Si15  1  0.331149  0.165335  0.502389  1
  Si  Si16  1  0.834186  0.165335  0.997611  1
  Si  Si17  1  0.668671  0.834528  0.501811  1
  Si  Si18  1  0.834186  0.165335  0.502389  1
  Si  Si19  1  0.165858  0.834528  0.501811  1
  Ir  Ir20  1  0.331286  0.662575  0.003181  1
  Ir  Ir21  1  0.668664  0.337327  0.000716  1
  Ir  Ir22  1  0.668664  0.337327  0.499284  1
  Ir  Ir23  1  0.331286  0.662575  0.496819  1
