# generated using pymatgen
data_TbDy3Al18(OsRh2)2
_symmetry_space_group_name_H-M   'P 1'
_cell_length_a   7.51316305
_cell_length_b   7.51330369
_cell_length_c   9.48546000
_cell_angle_alpha   90.00000000
_cell_angle_beta   90.00000000
_cell_angle_gamma   118.25262613
_symmetry_Int_Tables_number   1
_chemical_formula_structural   TbDy3Al18(OsRh2)2
_chemical_formula_sum   'Tb1 Dy3 Al18 Os2 Rh4'
_cell_volume   471.65397845
_cell_formula_units_Z   1
loop_
 _symmetry_equiv_pos_site_id
 _symmetry_equiv_pos_as_xyz
  1  'x, y, z'
loop_
 _atom_site_type_symbol
 _atom_site_label
 _atom_site_symmetry_multiplicity
 _atom_site_fract_x
 _atom_site_fract_y
 _atom_site_fract_z
 _atom_site_occupancy
  Tb  Tb0  1  0.992568  0.683150  0.750000  1
  Dy  Dy1  1  0.007586  0.316881  0.250000  1
  Dy  Dy2  1  0.683194  0.992568  0.750000  1
  Dy  Dy3  1  0.316888  0.007577  0.250000  1
  Al  Al4  1  0.136741  0.136763  0.750000  1
  Al  Al5  1  0.863296  0.863296  0.250000  1
  Al  Al6  1  0.002678  0.338880  0.575558  1
  Al  Al7  1  0.997282  0.661061  0.424417  1
  Al  Al8  1  0.997282  0.661061  0.075583  1
  Al  Al9  1  0.338959  0.002725  0.924431  1
  Al  Al10  1  0.002678  0.338880  0.924442  1
  Al  Al11  1  0.661072  0.997296  0.075543  1
  Al  Al12  1  0.661072  0.997296  0.424457  1
  Al  Al13  1  0.338959  0.002725  0.575569  1
  Al  Al14  1  0.331234  0.331232  0.042806  1
  Al  Al15  1  0.668723  0.668761  0.957233  1
  Al  Al16  1  0.668723  0.668761  0.542767  1
  Al  Al17  1  0.331234  0.331232  0.457194  1
  Al  Al18  1  0.341729  0.556014  0.750000  1
  Al  Al19  1  0.658277  0.443988  0.250000  1
  Al  Al20  1  0.555981  0.341661  0.750000  1
  Al  Al21  1  0.443995  0.658277  0.250000  1
  Os  Os22  1  0.999998  0.000060  0.499942  1
  Os  Os23  1  0.999998  0.000060  0.000058  1
  Rh  Rh24  1  0.671543  0.328344  0.499984  1
  Rh  Rh25  1  0.328382  0.671554  0.499984  1
  Rh  Rh26  1  0.328382  0.671554  0.000016  1
  Rh  Rh27  1  0.671543  0.328344  0.000016  1
