# generated using pymatgen
data_TiMn4Sn3Rh8
_symmetry_space_group_name_H-M   'P 1'
_cell_length_a   6.39900400
_cell_length_b   4.39221800
_cell_length_c   8.77833400
_cell_angle_alpha   90.00000000
_cell_angle_beta   89.99885668
_cell_angle_gamma   90.00000000
_symmetry_Int_Tables_number   1
_chemical_formula_structural   TiMn4Sn3Rh8
_chemical_formula_sum   'Ti1 Mn4 Sn3 Rh8'
_cell_volume   246.72228012
_cell_formula_units_Z   1
loop_
 _symmetry_equiv_pos_site_id
 _symmetry_equiv_pos_as_xyz
  1  'x, y, z'
loop_
 _atom_site_type_symbol
 _atom_site_label
 _atom_site_symmetry_multiplicity
 _atom_site_fract_x
 _atom_site_fract_y
 _atom_site_fract_z
 _atom_site_occupancy
  Ti  Ti0  1  0.250014  0.749999  0.874969  1
  Mn  Mn1  1  0.249984  0.249999  0.122877  1
  Mn  Mn2  1  0.749976  0.749999  0.374944  1
  Mn  Mn3  1  0.250017  0.249999  0.627207  1
  Mn  Mn4  1  0.750021  0.749999  0.874955  1
  Sn  Sn5  1  0.749983  0.249999  0.123701  1
  Sn  Sn6  1  0.249993  0.749999  0.374959  1
  Sn  Sn7  1  0.750010  0.249999  0.626359  1
  Rh  Rh8  1  0.493912  0.749999  0.117265  1
  Rh  Rh9  1  0.006062  0.749999  0.117275  1
  Rh  Rh10  1  0.498879  0.249999  0.375010  1
  Rh  Rh11  1  0.001095  0.249999  0.375014  1
  Rh  Rh12  1  0.006070  0.749999  0.632700  1
  Rh  Rh13  1  0.493956  0.749999  0.632705  1
  Rh  Rh14  1  0.009206  0.249999  0.875028  1
  Rh  Rh15  1  0.490822  0.249999  0.875033  1
