# generated using pymatgen
data_NaAsSeS
_symmetry_space_group_name_H-M   'P 1'
_cell_length_a   11.77522300
_cell_length_b   5.74438947
_cell_length_c   6.15885112
_cell_angle_alpha   89.70541705
_cell_angle_beta   90.00000000
_cell_angle_gamma   90.00000000
_symmetry_Int_Tables_number   1
_chemical_formula_structural   NaAsSeS
_chemical_formula_sum   'Na4 As4 Se4 S4'
_cell_volume   416.58821885
_cell_formula_units_Z   4
loop_
 _symmetry_equiv_pos_site_id
 _symmetry_equiv_pos_as_xyz
  1  'x, y, z'
loop_
 _atom_site_type_symbol
 _atom_site_label
 _atom_site_symmetry_multiplicity
 _atom_site_fract_x
 _atom_site_fract_y
 _atom_site_fract_z
 _atom_site_occupancy
  Na  Na0  1  0.374877  0.239501  0.503062  1
  Na  Na1  1  0.625123  0.760499  0.496938  1
  Na  Na2  1  0.125123  0.739501  0.503062  1
  Na  Na3  1  0.874877  0.260499  0.496938  1
  As  As4  1  0.641685  0.249270  0.924359  1
  As  As5  1  0.141685  0.250730  0.075641  1
  As  As6  1  0.358315  0.750730  0.075641  1
  As  As7  1  0.858315  0.749270  0.924359  1
  Se  Se8  1  0.848000  0.317622  0.999899  1
  Se  Se9  1  0.652000  0.817622  0.999899  1
  Se  Se10  1  0.348000  0.182378  0.000101  1
  Se  Se11  1  0.152000  0.682378  0.000101  1
  S  S12  1  0.874443  0.761585  0.568786  1
  S  S13  1  0.374443  0.738415  0.431214  1
  S  S14  1  0.125557  0.238415  0.431214  1
  S  S15  1  0.625557  0.261585  0.568786  1
