# generated using pymatgen
data_Ca2ZnSiPd13
_symmetry_space_group_name_H-M   'P 1'
_cell_length_a   8.90244140
_cell_length_b   8.88827000
_cell_length_c   7.10314963
_cell_angle_alpha   90.00000000
_cell_angle_beta   90.47913573
_cell_angle_gamma   90.00000000
_symmetry_Int_Tables_number   1
_chemical_formula_structural   Ca2ZnSiPd13
_chemical_formula_sum   'Ca4 Zn2 Si2 Pd26'
_cell_volume   562.03341934
_cell_formula_units_Z   2
loop_
 _symmetry_equiv_pos_site_id
 _symmetry_equiv_pos_as_xyz
  1  'x, y, z'
loop_
 _atom_site_type_symbol
 _atom_site_label
 _atom_site_symmetry_multiplicity
 _atom_site_fract_x
 _atom_site_fract_y
 _atom_site_fract_z
 _atom_site_occupancy
  Ca  Ca0  1  0.511443  0.000000  0.936037  1
  Ca  Ca1  1  0.988557  0.500000  0.063963  1
  Ca  Ca2  1  0.002064  0.000000  0.499424  1
  Ca  Ca3  1  0.497936  0.500000  0.500576  1
  Zn  Zn4  1  0.250000  0.750000  0.000000  1
  Zn  Zn5  1  0.250000  0.250000  0.000000  1
  Si  Si6  1  0.504098  0.000000  0.444769  1
  Si  Si7  1  0.995902  0.500000  0.555231  1
  Pd  Pd8  1  0.335406  0.834727  0.614298  1
  Pd  Pd9  1  0.335406  0.165273  0.614298  1
  Pd  Pd10  1  0.667072  0.832461  0.619200  1
  Pd  Pd11  1  0.667072  0.167539  0.619200  1
  Pd  Pd12  1  0.164594  0.665273  0.385702  1
  Pd  Pd13  1  0.164594  0.334727  0.385702  1
  Pd  Pd14  1  0.832928  0.667539  0.380800  1
  Pd  Pd15  1  0.832928  0.332461  0.380800  1
  Pd  Pd16  1  0.497281  0.768507  0.254363  1
  Pd  Pd17  1  0.497281  0.231493  0.254363  1
  Pd  Pd18  1  0.271402  0.000000  0.254613  1
  Pd  Pd19  1  0.732923  0.000000  0.256990  1
  Pd  Pd20  1  0.002719  0.731493  0.745637  1
  Pd  Pd21  1  0.002719  0.268507  0.745637  1
  Pd  Pd22  1  0.228598  0.500000  0.745387  1
  Pd  Pd23  1  0.767077  0.500000  0.743010  1
  Pd  Pd24  1  0.490968  0.344780  0.861050  1
  Pd  Pd25  1  0.490968  0.655220  0.861050  1
  Pd  Pd26  1  0.855547  0.000000  0.856484  1
  Pd  Pd27  1  0.165680  0.000000  0.864508  1
  Pd  Pd28  1  0.009032  0.155220  0.138950  1
  Pd  Pd29  1  0.009032  0.844780  0.138950  1
  Pd  Pd30  1  0.644453  0.500000  0.143516  1
  Pd  Pd31  1  0.334320  0.500000  0.135492  1
  Pd  Pd32  1  0.750000  0.750000  0.000000  1
  Pd  Pd33  1  0.750000  0.250000  0.000000  1
