# generated using pymatgen
data_EuMnFe(Sb6Os)2
_symmetry_space_group_name_H-M   'P 1'
_cell_length_a   8.18213125
_cell_length_b   8.13362364
_cell_length_c   8.13364856
_cell_angle_alpha   109.36133107
_cell_angle_beta   109.65877313
_cell_angle_gamma   109.48742602
_symmetry_Int_Tables_number   1
_chemical_formula_structural   EuMnFe(Sb6Os)2
_chemical_formula_sum   'Eu1 Mn1 Fe1 Sb12 Os2'
_cell_volume   416.20537248
_cell_formula_units_Z   1
loop_
 _symmetry_equiv_pos_site_id
 _symmetry_equiv_pos_as_xyz
  1  'x, y, z'
loop_
 _atom_site_type_symbol
 _atom_site_label
 _atom_site_symmetry_multiplicity
 _atom_site_fract_x
 _atom_site_fract_y
 _atom_site_fract_z
 _atom_site_occupancy
  Eu  Eu0  1  0.000000  0.000000  0.000000  1
  Mn  Mn1  1  0.000000  0.500000  0.000000  1
  Fe  Fe2  1  0.500000  0.000000  0.000000  1
  Sb  Sb3  1  0.339316  0.157062  0.496729  1
  Sb  Sb4  1  0.346028  0.849936  0.178853  1
  Sb  Sb5  1  0.653972  0.150064  0.821147  1
  Sb  Sb6  1  0.814044  0.659507  0.156672  1
  Sb  Sb7  1  0.157158  0.496841  0.342639  1
  Sb  Sb8  1  0.504232  0.670636  0.845532  1
  Sb  Sb9  1  0.833869  0.174600  0.329034  1
  Sb  Sb10  1  0.660684  0.842938  0.503271  1
  Sb  Sb11  1  0.185956  0.340493  0.843328  1
  Sb  Sb12  1  0.166131  0.825400  0.670966  1
  Sb  Sb13  1  0.495768  0.329364  0.154468  1
  Sb  Sb14  1  0.842842  0.503159  0.657361  1
  Os  Os15  1  0.500000  0.500000  0.500000  1
  Os  Os16  1  0.000000  0.000000  0.500000  1
