# generated using pymatgen
data_Ce2YTm(AlIr)4
_symmetry_space_group_name_H-M   'P 1'
_cell_length_a   6.83631619
_cell_length_b   4.30635700
_cell_length_c   7.92826997
_cell_angle_alpha   90.00000000
_cell_angle_beta   90.25710667
_cell_angle_gamma   90.00000000
_symmetry_Int_Tables_number   1
_chemical_formula_structural   Ce2YTm(AlIr)4
_chemical_formula_sum   'Ce2 Y1 Tm1 Al4 Ir4'
_cell_volume   233.40289015
_cell_formula_units_Z   1
loop_
 _symmetry_equiv_pos_site_id
 _symmetry_equiv_pos_as_xyz
  1  'x, y, z'
loop_
 _atom_site_type_symbol
 _atom_site_label
 _atom_site_symmetry_multiplicity
 _atom_site_fract_x
 _atom_site_fract_y
 _atom_site_fract_z
 _atom_site_occupancy
  Ce  Ce0  1  0.033911  0.750000  0.821748  1
  Ce  Ce1  1  0.532657  0.750000  0.677397  1
  Y  Y2  1  0.965504  0.250000  0.185017  1
  Tm  Tm3  1  0.464430  0.250000  0.316067  1
  Al  Al4  1  0.862881  0.250000  0.556933  1
  Al  Al5  1  0.364077  0.250000  0.943753  1
  Al  Al6  1  0.138835  0.750000  0.433986  1
  Al  Al7  1  0.637405  0.750000  0.066520  1
  Ir  Ir8  1  0.737107  0.250000  0.874724  1
  Ir  Ir9  1  0.238306  0.250000  0.622180  1
  Ir  Ir10  1  0.265402  0.750000  0.116321  1
  Ir  Ir11  1  0.759487  0.750000  0.385353  1
