# generated using pymatgen
data_Li3Sc5B24Ir3Rh
_symmetry_space_group_name_H-M   'P 1'
_cell_length_a   3.44207900
_cell_length_b   8.77769905
_cell_length_c   11.08858689
_cell_angle_alpha   89.97250096
_cell_angle_beta   90.00000000
_cell_angle_gamma   90.00000000
_symmetry_Int_Tables_number   1
_chemical_formula_structural   Li3Sc5B24Ir3Rh
_chemical_formula_sum   'Li3 Sc5 B24 Ir3 Rh1'
_cell_volume   335.02535343
_cell_formula_units_Z   1
loop_
 _symmetry_equiv_pos_site_id
 _symmetry_equiv_pos_as_xyz
  1  'x, y, z'
loop_
 _atom_site_type_symbol
 _atom_site_label
 _atom_site_symmetry_multiplicity
 _atom_site_fract_x
 _atom_site_fract_y
 _atom_site_fract_z
 _atom_site_occupancy
  Li  Li0  1  0.000000  0.945648  0.378347  1
  Li  Li1  1  0.000000  0.054007  0.623079  1
  Li  Li2  1  0.000000  0.554053  0.875736  1
  Sc  Sc3  1  0.000000  0.184749  0.911580  1
  Sc  Sc4  1  0.000000  0.814966  0.082092  1
  Sc  Sc5  1  0.000000  0.681539  0.589399  1
  Sc  Sc6  1  0.000000  0.316323  0.417889  1
  Sc  Sc7  1  0.000000  0.445911  0.122472  1
  B  B8  1  0.500000  0.373182  0.818506  1
  B  B9  1  0.500000  0.977626  0.214868  1
  B  B10  1  0.500000  0.556439  0.436251  1
  B  B11  1  0.500000  0.293537  0.237322  1
  B  B12  1  0.500000  0.205171  0.736217  1
  B  B13  1  0.500000  0.093126  0.474857  1
  B  B14  1  0.500000  0.795853  0.263708  1
  B  B15  1  0.500000  0.444670  0.564981  1
  B  B16  1  0.500000  0.241537  0.578635  1
  B  B17  1  0.500000  0.480721  0.287007  1
  B  B18  1  0.500000  0.705298  0.763378  1
  B  B19  1  0.500000  0.758740  0.422834  1
  B  B20  1  0.500000  0.520921  0.714317  1
  B  B21  1  0.500000  0.906704  0.525885  1
  B  B22  1  0.500000  0.053556  0.064605  1
  B  B23  1  0.500000  0.601588  0.025648  1
  B  B24  1  0.500000  0.743820  0.919653  1
  B  B25  1  0.500000  0.022213  0.785510  1
  B  B26  1  0.500000  0.400211  0.970880  1
  B  B27  1  0.500000  0.945308  0.933986  1
  B  B28  1  0.500000  0.631473  0.179722  1
  B  B29  1  0.500000  0.253226  0.076722  1
  B  B30  1  0.500000  0.874197  0.679989  1
  B  B31  1  0.500000  0.125175  0.321421  1
  Ir  Ir32  1  0.000000  0.136751  0.182668  1
  Ir  Ir33  1  0.000000  0.358556  0.679672  1
  Ir  Ir34  1  0.000000  0.860403  0.818263  1
  Rh  Rh35  1  0.000000  0.642798  0.321901  1
