# generated using pymatgen
data_SrIrPdPbO7
_symmetry_space_group_name_H-M   'P 1'
_cell_length_a   7.40750066
_cell_length_b   7.30819089
_cell_length_c   7.40750061
_cell_angle_alpha   60.44251114
_cell_angle_beta   60.04638510
_cell_angle_gamma   60.44251609
_symmetry_Int_Tables_number   1
_chemical_formula_structural   SrIrPdPbO7
_chemical_formula_sum   'Sr2 Ir2 Pd2 Pb2 O14'
_cell_volume   285.53868830
_cell_formula_units_Z   2
loop_
 _symmetry_equiv_pos_site_id
 _symmetry_equiv_pos_as_xyz
  1  'x, y, z'
loop_
 _atom_site_type_symbol
 _atom_site_label
 _atom_site_symmetry_multiplicity
 _atom_site_fract_x
 _atom_site_fract_y
 _atom_site_fract_z
 _atom_site_occupancy
  Sr  Sr0  1  0.125000  0.625000  0.125000  1
  Sr  Sr1  1  0.125000  0.125000  0.125000  1
  Ir  Ir2  1  0.125000  0.625000  0.625000  1
  Ir  Ir3  1  0.625000  0.625000  0.125000  1
  Pd  Pd4  1  0.625000  0.125000  0.625000  1
  Pd  Pd5  1  0.625000  0.625000  0.625000  1
  Pb  Pb6  1  0.625000  0.125000  0.125000  1
  Pb  Pb7  1  0.125000  0.125000  0.625000  1
  O  O8  1  0.700002  0.710960  0.290734  1
  O  O9  1  0.290734  0.298305  0.700002  1
  O  O10  1  0.706698  0.293302  0.706698  1
  O  O11  1  0.305405  0.694595  0.305405  1
  O  O12  1  0.290734  0.710960  0.700002  1
  O  O13  1  0.700002  0.298305  0.290734  1
  O  O14  1  0.549998  0.539040  0.959266  1
  O  O15  1  0.959266  0.951695  0.549998  1
  O  O16  1  0.543302  0.956698  0.543302  1
  O  O17  1  0.944595  0.555405  0.944595  1
  O  O18  1  0.959266  0.539040  0.549998  1
  O  O19  1  0.549998  0.951695  0.959266  1
  O  O20  1  0.268633  0.231367  0.268633  1
  O  O21  1  0.981367  0.018633  0.981367  1
