# generated using pymatgen
data_Er6Ti2Co16SiP11
_symmetry_space_group_name_H-M   'P 1'
_cell_length_a   3.69133200
_cell_length_b   10.60395872
_cell_length_c   12.26928664
_cell_angle_alpha   90.11912031
_cell_angle_beta   90.00000000
_cell_angle_gamma   90.00000000
_symmetry_Int_Tables_number   1
_chemical_formula_structural   Er6Ti2Co16SiP11
_chemical_formula_sum   'Er6 Ti2 Co16 Si1 P11'
_cell_volume   480.25236269
_cell_formula_units_Z   1
loop_
 _symmetry_equiv_pos_site_id
 _symmetry_equiv_pos_as_xyz
  1  'x, y, z'
loop_
 _atom_site_type_symbol
 _atom_site_label
 _atom_site_symmetry_multiplicity
 _atom_site_fract_x
 _atom_site_fract_y
 _atom_site_fract_z
 _atom_site_occupancy
  Er  Er0  1  0.750000  0.247242  0.474716  1
  Er  Er1  1  0.250000  0.749994  0.525269  1
  Er  Er2  1  0.250000  0.928538  0.795721  1
  Er  Er3  1  0.250000  0.570963  0.796749  1
  Er  Er4  1  0.750000  0.070742  0.203694  1
  Er  Er5  1  0.750000  0.429017  0.202373  1
  Ti  Ti6  1  0.250000  0.250225  0.845605  1
  Ti  Ti7  1  0.750000  0.750119  0.153864  1
  Co  Co8  1  0.250000  0.245704  0.295736  1
  Co  Co9  1  0.750000  0.750122  0.702958  1
  Co  Co10  1  0.750000  0.249837  0.011882  1
  Co  Co11  1  0.250000  0.750121  0.987349  1
  Co  Co12  1  0.250000  0.418044  0.005676  1
  Co  Co13  1  0.250000  0.081751  0.005081  1
  Co  Co14  1  0.750000  0.582225  0.993701  1
  Co  Co15  1  0.750000  0.918220  0.993470  1
  Co  Co16  1  0.250000  0.453976  0.572301  1
  Co  Co17  1  0.250000  0.045034  0.568181  1
  Co  Co18  1  0.750000  0.552047  0.434618  1
  Co  Co19  1  0.750000  0.953770  0.432394  1
  Co  Co20  1  0.250000  0.873044  0.294003  1
  Co  Co21  1  0.250000  0.631854  0.293167  1
  Co  Co22  1  0.750000  0.127542  0.705580  1
  Co  Co23  1  0.750000  0.370898  0.706285  1
  Si  Si24  1  0.250000  0.440218  0.385047  1
  P  P25  1  0.250000  0.249937  0.116109  1
  P  P26  1  0.750000  0.749835  0.883137  1
  P  P27  1  0.250000  0.250295  0.645816  1
  P  P28  1  0.750000  0.749714  0.353559  1
  P  P29  1  0.250000  0.059642  0.384062  1
  P  P30  1  0.750000  0.560193  0.616589  1
  P  P31  1  0.750000  0.938634  0.616218  1
  P  P32  1  0.250000  0.907813  0.108196  1
  P  P33  1  0.250000  0.592724  0.108736  1
  P  P34  1  0.750000  0.092448  0.890905  1
  P  P35  1  0.750000  0.407519  0.891256  1
