# generated using pymatgen
data_TlPCl9
_symmetry_space_group_name_H-M   'P 1'
_cell_length_a   7.49951158
_cell_length_b   9.63436580
_cell_length_c   11.24316584
_cell_angle_alpha   95.76056759
_cell_angle_beta   100.85077809
_cell_angle_gamma   95.53812744
_symmetry_Int_Tables_number   1
_chemical_formula_structural   TlPCl9
_chemical_formula_sum   'Tl2 P2 Cl18'
_cell_volume   788.24435790
_cell_formula_units_Z   2
loop_
 _symmetry_equiv_pos_site_id
 _symmetry_equiv_pos_as_xyz
  1  'x, y, z'
loop_
 _atom_site_type_symbol
 _atom_site_label
 _atom_site_symmetry_multiplicity
 _atom_site_fract_x
 _atom_site_fract_y
 _atom_site_fract_z
 _atom_site_occupancy
  Tl  Tl0  1  0.434164  0.365606  0.284907  1
  Tl  Tl1  1  0.565836  0.634394  0.715093  1
  P  P2  1  0.073116  0.200512  0.795454  1
  P  P3  1  0.926884  0.799488  0.204546  1
  Cl  Cl4  1  0.845086  0.762130  0.671051  1
  Cl  Cl5  1  0.810571  0.627665  0.099497  1
  Cl  Cl6  1  0.341143  0.564779  0.172009  1
  Cl  Cl7  1  0.658857  0.435221  0.827991  1
  Cl  Cl8  1  0.406904  0.061499  0.459009  1
  Cl  Cl9  1  0.593096  0.938501  0.540991  1
  Cl  Cl10  1  0.154914  0.237870  0.328949  1
  Cl  Cl11  1  0.473064  0.805958  0.869436  1
  Cl  Cl12  1  0.526936  0.194042  0.130564  1
  Cl  Cl13  1  0.293715  0.561832  0.555105  1
  Cl  Cl14  1  0.131258  0.881990  0.137536  1
  Cl  Cl15  1  0.706285  0.438168  0.444895  1
  Cl  Cl16  1  0.979909  0.245465  0.631058  1
  Cl  Cl17  1  0.020091  0.754535  0.368942  1
  Cl  Cl18  1  0.249725  0.062421  0.794504  1
  Cl  Cl19  1  0.750275  0.937579  0.205496  1
  Cl  Cl20  1  0.868742  0.118010  0.862464  1
  Cl  Cl21  1  0.189429  0.372335  0.900503  1
