# generated using pymatgen
data_Sm3Er(Lu4Sb3)4
_symmetry_space_group_name_H-M   'P 1'
_cell_length_a   7.99565028
_cell_length_b   9.16038800
_cell_length_c   11.59702300
_cell_angle_alpha   90.00000000
_cell_angle_beta   89.92821231
_cell_angle_gamma   90.00000000
_symmetry_Int_Tables_number   1
_chemical_formula_structural   Sm3Er(Lu4Sb3)4
_chemical_formula_sum   'Sm3 Er1 Lu16 Sb12'
_cell_volume   849.40309065
_cell_formula_units_Z   1
loop_
 _symmetry_equiv_pos_site_id
 _symmetry_equiv_pos_as_xyz
  1  'x, y, z'
loop_
 _atom_site_type_symbol
 _atom_site_label
 _atom_site_symmetry_multiplicity
 _atom_site_fract_x
 _atom_site_fract_y
 _atom_site_fract_z
 _atom_site_occupancy
  Sm  Sm0  1  0.316206  0.250000  0.219192  1
  Sm  Sm1  1  0.815832  0.250000  0.280733  1
  Sm  Sm2  1  0.684468  0.750000  0.781073  1
  Er  Er3  1  0.185136  0.750000  0.717774  1
  Lu  Lu4  1  0.351353  0.750000  0.217112  1
  Lu  Lu5  1  0.851851  0.750000  0.283402  1
  Lu  Lu6  1  0.648006  0.250000  0.782296  1
  Lu  Lu7  1  0.148146  0.250000  0.717283  1
  Lu  Lu8  1  0.690215  0.564034  0.061015  1
  Lu  Lu9  1  0.191277  0.936390  0.439286  1
  Lu  Lu10  1  0.309528  0.063719  0.938609  1
  Lu  Lu11  1  0.808562  0.436398  0.561131  1
  Lu  Lu12  1  0.309528  0.436281  0.938609  1
  Lu  Lu13  1  0.808562  0.063602  0.561131  1
  Lu  Lu14  1  0.690215  0.935966  0.061015  1
  Lu  Lu15  1  0.191277  0.563610  0.439286  1
  Lu  Lu16  1  0.475077  0.250000  0.489757  1
  Lu  Lu17  1  0.975970  0.250000  0.010289  1
  Lu  Lu18  1  0.524567  0.750000  0.511693  1
  Lu  Lu19  1  0.024199  0.750000  0.988890  1
  Sb  Sb20  1  0.402777  0.750000  0.962088  1
  Sb  Sb21  1  0.907294  0.750000  0.538810  1
  Sb  Sb22  1  0.595904  0.250000  0.036373  1
  Sb  Sb23  1  0.094883  0.250000  0.463415  1
  Sb  Sb24  1  0.565046  0.991364  0.328392  1
  Sb  Sb25  1  0.064711  0.508335  0.172096  1
  Sb  Sb26  1  0.432083  0.493445  0.672585  1
  Sb  Sb27  1  0.937744  0.006634  0.826797  1
  Sb  Sb28  1  0.432083  0.006555  0.672585  1
  Sb  Sb29  1  0.937744  0.493366  0.826797  1
  Sb  Sb30  1  0.565046  0.508636  0.328392  1
  Sb  Sb31  1  0.064711  0.991665  0.172096  1
