# generated using pymatgen
data_La2CeDy2(Sn5Rh2)2
_symmetry_space_group_name_H-M   'P 1'
_cell_length_a   14.18299400
_cell_length_b   14.18299400
_cell_length_c   4.60061700
_cell_angle_alpha   90.00000000
_cell_angle_beta   90.00000000
_cell_angle_gamma   90.00000000
_symmetry_Int_Tables_number   1
_chemical_formula_structural   La2CeDy2(Sn5Rh2)2
_chemical_formula_sum   'La4 Ce2 Dy4 Sn20 Rh8'
_cell_volume   925.44778056
_cell_formula_units_Z   2
loop_
 _symmetry_equiv_pos_site_id
 _symmetry_equiv_pos_as_xyz
  1  'x, y, z'
loop_
 _atom_site_type_symbol
 _atom_site_label
 _atom_site_symmetry_multiplicity
 _atom_site_fract_x
 _atom_site_fract_y
 _atom_site_fract_z
 _atom_site_occupancy
  La  La0  1  0.888627  0.388627  0.500000  1
  La  La1  1  0.111373  0.611373  0.500000  1
  La  La2  1  0.388627  0.111373  0.500000  1
  La  La3  1  0.611373  0.888627  0.500000  1
  Ce  Ce4  1  0.500000  0.500000  0.000000  1
  Ce  Ce5  1  0.000000  0.000000  0.000000  1
  Dy  Dy6  1  0.676129  0.176129  0.500000  1
  Dy  Dy7  1  0.323871  0.823871  0.500000  1
  Dy  Dy8  1  0.176129  0.323871  0.500000  1
  Dy  Dy9  1  0.823871  0.676129  0.500000  1
  Sn  Sn10  1  0.570612  0.070612  0.000000  1
  Sn  Sn11  1  0.429388  0.929388  0.000000  1
  Sn  Sn12  1  0.070612  0.429388  0.000000  1
  Sn  Sn13  1  0.929388  0.570612  0.000000  1
  Sn  Sn14  1  0.654249  0.697468  0.000000  1
  Sn  Sn15  1  0.345751  0.302532  0.000000  1
  Sn  Sn16  1  0.154249  0.802532  0.000000  1
  Sn  Sn17  1  0.845751  0.197468  0.000000  1
  Sn  Sn18  1  0.302532  0.654249  0.000000  1
  Sn  Sn19  1  0.697468  0.345751  0.000000  1
  Sn  Sn20  1  0.197468  0.154249  0.000000  1
  Sn  Sn21  1  0.802532  0.845751  0.000000  1
  Sn  Sn22  1  0.661740  0.507572  0.500000  1
  Sn  Sn23  1  0.338260  0.492428  0.500000  1
  Sn  Sn24  1  0.161740  0.992428  0.500000  1
  Sn  Sn25  1  0.838260  0.007572  0.500000  1
  Sn  Sn26  1  0.492428  0.661740  0.500000  1
  Sn  Sn27  1  0.507572  0.338260  0.500000  1
  Sn  Sn28  1  0.007572  0.161740  0.500000  1
  Sn  Sn29  1  0.992428  0.838260  0.500000  1
  Rh  Rh30  1  0.745490  0.529277  0.000000  1
  Rh  Rh31  1  0.254510  0.470723  0.000000  1
  Rh  Rh32  1  0.245490  0.970723  0.000000  1
  Rh  Rh33  1  0.754510  0.029277  0.000000  1
  Rh  Rh34  1  0.470723  0.745490  0.000000  1
  Rh  Rh35  1  0.529277  0.254510  0.000000  1
  Rh  Rh36  1  0.029277  0.245490  0.000000  1
  Rh  Rh37  1  0.970723  0.754510  0.000000  1
