# generated using pymatgen
data_DyGeSbO6
_symmetry_space_group_name_H-M   'P 1'
_cell_length_a   5.13747660
_cell_length_b   5.13748887
_cell_length_c   4.92896030
_cell_angle_alpha   90.03265785
_cell_angle_beta   90.03332900
_cell_angle_gamma   119.95366667
_symmetry_Int_Tables_number   1
_chemical_formula_structural   DyGeSbO6
_chemical_formula_sum   'Dy1 Ge1 Sb1 O6'
_cell_volume   112.71688855
_cell_formula_units_Z   1
loop_
 _symmetry_equiv_pos_site_id
 _symmetry_equiv_pos_as_xyz
  1  'x, y, z'
loop_
 _atom_site_type_symbol
 _atom_site_label
 _atom_site_symmetry_multiplicity
 _atom_site_fract_x
 _atom_site_fract_y
 _atom_site_fract_z
 _atom_site_occupancy
  Dy  Dy0  1  0.517514  0.482490  0.500004  1
  Ge  Ge1  1  0.850665  0.149340  0.999999  1
  Sb  Sb2  1  0.184181  0.815820  0.000007  1
  O  O3  1  0.149572  0.126003  0.220040  1
  O  O4  1  0.529110  0.851683  0.220683  1
  O  O5  1  0.875199  0.471844  0.220607  1
  O  O6  1  0.528153  0.124800  0.779399  1
  O  O7  1  0.148319  0.470897  0.779326  1
  O  O8  1  0.874000  0.850431  0.779965  1
