# generated using pymatgen
data_Ce4Cu3BRh9
_symmetry_space_group_name_H-M   'P 1'
_cell_length_a   7.06576423
_cell_length_b   7.06576348
_cell_length_c   7.16078700
_cell_angle_alpha   109.74387772
_cell_angle_beta   109.74387555
_cell_angle_gamma   109.19719297
_symmetry_Int_Tables_number   1
_chemical_formula_structural   Ce4Cu3BRh9
_chemical_formula_sum   'Ce4 Cu3 B1 Rh9'
_cell_volume   274.27400933
_cell_formula_units_Z   1
loop_
 _symmetry_equiv_pos_site_id
 _symmetry_equiv_pos_as_xyz
  1  'x, y, z'
loop_
 _atom_site_type_symbol
 _atom_site_label
 _atom_site_symmetry_multiplicity
 _atom_site_fract_x
 _atom_site_fract_y
 _atom_site_fract_z
 _atom_site_occupancy
  Ce  Ce0  1  0.000000  0.000000  0.500000  1
  Ce  Ce1  1  0.021939  0.510969  0.010969  1
  Ce  Ce2  1  0.489031  0.978061  0.989031  1
  Ce  Ce3  1  0.489031  0.510969  0.500000  1
  Cu  Cu4  1  0.746552  0.253448  0.500000  1
  Cu  Cu5  1  0.746552  0.493105  0.246552  1
  Cu  Cu6  1  0.506895  0.253448  0.753448  1
  B  B7  1  0.000000  0.000000  0.000000  1
  Rh  Rh8  1  0.244145  0.488290  0.744145  1
  Rh  Rh9  1  0.244145  0.755855  0.500000  1
  Rh  Rh10  1  0.511710  0.755855  0.255855  1
  Rh  Rh11  1  0.747212  0.729514  0.000897  1
  Rh  Rh12  1  0.270486  0.017699  0.271382  1
  Rh  Rh13  1  0.982301  0.252788  0.253683  1
  Rh  Rh14  1  0.270486  0.252788  0.999103  1
  Rh  Rh15  1  0.747212  0.017699  0.746317  1
  Rh  Rh16  1  0.982301  0.729514  0.728618  1
