# generated using pymatgen
data_Pa(Al2Cr)4
_symmetry_space_group_name_H-M   'P 1'
_cell_length_a   6.78628758
_cell_length_b   6.78628763
_cell_length_c   6.78628715
_cell_angle_alpha   97.78572187
_cell_angle_beta   97.78572248
_cell_angle_gamma   136.80786495
_symmetry_Int_Tables_number   1
_chemical_formula_structural   Pa(Al2Cr)4
_chemical_formula_sum   'Pa1 Al8 Cr4'
_cell_volume   198.89642336
_cell_formula_units_Z   1
loop_
 _symmetry_equiv_pos_site_id
 _symmetry_equiv_pos_as_xyz
  1  'x, y, z'
loop_
 _atom_site_type_symbol
 _atom_site_label
 _atom_site_symmetry_multiplicity
 _atom_site_fract_x
 _atom_site_fract_y
 _atom_site_fract_z
 _atom_site_occupancy
  Pa  Pa0  1  0.000000  0.000000  0.000000  1
  Al  Al1  1  0.281815  0.500000  0.781815  1
  Al  Al2  1  0.500000  0.718185  0.218185  1
  Al  Al3  1  0.656374  0.000000  0.656374  1
  Al  Al4  1  0.000000  0.343626  0.343626  1
  Al  Al5  1  0.000000  0.656374  0.656374  1
  Al  Al6  1  0.343626  0.000000  0.343626  1
  Al  Al7  1  0.718185  0.500000  0.218185  1
  Al  Al8  1  0.500000  0.281815  0.781815  1
  Cr  Cr9  1  0.000000  0.000000  0.500000  1
  Cr  Cr10  1  0.500000  0.500000  0.500000  1
  Cr  Cr11  1  0.500000  0.000000  0.000000  1
  Cr  Cr12  1  0.000000  0.500000  0.000000  1
