# generated using pymatgen
data_EuReP2Rh
_symmetry_space_group_name_H-M   'P 1'
_cell_length_a   6.17458373
_cell_length_b   6.17458348
_cell_length_c   6.17458290
_cell_angle_alpha   141.51894106
_cell_angle_beta   141.51895293
_cell_angle_gamma   55.55409861
_symmetry_Int_Tables_number   1
_chemical_formula_structural   EuReP2Rh
_chemical_formula_sum   'Eu1 Re1 P2 Rh1'
_cell_volume   90.47198643
_cell_formula_units_Z   1
loop_
 _symmetry_equiv_pos_site_id
 _symmetry_equiv_pos_as_xyz
  1  'x, y, z'
loop_
 _atom_site_type_symbol
 _atom_site_label
 _atom_site_symmetry_multiplicity
 _atom_site_fract_x
 _atom_site_fract_y
 _atom_site_fract_z
 _atom_site_occupancy
  Eu  Eu0  1  0.000000  0.000000  0.000000  1
  Re  Re1  1  0.250000  0.750000  0.500000  1
  P  P2  1  0.641050  0.641050  0.000000  1
  P  P3  1  0.358950  0.358950  0.000000  1
  Rh  Rh4  1  0.750000  0.250000  0.500000  1
