# generated using pymatgen
data_Yb4Pr16Ga5Sn11
_symmetry_space_group_name_H-M   'P 1'
_cell_length_a   7.92587058
_cell_length_b   8.58325479
_cell_length_c   15.98443416
_cell_angle_alpha   90.16354701
_cell_angle_beta   89.79778889
_cell_angle_gamma   90.03628935
_symmetry_Int_Tables_number   1
_chemical_formula_structural   Yb4Pr16Ga5Sn11
_chemical_formula_sum   'Yb4 Pr16 Ga5 Sn11'
_cell_volume   1087.40591307
_cell_formula_units_Z   1
loop_
 _symmetry_equiv_pos_site_id
 _symmetry_equiv_pos_as_xyz
  1  'x, y, z'
loop_
 _atom_site_type_symbol
 _atom_site_label
 _atom_site_symmetry_multiplicity
 _atom_site_fract_x
 _atom_site_fract_y
 _atom_site_fract_z
 _atom_site_occupancy
  Yb  Yb0  1  0.824927  0.507327  0.748992  1
  Yb  Yb1  1  0.326811  0.990470  0.749138  1
  Yb  Yb2  1  0.172504  0.492177  0.252456  1
  Yb  Yb3  1  0.674506  0.011489  0.251429  1
  Pr  Pr4  1  0.671360  0.169162  0.624339  1
  Pr  Pr5  1  0.166319  0.322383  0.870855  1
  Pr  Pr6  1  0.333086  0.822859  0.128994  1
  Pr  Pr7  1  0.826627  0.686392  0.375036  1
  Pr  Pr8  1  0.339114  0.825035  0.372196  1
  Pr  Pr9  1  0.834475  0.678345  0.129404  1
  Pr  Pr10  1  0.666464  0.176983  0.870770  1
  Pr  Pr11  1  0.167131  0.321175  0.627597  1
  Pr  Pr12  1  0.509280  0.687049  0.593325  1
  Pr  Pr13  1  0.007098  0.814438  0.904059  1
  Pr  Pr14  1  0.493222  0.316267  0.096318  1
  Pr  Pr15  1  0.984751  0.180688  0.406442  1
  Pr  Pr16  1  0.492825  0.311565  0.404966  1
  Pr  Pr17  1  0.993389  0.186660  0.095966  1
  Pr  Pr18  1  0.507016  0.684547  0.904279  1
  Pr  Pr19  1  0.008418  0.816564  0.595277  1
  Ga  Ga20  1  0.667302  0.968901  0.461317  1
  Ga  Ga21  1  0.464905  0.394467  0.748539  1
  Ga  Ga22  1  0.965072  0.100753  0.748812  1
  Ga  Ga23  1  0.534976  0.601263  0.249143  1
  Ga  Ga24  1  0.036151  0.898164  0.253402  1
  Sn  Sn25  1  0.176097  0.533968  0.036882  1
  Sn  Sn26  1  0.323655  0.033741  0.962944  1
  Sn  Sn27  1  0.825482  0.466698  0.537666  1
  Sn  Sn28  1  0.332045  0.032655  0.535974  1
  Sn  Sn29  1  0.823822  0.466149  0.963332  1
  Sn  Sn30  1  0.676785  0.966769  0.037262  1
  Sn  Sn31  1  0.174032  0.533638  0.462167  1
  Sn  Sn32  1  0.717035  0.867738  0.750209  1
  Sn  Sn33  1  0.217638  0.630267  0.749279  1
  Sn  Sn34  1  0.281710  0.131586  0.250104  1
  Sn  Sn35  1  0.783972  0.371667  0.251132  1
