# generated using pymatgen
data_Ho8Ti11NbSi15Sn
_symmetry_space_group_name_H-M   'P 1'
_cell_length_a   7.09811698
_cell_length_b   7.06264177
_cell_length_c   13.01888906
_cell_angle_alpha   89.96521936
_cell_angle_beta   89.77423630
_cell_angle_gamma   89.96746854
_symmetry_Int_Tables_number   1
_chemical_formula_structural   Ho8Ti11NbSi15Sn
_chemical_formula_sum   'Ho8 Ti11 Nb1 Si15 Sn1'
_cell_volume   652.65059282
_cell_formula_units_Z   1
loop_
 _symmetry_equiv_pos_site_id
 _symmetry_equiv_pos_as_xyz
  1  'x, y, z'
loop_
 _atom_site_type_symbol
 _atom_site_label
 _atom_site_symmetry_multiplicity
 _atom_site_fract_x
 _atom_site_fract_y
 _atom_site_fract_z
 _atom_site_occupancy
  Ho  Ho0  1  0.342822  0.999260  0.461595  1
  Ho  Ho1  1  0.505597  0.834539  0.718173  1
  Ho  Ho2  1  0.501702  0.159758  0.216475  1
  Ho  Ho3  1  0.840151  0.496856  0.282100  1
  Ho  Ho4  1  0.159189  0.509287  0.786483  1
  Ho  Ho5  1  0.660676  0.997513  0.968756  1
  Ho  Ho6  1  0.993147  0.348135  0.527334  1
  Ho  Ho7  1  0.999781  0.658667  0.034175  1
  Ti  Ti8  1  0.174298  0.826105  0.249860  1
  Ti  Ti9  1  0.816844  0.175445  0.751899  1
  Ti  Ti10  1  0.672260  0.672449  0.499387  1
  Ti  Ti11  1  0.154318  0.008694  0.883364  1
  Ti  Ti12  1  0.491784  0.649345  0.125704  1
  Ti  Ti13  1  0.514712  0.354451  0.625999  1
  Ti  Ti14  1  0.653021  0.492866  0.876569  1
  Ti  Ti15  1  0.348086  0.509054  0.373145  1
  Ti  Ti16  1  0.846626  0.992895  0.375448  1
  Ti  Ti17  1  0.010145  0.153172  0.123413  1
  Ti  Ti18  1  0.979934  0.834783  0.619020  1
  Nb  Nb19  1  0.326842  0.326818  0.001243  1
  Si  Si20  1  0.371247  0.703585  0.935732  1
  Si  Si21  1  0.628052  0.297505  0.432793  1
  Si  Si22  1  0.704093  0.369707  0.066675  1
  Si  Si23  1  0.296948  0.630571  0.565541  1
  Si  Si24  1  0.797860  0.869779  0.184320  1
  Si  Si25  1  0.129864  0.202529  0.315188  1
  Si  Si26  1  0.870733  0.800255  0.816299  1
  Si  Si27  1  0.292684  0.951259  0.067087  1
  Si  Si28  1  0.549036  0.790042  0.313715  1
  Si  Si29  1  0.460782  0.208748  0.818495  1
  Si  Si30  1  0.794126  0.544391  0.686598  1
  Si  Si31  1  0.207880  0.453798  0.186697  1
  Si  Si32  1  0.706701  0.048051  0.564318  1
  Si  Si33  1  0.951764  0.291674  0.935186  1
  Si  Si34  1  0.047573  0.710869  0.432811  1
  Sn  Sn35  1  0.198722  0.127145  0.678402  1
