# generated using pymatgen
data_Er16ZnCo4Hg3
_symmetry_space_group_name_H-M   'P 1'
_cell_length_a   9.36121525
_cell_length_b   9.34864184
_cell_length_c   9.36121400
_cell_angle_alpha   59.95549695
_cell_angle_beta   59.99999735
_cell_angle_gamma   59.95550397
_symmetry_Int_Tables_number   1
_chemical_formula_structural   Er16ZnCo4Hg3
_chemical_formula_sum   'Er16 Zn1 Co4 Hg3'
_cell_volume   578.90257536
_cell_formula_units_Z   1
loop_
 _symmetry_equiv_pos_site_id
 _symmetry_equiv_pos_as_xyz
  1  'x, y, z'
loop_
 _atom_site_type_symbol
 _atom_site_label
 _atom_site_symmetry_multiplicity
 _atom_site_fract_x
 _atom_site_fract_y
 _atom_site_fract_z
 _atom_site_occupancy
  Er  Er0  1  0.439680  0.437892  0.061214  1
  Er  Er1  1  0.598424  0.597734  0.598424  1
  Er  Er2  1  0.188492  0.811483  0.811534  1
  Er  Er3  1  0.061370  0.061067  0.438782  1
  Er  Er4  1  0.438782  0.061067  0.061370  1
  Er  Er5  1  0.812014  0.190898  0.812014  1
  Er  Er6  1  0.438782  0.061067  0.438782  1
  Er  Er7  1  0.598360  0.204920  0.598360  1
  Er  Er8  1  0.811534  0.811483  0.188492  1
  Er  Er9  1  0.205418  0.597734  0.598424  1
  Er  Er10  1  0.812014  0.190898  0.185074  1
  Er  Er11  1  0.061214  0.437892  0.439680  1
  Er  Er12  1  0.188492  0.811483  0.188492  1
  Er  Er13  1  0.598424  0.597734  0.205418  1
  Er  Er14  1  0.185074  0.190898  0.812014  1
  Er  Er15  1  0.061214  0.437892  0.061214  1
  Zn  Zn16  1  0.830079  0.509763  0.830079  1
  Co  Co17  1  0.391388  0.391310  0.391388  1
  Co  Co18  1  0.825914  0.391310  0.391388  1
  Co  Co19  1  0.391688  0.824939  0.391688  1
  Co  Co20  1  0.391388  0.391310  0.825914  1
  Hg  Hg21  1  0.834851  0.829741  0.500556  1
  Hg  Hg22  1  0.834851  0.829741  0.834851  1
  Hg  Hg23  1  0.500556  0.829741  0.834851  1
