# generated using pymatgen
data_Pr4Y5Tm11Bi12
_symmetry_space_group_name_H-M   'P 1'
_cell_length_a   8.31608337
_cell_length_b   9.49617706
_cell_length_c   12.17894273
_cell_angle_alpha   89.99848003
_cell_angle_beta   90.05120568
_cell_angle_gamma   90.00214034
_symmetry_Int_Tables_number   1
_chemical_formula_structural   Pr4Y5Tm11Bi12
_chemical_formula_sum   'Pr4 Y5 Tm11 Bi12'
_cell_volume   961.78290254
_cell_formula_units_Z   1
loop_
 _symmetry_equiv_pos_site_id
 _symmetry_equiv_pos_as_xyz
  1  'x, y, z'
loop_
 _atom_site_type_symbol
 _atom_site_label
 _atom_site_symmetry_multiplicity
 _atom_site_fract_x
 _atom_site_fract_y
 _atom_site_fract_z
 _atom_site_occupancy
  Pr  Pr0  1  0.183184  0.749821  0.720043  1
  Pr  Pr1  1  0.683591  0.749924  0.780011  1
  Pr  Pr2  1  0.816561  0.249590  0.279696  1
  Pr  Pr3  1  0.316396  0.249693  0.219860  1
  Y  Y4  1  0.808534  0.437356  0.560517  1
  Y  Y5  1  0.352457  0.749592  0.217356  1
  Y  Y6  1  0.851873  0.749247  0.282342  1
  Y  Y7  1  0.646736  0.249071  0.783078  1
  Y  Y8  1  0.148548  0.249330  0.717688  1
  Tm  Tm9  1  0.023315  0.749707  0.988527  1
  Tm  Tm10  1  0.523276  0.749892  0.511586  1
  Tm  Tm11  1  0.976628  0.249730  0.011562  1
  Tm  Tm12  1  0.475820  0.249493  0.488296  1
  Tm  Tm13  1  0.308141  0.433841  0.940032  1
  Tm  Tm14  1  0.807961  0.066629  0.560476  1
  Tm  Tm15  1  0.691838  0.933964  0.059897  1
  Tm  Tm16  1  0.191732  0.566307  0.439818  1
  Tm  Tm17  1  0.691694  0.565928  0.060010  1
  Tm  Tm18  1  0.192826  0.934644  0.439350  1
  Tm  Tm19  1  0.308148  0.065820  0.940220  1
  Bi  Bi20  1  0.434664  0.008283  0.670174  1
  Bi  Bi21  1  0.935068  0.490801  0.829992  1
  Bi  Bi22  1  0.565182  0.508397  0.329706  1
  Bi  Bi23  1  0.065150  0.990817  0.170155  1
  Bi  Bi24  1  0.565209  0.991002  0.329875  1
  Bi  Bi25  1  0.065381  0.508463  0.169933  1
  Bi  Bi26  1  0.434244  0.490865  0.670255  1
  Bi  Bi27  1  0.934866  0.008567  0.830061  1
  Bi  Bi28  1  0.404010  0.749854  0.962617  1
  Bi  Bi29  1  0.905351  0.753492  0.536660  1
  Bi  Bi30  1  0.595911  0.250045  0.037544  1
  Bi  Bi31  1  0.095705  0.249836  0.462666  1
