# generated using pymatgen
data_Yb2BeSi2O7
_symmetry_space_group_name_H-M   'P 1'
_cell_length_a   7.41946100
_cell_length_b   7.41946100
_cell_length_c   4.95775900
_cell_angle_alpha   90.00000000
_cell_angle_beta   90.00000000
_cell_angle_gamma   90.00000000
_symmetry_Int_Tables_number   1
_chemical_formula_structural   Yb2BeSi2O7
_chemical_formula_sum   'Yb4 Be2 Si4 O14'
_cell_volume   272.91670812
_cell_formula_units_Z   2
loop_
 _symmetry_equiv_pos_site_id
 _symmetry_equiv_pos_as_xyz
  1  'x, y, z'
loop_
 _atom_site_type_symbol
 _atom_site_label
 _atom_site_symmetry_multiplicity
 _atom_site_fract_x
 _atom_site_fract_y
 _atom_site_fract_z
 _atom_site_occupancy
  Yb  Yb0  1  0.836934  0.663066  0.513688  1
  Yb  Yb1  1  0.336934  0.836934  0.486312  1
  Yb  Yb2  1  0.663066  0.163066  0.486312  1
  Yb  Yb3  1  0.163066  0.336934  0.513688  1
  Be  Be4  1  0.000000  0.000000  0.000000  1
  Be  Be5  1  0.500000  0.500000  0.000000  1
  Si  Si6  1  0.647865  0.852135  0.960299  1
  Si  Si7  1  0.147865  0.647865  0.039701  1
  Si  Si8  1  0.852135  0.352135  0.039701  1
  Si  Si9  1  0.352135  0.147865  0.960299  1
  O  O10  1  0.163419  0.087290  0.813993  1
  O  O11  1  0.836581  0.912710  0.813993  1
  O  O12  1  0.912710  0.163419  0.186007  1
  O  O13  1  0.087290  0.836581  0.186007  1
  O  O14  1  0.663419  0.412710  0.186007  1
  O  O15  1  0.587290  0.663419  0.813993  1
  O  O16  1  0.412710  0.336581  0.813993  1
  O  O17  1  0.336581  0.587290  0.186007  1
  O  O18  1  0.500000  0.000000  0.829415  1
  O  O19  1  0.000000  0.500000  0.170585  1
  O  O20  1  0.360225  0.139775  0.286043  1
  O  O21  1  0.860225  0.360225  0.713957  1
  O  O22  1  0.139775  0.639775  0.713957  1
  O  O23  1  0.639775  0.860225  0.286043  1
