# generated using pymatgen
data_LaPr3(TcO6)2
_symmetry_space_group_name_H-M   'P 1'
_cell_length_a   10.27575595
_cell_length_b   10.27575645
_cell_length_c   5.64950087
_cell_angle_alpha   75.47377459
_cell_angle_beta   75.47377031
_cell_angle_gamma   69.49897348
_symmetry_Int_Tables_number   1
_chemical_formula_structural   LaPr3(TcO6)2
_chemical_formula_sum   'La2 Pr6 Tc4 O24'
_cell_volume   532.08503050
_cell_formula_units_Z   2
loop_
 _symmetry_equiv_pos_site_id
 _symmetry_equiv_pos_as_xyz
  1  'x, y, z'
loop_
 _atom_site_type_symbol
 _atom_site_label
 _atom_site_symmetry_multiplicity
 _atom_site_fract_x
 _atom_site_fract_y
 _atom_site_fract_z
 _atom_site_occupancy
  La  La0  1  0.631359  0.368641  0.750000  1
  La  La1  1  0.368641  0.631359  0.250000  1
  Pr  Pr2  1  0.110834  0.889166  0.750000  1
  Pr  Pr3  1  0.889166  0.110834  0.250000  1
  Pr  Pr4  1  0.713571  0.940572  0.874531  1
  Pr  Pr5  1  0.286429  0.059428  0.125469  1
  Pr  Pr6  1  0.059428  0.286429  0.625469  1
  Pr  Pr7  1  0.940572  0.713571  0.374531  1
  Tc  Tc8  1  0.506065  0.802420  0.554209  1
  Tc  Tc9  1  0.493935  0.197580  0.445791  1
  Tc  Tc10  1  0.197580  0.493935  0.945791  1
  Tc  Tc11  1  0.802420  0.506065  0.054209  1
  O  O12  1  0.688536  0.162186  0.588797  1
  O  O13  1  0.311464  0.837814  0.411203  1
  O  O14  1  0.837814  0.311464  0.911203  1
  O  O15  1  0.162186  0.688536  0.088797  1
  O  O16  1  0.388013  0.826552  0.849851  1
  O  O17  1  0.611987  0.173448  0.150149  1
  O  O18  1  0.173448  0.611987  0.650149  1
  O  O19  1  0.826552  0.388013  0.349851  1
  O  O20  1  0.675534  0.789102  0.630059  1
  O  O21  1  0.324466  0.210898  0.369941  1
  O  O22  1  0.210898  0.324466  0.869941  1
  O  O23  1  0.789102  0.675534  0.130059  1
  O  O24  1  0.471675  0.072669  0.733372  1
  O  O25  1  0.528325  0.927331  0.266628  1
  O  O26  1  0.927331  0.528325  0.766628  1
  O  O27  1  0.072669  0.471675  0.233372  1
  O  O28  1  0.540167  0.620555  0.527004  1
  O  O29  1  0.459833  0.379445  0.472996  1
  O  O30  1  0.379445  0.459833  0.972996  1
  O  O31  1  0.620555  0.540167  0.027004  1
  O  O32  1  0.890376  0.923709  0.076606  1
  O  O33  1  0.109624  0.076291  0.923394  1
  O  O34  1  0.076291  0.109624  0.423394  1
  O  O35  1  0.923709  0.890376  0.576606  1
