# generated using pymatgen
data_Y4Al15Si3RuRh5
_symmetry_space_group_name_H-M   'P 1'
_cell_length_a   7.53424279
_cell_length_b   7.48687733
_cell_length_c   9.44090453
_cell_angle_alpha   90.01251370
_cell_angle_beta   89.94758026
_cell_angle_gamma   119.74797247
_symmetry_Int_Tables_number   1
_chemical_formula_structural   Y4Al15Si3RuRh5
_chemical_formula_sum   'Y4 Al15 Si3 Ru1 Rh5'
_cell_volume   462.36154771
_cell_formula_units_Z   1
loop_
 _symmetry_equiv_pos_site_id
 _symmetry_equiv_pos_as_xyz
  1  'x, y, z'
loop_
 _atom_site_type_symbol
 _atom_site_label
 _atom_site_symmetry_multiplicity
 _atom_site_fract_x
 _atom_site_fract_y
 _atom_site_fract_z
 _atom_site_occupancy
  Y  Y0  1  0.994297  0.664597  0.246913  1
  Y  Y1  1  0.005840  0.341775  0.754868  1
  Y  Y2  1  0.675543  0.001376  0.247123  1
  Y  Y3  1  0.318747  0.991177  0.750729  1
  Al  Al4  1  0.128273  0.126623  0.249575  1
  Al  Al5  1  0.871082  0.871385  0.749592  1
  Al  Al6  1  0.338324  0.003199  0.422507  1
  Al  Al7  1  0.001914  0.330908  0.428819  1
  Al  Al8  1  0.665859  0.001241  0.575307  1
  Al  Al9  1  0.662301  0.998749  0.923223  1
  Al  Al10  1  0.340755  0.005011  0.077090  1
  Al  Al11  1  0.333255  0.331575  0.555168  1
  Al  Al12  1  0.663606  0.667754  0.445696  1
  Al  Al13  1  0.663703  0.665606  0.054460  1
  Al  Al14  1  0.337843  0.332259  0.946489  1
  Al  Al15  1  0.337848  0.550364  0.249821  1
  Al  Al16  1  0.661621  0.449975  0.751629  1
  Al  Al17  1  0.549057  0.343227  0.248211  1
  Al  Al18  1  0.455596  0.658786  0.749868  1
  Si  Si19  1  0.001039  0.329232  0.075560  1
  Si  Si20  1  0.994104  0.669049  0.931346  1
  Si  Si21  1  0.997680  0.665646  0.566161  1
  Ru  Ru22  1  0.689834  0.337189  0.000843  1
  Rh  Rh23  1  0.310991  0.663068  0.996957  1
  Rh  Rh24  1  0.319539  0.670503  0.502765  1
  Rh  Rh25  1  0.679597  0.336098  0.499904  1
  Rh  Rh26  1  0.000745  0.000226  0.998858  1
  Rh  Rh27  1  0.001005  0.993405  0.500521  1
