# generated using pymatgen
data_Dy3Tm(Si4Tc3)2
_symmetry_space_group_name_H-M   'P 1'
_cell_length_a   6.78937063
_cell_length_b   6.77221420
_cell_length_c   6.77634795
_cell_angle_alpha   69.82675110
_cell_angle_beta   90.03204793
_cell_angle_gamma   89.88913204
_symmetry_Int_Tables_number   1
_chemical_formula_structural   Dy3Tm(Si4Tc3)2
_chemical_formula_sum   'Dy3 Tm1 Si8 Tc6'
_cell_volume   292.45585268
_cell_formula_units_Z   1
loop_
 _symmetry_equiv_pos_site_id
 _symmetry_equiv_pos_as_xyz
  1  'x, y, z'
loop_
 _atom_site_type_symbol
 _atom_site_label
 _atom_site_symmetry_multiplicity
 _atom_site_fract_x
 _atom_site_fract_y
 _atom_site_fract_z
 _atom_site_occupancy
  Dy  Dy0  1  0.332443  0.557194  0.808928  1
  Dy  Dy1  1  0.832653  0.942513  0.191218  1
  Dy  Dy2  1  0.667419  0.442384  0.191382  1
  Tm  Tm3  1  0.168435  0.057205  0.807922  1
  Si  Si4  1  0.550539  0.878338  0.896655  1
  Si  Si5  1  0.051827  0.622567  0.102397  1
  Si  Si6  1  0.447987  0.121850  0.102047  1
  Si  Si7  1  0.948397  0.377596  0.895999  1
  Si  Si8  1  0.141914  0.868867  0.488009  1
  Si  Si9  1  0.642245  0.631588  0.514230  1
  Si  Si10  1  0.859053  0.131878  0.513997  1
  Si  Si11  1  0.357386  0.367398  0.487303  1
  Tc  Tc12  1  0.499134  0.999980  0.500614  1
  Tc  Tc13  1  0.000514  0.498536  0.500834  1
  Tc  Tc14  1  0.851252  0.759515  0.760510  1
  Tc  Tc15  1  0.348989  0.743419  0.239432  1
  Tc  Tc16  1  0.150152  0.242228  0.238484  1
  Tc  Tc17  1  0.649662  0.256944  0.760038  1
