# generated using pymatgen
data_TbDyTm2(B6Ru)2
_symmetry_space_group_name_H-M   'P 1'
_cell_length_a   3.64011300
_cell_length_b   9.10248000
_cell_length_c   11.48638400
_cell_angle_alpha   90.00323884
_cell_angle_beta   90.00000000
_cell_angle_gamma   90.00000000
_symmetry_Int_Tables_number   1
_chemical_formula_structural   TbDyTm2(B6Ru)2
_chemical_formula_sum   'Tb2 Dy2 Tm4 B24 Ru4'
_cell_volume   380.59048787
_cell_formula_units_Z   2
loop_
 _symmetry_equiv_pos_site_id
 _symmetry_equiv_pos_as_xyz
  1  'x, y, z'
loop_
 _atom_site_type_symbol
 _atom_site_label
 _atom_site_symmetry_multiplicity
 _atom_site_fract_x
 _atom_site_fract_y
 _atom_site_fract_z
 _atom_site_occupancy
  Tb  Tb0  1  0.000000  0.322154  0.414132  1
  Tb  Tb1  1  0.000000  0.677846  0.585868  1
  Dy  Dy2  1  0.000000  0.822100  0.085780  1
  Dy  Dy3  1  0.000000  0.177900  0.914220  1
  Tm  Tm4  1  0.000000  0.943845  0.372241  1
  Tm  Tm5  1  0.000000  0.056155  0.627759  1
  Tm  Tm6  1  0.000000  0.443866  0.127596  1
  Tm  Tm7  1  0.000000  0.556134  0.872404  1
  B  B8  1  0.500000  0.554631  0.432601  1
  B  B9  1  0.500000  0.445369  0.567399  1
  B  B10  1  0.500000  0.054466  0.067133  1
  B  B11  1  0.500000  0.945534  0.932867  1
  B  B12  1  0.500000  0.749242  0.419171  1
  B  B13  1  0.500000  0.250758  0.580829  1
  B  B14  1  0.500000  0.249108  0.080556  1
  B  B15  1  0.500000  0.750892  0.919444  1
  B  B16  1  0.500000  0.791626  0.265851  1
  B  B17  1  0.500000  0.208374  0.734149  1
  B  B18  1  0.500000  0.291465  0.233859  1
  B  B19  1  0.500000  0.708535  0.766141  1
  B  B20  1  0.500000  0.631244  0.184471  1
  B  B21  1  0.500000  0.368756  0.815529  1
  B  B22  1  0.500000  0.131046  0.315315  1
  B  B23  1  0.500000  0.868954  0.684685  1
  B  B24  1  0.500000  0.983232  0.213214  1
  B  B25  1  0.500000  0.016768  0.786786  1
  B  B26  1  0.500000  0.483479  0.286561  1
  B  B27  1  0.500000  0.516521  0.713439  1
  B  B28  1  0.500000  0.605448  0.028966  1
  B  B29  1  0.500000  0.394552  0.971034  1
  B  B30  1  0.500000  0.105046  0.471138  1
  B  B31  1  0.500000  0.894954  0.528862  1
  Ru  Ru32  1  0.000000  0.638582  0.320201  1
  Ru  Ru33  1  0.000000  0.361418  0.679799  1
  Ru  Ru34  1  0.000000  0.138264  0.179417  1
  Ru  Ru35  1  0.000000  0.861736  0.820583  1
