# generated using pymatgen
data_Ta5Nb6Tc12Sn
_symmetry_space_group_name_H-M   'P 1'
_cell_length_a   4.50424701
_cell_length_b   6.41608200
_cell_length_c   13.60272601
_cell_angle_alpha   90.00000000
_cell_angle_beta   89.99854416
_cell_angle_gamma   90.00000000
_symmetry_Int_Tables_number   1
_chemical_formula_structural   Ta5Nb6Tc12Sn
_chemical_formula_sum   'Ta5 Nb6 Tc12 Sn1'
_cell_volume   393.11358744
_cell_formula_units_Z   1
loop_
 _symmetry_equiv_pos_site_id
 _symmetry_equiv_pos_as_xyz
  1  'x, y, z'
loop_
 _atom_site_type_symbol
 _atom_site_label
 _atom_site_symmetry_multiplicity
 _atom_site_fract_x
 _atom_site_fract_y
 _atom_site_fract_z
 _atom_site_occupancy
  Ta  Ta0  1  0.000004  0.499999  0.999479  1
  Ta  Ta1  1  0.499989  0.000000  0.166496  1
  Ta  Ta2  1  0.999987  0.499999  0.333333  1
  Ta  Ta3  1  0.499997  0.000000  0.500175  1
  Ta  Ta4  1  0.000019  0.499999  0.667185  1
  Nb  Nb5  1  0.999998  0.000000  0.998023  1
  Nb  Nb6  1  0.499975  0.499999  0.166776  1
  Nb  Nb7  1  0.999987  0.000000  0.333336  1
  Nb  Nb8  1  0.500004  0.499999  0.499886  1
  Nb  Nb9  1  0.000010  0.000000  0.668645  1
  Nb  Nb10  1  0.500020  0.499999  0.833331  1
  Tc  Tc11  1  0.499999  0.253480  0.003176  1
  Tc  Tc12  1  0.499999  0.746519  0.003176  1
  Tc  Tc13  1  0.999988  0.249892  0.166937  1
  Tc  Tc14  1  0.999988  0.750107  0.166937  1
  Tc  Tc15  1  0.499986  0.248815  0.333331  1
  Tc  Tc16  1  0.499986  0.751185  0.333331  1
  Tc  Tc17  1  0.999999  0.249895  0.499727  1
  Tc  Tc18  1  0.999999  0.750105  0.499727  1
  Tc  Tc19  1  0.500015  0.253482  0.663495  1
  Tc  Tc20  1  0.500015  0.746518  0.663495  1
  Tc  Tc21  1  0.000013  0.257377  0.833335  1
  Tc  Tc22  1  0.000013  0.742622  0.833335  1
  Sn  Sn23  1  0.500007  0.000000  0.833337  1
