# generated using pymatgen
data_UP3RuO12
_symmetry_space_group_name_H-M   'P 1'
_cell_length_a   9.01632012
_cell_length_b   9.01609305
_cell_length_c   9.34380000
_cell_angle_alpha   90.09820766
_cell_angle_beta   118.70327626
_cell_angle_gamma   119.98715910
_symmetry_Int_Tables_number   1
_chemical_formula_structural   UP3RuO12
_chemical_formula_sum   'U2 P6 Ru2 O24'
_cell_volume   547.05582738
_cell_formula_units_Z   2
loop_
 _symmetry_equiv_pos_site_id
 _symmetry_equiv_pos_as_xyz
  1  'x, y, z'
loop_
 _atom_site_type_symbol
 _atom_site_label
 _atom_site_symmetry_multiplicity
 _atom_site_fract_x
 _atom_site_fract_y
 _atom_site_fract_z
 _atom_site_occupancy
  U  U0  1  0.208434  0.354912  0.562995  1
  U  U1  1  0.790541  0.144549  0.935309  1
  P  P2  1  0.998312  0.946817  0.248798  1
  P  P3  1  0.301936  0.552039  0.250524  1
  P  P4  1  0.267535  0.751544  0.748489  1
  P  P5  1  0.697794  0.249521  0.251457  1
  P  P6  1  0.733943  0.482837  0.749416  1
  P  P7  1  0.000195  0.017140  0.750881  1
  Ru  Ru8  1  0.208244  0.855484  0.063330  1
  Ru  Ru9  1  0.793483  0.645220  0.439817  1
  O  O10  1  0.300102  0.717930  0.217972  1
  O  O11  1  0.862110  0.981765  0.087646  1
  O  O12  1  0.850602  0.847051  0.592744  1
  O  O13  1  0.855304  0.789253  0.283083  1
  O  O14  1  0.139149  0.918451  0.222550  1
  O  O15  1  0.494673  0.567668  0.285748  1
  O  O16  1  0.089461  0.737966  0.584729  1
  O  O17  1  0.915310  0.645244  0.913969  1
  O  O18  1  0.271617  0.777423  0.913215  1
  O  O19  1  0.471144  0.914907  0.777001  1
  O  O20  1  0.742729  0.496309  0.588915  1
  O  O21  1  0.713095  0.425815  0.280236  1
  O  O22  1  0.263066  0.578537  0.718619  1
  O  O23  1  0.276602  0.516238  0.405381  1
  O  O24  1  0.501483  0.081819  0.222438  1
  O  O25  1  0.714556  0.224716  0.093805  1
  O  O26  1  0.106171  0.376443  0.092909  1
  O  O27  1  0.890441  0.265867  0.408621  1
  O  O28  1  0.532202  0.455218  0.712521  1
  O  O29  1  0.865273  0.059505  0.777167  1
  O  O30  1  0.140344  0.181875  0.715675  1
  O  O31  1  0.137747  0.127506  0.401597  1
  O  O32  1  0.142523  0.003027  0.919917  1
  O  O33  1  0.723879  0.309405  0.782527  1
