# generated using pymatgen
data_Lu12Fe3SnPt
_symmetry_space_group_name_H-M   'P 1'
_cell_length_a   8.06525842
_cell_length_b   8.06525694
_cell_length_c   8.06525800
_cell_angle_alpha   107.16565797
_cell_angle_beta   110.75056386
_cell_angle_gamma   110.52183495
_symmetry_Int_Tables_number   1
_chemical_formula_structural   Lu12Fe3SnPt
_chemical_formula_sum   'Lu12 Fe3 Sn1 Pt1'
_cell_volume   403.37222190
_cell_formula_units_Z   1
loop_
 _symmetry_equiv_pos_site_id
 _symmetry_equiv_pos_as_xyz
  1  'x, y, z'
loop_
 _atom_site_type_symbol
 _atom_site_label
 _atom_site_symmetry_multiplicity
 _atom_site_fract_x
 _atom_site_fract_y
 _atom_site_fract_z
 _atom_site_occupancy
  Lu  Lu0  1  0.312464  0.304328  0.616774  1
  Lu  Lu1  1  0.687536  0.695672  0.383226  1
  Lu  Lu2  1  0.687555  0.304328  0.991863  1
  Lu  Lu3  1  0.312445  0.695672  0.008137  1
  Lu  Lu4  1  0.188404  0.407037  0.218631  1
  Lu  Lu5  1  0.811596  0.592963  0.781369  1
  Lu  Lu6  1  0.188420  0.969932  0.781513  1
  Lu  Lu7  1  0.924547  0.193587  0.731010  1
  Lu  Lu8  1  0.811580  0.030068  0.218487  1
  Lu  Lu9  1  0.075453  0.806413  0.268990  1
  Lu  Lu10  1  0.462578  0.193587  0.269039  1
  Lu  Lu11  1  0.537422  0.806413  0.730961  1
  Fe  Fe12  1  0.381719  0.381920  0.000201  1
  Fe  Fe13  1  0.618281  0.618080  0.999799  1
  Fe  Fe14  1  0.000000  0.000000  0.000000  1
  Sn  Sn15  1  0.000000  0.500000  0.500000  1
  Pt  Pt16  1  0.500000  0.000000  0.500000  1
