# generated using pymatgen
data_TmLu15(Ga3Os)2
_symmetry_space_group_name_H-M   'P 1'
_cell_length_a   9.81988000
_cell_length_b   9.81988003
_cell_length_c   6.90114200
_cell_angle_alpha   90.00000000
_cell_angle_beta   90.00000000
_cell_angle_gamma   120.00000663
_symmetry_Int_Tables_number   1
_chemical_formula_structural   TmLu15(Ga3Os)2
_chemical_formula_sum   'Tm1 Lu15 Ga6 Os2'
_cell_volume   576.32031574
_cell_formula_units_Z   1
loop_
 _symmetry_equiv_pos_site_id
 _symmetry_equiv_pos_as_xyz
  1  'x, y, z'
loop_
 _atom_site_type_symbol
 _atom_site_label
 _atom_site_symmetry_multiplicity
 _atom_site_fract_x
 _atom_site_fract_y
 _atom_site_fract_z
 _atom_site_occupancy
  Tm  Tm0  1  0.000000  0.000000  0.764411  1
  Lu  Lu1  1  0.171822  0.828178  0.990692  1
  Lu  Lu2  1  0.343591  0.171795  0.490428  1
  Lu  Lu3  1  0.828205  0.656409  0.490428  1
  Lu  Lu4  1  0.171822  0.343645  0.990692  1
  Lu  Lu5  1  0.656355  0.828178  0.990692  1
  Lu  Lu6  1  0.828205  0.171795  0.490428  1
  Lu  Lu7  1  0.333333  0.666667  0.659036  1
  Lu  Lu8  1  0.666667  0.333333  0.159088  1
  Lu  Lu9  1  0.466612  0.533388  0.293616  1
  Lu  Lu10  1  0.933278  0.466640  0.793604  1
  Lu  Lu11  1  0.533360  0.066722  0.793604  1
  Lu  Lu12  1  0.466612  0.933221  0.293616  1
  Lu  Lu13  1  0.066779  0.533388  0.293616  1
  Lu  Lu14  1  0.533360  0.466640  0.793604  1
  Lu  Lu15  1  0.000000  0.000000  0.264318  1
  Ga  Ga16  1  0.163915  0.836085  0.543426  1
  Ga  Ga17  1  0.327808  0.163904  0.043538  1
  Ga  Ga18  1  0.836096  0.672192  0.043538  1
  Ga  Ga19  1  0.163915  0.327829  0.543426  1
  Ga  Ga20  1  0.672171  0.836085  0.543426  1
  Ga  Ga21  1  0.836096  0.163904  0.043538  1
  Os  Os22  1  0.333333  0.666667  0.055581  1
  Os  Os23  1  0.666667  0.333333  0.555654  1
