# generated using pymatgen
data_Er3Lu4CoSn23Os5
_symmetry_space_group_name_H-M   'P 1'
_cell_length_a   9.80103186
_cell_length_b   9.83649582
_cell_length_c   10.04665425
_cell_angle_alpha   89.99999848
_cell_angle_beta   89.93540374
_cell_angle_gamma   120.11977141
_symmetry_Int_Tables_number   1
_chemical_formula_structural   Er3Lu4CoSn23Os5
_chemical_formula_sum   'Er3 Lu4 Co1 Sn23 Os5'
_cell_volume   837.79645328
_cell_formula_units_Z   1
loop_
 _symmetry_equiv_pos_site_id
 _symmetry_equiv_pos_as_xyz
  1  'x, y, z'
loop_
 _atom_site_type_symbol
 _atom_site_label
 _atom_site_symmetry_multiplicity
 _atom_site_fract_x
 _atom_site_fract_y
 _atom_site_fract_z
 _atom_site_occupancy
  Er  Er0  1  0.027238  0.513619  0.301531  1
  Er  Er1  1  0.968814  0.484406  0.697418  1
  Er  Er2  1  0.014301  0.007150  0.007879  1
  Lu  Lu3  1  0.486311  0.513100  0.301924  1
  Lu  Lu4  1  0.512851  0.484581  0.696263  1
  Lu  Lu5  1  0.486311  0.973213  0.301924  1
  Lu  Lu6  1  0.512851  0.028269  0.696263  1
  Co  Co7  1  0.656383  0.828192  0.797829  1
  Sn  Sn8  1  0.116411  0.881463  0.281399  1
  Sn  Sn9  1  0.876827  0.110130  0.726034  1
  Sn  Sn10  1  0.116411  0.234950  0.281399  1
  Sn  Sn11  1  0.876827  0.766698  0.726034  1
  Sn  Sn12  1  0.760393  0.880196  0.275808  1
  Sn  Sn13  1  0.238732  0.119366  0.722757  1
  Sn  Sn14  1  0.777953  0.220019  0.463576  1
  Sn  Sn15  1  0.221199  0.778413  0.536361  1
  Sn  Sn16  1  0.777953  0.557935  0.463576  1
  Sn  Sn17  1  0.221199  0.442785  0.536361  1
  Sn  Sn18  1  0.443431  0.221716  0.462368  1
  Sn  Sn19  1  0.560753  0.780377  0.541977  1
  Sn  Sn20  1  0.352822  0.998685  0.000016  1
  Sn  Sn21  1  0.653067  0.997294  0.993691  1
  Sn  Sn22  1  0.000578  0.350355  0.999987  1
  Sn  Sn23  1  0.000578  0.650224  0.999987  1
  Sn  Sn24  1  0.653067  0.655772  0.993691  1
  Sn  Sn25  1  0.352822  0.354137  0.000016  1
  Sn  Sn26  1  0.335042  0.667522  0.131813  1
  Sn  Sn27  1  0.664361  0.332181  0.866646  1
  Sn  Sn28  1  0.336266  0.668134  0.822763  1
  Sn  Sn29  1  0.665898  0.332948  0.173014  1
  Sn  Sn30  1  0.997970  0.998986  0.502061  1
  Os  Os31  1  0.827530  0.168445  0.201555  1
  Os  Os32  1  0.170451  0.830128  0.796923  1
  Os  Os33  1  0.827530  0.659087  0.201555  1
  Os  Os34  1  0.170451  0.340322  0.796923  1
  Os  Os35  1  0.338412  0.169207  0.200685  1
