# generated using pymatgen
data_DyCoNi4P3
_symmetry_space_group_name_H-M   'P 1'
_cell_length_a   3.69995600
_cell_length_b   10.32248800
_cell_length_c   11.82919900
_cell_angle_alpha   90.00000000
_cell_angle_beta   90.00000000
_cell_angle_gamma   90.00000000
_symmetry_Int_Tables_number   1
_chemical_formula_structural   DyCoNi4P3
_chemical_formula_sum   'Dy4 Co4 Ni16 P12'
_cell_volume   451.78965679
_cell_formula_units_Z   4
loop_
 _symmetry_equiv_pos_site_id
 _symmetry_equiv_pos_as_xyz
  1  'x, y, z'
loop_
 _atom_site_type_symbol
 _atom_site_label
 _atom_site_symmetry_multiplicity
 _atom_site_fract_x
 _atom_site_fract_y
 _atom_site_fract_z
 _atom_site_occupancy
  Dy  Dy0  1  0.250000  0.582318  0.703763  1
  Dy  Dy1  1  0.250000  0.917682  0.203763  1
  Dy  Dy2  1  0.750000  0.417682  0.296237  1
  Dy  Dy3  1  0.750000  0.082318  0.796237  1
  Co  Co4  1  0.250000  0.468750  0.932211  1
  Co  Co5  1  0.250000  0.031250  0.432211  1
  Co  Co6  1  0.750000  0.531250  0.067789  1
  Co  Co7  1  0.750000  0.968750  0.567789  1
  Ni  Ni8  1  0.250000  0.713276  0.990804  1
  Ni  Ni9  1  0.250000  0.786724  0.490804  1
  Ni  Ni10  1  0.750000  0.286724  0.009196  1
  Ni  Ni11  1  0.750000  0.213276  0.509196  1
  Ni  Ni12  1  0.250000  0.405270  0.487682  1
  Ni  Ni13  1  0.250000  0.094730  0.987682  1
  Ni  Ni14  1  0.750000  0.594730  0.512318  1
  Ni  Ni15  1  0.750000  0.905270  0.012318  1
  Ni  Ni16  1  0.250000  0.222151  0.178208  1
  Ni  Ni17  1  0.250000  0.277849  0.678208  1
  Ni  Ni18  1  0.750000  0.777849  0.821792  1
  Ni  Ni19  1  0.750000  0.722151  0.321792  1
  Ni  Ni20  1  0.250000  0.881927  0.698745  1
  Ni  Ni21  1  0.250000  0.618073  0.198745  1
  Ni  Ni22  1  0.750000  0.118073  0.301255  1
  Ni  Ni23  1  0.750000  0.381927  0.801255  1
  P  P24  1  0.250000  0.420191  0.111654  1
  P  P25  1  0.250000  0.079809  0.611654  1
  P  P26  1  0.750000  0.579809  0.888346  1
  P  P27  1  0.750000  0.920191  0.388346  1
  P  P28  1  0.250000  0.271133  0.870372  1
  P  P29  1  0.250000  0.228867  0.370372  1
  P  P30  1  0.750000  0.728867  0.129628  1
  P  P31  1  0.750000  0.771133  0.629628  1
  P  P32  1  0.250000  0.601373  0.392373  1
  P  P33  1  0.250000  0.898627  0.892373  1
  P  P34  1  0.750000  0.398627  0.607627  1
  P  P35  1  0.750000  0.101373  0.107627  1
