# generated using pymatgen
data_Rb2S5O16
_symmetry_space_group_name_H-M   'P 1'
_cell_length_a   9.21676800
_cell_length_b   10.86303000
_cell_length_c   14.49059000
_cell_angle_alpha   90.00000000
_cell_angle_beta   90.00000000
_cell_angle_gamma   90.00000000
_symmetry_Int_Tables_number   1
_chemical_formula_structural   Rb2S5O16
_chemical_formula_sum   'Rb8 S20 O64'
_cell_volume   1450.82724739
_cell_formula_units_Z   4
loop_
 _symmetry_equiv_pos_site_id
 _symmetry_equiv_pos_as_xyz
  1  'x, y, z'
loop_
 _atom_site_type_symbol
 _atom_site_label
 _atom_site_symmetry_multiplicity
 _atom_site_fract_x
 _atom_site_fract_y
 _atom_site_fract_z
 _atom_site_occupancy
  Rb  Rb0  1  0.249352  0.010030  0.037094  1
  Rb  Rb1  1  0.749352  0.489970  0.962906  1
  Rb  Rb2  1  0.750648  0.010030  0.462906  1
  Rb  Rb3  1  0.250648  0.489970  0.537094  1
  Rb  Rb4  1  0.750648  0.989970  0.962906  1
  Rb  Rb5  1  0.250648  0.510030  0.037094  1
  Rb  Rb6  1  0.249352  0.989970  0.537094  1
  Rb  Rb7  1  0.749352  0.510030  0.462906  1
  S  S8  1  0.000000  0.159320  0.250000  1
  S  S9  1  0.500000  0.340680  0.750000  1
  S  S10  1  0.000000  0.840680  0.750000  1
  S  S11  1  0.500000  0.659320  0.250000  1
  S  S12  1  0.215341  0.347099  0.285057  1
  S  S13  1  0.715341  0.152901  0.714943  1
  S  S14  1  0.784659  0.347099  0.214943  1
  S  S15  1  0.284659  0.152901  0.785057  1
  S  S16  1  0.928123  0.753457  0.079577  1
  S  S17  1  0.428123  0.746543  0.920423  1
  S  S18  1  0.071877  0.753457  0.420423  1
  S  S19  1  0.571877  0.746543  0.579577  1
  S  S20  1  0.071877  0.246543  0.920423  1
  S  S21  1  0.571877  0.253457  0.079577  1
  S  S22  1  0.928123  0.246543  0.579577  1
  S  S23  1  0.428123  0.253457  0.420423  1
  S  S24  1  0.715341  0.847099  0.214943  1
  S  S25  1  0.215341  0.652901  0.785057  1
  S  S26  1  0.284659  0.847099  0.285057  1
  S  S27  1  0.784659  0.652901  0.714943  1
  O  O28  1  0.603727  0.595917  0.305004  1
  O  O29  1  0.103727  0.904083  0.694996  1
  O  O30  1  0.396273  0.595917  0.194996  1
  O  O31  1  0.896273  0.904083  0.805004  1
  O  O32  1  0.396273  0.404083  0.694996  1
  O  O33  1  0.896273  0.095917  0.305004  1
  O  O34  1  0.603727  0.404083  0.805004  1
  O  O35  1  0.103727  0.095917  0.194996  1
  O  O36  1  0.696242  0.863453  0.311719  1
  O  O37  1  0.196242  0.636547  0.688281  1
  O  O38  1  0.303758  0.863453  0.188281  1
  O  O39  1  0.803758  0.636547  0.811719  1
  O  O40  1  0.303758  0.136547  0.688281  1
  O  O41  1  0.803758  0.363453  0.311719  1
  O  O42  1  0.696242  0.136547  0.811719  1
  O  O43  1  0.196242  0.363453  0.188281  1
  O  O44  1  0.700443  0.947115  0.151902  1
  O  O45  1  0.200443  0.552885  0.848098  1
  O  O46  1  0.299557  0.947115  0.348098  1
  O  O47  1  0.799557  0.552885  0.651902  1
  O  O48  1  0.299557  0.052885  0.848098  1
  O  O49  1  0.799557  0.447115  0.151902  1
  O  O50  1  0.981545  0.351302  0.902436  1
  O  O51  1  0.700443  0.052885  0.651902  1
  O  O52  1  0.018455  0.648698  0.097564  1
  O  O53  1  0.518455  0.851302  0.902436  1
  O  O54  1  0.981545  0.648698  0.402436  1
  O  O55  1  0.481545  0.851302  0.597564  1
  O  O56  1  0.079337  0.251371  0.320686  1
  O  O57  1  0.579337  0.248629  0.679314  1
  O  O58  1  0.920663  0.251371  0.179314  1
  O  O59  1  0.420663  0.248629  0.820686  1
  O  O60  1  0.920663  0.748629  0.679314  1
  O  O61  1  0.420663  0.751371  0.320686  1
  O  O62  1  0.079337  0.748629  0.820686  1
  O  O63  1  0.579337  0.751371  0.179314  1
  O  O64  1  0.349474  0.267132  0.301859  1
  O  O65  1  0.849474  0.232868  0.698141  1
  O  O66  1  0.650526  0.267132  0.198141  1
  O  O67  1  0.150526  0.232868  0.801859  1
  O  O68  1  0.650526  0.732868  0.698141  1
  O  O69  1  0.150526  0.767132  0.301859  1
  O  O70  1  0.349474  0.732868  0.801859  1
  O  O71  1  0.849474  0.767132  0.198141  1
  O  O72  1  0.495561  0.372499  0.430466  1
  O  O73  1  0.995561  0.127501  0.569534  1
  O  O74  1  0.504439  0.372499  0.069534  1
  O  O75  1  0.004439  0.127501  0.930466  1
  O  O76  1  0.504439  0.627501  0.569534  1
  O  O77  1  0.004439  0.872499  0.430466  1
  O  O78  1  0.495561  0.627501  0.930466  1
  O  O79  1  0.995561  0.872499  0.069534  1
  O  O80  1  0.299332  0.233709  0.475717  1
  O  O81  1  0.799332  0.266291  0.524283  1
  O  O82  1  0.700668  0.233709  0.024283  1
  O  O83  1  0.200668  0.266291  0.975717  1
  O  O84  1  0.700668  0.766291  0.524283  1
  O  O85  1  0.200668  0.733709  0.475717  1
  O  O86  1  0.299332  0.766291  0.975717  1
  O  O87  1  0.799332  0.733709  0.024283  1
  O  O88  1  0.518455  0.148698  0.402436  1
  O  O89  1  0.018455  0.351302  0.597564  1
  O  O90  1  0.481545  0.148698  0.097564  1
  O  O91  1  0.200443  0.447115  0.348098  1
