# generated using pymatgen
data_HoLu15(In3Ir)2
_symmetry_space_group_name_H-M   'P 1'
_cell_length_a   10.21037500
_cell_length_b   10.22085707
_cell_length_c   6.90646100
_cell_angle_alpha   90.00107560
_cell_angle_beta   90.00000000
_cell_angle_gamma   119.96607742
_symmetry_Int_Tables_number   1
_chemical_formula_structural   HoLu15(In3Ir)2
_chemical_formula_sum   'Ho1 Lu15 In6 Ir2'
_cell_volume   624.40094983
_cell_formula_units_Z   1
loop_
 _symmetry_equiv_pos_site_id
 _symmetry_equiv_pos_as_xyz
  1  'x, y, z'
loop_
 _atom_site_type_symbol
 _atom_site_label
 _atom_site_symmetry_multiplicity
 _atom_site_fract_x
 _atom_site_fract_y
 _atom_site_fract_z
 _atom_site_occupancy
  Ho  Ho0  1  0.531306  0.062610  0.521980  1
  Lu  Lu1  1  0.936205  0.468118  0.522468  1
  Lu  Lu2  1  0.531914  0.468118  0.522468  1
  Lu  Lu3  1  0.467501  0.935003  0.022310  1
  Lu  Lu4  1  0.064124  0.532029  0.023015  1
  Lu  Lu5  1  0.467904  0.532029  0.023015  1
  Lu  Lu6  1  0.176838  0.353675  0.731330  1
  Lu  Lu7  1  0.646595  0.822567  0.731165  1
  Lu  Lu8  1  0.175972  0.822567  0.731165  1
  Lu  Lu9  1  0.823489  0.646978  0.230308  1
  Lu  Lu10  1  0.353665  0.177307  0.229164  1
  Lu  Lu11  1  0.823642  0.177307  0.229164  1
  Lu  Lu12  1  0.667240  0.334480  0.902375  1
  Lu  Lu13  1  0.332836  0.665674  0.403129  1
  Lu  Lu14  1  0.999956  0.999912  0.508645  1
  Lu  Lu15  1  0.000031  0.000063  0.008747  1
  In  In16  1  0.837031  0.674062  0.768855  1
  In  In17  1  0.325511  0.162778  0.769505  1
  In  In18  1  0.837267  0.162778  0.769505  1
  In  In19  1  0.162637  0.325274  0.271858  1
  In  In20  1  0.673937  0.837378  0.269112  1
  In  In21  1  0.163441  0.837378  0.269112  1
  Ir  Ir22  1  0.667893  0.335785  0.297447  1
  Ir  Ir23  1  0.333064  0.666128  0.799842  1
