# generated using pymatgen
data_NaCa21CdGa13
_symmetry_space_group_name_H-M   'P 1'
_cell_length_a   11.40733149
_cell_length_b   11.42258258
_cell_length_c   11.40733321
_cell_angle_alpha   59.95576761
_cell_angle_beta   60.08846053
_cell_angle_gamma   59.95576952
_symmetry_Int_Tables_number   1
_chemical_formula_structural   NaCa21CdGa13
_chemical_formula_sum   'Na1 Ca21 Cd1 Ga13'
_cell_volume   1051.03199392
_cell_formula_units_Z   1
loop_
 _symmetry_equiv_pos_site_id
 _symmetry_equiv_pos_as_xyz
  1  'x, y, z'
loop_
 _atom_site_type_symbol
 _atom_site_label
 _atom_site_symmetry_multiplicity
 _atom_site_fract_x
 _atom_site_fract_y
 _atom_site_fract_z
 _atom_site_occupancy
  Na  Na0  1  0.499383  0.500617  0.499383  1
  Ca  Ca1  1  0.997395  0.002605  0.997395  1
  Ca  Ca2  1  0.126035  0.138626  0.126035  1
  Ca  Ca3  1  0.390695  0.873965  0.861374  1
  Ca  Ca4  1  0.870572  0.387497  0.870572  1
  Ca  Ca5  1  0.861374  0.873965  0.390695  1
  Ca  Ca6  1  0.126035  0.609305  0.126035  1
  Ca  Ca7  1  0.128642  0.129428  0.612503  1
  Ca  Ca8  1  0.612503  0.129428  0.128642  1
  Ca  Ca9  1  0.870572  0.871358  0.870572  1
  Ca  Ca10  1  0.499884  0.831812  0.499884  1
  Ca  Ca11  1  0.833058  0.499875  0.500125  1
  Ca  Ca12  1  0.508622  0.833137  0.166863  1
  Ca  Ca13  1  0.168188  0.500116  0.831579  1
  Ca  Ca14  1  0.831579  0.500116  0.168188  1
  Ca  Ca15  1  0.500125  0.499875  0.833058  1
  Ca  Ca16  1  0.166863  0.833137  0.508622  1
  Ca  Ca17  1  0.500125  0.166942  0.833058  1
  Ca  Ca18  1  0.508622  0.491378  0.166863  1
  Ca  Ca19  1  0.833058  0.166942  0.500125  1
  Ca  Ca20  1  0.166863  0.491378  0.508622  1
  Ca  Ca21  1  0.499884  0.168421  0.499884  1
  Cd  Cd22  1  0.217872  0.782128  0.217872  1
  Ga  Ga23  1  0.218454  0.781546  0.783829  1
  Ga  Ga24  1  0.783829  0.216171  0.218454  1
  Ga  Ga25  1  0.783829  0.781546  0.218454  1
  Ga  Ga26  1  0.218454  0.216171  0.783829  1
  Ga  Ga27  1  0.781426  0.218574  0.781426  1
  Ga  Ga28  1  0.308141  0.311648  0.308140  1
  Ga  Ga29  1  0.927929  0.691860  0.688352  1
  Ga  Ga30  1  0.690875  0.927625  0.690875  1
  Ga  Ga31  1  0.688352  0.691860  0.927929  1
  Ga  Ga32  1  0.308140  0.072071  0.308140  1
  Ga  Ga33  1  0.309373  0.309125  0.072375  1
  Ga  Ga34  1  0.072375  0.309125  0.309373  1
  Ga  Ga35  1  0.690875  0.690627  0.690874  1
