# generated using pymatgen
data_Ti3Co4Cu
_symmetry_space_group_name_H-M   'P 1'
_cell_length_a   7.15408031
_cell_length_b   7.15408002
_cell_length_c   7.15408069
_cell_angle_alpha   33.60435613
_cell_angle_beta   33.60435820
_cell_angle_gamma   33.60436467
_symmetry_Int_Tables_number   1
_chemical_formula_structural   Ti3Co4Cu
_chemical_formula_sum   'Ti3 Co4 Cu1'
_cell_volume   99.90851571
_cell_formula_units_Z   1
loop_
 _symmetry_equiv_pos_site_id
 _symmetry_equiv_pos_as_xyz
  1  'x, y, z'
loop_
 _atom_site_type_symbol
 _atom_site_label
 _atom_site_symmetry_multiplicity
 _atom_site_fract_x
 _atom_site_fract_y
 _atom_site_fract_z
 _atom_site_occupancy
  Ti  Ti0  1  0.258005  0.258005  0.258005  1
  Ti  Ti1  1  0.741995  0.741995  0.741995  1
  Ti  Ti2  1  0.500000  0.500000  0.500000  1
  Co  Co3  1  0.618981  0.618981  0.618981  1
  Co  Co4  1  0.128195  0.128195  0.128195  1
  Co  Co5  1  0.871805  0.871805  0.871805  1
  Co  Co6  1  0.381019  0.381019  0.381019  1
  Cu  Cu7  1  0.000000  0.000000  0.000000  1
