# generated using pymatgen
data_La9Ho3In20
_symmetry_space_group_name_H-M   'P 1'
_cell_length_a   6.78143321
_cell_length_b   10.76058143
_cell_length_c   12.48643900
_cell_angle_alpha   90.01228917
_cell_angle_beta   90.03426882
_cell_angle_gamma   90.03650874
_symmetry_Int_Tables_number   1
_chemical_formula_structural   La9Ho3In20
_chemical_formula_sum   'La9 Ho3 In20'
_cell_volume   911.16210949
_cell_formula_units_Z   1
loop_
 _symmetry_equiv_pos_site_id
 _symmetry_equiv_pos_as_xyz
  1  'x, y, z'
loop_
 _atom_site_type_symbol
 _atom_site_label
 _atom_site_symmetry_multiplicity
 _atom_site_fract_x
 _atom_site_fract_y
 _atom_site_fract_z
 _atom_site_occupancy
  La  La0  1  0.886904  0.489482  0.143629  1
  La  La1  1  0.613240  0.012265  0.643195  1
  La  La2  1  0.110264  0.990703  0.855226  1
  La  La3  1  0.389113  0.510354  0.356778  1
  La  La4  1  0.110142  0.509322  0.855480  1
  La  La5  1  0.389290  0.989641  0.356706  1
  La  La6  1  0.886742  0.010458  0.143756  1
  La  La7  1  0.350285  0.749929  0.060175  1
  La  La8  1  0.613202  0.487763  0.643255  1
  Ho  Ho9  1  0.150672  0.750183  0.559525  1
  Ho  Ho10  1  0.649087  0.249964  0.939151  1
  Ho  Ho11  1  0.850349  0.250078  0.440015  1
  In  In12  1  0.620435  0.749503  0.505554  1
  In  In13  1  0.871294  0.749941  0.000592  1
  In  In14  1  0.382180  0.250138  0.496972  1
  In  In15  1  0.115106  0.249996  0.996777  1
  In  In16  1  0.663921  0.749902  0.246620  1
  In  In17  1  0.844519  0.749582  0.741643  1
  In  In18  1  0.344640  0.250391  0.756168  1
  In  In19  1  0.155242  0.250007  0.257049  1
  In  In20  1  0.106094  0.749951  0.289957  1
  In  In21  1  0.393904  0.749933  0.781278  1
  In  In22  1  0.894449  0.250408  0.714976  1
  In  In23  1  0.608389  0.250047  0.216270  1
  In  In24  1  0.875465  0.545036  0.406404  1
  In  In25  1  0.624671  0.956609  0.903875  1
  In  In26  1  0.126419  0.045886  0.594486  1
  In  In27  1  0.373987  0.448775  0.095045  1
  In  In28  1  0.126568  0.454561  0.594549  1
  In  In29  1  0.373861  0.051246  0.095207  1
  In  In30  1  0.875468  0.954716  0.406323  1
  In  In31  1  0.624095  0.543227  0.903362  1
