# generated using pymatgen
data_Eu2H5
_symmetry_space_group_name_H-M   'P 1'
_cell_length_a   6.66470565
_cell_length_b   6.66470617
_cell_length_c   6.66470603
_cell_angle_alpha   131.28557251
_cell_angle_beta   131.28557881
_cell_angle_gamma   71.35975449
_symmetry_Int_Tables_number   1
_chemical_formula_structural   Eu2H5
_chemical_formula_sum   'Eu4 H10'
_cell_volume   163.60688280
_cell_formula_units_Z   2
loop_
 _symmetry_equiv_pos_site_id
 _symmetry_equiv_pos_as_xyz
  1  'x, y, z'
loop_
 _atom_site_type_symbol
 _atom_site_label
 _atom_site_symmetry_multiplicity
 _atom_site_fract_x
 _atom_site_fract_y
 _atom_site_fract_z
 _atom_site_occupancy
  Eu  Eu0  1  0.514482  0.014482  0.500000  1
  Eu  Eu1  1  0.764482  0.764482  0.000000  1
  Eu  Eu2  1  0.985518  0.485518  0.500000  1
  Eu  Eu3  1  0.235518  0.235518  0.000000  1
  H  H4  1  0.375000  0.403268  0.528268  1
  H  H5  1  0.875000  0.846732  0.471732  1
  H  H6  1  0.596732  0.125000  0.971732  1
  H  H7  1  0.153268  0.625000  0.028268  1
  H  H8  1  0.375000  0.846732  0.971732  1
  H  H9  1  0.875000  0.403268  0.028268  1
  H  H10  1  0.596732  0.625000  0.471732  1
  H  H11  1  0.153268  0.125000  0.528268  1
  H  H12  1  0.750000  0.250000  0.500000  1
  H  H13  1  0.000000  0.000000  0.000000  1
