# generated using pymatgen
data_Ce8Al3Si12Pd
_symmetry_space_group_name_H-M   'P 1'
_cell_length_a   8.26732500
_cell_length_b   8.26732607
_cell_length_c   8.37183900
_cell_angle_alpha   90.00000000
_cell_angle_beta   90.00000000
_cell_angle_gamma   119.99999170
_symmetry_Int_Tables_number   1
_chemical_formula_structural   Ce8Al3Si12Pd
_chemical_formula_sum   'Ce8 Al3 Si12 Pd1'
_cell_volume   495.54330562
_cell_formula_units_Z   1
loop_
 _symmetry_equiv_pos_site_id
 _symmetry_equiv_pos_as_xyz
  1  'x, y, z'
loop_
 _atom_site_type_symbol
 _atom_site_label
 _atom_site_symmetry_multiplicity
 _atom_site_fract_x
 _atom_site_fract_y
 _atom_site_fract_z
 _atom_site_occupancy
  Ce  Ce0  1  0.499385  0.500615  0.751262  1
  Ce  Ce1  1  0.500624  0.499376  0.248557  1
  Ce  Ce2  1  0.001230  0.500615  0.751262  1
  Ce  Ce3  1  0.998752  0.499376  0.248557  1
  Ce  Ce4  1  0.499385  0.998770  0.751262  1
  Ce  Ce5  1  0.500624  0.001248  0.248557  1
  Ce  Ce6  1  0.000000  0.000000  0.750694  1
  Ce  Ce7  1  0.000000  0.000000  0.249318  1
  Al  Al8  1  0.666667  0.333333  0.997202  1
  Al  Al9  1  0.333333  0.666667  0.002126  1
  Al  Al10  1  0.333333  0.666667  0.498184  1
  Si  Si11  1  0.835519  0.164481  0.000060  1
  Si  Si12  1  0.164950  0.835050  0.999859  1
  Si  Si13  1  0.328960  0.164481  0.000060  1
  Si  Si14  1  0.163902  0.836098  0.500081  1
  Si  Si15  1  0.670099  0.835050  0.999859  1
  Si  Si16  1  0.834366  0.165634  0.500004  1
  Si  Si17  1  0.835519  0.671040  0.000060  1
  Si  Si18  1  0.672196  0.836098  0.500081  1
  Si  Si19  1  0.164950  0.329901  0.999859  1
  Si  Si20  1  0.331269  0.165634  0.500004  1
  Si  Si21  1  0.163902  0.327804  0.500081  1
  Si  Si22  1  0.834366  0.668731  0.500004  1
  Pd  Pd23  1  0.666667  0.333333  0.503005  1
