# generated using pymatgen
data_Tb7Y3(Al2Ru3)2
_symmetry_space_group_name_H-M   'P 1'
_cell_length_a   8.38011354
_cell_length_b   8.37732469
_cell_length_c   8.37709773
_cell_angle_alpha   109.45237091
_cell_angle_beta   109.48602618
_cell_angle_gamma   109.42877158
_symmetry_Int_Tables_number   1
_chemical_formula_structural   Tb7Y3(Al2Ru3)2
_chemical_formula_sum   'Tb7 Y3 Al4 Ru6'
_cell_volume   452.97663767
_cell_formula_units_Z   1
loop_
 _symmetry_equiv_pos_site_id
 _symmetry_equiv_pos_as_xyz
  1  'x, y, z'
loop_
 _atom_site_type_symbol
 _atom_site_label
 _atom_site_symmetry_multiplicity
 _atom_site_fract_x
 _atom_site_fract_y
 _atom_site_fract_z
 _atom_site_occupancy
  Tb  Tb0  1  0.786957  0.786869  0.786112  1
  Tb  Tb1  1  0.319383  0.568837  0.750843  1
  Tb  Tb2  1  0.750608  0.319134  0.568851  1
  Tb  Tb3  1  0.567704  0.749731  0.317477  1
  Tb  Tb4  1  0.714102  0.500063  0.999920  1
  Tb  Tb5  1  0.001218  0.714456  0.501374  1
  Tb  Tb6  1  0.500068  0.999747  0.713659  1
  Y  Y7  1  0.930773  0.249910  0.180973  1
  Y  Y8  1  0.180125  0.929570  0.250023  1
  Y  Y9  1  0.250275  0.181715  0.930690  1
  Al  Al10  1  0.410062  0.409306  0.409954  1
  Al  Al11  1  0.089137  0.498244  0.000300  1
  Al  Al12  1  0.999385  0.088589  0.498353  1
  Al  Al13  1  0.499427  0.002434  0.090048  1
  Ru  Ru14  1  0.876397  0.126981  0.747771  1
  Ru  Ru15  1  0.747345  0.877098  0.126577  1
  Ru  Ru16  1  0.128594  0.748789  0.878251  1
  Ru  Ru17  1  0.251832  0.622455  0.373265  1
  Ru  Ru18  1  0.372201  0.250838  0.622979  1
  Ru  Ru19  1  0.624407  0.375235  0.252578  1
