# generated using pymatgen
data_Y3Er3CuRh17
_symmetry_space_group_name_H-M   'P 1'
_cell_length_a   5.27888321
_cell_length_b   5.27868465
_cell_length_c   17.34958300
_cell_angle_alpha   89.99999936
_cell_angle_beta   89.99976174
_cell_angle_gamma   120.00719450
_symmetry_Int_Tables_number   1
_chemical_formula_structural   Y3Er3CuRh17
_chemical_formula_sum   'Y3 Er3 Cu1 Rh17'
_cell_volume   418.65468441
_cell_formula_units_Z   1
loop_
 _symmetry_equiv_pos_site_id
 _symmetry_equiv_pos_as_xyz
  1  'x, y, z'
loop_
 _atom_site_type_symbol
 _atom_site_label
 _atom_site_symmetry_multiplicity
 _atom_site_fract_x
 _atom_site_fract_y
 _atom_site_fract_z
 _atom_site_occupancy
  Y  Y0  1  0.333340  0.666699  0.541534  1
  Y  Y1  1  0.333327  0.666643  0.750288  1
  Y  Y2  1  0.666676  0.333331  0.249994  1
  Er  Er3  1  0.333327  0.666684  0.958084  1
  Er  Er4  1  0.666664  0.333316  0.041885  1
  Er  Er5  1  0.666668  0.333322  0.457670  1
  Cu  Cu6  1  0.333358  0.666672  0.249983  1
  Rh  Rh7  1  0.168714  0.831258  0.373644  1
  Rh  Rh8  1  0.168696  0.337394  0.373635  1
  Rh  Rh9  1  0.662571  0.831272  0.373646  1
  Rh  Rh10  1  0.832841  0.167155  0.624706  1
  Rh  Rh11  1  0.832836  0.665704  0.624717  1
  Rh  Rh12  1  0.334308  0.167160  0.624711  1
  Rh  Rh13  1  0.832760  0.167249  0.875757  1
  Rh  Rh14  1  0.832755  0.665547  0.875741  1
  Rh  Rh15  1  0.334474  0.167263  0.875752  1
  Rh  Rh16  1  0.168850  0.831154  0.126131  1
  Rh  Rh17  1  0.168820  0.337654  0.126143  1
  Rh  Rh18  1  0.662321  0.831160  0.126129  1
  Rh  Rh19  1  0.666681  0.333318  0.750033  1
  Rh  Rh20  1  0.000001  0.999988  0.249858  1
  Rh  Rh21  1  0.999999  0.000055  0.750050  1
  Rh  Rh22  1  0.000001  0.000013  0.497641  1
  Rh  Rh23  1  0.000008  0.999988  0.002267  1
