# generated using pymatgen
data_Ho(PaH5)3
_symmetry_space_group_name_H-M   'P 1'
_cell_length_a   7.57906406
_cell_length_b   7.59747124
_cell_length_c   7.57391906
_cell_angle_alpha   109.43077107
_cell_angle_beta   109.36051767
_cell_angle_gamma   109.67159120
_symmetry_Int_Tables_number   1
_chemical_formula_structural   Ho(PaH5)3
_chemical_formula_sum   'Ho2 Pa6 H30'
_cell_volume   335.51866977
_cell_formula_units_Z   2
loop_
 _symmetry_equiv_pos_site_id
 _symmetry_equiv_pos_as_xyz
  1  'x, y, z'
loop_
 _atom_site_type_symbol
 _atom_site_label
 _atom_site_symmetry_multiplicity
 _atom_site_fract_x
 _atom_site_fract_y
 _atom_site_fract_z
 _atom_site_occupancy
  Ho  Ho0  1  0.915839  0.915762  0.916133  1
  Ho  Ho1  1  0.499538  0.999605  0.083817  1
  Pa  Pa2  1  0.998775  0.083707  0.499087  1
  Pa  Pa3  1  0.085295  0.501523  0.000419  1
  Pa  Pa4  1  0.999799  0.584665  0.500829  1
  Pa  Pa5  1  0.584953  0.501234  0.999398  1
  Pa  Pa6  1  0.500694  0.999940  0.585039  1
  Pa  Pa7  1  0.415537  0.414933  0.414963  1
  H  H8  1  0.656579  0.974034  0.380346  1
  H  H9  1  0.220263  0.314702  0.849359  1
  H  H10  1  0.183169  0.404779  0.531686  1
  H  H11  1  0.098585  0.282451  0.127418  1
  H  H12  1  0.283530  0.127595  0.102010  1
  H  H13  1  0.127099  0.099691  0.281249  1
  H  H14  1  0.471219  0.155182  0.872677  1
  H  H15  1  0.721923  0.349461  0.817724  1
  H  H16  1  0.628194  0.383418  0.253299  1
  H  H17  1  0.249078  0.625196  0.374450  1
  H  H18  1  0.753482  0.871100  0.131947  1
  H  H19  1  0.121399  0.738991  0.867919  1
  H  H20  1  0.374798  0.250997  0.625543  1
  H  H21  1  0.875111  0.130269  0.747035  1
  H  H22  1  0.776145  0.593550  0.619451  1
  H  H23  1  0.315400  0.844377  0.221923  1
  H  H24  1  0.375467  0.653049  0.972416  1
  H  H25  1  0.971067  0.373893  0.651531  1
  H  H26  1  0.528946  0.185291  0.407773  1
  H  H27  1  0.404138  0.531793  0.182456  1
  H  H28  1  0.846855  0.220737  0.317506  1
  H  H29  1  0.903290  0.680631  0.027641  1
  H  H30  1  0.819714  0.722379  0.348562  1
  H  H31  1  0.151436  0.872877  0.468263  1
  H  H32  1  0.681716  0.025544  0.898235  1
  H  H33  1  0.345861  0.818541  0.718861  1
  H  H34  1  0.871193  0.465410  0.150774  1
  H  H35  1  0.621128  0.777276  0.592168  1
  H  H36  1  0.593479  0.622516  0.777692  1
  H  H37  1  0.029303  0.902904  0.682399  1
