# generated using pymatgen
data_Pr4Ga18Ru2Pt3Rh
_symmetry_space_group_name_H-M   'P 1'
_cell_length_a   7.70994269
_cell_length_b   7.71002167
_cell_length_c   9.68540110
_cell_angle_alpha   89.90028592
_cell_angle_beta   89.90102832
_cell_angle_gamma   119.66947450
_symmetry_Int_Tables_number   1
_chemical_formula_structural   Pr4Ga18Ru2Pt3Rh
_chemical_formula_sum   'Pr4 Ga18 Ru2 Pt3 Rh1'
_cell_volume   500.25247991
_cell_formula_units_Z   1
loop_
 _symmetry_equiv_pos_site_id
 _symmetry_equiv_pos_as_xyz
  1  'x, y, z'
loop_
 _atom_site_type_symbol
 _atom_site_label
 _atom_site_symmetry_multiplicity
 _atom_site_fract_x
 _atom_site_fract_y
 _atom_site_fract_z
 _atom_site_occupancy
  Pr  Pr0  1  0.997220  0.668488  0.250231  1
  Pr  Pr1  1  0.002780  0.331512  0.749769  1
  Pr  Pr2  1  0.668487  0.997213  0.250220  1
  Pr  Pr3  1  0.331513  0.002787  0.749780  1
  Ga  Ga4  1  0.130606  0.130602  0.247454  1
  Ga  Ga5  1  0.869394  0.869398  0.752546  1
  Ga  Ga6  1  0.003660  0.330588  0.079151  1
  Ga  Ga7  1  0.996340  0.669412  0.920849  1
  Ga  Ga8  1  0.996955  0.659899  0.575434  1
  Ga  Ga9  1  0.340124  0.003024  0.424586  1
  Ga  Ga10  1  0.003045  0.340101  0.424566  1
  Ga  Ga11  1  0.659876  0.996976  0.575414  1
  Ga  Ga12  1  0.669414  0.996345  0.920852  1
  Ga  Ga13  1  0.330586  0.003655  0.079148  1
  Ga  Ga14  1  0.339504  0.339496  0.557233  1
  Ga  Ga15  1  0.660496  0.660504  0.442767  1
  Ga  Ga16  1  0.668512  0.668511  0.062608  1
  Ga  Ga17  1  0.331488  0.331489  0.937392  1
  Ga  Ga18  1  0.338138  0.544526  0.254732  1
  Ga  Ga19  1  0.661862  0.455474  0.745268  1
  Ga  Ga20  1  0.544518  0.338111  0.254728  1
  Ga  Ga21  1  0.455482  0.661889  0.745272  1
  Ru  Ru22  1  0.328011  0.671968  0.500006  1
  Ru  Ru23  1  0.671989  0.328032  0.499994  1
  Pt  Pt24  1  0.671074  0.328924  0.999998  1
  Pt  Pt25  1  0.328926  0.671076  0.000002  1
  Pt  Pt26  1  0.000000  0.000000  0.500000  1
  Rh  Rh27  1  0.000000  0.000000  0.000000  1
