# generated using pymatgen
data_Ce2Lu2Al17SiIr6
_symmetry_space_group_name_H-M   'P 1'
_cell_length_a   7.57044701
_cell_length_b   7.57044581
_cell_length_c   9.37686800
_cell_angle_alpha   90.00000000
_cell_angle_beta   90.00000000
_cell_angle_gamma   119.68139956
_symmetry_Int_Tables_number   1
_chemical_formula_structural   Ce2Lu2Al17SiIr6
_chemical_formula_sum   'Ce2 Lu2 Al17 Si1 Ir6'
_cell_volume   466.89234290
_cell_formula_units_Z   1
loop_
 _symmetry_equiv_pos_site_id
 _symmetry_equiv_pos_as_xyz
  1  'x, y, z'
loop_
 _atom_site_type_symbol
 _atom_site_label
 _atom_site_symmetry_multiplicity
 _atom_site_fract_x
 _atom_site_fract_y
 _atom_site_fract_z
 _atom_site_occupancy
  Ce  Ce0  1  0.994441  0.675164  0.250000  1
  Ce  Ce1  1  0.675164  0.994441  0.250000  1
  Lu  Lu2  1  0.004374  0.330094  0.750000  1
  Lu  Lu3  1  0.330094  0.004374  0.750000  1
  Al  Al4  1  0.877838  0.877838  0.750000  1
  Al  Al5  1  0.002641  0.337233  0.072335  1
  Al  Al6  1  0.000170  0.665432  0.919827  1
  Al  Al7  1  0.000170  0.665432  0.580173  1
  Al  Al8  1  0.337233  0.002641  0.427665  1
  Al  Al9  1  0.002641  0.337233  0.427665  1
  Al  Al10  1  0.665432  0.000170  0.580173  1
  Al  Al11  1  0.665432  0.000170  0.919827  1
  Al  Al12  1  0.337233  0.002641  0.072335  1
  Al  Al13  1  0.331177  0.331177  0.563094  1
  Al  Al14  1  0.661723  0.661723  0.451984  1
  Al  Al15  1  0.661723  0.661723  0.048016  1
  Al  Al16  1  0.331177  0.331177  0.936906  1
  Al  Al17  1  0.336038  0.545407  0.250000  1
  Al  Al18  1  0.660141  0.448985  0.750000  1
  Al  Al19  1  0.545407  0.336038  0.250000  1
  Al  Al20  1  0.448985  0.660141  0.750000  1
  Si  Si21  1  0.133921  0.133921  0.250000  1
  Ir  Ir22  1  0.671060  0.326624  0.999976  1
  Ir  Ir23  1  0.326624  0.671060  0.999976  1
  Ir  Ir24  1  0.326624  0.671060  0.500024  1
  Ir  Ir25  1  0.671060  0.326624  0.500024  1
  Ir  Ir26  1  0.000740  0.000740  0.006335  1
  Ir  Ir27  1  0.000740  0.000740  0.493665  1
