# generated using pymatgen
data_Tm12Ir3Rh
_symmetry_space_group_name_H-M   'P 1'
_cell_length_a   6.29942006
_cell_length_b   7.14735108
_cell_length_c   9.09035100
_cell_angle_alpha   90.00000000
_cell_angle_beta   90.00000000
_cell_angle_gamma   90.01659781
_symmetry_Int_Tables_number   1
_chemical_formula_structural   Tm12Ir3Rh
_chemical_formula_sum   'Tm12 Ir3 Rh1'
_cell_volume   409.28546238
_cell_formula_units_Z   1
loop_
 _symmetry_equiv_pos_site_id
 _symmetry_equiv_pos_as_xyz
  1  'x, y, z'
loop_
 _atom_site_type_symbol
 _atom_site_label
 _atom_site_symmetry_multiplicity
 _atom_site_fract_x
 _atom_site_fract_y
 _atom_site_fract_z
 _atom_site_occupancy
  Tm  Tm0  1  0.327374  0.677725  0.060984  1
  Tm  Tm1  1  0.173864  0.179286  0.438343  1
  Tm  Tm2  1  0.674485  0.321005  0.561582  1
  Tm  Tm3  1  0.824591  0.820915  0.937028  1
  Tm  Tm4  1  0.674485  0.321005  0.938418  1
  Tm  Tm5  1  0.824591  0.820915  0.562972  1
  Tm  Tm6  1  0.327374  0.677725  0.439016  1
  Tm  Tm7  1  0.173864  0.179286  0.061657  1
  Tm  Tm8  1  0.872429  0.533692  0.250000  1
  Tm  Tm9  1  0.626629  0.033578  0.250000  1
  Tm  Tm10  1  0.125986  0.467087  0.750000  1
  Tm  Tm11  1  0.373094  0.967168  0.750000  1
  Ir  Ir12  1  0.457171  0.385394  0.250000  1
  Ir  Ir13  1  0.957349  0.114707  0.750000  1
  Ir  Ir14  1  0.542009  0.614410  0.750000  1
  Rh  Rh15  1  0.044707  0.886103  0.250000  1
