# generated using pymatgen
data_Ce3AlIn2Ir2Rh
_symmetry_space_group_name_H-M   'P 1'
_cell_length_a   7.47609477
_cell_length_b   7.46200016
_cell_length_c   3.99135400
_cell_angle_alpha   90.00000000
_cell_angle_beta   90.00000000
_cell_angle_gamma   119.93764976
_symmetry_Int_Tables_number   1
_chemical_formula_structural   Ce3AlIn2Ir2Rh
_chemical_formula_sum   'Ce3 Al1 In2 Ir2 Rh1'
_cell_volume   192.95384989
_cell_formula_units_Z   1
loop_
 _symmetry_equiv_pos_site_id
 _symmetry_equiv_pos_as_xyz
  1  'x, y, z'
loop_
 _atom_site_type_symbol
 _atom_site_label
 _atom_site_symmetry_multiplicity
 _atom_site_fract_x
 _atom_site_fract_y
 _atom_site_fract_z
 _atom_site_occupancy
  Ce  Ce0  1  0.407161  0.412712  0.000000  1
  Ce  Ce1  1  0.592839  0.005551  0.000000  1
  Ce  Ce2  1  0.000000  0.572135  0.000000  1
  Al  Al3  1  0.000000  0.249383  0.500000  1
  In  In4  1  0.755048  0.752184  0.500000  1
  In  In5  1  0.244952  0.997137  0.500000  1
  Ir  Ir6  1  0.320049  0.646536  0.500000  1
  Ir  Ir7  1  0.679951  0.326486  0.500000  1
  Rh  Rh8  1  0.000000  0.037876  0.000000  1
