# generated using pymatgen
data_Ho8Si8Pd5Pt3
_symmetry_space_group_name_H-M   'P 1'
_cell_length_a   4.28541700
_cell_length_b   7.49383018
_cell_length_c   13.97107001
_cell_angle_alpha   90.01503388
_cell_angle_beta   90.00000000
_cell_angle_gamma   90.00000000
_symmetry_Int_Tables_number   1
_chemical_formula_structural   Ho8Si8Pd5Pt3
_chemical_formula_sum   'Ho8 Si8 Pd5 Pt3'
_cell_volume   448.66954289
_cell_formula_units_Z   1
loop_
 _symmetry_equiv_pos_site_id
 _symmetry_equiv_pos_as_xyz
  1  'x, y, z'
loop_
 _atom_site_type_symbol
 _atom_site_label
 _atom_site_symmetry_multiplicity
 _atom_site_fract_x
 _atom_site_fract_y
 _atom_site_fract_z
 _atom_site_occupancy
  Ho  Ho0  1  0.000000  0.299470  0.000121  1
  Ho  Ho1  1  0.500000  0.701802  0.500210  1
  Ho  Ho2  1  0.000000  0.291865  0.499913  1
  Ho  Ho3  1  0.500000  0.708325  0.999769  1
  Ho  Ho4  1  0.000000  0.205416  0.250323  1
  Ho  Ho5  1  0.500000  0.793332  0.250220  1
  Ho  Ho6  1  0.000000  0.205174  0.749796  1
  Ho  Ho7  1  0.500000  0.794671  0.750356  1
  Si  Si8  1  0.000000  0.908459  0.592485  1
  Si  Si9  1  0.500000  0.091311  0.908771  1
  Si  Si10  1  0.000000  0.908238  0.407148  1
  Si  Si11  1  0.500000  0.093691  0.093410  1
  Si  Si12  1  0.000000  0.592984  0.143882  1
  Si  Si13  1  0.500000  0.405706  0.356814  1
  Si  Si14  1  0.000000  0.594392  0.856744  1
  Si  Si15  1  0.500000  0.405459  0.642950  1
  Pd  Pd16  1  0.000000  0.923759  0.107272  1
  Pd  Pd17  1  0.500000  0.421401  0.157403  1
  Pd  Pd18  1  0.000000  0.579585  0.342055  1
  Pd  Pd19  1  0.500000  0.420805  0.842687  1
  Pd  Pd20  1  0.000000  0.579069  0.657813  1
  Pt  Pt21  1  0.500000  0.075045  0.609152  1
  Pt  Pt22  1  0.000000  0.925019  0.890384  1
  Pt  Pt23  1  0.500000  0.075022  0.390323  1
