# generated using pymatgen
data_Pr2Th3Sn3Cl
_symmetry_space_group_name_H-M   'P 1'
_cell_length_a   9.49980103
_cell_length_b   9.50108117
_cell_length_c   6.66345600
_cell_angle_alpha   90.00000000
_cell_angle_beta   90.00000000
_cell_angle_gamma   120.00445301
_symmetry_Int_Tables_number   1
_chemical_formula_structural   Pr2Th3Sn3Cl
_chemical_formula_sum   'Pr4 Th6 Sn6 Cl2'
_cell_volume   520.83266575
_cell_formula_units_Z   2
loop_
 _symmetry_equiv_pos_site_id
 _symmetry_equiv_pos_as_xyz
  1  'x, y, z'
loop_
 _atom_site_type_symbol
 _atom_site_label
 _atom_site_symmetry_multiplicity
 _atom_site_fract_x
 _atom_site_fract_y
 _atom_site_fract_z
 _atom_site_occupancy
  Pr  Pr0  1  0.000267  0.266374  0.250000  1
  Pr  Pr1  1  0.000267  0.733894  0.750000  1
  Pr  Pr2  1  0.266768  0.266579  0.750000  1
  Pr  Pr3  1  0.266768  0.000189  0.250000  1
  Th  Th4  1  0.667780  0.333889  0.000000  1
  Th  Th5  1  0.336802  0.668401  0.500000  1
  Th  Th6  1  0.667780  0.333889  0.500000  1
  Th  Th7  1  0.336802  0.668401  0.000000  1
  Th  Th8  1  0.730657  0.999642  0.750000  1
  Th  Th9  1  0.730657  0.731015  0.250000  1
  Sn  Sn10  1  0.614637  0.614232  0.750000  1
  Sn  Sn11  1  0.000089  0.614000  0.250000  1
  Sn  Sn12  1  0.614637  0.000405  0.250000  1
  Sn  Sn13  1  0.386546  0.000151  0.750000  1
  Sn  Sn14  1  0.000089  0.386090  0.750000  1
  Sn  Sn15  1  0.386546  0.386395  0.250000  1
  Cl  Cl16  1  0.996454  0.998227  0.500000  1
  Cl  Cl17  1  0.996454  0.998227  0.000000  1
