# generated using pymatgen
data_Tb4GdCr2O12
_symmetry_space_group_name_H-M   'P 1'
_cell_length_a   6.81102586
_cell_length_b   6.81102504
_cell_length_c   7.31067206
_cell_angle_alpha   74.43048630
_cell_angle_beta   74.43049501
_cell_angle_gamma   50.74561341
_symmetry_Int_Tables_number   1
_chemical_formula_structural   Tb4GdCr2O12
_chemical_formula_sum   'Tb4 Gd1 Cr2 O12'
_cell_volume   250.75823728
_cell_formula_units_Z   1
loop_
 _symmetry_equiv_pos_site_id
 _symmetry_equiv_pos_as_xyz
  1  'x, y, z'
loop_
 _atom_site_type_symbol
 _atom_site_label
 _atom_site_symmetry_multiplicity
 _atom_site_fract_x
 _atom_site_fract_y
 _atom_site_fract_z
 _atom_site_occupancy
  Tb  Tb0  1  0.306095  0.306095  0.356953  1
  Tb  Tb1  1  0.693905  0.693905  0.643047  1
  Tb  Tb2  1  0.309178  0.309178  0.832475  1
  Tb  Tb3  1  0.690822  0.690822  0.167525  1
  Gd  Gd4  1  0.000000  0.000000  0.500000  1
  Cr  Cr5  1  0.757487  0.242513  0.000000  1
  Cr  Cr6  1  0.242513  0.757487  0.000000  1
  O  O7  1  0.897916  0.420537  0.920832  1
  O  O8  1  0.420537  0.897916  0.920832  1
  O  O9  1  0.102084  0.579463  0.079168  1
  O  O10  1  0.579463  0.102084  0.079168  1
  O  O11  1  0.096199  0.595969  0.576728  1
  O  O12  1  0.595969  0.096199  0.576728  1
  O  O13  1  0.903801  0.404031  0.423272  1
  O  O14  1  0.404031  0.903801  0.423272  1
  O  O15  1  0.000700  0.000700  0.825180  1
  O  O16  1  0.999300  0.999300  0.174820  1
  O  O17  1  0.499709  0.499709  0.820026  1
  O  O18  1  0.500291  0.500291  0.179974  1
