# generated using pymatgen
data_TaNb2B12(Ru4W3)3
_symmetry_space_group_name_H-M   'P 1'
_cell_length_a   3.01840100
_cell_length_b   8.99452994
_cell_length_c   15.80261278
_cell_angle_alpha   89.88700102
_cell_angle_beta   90.00000000
_cell_angle_gamma   90.00000000
_symmetry_Int_Tables_number   1
_chemical_formula_structural   TaNb2B12(Ru4W3)3
_chemical_formula_sum   'Ta1 Nb2 B12 Ru12 W9'
_cell_volume   429.02585124
_cell_formula_units_Z   1
loop_
 _symmetry_equiv_pos_site_id
 _symmetry_equiv_pos_as_xyz
  1  'x, y, z'
loop_
 _atom_site_type_symbol
 _atom_site_label
 _atom_site_symmetry_multiplicity
 _atom_site_fract_x
 _atom_site_fract_y
 _atom_site_fract_z
 _atom_site_occupancy
  Ta  Ta0  1  0.000000  0.800234  0.698772  1
  Nb  Nb1  1  0.000000  0.299150  0.802095  1
  Nb  Nb2  1  0.000000  0.203566  0.302786  1
  B  B3  1  0.500000  0.603569  0.495315  1
  B  B4  1  0.500000  0.397220  0.504435  1
  B  B5  1  0.500000  0.101483  0.005334  1
  B  B6  1  0.500000  0.894665  0.996536  1
  B  B7  1  0.000000  0.600695  0.832017  1
  B  B8  1  0.000000  0.397932  0.168287  1
  B  B9  1  0.000000  0.100063  0.668362  1
  B  B10  1  0.000000  0.900885  0.332910  1
  B  B11  1  0.500000  0.712382  0.593682  1
  B  B12  1  0.500000  0.288956  0.406911  1
  B  B13  1  0.500000  0.210974  0.906827  1
  B  B14  1  0.500000  0.784352  0.095704  1
  Ru  Ru15  1  0.500000  0.724832  0.346952  1
  Ru  Ru16  1  0.500000  0.274983  0.648971  1
  Ru  Ru17  1  0.500000  0.223759  0.149040  1
  Ru  Ru18  1  0.500000  0.775187  0.851160  1
  Ru  Ru19  1  0.500000  0.515845  0.087845  1
  Ru  Ru20  1  0.500000  0.482135  0.911756  1
  Ru  Ru21  1  0.500000  0.017508  0.412819  1
  Ru  Ru22  1  0.500000  0.980965  0.588451  1
  Ru  Ru23  1  0.500000  0.545681  0.735478  1
  Ru  Ru24  1  0.500000  0.464001  0.260937  1
  Ru  Ru25  1  0.500000  0.042223  0.763937  1
  Ru  Ru26  1  0.500000  0.958279  0.237131  1
  W  W27  1  0.000000  0.790233  0.491208  1
  W  W28  1  0.000000  0.209281  0.507643  1
  W  W29  1  0.000000  0.289679  0.007421  1
  W  W30  1  0.000000  0.707703  0.992940  1
  W  W31  1  0.000000  0.512937  0.591032  1
  W  W32  1  0.000000  0.487688  0.408580  1
  W  W33  1  0.000000  0.012345  0.909499  1
  W  W34  1  0.000000  0.983688  0.092677  1
  W  W35  1  0.000000  0.704921  0.194550  1
