# generated using pymatgen
data_MgNb2Ru3
_symmetry_space_group_name_H-M   'P 1'
_cell_length_a   7.72003500
_cell_length_b   7.72003488
_cell_length_c   5.48036600
_cell_angle_alpha   90.00000000
_cell_angle_beta   90.00000000
_cell_angle_gamma   120.00000480
_symmetry_Int_Tables_number   1
_chemical_formula_structural   MgNb2Ru3
_chemical_formula_sum   'Mg3 Nb6 Ru9'
_cell_volume   282.86466910
_cell_formula_units_Z   3
loop_
 _symmetry_equiv_pos_site_id
 _symmetry_equiv_pos_as_xyz
  1  'x, y, z'
loop_
 _atom_site_type_symbol
 _atom_site_label
 _atom_site_symmetry_multiplicity
 _atom_site_fract_x
 _atom_site_fract_y
 _atom_site_fract_z
 _atom_site_occupancy
  Mg  Mg0  1  0.665995  0.000000  0.225851  1
  Mg  Mg1  1  0.334005  0.334004  0.225851  1
  Mg  Mg2  1  0.000000  0.665996  0.225851  1
  Nb  Nb3  1  0.666666  0.333333  0.546322  1
  Nb  Nb4  1  0.333334  0.666667  0.546322  1
  Nb  Nb5  1  0.000000  0.000000  0.544925  1
  Nb  Nb6  1  0.333149  0.000000  0.904677  1
  Nb  Nb7  1  0.000000  0.333148  0.904677  1
  Nb  Nb8  1  0.666852  0.666852  0.904677  1
  Ru  Ru9  1  0.666666  0.333333  0.051156  1
  Ru  Ru10  1  0.333334  0.666667  0.051156  1
  Ru  Ru11  1  0.000000  0.000000  0.050322  1
  Ru  Ru12  1  0.333062  0.000000  0.399770  1
  Ru  Ru13  1  0.000000  0.333061  0.399770  1
  Ru  Ru14  1  0.666939  0.666939  0.399770  1
  Ru  Ru15  1  0.666611  0.000000  0.725582  1
  Ru  Ru16  1  0.333389  0.333389  0.725582  1
  Ru  Ru17  1  0.000000  0.666611  0.725582  1
