# generated using pymatgen
data_Tm8Sc2Si5P
_symmetry_space_group_name_H-M   'P 1'
_cell_length_a   8.22271630
_cell_length_b   8.22271669
_cell_length_c   6.05337276
_cell_angle_alpha   89.93657486
_cell_angle_beta   89.93657535
_cell_angle_gamma   120.09876645
_symmetry_Int_Tables_number   1
_chemical_formula_structural   Tm8Sc2Si5P
_chemical_formula_sum   'Tm8 Sc2 Si5 P1'
_cell_volume   354.09886086
_cell_formula_units_Z   1
loop_
 _symmetry_equiv_pos_site_id
 _symmetry_equiv_pos_as_xyz
  1  'x, y, z'
loop_
 _atom_site_type_symbol
 _atom_site_label
 _atom_site_symmetry_multiplicity
 _atom_site_fract_x
 _atom_site_fract_y
 _atom_site_fract_z
 _atom_site_occupancy
  Tm  Tm0  1  0.333672  0.666322  0.000091  1
  Tm  Tm1  1  0.666322  0.333672  0.000091  1
  Tm  Tm2  1  0.754337  0.754337  0.253447  1
  Tm  Tm3  1  0.244450  0.001185  0.253285  1
  Tm  Tm4  1  0.001185  0.244450  0.253285  1
  Tm  Tm5  1  0.244523  0.244523  0.745327  1
  Tm  Tm6  1  0.756589  0.000750  0.747136  1
  Tm  Tm7  1  0.000750  0.756589  0.747136  1
  Sc  Sc8  1  0.666062  0.333388  0.500059  1
  Sc  Sc9  1  0.333388  0.666062  0.500059  1
  Si  Si10  1  0.603557  0.000060  0.262392  1
  Si  Si11  1  0.000060  0.603557  0.262392  1
  Si  Si12  1  0.604767  0.604767  0.738860  1
  Si  Si13  1  0.396923  0.000768  0.737340  1
  Si  Si14  1  0.000768  0.396923  0.737340  1
  P  P15  1  0.392647  0.392647  0.261759  1
