# generated using pymatgen
data_DyPa2(AlRh)3
_symmetry_space_group_name_H-M   'P 1'
_cell_length_a   7.09457636
_cell_length_b   6.96074598
_cell_length_c   4.04152900
_cell_angle_alpha   90.00000000
_cell_angle_beta   90.00000000
_cell_angle_gamma   119.37792119
_symmetry_Int_Tables_number   1
_chemical_formula_structural   DyPa2(AlRh)3
_chemical_formula_sum   'Dy1 Pa2 Al3 Rh3'
_cell_volume   173.91897225
_cell_formula_units_Z   1
loop_
 _symmetry_equiv_pos_site_id
 _symmetry_equiv_pos_as_xyz
  1  'x, y, z'
loop_
 _atom_site_type_symbol
 _atom_site_label
 _atom_site_symmetry_multiplicity
 _atom_site_fract_x
 _atom_site_fract_y
 _atom_site_fract_z
 _atom_site_occupancy
  Dy  Dy0  1  0.000000  0.582730  0.500000  1
  Pa  Pa1  1  0.422596  0.420489  0.500000  1
  Pa  Pa2  1  0.577404  0.997894  0.500000  1
  Al  Al3  1  0.776647  0.766753  0.000000  1
  Al  Al4  1  0.223353  0.990106  0.000000  1
  Al  Al5  1  0.000000  0.247103  0.000000  1
  Rh  Rh6  1  0.634004  0.303628  0.000000  1
  Rh  Rh7  1  0.365996  0.669625  0.000000  1
  Rh  Rh8  1  0.000000  0.021674  0.500000  1
