# generated using pymatgen
data_NpPaBe26
_symmetry_space_group_name_H-M   'P 1'
_cell_length_a   7.19043852
_cell_length_b   7.19043909
_cell_length_c   7.19043900
_cell_angle_alpha   59.99999582
_cell_angle_beta   59.99999321
_cell_angle_gamma   60.00000340
_symmetry_Int_Tables_number   1
_chemical_formula_structural   NpPaBe26
_chemical_formula_sum   'Np1 Pa1 Be26'
_cell_volume   262.87614240
_cell_formula_units_Z   1
loop_
 _symmetry_equiv_pos_site_id
 _symmetry_equiv_pos_as_xyz
  1  'x, y, z'
loop_
 _atom_site_type_symbol
 _atom_site_label
 _atom_site_symmetry_multiplicity
 _atom_site_fract_x
 _atom_site_fract_y
 _atom_site_fract_z
 _atom_site_occupancy
  Np  Np0  1  0.750000  0.750000  0.750000  1
  Pa  Pa1  1  0.250000  0.250000  0.250000  1
  Be  Be2  1  0.000000  0.000000  0.000000  1
  Be  Be3  1  0.500000  0.500000  0.500000  1
  Be  Be4  1  0.060373  0.291132  0.939484  1
  Be  Be5  1  0.790989  0.560516  0.439627  1
  Be  Be6  1  0.560516  0.790989  0.208868  1
  Be  Be7  1  0.208868  0.560516  0.790989  1
  Be  Be8  1  0.790989  0.439627  0.208868  1
  Be  Be9  1  0.560516  0.439627  0.790989  1
  Be  Be10  1  0.208868  0.790989  0.439627  1
  Be  Be11  1  0.939484  0.060373  0.291132  1
  Be  Be12  1  0.291132  0.939484  0.060373  1
  Be  Be13  1  0.060373  0.709011  0.291132  1
  Be  Be14  1  0.060373  0.939484  0.709011  1
  Be  Be15  1  0.291132  0.709011  0.939484  1
  Be  Be16  1  0.709011  0.060373  0.939484  1
  Be  Be17  1  0.709011  0.291132  0.060373  1
  Be  Be18  1  0.939484  0.291132  0.709011  1
  Be  Be19  1  0.439627  0.790989  0.560516  1
  Be  Be20  1  0.439627  0.208868  0.790989  1
  Be  Be21  1  0.790989  0.208868  0.560516  1
  Be  Be22  1  0.439627  0.560516  0.208868  1
  Be  Be23  1  0.208868  0.439627  0.560516  1
  Be  Be24  1  0.560516  0.208868  0.439627  1
  Be  Be25  1  0.291132  0.060373  0.709011  1
  Be  Be26  1  0.939484  0.709011  0.060373  1
  Be  Be27  1  0.709011  0.939484  0.291132  1
