# generated using pymatgen
data_Th6Mg(P3Rh5)4
_symmetry_space_group_name_H-M   'P 1'
_cell_length_a   13.63103600
_cell_length_b   13.63103647
_cell_length_c   3.97354400
_cell_angle_alpha   90.00000000
_cell_angle_beta   90.00000000
_cell_angle_gamma   119.99999886
_symmetry_Int_Tables_number   1
_chemical_formula_structural   Th6Mg(P3Rh5)4
_chemical_formula_sum   'Th6 Mg1 P12 Rh20'
_cell_volume   639.39083630
_cell_formula_units_Z   1
loop_
 _symmetry_equiv_pos_site_id
 _symmetry_equiv_pos_as_xyz
  1  'x, y, z'
loop_
 _atom_site_type_symbol
 _atom_site_label
 _atom_site_symmetry_multiplicity
 _atom_site_fract_x
 _atom_site_fract_y
 _atom_site_fract_z
 _atom_site_occupancy
  Th  Th0  1  0.528917  0.718214  0.251691  1
  Th  Th1  1  0.281786  0.810702  0.251691  1
  Th  Th2  1  0.189298  0.471083  0.251691  1
  Th  Th3  1  0.471083  0.281786  0.748309  1
  Th  Th4  1  0.718214  0.189298  0.748309  1
  Th  Th5  1  0.810702  0.528917  0.748309  1
  Mg  Mg6  1  0.000000  0.000000  0.000000  1
  P  P7  1  0.524279  0.136262  0.248815  1
  P  P8  1  0.863738  0.388018  0.248815  1
  P  P9  1  0.611982  0.475721  0.248815  1
  P  P10  1  0.949475  0.721733  0.245064  1
  P  P11  1  0.278267  0.227742  0.245064  1
  P  P12  1  0.772258  0.050525  0.245064  1
  P  P13  1  0.388018  0.524279  0.751185  1
  P  P14  1  0.475721  0.863738  0.751185  1
  P  P15  1  0.136262  0.611982  0.751185  1
  P  P16  1  0.721733  0.772258  0.754936  1
  P  P17  1  0.227742  0.949475  0.754936  1
  P  P18  1  0.050525  0.278267  0.754936  1
  Rh  Rh19  1  0.333333  0.666667  0.747882  1
  Rh  Rh20  1  0.920350  0.252099  0.244264  1
  Rh  Rh21  1  0.747901  0.668251  0.244264  1
  Rh  Rh22  1  0.331749  0.079650  0.244264  1
  Rh  Rh23  1  0.438071  0.021719  0.748092  1
  Rh  Rh24  1  0.978281  0.416353  0.748092  1
  Rh  Rh25  1  0.583647  0.561929  0.748092  1
  Rh  Rh26  1  0.666667  0.333333  0.252118  1
  Rh  Rh27  1  0.098059  0.206724  0.260395  1
  Rh  Rh28  1  0.793276  0.891335  0.260395  1
  Rh  Rh29  1  0.108665  0.901941  0.260395  1
  Rh  Rh30  1  0.021719  0.583647  0.251908  1
  Rh  Rh31  1  0.416353  0.438071  0.251908  1
  Rh  Rh32  1  0.561929  0.978281  0.251908  1
  Rh  Rh33  1  0.668251  0.920350  0.755736  1
  Rh  Rh34  1  0.079650  0.747901  0.755736  1
  Rh  Rh35  1  0.252099  0.331749  0.755736  1
  Rh  Rh36  1  0.901941  0.793276  0.739605  1
  Rh  Rh37  1  0.206724  0.108665  0.739605  1
  Rh  Rh38  1  0.891335  0.098059  0.739605  1
