# generated using pymatgen
data_Th2Al2Ga7Ir3
_symmetry_space_group_name_H-M   'P 1'
_cell_length_a   7.70947634
_cell_length_b   7.70947553
_cell_length_c   9.49827300
_cell_angle_alpha   90.00000000
_cell_angle_beta   90.00000000
_cell_angle_gamma   119.74744190
_symmetry_Int_Tables_number   1
_chemical_formula_structural   Th2Al2Ga7Ir3
_chemical_formula_sum   'Th4 Al4 Ga14 Ir6'
_cell_volume   490.14506276
_cell_formula_units_Z   2
loop_
 _symmetry_equiv_pos_site_id
 _symmetry_equiv_pos_as_xyz
  1  'x, y, z'
loop_
 _atom_site_type_symbol
 _atom_site_label
 _atom_site_symmetry_multiplicity
 _atom_site_fract_x
 _atom_site_fract_y
 _atom_site_fract_z
 _atom_site_occupancy
  Th  Th0  1  0.999537  0.670215  0.750000  1
  Th  Th1  1  0.000463  0.329785  0.250000  1
  Th  Th2  1  0.670215  0.999537  0.750000  1
  Th  Th3  1  0.329785  0.000463  0.250000  1
  Al  Al4  1  0.334865  0.334865  0.051144  1
  Al  Al5  1  0.665135  0.665135  0.948856  1
  Al  Al6  1  0.665135  0.665135  0.551144  1
  Al  Al7  1  0.334865  0.334865  0.448856  1
  Ga  Ga8  1  0.132348  0.132348  0.750000  1
  Ga  Ga9  1  0.867652  0.867652  0.250000  1
  Ga  Ga10  1  0.004684  0.335525  0.577834  1
  Ga  Ga11  1  0.995316  0.664475  0.422166  1
  Ga  Ga12  1  0.995316  0.664475  0.077834  1
  Ga  Ga13  1  0.335525  0.004684  0.922166  1
  Ga  Ga14  1  0.004684  0.335525  0.922166  1
  Ga  Ga15  1  0.664475  0.995316  0.077834  1
  Ga  Ga16  1  0.664475  0.995316  0.422166  1
  Ga  Ga17  1  0.335525  0.004684  0.577834  1
  Ga  Ga18  1  0.348838  0.548731  0.750000  1
  Ga  Ga19  1  0.651162  0.451269  0.250000  1
  Ga  Ga20  1  0.548731  0.348838  0.750000  1
  Ga  Ga21  1  0.451269  0.651162  0.250000  1
  Ir  Ir22  1  0.670156  0.329844  0.500000  1
  Ir  Ir23  1  0.329844  0.670156  0.500000  1
  Ir  Ir24  1  0.329844  0.670156  0.000000  1
  Ir  Ir25  1  0.670156  0.329844  0.000000  1
  Ir  Ir26  1  0.000000  0.000000  0.500000  1
  Ir  Ir27  1  0.000000  0.000000  0.000000  1
