# generated using pymatgen
data_Tb8Ho7Lu(CdPt)4
_symmetry_space_group_name_H-M   'P 1'
_cell_length_a   9.68521034
_cell_length_b   9.65985143
_cell_length_c   9.69373634
_cell_angle_alpha   60.05723975
_cell_angle_beta   60.00155609
_cell_angle_gamma   60.14491908
_symmetry_Int_Tables_number   1
_chemical_formula_structural   Tb8Ho7Lu(CdPt)4
_chemical_formula_sum   'Tb8 Ho7 Lu1 Cd4 Pt4'
_cell_volume   642.27668594
_cell_formula_units_Z   1
loop_
 _symmetry_equiv_pos_site_id
 _symmetry_equiv_pos_as_xyz
  1  'x, y, z'
loop_
 _atom_site_type_symbol
 _atom_site_label
 _atom_site_symmetry_multiplicity
 _atom_site_fract_x
 _atom_site_fract_y
 _atom_site_fract_z
 _atom_site_occupancy
  Tb  Tb0  1  0.188219  0.188792  0.812220  1
  Tb  Tb1  1  0.812220  0.810769  0.188219  1
  Tb  Tb2  1  0.936647  0.562572  0.565104  1
  Tb  Tb3  1  0.565104  0.935677  0.936647  1
  Tb  Tb4  1  0.566225  0.933775  0.566225  1
  Tb  Tb5  1  0.938459  0.561541  0.938459  1
  Tb  Tb6  1  0.564729  0.562417  0.936552  1
  Tb  Tb7  1  0.936552  0.936303  0.564729  1
  Ho  Ho8  1  0.351747  0.348782  0.351276  1
  Ho  Ho9  1  0.356533  0.352411  0.938311  1
  Ho  Ho10  1  0.351276  0.948196  0.351747  1
  Ho  Ho11  1  0.938311  0.352745  0.356533  1
  Ho  Ho12  1  0.811024  0.189629  0.189209  1
  Ho  Ho13  1  0.189209  0.810139  0.811024  1
  Ho  Ho14  1  0.191097  0.808903  0.191097  1
  Lu  Lu15  1  0.811009  0.188991  0.811009  1
  Cd  Cd16  1  0.580150  0.583059  0.580286  1
  Cd  Cd17  1  0.579815  0.582741  0.254783  1
  Cd  Cd18  1  0.580286  0.256504  0.580150  1
  Cd  Cd19  1  0.254783  0.582660  0.579815  1
  Pt  Pt20  1  0.142200  0.145912  0.144851  1
  Pt  Pt21  1  0.137266  0.144690  0.572290  1
  Pt  Pt22  1  0.144851  0.567039  0.142200  1
  Pt  Pt23  1  0.572290  0.145757  0.137266  1
