# generated using pymatgen
data_Ba10Si17Sn
_symmetry_space_group_name_H-M   'P 1'
_cell_length_a   6.70229042
_cell_length_b   6.70228909
_cell_length_c   18.00377163
_cell_angle_alpha   81.58779145
_cell_angle_beta   81.58778535
_cell_angle_gamma   100.37935038
_symmetry_Int_Tables_number   1
_chemical_formula_structural   Ba10Si17Sn
_chemical_formula_sum   'Ba10 Si17 Sn1'
_cell_volume   774.46273074
_cell_formula_units_Z   1
loop_
 _symmetry_equiv_pos_site_id
 _symmetry_equiv_pos_as_xyz
  1  'x, y, z'
loop_
 _atom_site_type_symbol
 _atom_site_label
 _atom_site_symmetry_multiplicity
 _atom_site_fract_x
 _atom_site_fract_y
 _atom_site_fract_z
 _atom_site_occupancy
  Ba  Ba0  1  0.747250  0.251014  0.002457  1
  Ba  Ba1  1  0.109036  0.579142  0.788773  1
  Ba  Ba2  1  0.290320  0.710254  0.499608  1
  Ba  Ba3  1  0.759952  0.759952  0.642955  1
  Ba  Ba4  1  0.244054  0.244054  0.352124  1
  Ba  Ba5  1  0.579142  0.109036  0.788773  1
  Ba  Ba6  1  0.251014  0.747250  0.002457  1
  Ba  Ba7  1  0.710254  0.290320  0.499608  1
  Ba  Ba8  1  0.418741  0.889470  0.209655  1
  Ba  Ba9  1  0.889470  0.418741  0.209655  1
  Si  Si10  1  0.218869  0.218869  0.071012  1
  Si  Si11  1  0.926657  0.926657  0.263879  1
  Si  Si12  1  0.071531  0.071531  0.736334  1
  Si  Si13  1  0.789410  0.789410  0.936563  1
  Si  Si14  1  0.347404  0.347404  0.647742  1
  Si  Si15  1  0.275475  0.275475  0.935395  1
  Si  Si16  1  0.938966  0.938966  0.131671  1
  Si  Si17  1  0.652810  0.652810  0.351999  1
  Si  Si18  1  0.427504  0.427504  0.141426  1
  Si  Si19  1  0.060633  0.060633  0.869567  1
  Si  Si20  1  0.816834  0.816834  0.449013  1
  Si  Si21  1  0.329926  0.972735  0.643369  1
  Si  Si22  1  0.670438  0.027387  0.356001  1
  Si  Si23  1  0.183189  0.183189  0.550638  1
  Si  Si24  1  0.972735  0.329926  0.643369  1
  Si  Si25  1  0.027387  0.670438  0.356001  1
  Si  Si26  1  0.710091  0.710091  0.071116  1
  Sn  Sn27  1  0.580907  0.580907  0.848835  1
