# generated using pymatgen
data_Ho6ZrCo17(Si2P)4
_symmetry_space_group_name_H-M   'P 1'
_cell_length_a   3.75241500
_cell_length_b   10.70849400
_cell_length_c   12.39400300
_cell_angle_alpha   90.00000000
_cell_angle_beta   90.00000000
_cell_angle_gamma   90.00000000
_symmetry_Int_Tables_number   1
_chemical_formula_structural   Ho6ZrCo17(Si2P)4
_chemical_formula_sum   'Ho6 Zr1 Co17 Si8 P4'
_cell_volume   498.02467183
_cell_formula_units_Z   1
loop_
 _symmetry_equiv_pos_site_id
 _symmetry_equiv_pos_as_xyz
  1  'x, y, z'
loop_
 _atom_site_type_symbol
 _atom_site_label
 _atom_site_symmetry_multiplicity
 _atom_site_fract_x
 _atom_site_fract_y
 _atom_site_fract_z
 _atom_site_occupancy
  Ho  Ho0  1  0.000000  0.500000  0.531788  1
  Ho  Ho1  1  0.500000  0.000000  0.472561  1
  Ho  Ho2  1  0.500000  0.820296  0.208529  1
  Ho  Ho3  1  0.500000  0.179704  0.208529  1
  Ho  Ho4  1  0.000000  0.682744  0.795871  1
  Ho  Ho5  1  0.000000  0.317256  0.795871  1
  Zr  Zr6  1  0.500000  0.500000  0.150124  1
  Co  Co7  1  0.000000  0.500000  0.986864  1
  Co  Co8  1  0.500000  0.000000  0.017040  1
  Co  Co9  1  0.500000  0.291329  0.431507  1
  Co  Co10  1  0.500000  0.708671  0.431507  1
  Co  Co11  1  0.000000  0.197538  0.566823  1
  Co  Co12  1  0.000000  0.802462  0.566823  1
  Co  Co13  1  0.500000  0.883344  0.704617  1
  Co  Co14  1  0.500000  0.116656  0.704617  1
  Co  Co15  1  0.000000  0.622956  0.295906  1
  Co  Co16  1  0.000000  0.377044  0.295906  1
  Co  Co17  1  0.500000  0.323795  0.992429  1
  Co  Co18  1  0.500000  0.676205  0.992429  1
  Co  Co19  1  0.000000  0.163753  0.003000  1
  Co  Co20  1  0.000000  0.836247  0.003000  1
  Co  Co21  1  0.000000  0.000000  0.844815  1
  Co  Co22  1  0.500000  0.500000  0.699358  1
  Co  Co23  1  0.000000  0.000000  0.303915  1
  Si  Si24  1  0.500000  0.304895  0.616083  1
  Si  Si25  1  0.500000  0.695105  0.616083  1
  Si  Si26  1  0.500000  0.500000  0.884287  1
  Si  Si27  1  0.000000  0.000000  0.118411  1
  Si  Si28  1  0.500000  0.856761  0.888520  1
  Si  Si29  1  0.500000  0.143239  0.888520  1
  Si  Si30  1  0.500000  0.500000  0.358690  1
  Si  Si31  1  0.000000  0.000000  0.657455  1
  P  P32  1  0.000000  0.192306  0.385479  1
  P  P33  1  0.000000  0.807694  0.385479  1
  P  P34  1  0.000000  0.665264  0.098581  1
  P  P35  1  0.000000  0.334736  0.098581  1
