# generated using pymatgen
data_Ho2U2Fe3Ge4Ru
_symmetry_space_group_name_H-M   'P 1'
_cell_length_a   4.41101100
_cell_length_b   7.09111282
_cell_length_c   6.94746078
_cell_angle_alpha   95.21842837
_cell_angle_beta   90.00000000
_cell_angle_gamma   90.00000000
_symmetry_Int_Tables_number   1
_chemical_formula_structural   Ho2U2Fe3Ge4Ru
_chemical_formula_sum   'Ho2 U2 Fe3 Ge4 Ru1'
_cell_volume   216.40875874
_cell_formula_units_Z   1
loop_
 _symmetry_equiv_pos_site_id
 _symmetry_equiv_pos_as_xyz
  1  'x, y, z'
loop_
 _atom_site_type_symbol
 _atom_site_label
 _atom_site_symmetry_multiplicity
 _atom_site_fract_x
 _atom_site_fract_y
 _atom_site_fract_z
 _atom_site_occupancy
  Ho  Ho0  1  0.250000  0.979991  0.275142  1
  Ho  Ho1  1  0.750000  0.018889  0.725281  1
  U  U2  1  0.250000  0.482262  0.187138  1
  U  U3  1  0.750000  0.512938  0.799663  1
  Fe  Fe4  1  0.750000  0.727294  0.036791  1
  Fe  Fe5  1  0.250000  0.262652  0.961388  1
  Fe  Fe6  1  0.750000  0.372135  0.475882  1
  Ge  Ge7  1  0.250000  0.803239  0.892597  1
  Ge  Ge8  1  0.750000  0.197751  0.117400  1
  Ge  Ge9  1  0.250000  0.283695  0.600001  1
  Ge  Ge10  1  0.750000  0.715533  0.391325  1
  Ru  Ru11  1  0.250000  0.643620  0.537392  1
