# generated using pymatgen
data_La5Pr3CdHgPt2
_symmetry_space_group_name_H-M   'P 1'
_cell_length_a   10.15552323
_cell_length_b   10.15552339
_cell_length_c   10.15342100
_cell_angle_alpha   60.00684464
_cell_angle_beta   60.00684412
_cell_angle_gamma   60.03891714
_symmetry_Int_Tables_number   1
_chemical_formula_structural   La5Pr3CdHgPt2
_chemical_formula_sum   'La10 Pr6 Cd2 Hg2 Pt4'
_cell_volume   740.75489250
_cell_formula_units_Z   2
loop_
 _symmetry_equiv_pos_site_id
 _symmetry_equiv_pos_as_xyz
  1  'x, y, z'
loop_
 _atom_site_type_symbol
 _atom_site_label
 _atom_site_symmetry_multiplicity
 _atom_site_fract_x
 _atom_site_fract_y
 _atom_site_fract_z
 _atom_site_occupancy
  La  La0  1  0.349750  0.349750  0.348944  1
  La  La1  1  0.349750  0.349750  0.951557  1
  La  La2  1  0.351098  0.948576  0.350163  1
  La  La3  1  0.948576  0.351098  0.350163  1
  La  La4  1  0.806157  0.194143  0.194066  1
  La  La5  1  0.194143  0.806157  0.805634  1
  La  La6  1  0.194143  0.806157  0.194066  1
  La  La7  1  0.806157  0.194143  0.805634  1
  La  La8  1  0.193123  0.193123  0.806877  1
  La  La9  1  0.804470  0.804470  0.195530  1
  Pr  Pr10  1  0.935139  0.564495  0.566181  1
  Pr  Pr11  1  0.564495  0.935139  0.934185  1
  Pr  Pr12  1  0.564495  0.935139  0.566181  1
  Pr  Pr13  1  0.935139  0.564495  0.934185  1
  Pr  Pr14  1  0.564757  0.564757  0.935243  1
  Pr  Pr15  1  0.934073  0.934073  0.565927  1
  Cd  Cd16  1  0.579883  0.258618  0.580749  1
  Cd  Cd17  1  0.258618  0.579883  0.580749  1
  Hg  Hg18  1  0.582893  0.582893  0.584948  1
  Hg  Hg19  1  0.582893  0.582893  0.249266  1
  Pt  Pt20  1  0.142467  0.142467  0.142522  1
  Pt  Pt21  1  0.142467  0.142467  0.572545  1
  Pt  Pt22  1  0.142472  0.572845  0.142342  1
  Pt  Pt23  1  0.572845  0.142472  0.142342  1
