# generated using pymatgen
data_TbPr3Dy2CoCl10
_symmetry_space_group_name_H-M   'P 1'
_cell_length_a   7.21560048
_cell_length_b   9.06740310
_cell_length_c   9.13563245
_cell_angle_alpha   109.84207896
_cell_angle_beta   95.26884594
_cell_angle_gamma   105.12250797
_symmetry_Int_Tables_number   1
_chemical_formula_structural   TbPr3Dy2CoCl10
_chemical_formula_sum   'Tb1 Pr3 Dy2 Co1 Cl10'
_cell_volume   531.94332555
_cell_formula_units_Z   1
loop_
 _symmetry_equiv_pos_site_id
 _symmetry_equiv_pos_as_xyz
  1  'x, y, z'
loop_
 _atom_site_type_symbol
 _atom_site_label
 _atom_site_symmetry_multiplicity
 _atom_site_fract_x
 _atom_site_fract_y
 _atom_site_fract_z
 _atom_site_occupancy
  Tb  Tb0  1  0.361318  0.947255  0.242893  1
  Pr  Pr1  1  0.533797  0.703620  0.901637  1
  Pr  Pr2  1  0.467011  0.297881  0.104312  1
  Pr  Pr3  1  0.641845  0.054506  0.748088  1
  Dy  Dy4  1  0.857855  0.132180  0.182607  1
  Dy  Dy5  1  0.143055  0.867011  0.815594  1
  Co  Co6  1  0.500214  0.000936  0.999985  1
  Cl  Cl7  1  0.729762  0.075202  0.434434  1
  Cl  Cl8  1  0.256236  0.920125  0.552017  1
  Cl  Cl9  1  0.957603  0.832556  0.075913  1
  Cl  Cl10  1  0.050397  0.169329  0.928310  1
  Cl  Cl11  1  0.262500  0.234944  0.345884  1
  Cl  Cl12  1  0.740356  0.753271  0.656932  1
  Cl  Cl13  1  0.590617  0.370850  0.840193  1
  Cl  Cl14  1  0.403845  0.640624  0.169324  1
  Cl  Cl15  1  0.855872  0.438976  0.274765  1
  Cl  Cl16  1  0.147717  0.560736  0.727114  1
