# generated using pymatgen
data_YEr2Zr7Pb6
_symmetry_space_group_name_H-M   'P 1'
_cell_length_a   8.79031100
_cell_length_b   8.77660163
_cell_length_c   6.03417900
_cell_angle_alpha   90.00000000
_cell_angle_beta   90.00000000
_cell_angle_gamma   120.05168899
_symmetry_Int_Tables_number   1
_chemical_formula_structural   YEr2Zr7Pb6
_chemical_formula_sum   'Y1 Er2 Zr7 Pb6'
_cell_volume   402.95171482
_cell_formula_units_Z   1
loop_
 _symmetry_equiv_pos_site_id
 _symmetry_equiv_pos_as_xyz
  1  'x, y, z'
loop_
 _atom_site_type_symbol
 _atom_site_label
 _atom_site_symmetry_multiplicity
 _atom_site_fract_x
 _atom_site_fract_y
 _atom_site_fract_z
 _atom_site_occupancy
  Y  Y0  1  0.757997  0.000000  0.750000  1
  Er  Er1  1  0.761535  0.757927  0.250000  1
  Er  Er2  1  0.003608  0.242073  0.250000  1
  Zr  Zr3  1  0.330556  0.666384  0.500541  1
  Zr  Zr4  1  0.246750  0.000000  0.250000  1
  Zr  Zr5  1  0.664174  0.333616  0.500541  1
  Zr  Zr6  1  0.001578  0.755242  0.750000  1
  Zr  Zr7  1  0.330556  0.666384  0.999459  1
  Zr  Zr8  1  0.246336  0.244758  0.750000  1
  Zr  Zr9  1  0.664174  0.333616  0.999459  1
  Pb  Pb10  1  0.605361  0.603547  0.750000  1
  Pb  Pb11  1  0.387823  0.000000  0.750000  1
  Pb  Pb12  1  0.601465  0.000000  0.250000  1
  Pb  Pb13  1  0.001815  0.396453  0.750000  1
  Pb  Pb14  1  0.394568  0.392861  0.250000  1
  Pb  Pb15  1  0.001706  0.607139  0.250000  1
