# generated using pymatgen
data_Li16TiSiAs8
_symmetry_space_group_name_H-M   'P 1'
_cell_length_a   8.73875763
_cell_length_b   8.73875712
_cell_length_c   8.73875800
_cell_angle_alpha   59.99999667
_cell_angle_beta   59.99999861
_cell_angle_gamma   59.99999713
_symmetry_Int_Tables_number   1
_chemical_formula_structural   Li16TiSiAs8
_chemical_formula_sum   'Li16 Ti1 Si1 As8'
_cell_volume   471.88269741
_cell_formula_units_Z   1
loop_
 _symmetry_equiv_pos_site_id
 _symmetry_equiv_pos_as_xyz
  1  'x, y, z'
loop_
 _atom_site_type_symbol
 _atom_site_label
 _atom_site_symmetry_multiplicity
 _atom_site_fract_x
 _atom_site_fract_y
 _atom_site_fract_z
 _atom_site_occupancy
  Li  Li0  1  0.628775  0.628775  0.113674  1
  Li  Li1  1  0.628775  0.113674  0.628775  1
  Li  Li2  1  0.113674  0.628775  0.628775  1
  Li  Li3  1  0.628775  0.628775  0.628775  1
  Li  Li4  1  0.025412  0.474588  0.474588  1
  Li  Li5  1  0.764975  0.235025  0.235025  1
  Li  Li6  1  0.474588  0.025412  0.474588  1
  Li  Li7  1  0.474588  0.474588  0.025412  1
  Li  Li8  1  0.025412  0.025412  0.474588  1
  Li  Li9  1  0.025412  0.474588  0.025412  1
  Li  Li10  1  0.474588  0.025412  0.025412  1
  Li  Li11  1  0.764975  0.235025  0.764975  1
  Li  Li12  1  0.235025  0.764975  0.235025  1
  Li  Li13  1  0.235025  0.235025  0.764975  1
  Li  Li14  1  0.764975  0.764975  0.235025  1
  Li  Li15  1  0.235025  0.764975  0.764975  1
  Ti  Ti16  1  0.500000  0.500000  0.500000  1
  Si  Si17  1  0.750000  0.750000  0.750000  1
  As  As18  1  0.862029  0.862029  0.413916  1
  As  As19  1  0.862029  0.413916  0.862029  1
  As  As20  1  0.386059  0.386059  0.841822  1
  As  As21  1  0.386059  0.841822  0.386059  1
  As  As22  1  0.841822  0.386059  0.386059  1
  As  As23  1  0.862029  0.862029  0.862029  1
  As  As24  1  0.413916  0.862029  0.862029  1
  As  As25  1  0.386059  0.386059  0.386059  1
