# generated using pymatgen
data_LaDy(TcO4)6
_symmetry_space_group_name_H-M   'P 1'
_cell_length_a   10.20302000
_cell_length_b   10.20302121
_cell_length_c   6.32886000
_cell_angle_alpha   90.00000000
_cell_angle_beta   90.00000000
_cell_angle_gamma   119.99999513
_symmetry_Int_Tables_number   1
_chemical_formula_structural   LaDy(TcO4)6
_chemical_formula_sum   'La1 Dy1 Tc6 O24'
_cell_volume   570.57622244
_cell_formula_units_Z   1
loop_
 _symmetry_equiv_pos_site_id
 _symmetry_equiv_pos_as_xyz
  1  'x, y, z'
loop_
 _atom_site_type_symbol
 _atom_site_label
 _atom_site_symmetry_multiplicity
 _atom_site_fract_x
 _atom_site_fract_y
 _atom_site_fract_z
 _atom_site_occupancy
  La  La0  1  0.333333  0.666667  0.250000  1
  Dy  Dy1  1  0.666667  0.333333  0.750000  1
  Tc  Tc2  1  0.611459  0.699708  0.750000  1
  Tc  Tc3  1  0.400897  0.295405  0.250000  1
  Tc  Tc4  1  0.088249  0.388541  0.750000  1
  Tc  Tc5  1  0.894508  0.599103  0.250000  1
  Tc  Tc6  1  0.300292  0.911751  0.750000  1
  Tc  Tc7  1  0.704595  0.105492  0.250000  1
  O  O8  1  0.945471  0.435803  0.750000  1
  O  O9  1  0.042475  0.560030  0.250000  1
  O  O10  1  0.490333  0.054529  0.750000  1
  O  O11  1  0.517554  0.957525  0.250000  1
  O  O12  1  0.564197  0.509667  0.750000  1
  O  O13  1  0.439970  0.482446  0.250000  1
  O  O14  1  0.803296  0.812669  0.750000  1
  O  O15  1  0.210001  0.175901  0.250000  1
  O  O16  1  0.009374  0.196704  0.750000  1
  O  O17  1  0.965899  0.789999  0.250000  1
  O  O18  1  0.187331  0.990626  0.750000  1
  O  O19  1  0.824099  0.034101  0.250000  1
  O  O20  1  0.535538  0.738894  0.974198  1
  O  O21  1  0.479541  0.262444  0.022903  1
  O  O22  1  0.203356  0.464462  0.974198  1
  O  O23  1  0.479541  0.262444  0.477097  1
  O  O24  1  0.782903  0.520459  0.022903  1
  O  O25  1  0.535538  0.738894  0.525802  1
  O  O26  1  0.261106  0.796644  0.974198  1
  O  O27  1  0.782903  0.520459  0.477097  1
  O  O28  1  0.737556  0.217097  0.022903  1
  O  O29  1  0.203356  0.464462  0.525802  1
  O  O30  1  0.737556  0.217097  0.477097  1
  O  O31  1  0.261106  0.796644  0.525802  1
