# generated using pymatgen
data_Lu4ZnGa5Ru2
_symmetry_space_group_name_H-M   'P 1'
_cell_length_a   5.38069000
_cell_length_b   5.35259321
_cell_length_c   8.72999800
_cell_angle_alpha   90.00000000
_cell_angle_beta   90.00000000
_cell_angle_gamma   120.17378194
_symmetry_Int_Tables_number   1
_chemical_formula_structural   Lu4ZnGa5Ru2
_chemical_formula_sum   'Lu4 Zn1 Ga5 Ru2'
_cell_volume   217.36209355
_cell_formula_units_Z   1
loop_
 _symmetry_equiv_pos_site_id
 _symmetry_equiv_pos_as_xyz
  1  'x, y, z'
loop_
 _atom_site_type_symbol
 _atom_site_label
 _atom_site_symmetry_multiplicity
 _atom_site_fract_x
 _atom_site_fract_y
 _atom_site_fract_z
 _atom_site_occupancy
  Lu  Lu0  1  0.666667  0.333331  0.054189  1
  Lu  Lu1  1  0.666667  0.333331  0.445811  1
  Lu  Lu2  1  0.332248  0.664495  0.552117  1
  Lu  Lu3  1  0.332248  0.664495  0.947884  1
  Zn  Zn4  1  0.167213  0.334426  0.250000  1
  Ga  Ga5  1  0.168165  0.839293  0.250000  1
  Ga  Ga6  1  0.671128  0.839293  0.250000  1
  Ga  Ga7  1  0.331970  0.166216  0.750000  1
  Ga  Ga8  1  0.834245  0.166216  0.750000  1
  Ga  Ga9  1  0.833729  0.667455  0.750000  1
  Ru  Ru10  1  0.997861  0.995723  0.997966  1
  Ru  Ru11  1  0.997861  0.995723  0.502034  1
