# generated using pymatgen
data_Y3Er3Al17Si7Os8
_symmetry_space_group_name_H-M   'P 1'
_cell_length_a   8.69229120
_cell_length_b   8.68045035
_cell_length_c   9.48870900
_cell_angle_alpha   90.00000000
_cell_angle_beta   90.00000000
_cell_angle_gamma   120.12298459
_symmetry_Int_Tables_number   1
_chemical_formula_structural   Y3Er3Al17Si7Os8
_chemical_formula_sum   'Y3 Er3 Al17 Si7 Os8'
_cell_volume   619.26243945
_cell_formula_units_Z   1
loop_
 _symmetry_equiv_pos_site_id
 _symmetry_equiv_pos_as_xyz
  1  'x, y, z'
loop_
 _atom_site_type_symbol
 _atom_site_label
 _atom_site_symmetry_multiplicity
 _atom_site_fract_x
 _atom_site_fract_y
 _atom_site_fract_z
 _atom_site_occupancy
  Y  Y0  1  0.807765  0.615680  0.750000  1
  Y  Y1  1  0.386468  0.190455  0.750000  1
  Y  Y2  1  0.803174  0.191068  0.750000  1
  Er  Er3  1  0.192919  0.388436  0.250000  1
  Er  Er4  1  0.610515  0.806945  0.250000  1
  Er  Er5  1  0.196136  0.805020  0.250000  1
  Al  Al6  1  0.164754  0.330561  0.576351  1
  Al  Al7  1  0.834381  0.671455  0.419737  1
  Al  Al8  1  0.670548  0.834741  0.575781  1
  Al  Al9  1  0.834381  0.671455  0.080263  1
  Al  Al10  1  0.329474  0.165718  0.421083  1
  Al  Al11  1  0.164754  0.330561  0.923649  1
  Al  Al12  1  0.164087  0.833950  0.574515  1
  Al  Al13  1  0.329474  0.165718  0.078917  1
  Al  Al14  1  0.835594  0.163788  0.420621  1
  Al  Al15  1  0.670548  0.834741  0.924219  1
  Al  Al16  1  0.835594  0.163788  0.079379  1
  Al  Al17  1  0.164087  0.833950  0.925485  1
  Al  Al18  1  0.126016  0.565950  0.750000  1
  Al  Al19  1  0.564304  0.435212  0.250000  1
  Al  Al20  1  0.438800  0.566734  0.750000  1
  Al  Al21  1  0.999809  0.999153  0.250000  1
  Al  Al22  1  0.999743  0.001073  0.750000  1
  Si  Si23  1  0.333409  0.664607  0.041224  1
  Si  Si24  1  0.666416  0.335779  0.960958  1
  Si  Si25  1  0.666416  0.335779  0.539042  1
  Si  Si26  1  0.333409  0.664607  0.458776  1
  Si  Si27  1  0.564712  0.123959  0.250000  1
  Si  Si28  1  0.436009  0.872612  0.750000  1
  Si  Si29  1  0.875000  0.434720  0.250000  1
  Os  Os30  1  0.500826  0.000725  0.002264  1
  Os  Os31  1  0.998619  0.499424  0.007683  1
  Os  Os32  1  0.500826  0.000725  0.497736  1
  Os  Os33  1  0.500510  0.500330  0.001336  1
  Os  Os34  1  0.998619  0.499424  0.492317  1
  Os  Os35  1  0.500510  0.500330  0.498664  1
  Os  Os36  1  0.000697  0.000417  0.000150  1
  Os  Os37  1  0.000697  0.000417  0.499850  1
