# generated using pymatgen
data_Zr4SiAs7
_symmetry_space_group_name_H-M   'P 1'
_cell_length_a   3.70499500
_cell_length_b   6.77652921
_cell_length_c   9.16190917
_cell_angle_alpha   89.79474244
_cell_angle_beta   90.00000000
_cell_angle_gamma   90.00000000
_symmetry_Int_Tables_number   1
_chemical_formula_structural   Zr4SiAs7
_chemical_formula_sum   'Zr4 Si1 As7'
_cell_volume   230.02664004
_cell_formula_units_Z   1
loop_
 _symmetry_equiv_pos_site_id
 _symmetry_equiv_pos_as_xyz
  1  'x, y, z'
loop_
 _atom_site_type_symbol
 _atom_site_label
 _atom_site_symmetry_multiplicity
 _atom_site_fract_x
 _atom_site_fract_y
 _atom_site_fract_z
 _atom_site_occupancy
  Zr  Zr0  1  0.000000  0.768618  0.659576  1
  Zr  Zr1  1  0.000000  0.273304  0.836849  1
  Zr  Zr2  1  0.500000  0.229358  0.336265  1
  Zr  Zr3  1  0.500000  0.730448  0.166653  1
  Si  Si4  1  0.000000  0.372356  0.542772  1
  As  As5  1  0.000000  0.417788  0.147295  1
  As  As6  1  0.000000  0.916906  0.354355  1
  As  As7  1  0.500000  0.587287  0.851514  1
  As  As8  1  0.500000  0.099287  0.642163  1
  As  As9  1  0.000000  0.877455  0.957191  1
  As  As10  1  0.500000  0.604655  0.463556  1
  As  As11  1  0.500000  0.122538  0.041811  1
