# generated using pymatgen
data_Li8CaTm3In4
_symmetry_space_group_name_H-M   'P 1'
_cell_length_a   6.81716100
_cell_length_b   4.85689800
_cell_length_c   9.72094500
_cell_angle_alpha   90.00000000
_cell_angle_beta   90.00006898
_cell_angle_gamma   90.00000000
_symmetry_Int_Tables_number   1
_chemical_formula_structural   Li8CaTm3In4
_chemical_formula_sum   'Li8 Ca1 Tm3 In4'
_cell_volume   321.86297388
_cell_formula_units_Z   1
loop_
 _symmetry_equiv_pos_site_id
 _symmetry_equiv_pos_as_xyz
  1  'x, y, z'
loop_
 _atom_site_type_symbol
 _atom_site_label
 _atom_site_symmetry_multiplicity
 _atom_site_fract_x
 _atom_site_fract_y
 _atom_site_fract_z
 _atom_site_occupancy
  Li  Li0  1  0.000849  0.750000  0.127469  1
  Li  Li1  1  0.499122  0.750000  0.127486  1
  Li  Li2  1  0.000372  0.249999  0.372060  1
  Li  Li3  1  0.499604  0.249999  0.372078  1
  Li  Li4  1  0.499201  0.750000  0.628084  1
  Li  Li5  1  0.000803  0.750000  0.628102  1
  Li  Li6  1  0.500131  0.249999  0.872045  1
  Li  Li7  1  0.999876  0.249999  0.872062  1
  Ca  Ca8  1  0.250014  0.750000  0.878023  1
  Tm  Tm9  1  0.749980  0.249999  0.121287  1
  Tm  Tm10  1  0.249985  0.750000  0.378068  1
  Tm  Tm11  1  0.750006  0.249999  0.621132  1
  In  In12  1  0.249989  0.249999  0.131540  1
  In  In13  1  0.749993  0.750000  0.376619  1
  In  In14  1  0.249996  0.249999  0.617379  1
  In  In15  1  0.750079  0.750000  0.876568  1
