# generated using pymatgen
data_Ac3Cd5Au
_symmetry_space_group_name_H-M   'P 1'
_cell_length_a   8.37960500
_cell_length_b   8.37960542
_cell_length_c   4.38570400
_cell_angle_alpha   90.00000000
_cell_angle_beta   90.00000000
_cell_angle_gamma   119.99999545
_symmetry_Int_Tables_number   1
_chemical_formula_structural   Ac3Cd5Au
_chemical_formula_sum   'Ac3 Cd5 Au1'
_cell_volume   266.69635783
_cell_formula_units_Z   1
loop_
 _symmetry_equiv_pos_site_id
 _symmetry_equiv_pos_as_xyz
  1  'x, y, z'
loop_
 _atom_site_type_symbol
 _atom_site_label
 _atom_site_symmetry_multiplicity
 _atom_site_fract_x
 _atom_site_fract_y
 _atom_site_fract_z
 _atom_site_occupancy
  Ac  Ac0  1  0.593062  0.015847  0.000000  1
  Ac  Ac1  1  0.984153  0.577214  0.000000  1
  Ac  Ac2  1  0.422786  0.406938  0.000000  1
  Cd  Cd3  1  0.247609  0.993467  0.500000  1
  Cd  Cd4  1  0.006533  0.254143  0.500000  1
  Cd  Cd5  1  0.745857  0.752391  0.500000  1
  Cd  Cd6  1  0.333333  0.666667  0.500000  1
  Cd  Cd7  1  0.000000  0.000000  0.000000  1
  Au  Au8  1  0.666667  0.333333  0.500000  1
