# generated using pymatgen
data_Hf18Re8NiIr
_symmetry_space_group_name_H-M   'P 1'
_cell_length_a   8.62503600
_cell_length_b   8.62503662
_cell_length_c   8.53080000
_cell_angle_alpha   90.00000000
_cell_angle_beta   90.00000000
_cell_angle_gamma   119.99999762
_symmetry_Int_Tables_number   1
_chemical_formula_structural   Hf18Re8NiIr
_chemical_formula_sum   'Hf18 Re8 Ni1 Ir1'
_cell_volume   549.59435895
_cell_formula_units_Z   1
loop_
 _symmetry_equiv_pos_site_id
 _symmetry_equiv_pos_as_xyz
  1  'x, y, z'
loop_
 _atom_site_type_symbol
 _atom_site_label
 _atom_site_symmetry_multiplicity
 _atom_site_fract_x
 _atom_site_fract_y
 _atom_site_fract_z
 _atom_site_occupancy
  Hf  Hf0  1  0.195299  0.804701  0.445838  1
  Hf  Hf1  1  0.195299  0.390596  0.445838  1
  Hf  Hf2  1  0.609404  0.804701  0.445838  1
  Hf  Hf3  1  0.802166  0.197834  0.557654  1
  Hf  Hf4  1  0.802166  0.604334  0.557654  1
  Hf  Hf5  1  0.395666  0.197834  0.557654  1
  Hf  Hf6  1  0.802166  0.197834  0.942346  1
  Hf  Hf7  1  0.802166  0.604334  0.942346  1
  Hf  Hf8  1  0.395666  0.197834  0.942346  1
  Hf  Hf9  1  0.195299  0.804701  0.054162  1
  Hf  Hf10  1  0.195299  0.390596  0.054162  1
  Hf  Hf11  1  0.609404  0.804701  0.054162  1
  Hf  Hf12  1  0.542195  0.457805  0.250000  1
  Hf  Hf13  1  0.542195  0.084391  0.250000  1
  Hf  Hf14  1  0.915609  0.457805  0.250000  1
  Hf  Hf15  1  0.458726  0.541274  0.750000  1
  Hf  Hf16  1  0.458726  0.917451  0.750000  1
  Hf  Hf17  1  0.082549  0.541274  0.750000  1
  Re  Re18  1  0.889588  0.110412  0.250000  1
  Re  Re19  1  0.889588  0.779174  0.250000  1
  Re  Re20  1  0.220826  0.110412  0.250000  1
  Re  Re21  1  0.110034  0.889966  0.750000  1
  Re  Re22  1  0.110034  0.220070  0.750000  1
  Re  Re23  1  0.779930  0.889966  0.750000  1
  Re  Re24  1  0.000000  0.000000  0.499928  1
  Re  Re25  1  0.000000  0.000000  0.000072  1
  Ni  Ni26  1  0.666667  0.333333  0.750000  1
  Ir  Ir27  1  0.333333  0.666667  0.250000  1
