# generated using pymatgen
data_Tb9Sc(CoTe)4
_symmetry_space_group_name_H-M   'P 1'
_cell_length_a   7.77778839
_cell_length_b   7.77778839
_cell_length_c   14.96214500
_cell_angle_alpha   90.00000000
_cell_angle_beta   90.00000000
_cell_angle_gamma   150.37398936
_symmetry_Int_Tables_number   1
_chemical_formula_structural   Tb9Sc(CoTe)4
_chemical_formula_sum   'Tb9 Sc1 Co4 Te4'
_cell_volume   447.43383294
_cell_formula_units_Z   1
loop_
 _symmetry_equiv_pos_site_id
 _symmetry_equiv_pos_as_xyz
  1  'x, y, z'
loop_
 _atom_site_type_symbol
 _atom_site_label
 _atom_site_symmetry_multiplicity
 _atom_site_fract_x
 _atom_site_fract_y
 _atom_site_fract_z
 _atom_site_occupancy
  Tb  Tb0  1  0.606800  0.393200  0.250000  1
  Tb  Tb1  1  0.744147  0.255853  0.632842  1
  Tb  Tb2  1  0.961995  0.038005  0.124142  1
  Tb  Tb3  1  0.034930  0.965070  0.871605  1
  Tb  Tb4  1  0.961995  0.038005  0.375858  1
  Tb  Tb5  1  0.034930  0.965070  0.628395  1
  Tb  Tb6  1  0.258794  0.741206  0.129637  1
  Tb  Tb7  1  0.258794  0.741206  0.370363  1
  Tb  Tb8  1  0.744147  0.255853  0.867158  1
  Sc  Sc9  1  0.396375  0.603625  0.750000  1
  Co  Co10  1  0.412301  0.587699  0.250000  1
  Co  Co11  1  0.584216  0.415784  0.750000  1
  Co  Co12  1  0.820449  0.179551  0.250000  1
  Co  Co13  1  0.180019  0.819981  0.750000  1
  Te  Te14  1  0.618085  0.381915  0.036528  1
  Te  Te15  1  0.618085  0.381915  0.463472  1
  Te  Te16  1  0.381969  0.618031  0.542038  1
  Te  Te17  1  0.381969  0.618031  0.957962  1
