# generated using pymatgen
data_Pr2TaRh3
_symmetry_space_group_name_H-M   'P 1'
_cell_length_a   5.30390023
_cell_length_b   5.30390033
_cell_length_c   5.30389918
_cell_angle_alpha   66.89999766
_cell_angle_beta   66.89999312
_cell_angle_gamma   66.89998711
_symmetry_Int_Tables_number   1
_chemical_formula_structural   Pr2TaRh3
_chemical_formula_sum   'Pr2 Ta1 Rh3'
_cell_volume   121.12341088
_cell_formula_units_Z   1
loop_
 _symmetry_equiv_pos_site_id
 _symmetry_equiv_pos_as_xyz
  1  'x, y, z'
loop_
 _atom_site_type_symbol
 _atom_site_label
 _atom_site_symmetry_multiplicity
 _atom_site_fract_x
 _atom_site_fract_y
 _atom_site_fract_z
 _atom_site_occupancy
  Pr  Pr0  1  0.626238  0.626238  0.626238  1
  Pr  Pr1  1  0.373762  0.373762  0.373762  1
  Ta  Ta2  1  0.000000  0.000000  0.000000  1
  Rh  Rh3  1  0.000000  0.000000  0.500000  1
  Rh  Rh4  1  0.500000  0.000000  0.000000  1
  Rh  Rh5  1  0.000000  0.500000  0.000000  1
