# generated using pymatgen
data_Tm9Al(BiRu2)2
_symmetry_space_group_name_H-M   'P 1'
_cell_length_a   9.11481611
_cell_length_b   9.11481628
_cell_length_c   9.11481737
_cell_angle_alpha   133.08563713
_cell_angle_beta   133.08564013
_cell_angle_gamma   68.51969604
_symmetry_Int_Tables_number   1
_chemical_formula_structural   Tm9Al(BiRu2)2
_chemical_formula_sum   'Tm9 Al1 Bi2 Ru4'
_cell_volume   396.68695102
_cell_formula_units_Z   1
loop_
 _symmetry_equiv_pos_site_id
 _symmetry_equiv_pos_as_xyz
  1  'x, y, z'
loop_
 _atom_site_type_symbol
 _atom_site_label
 _atom_site_symmetry_multiplicity
 _atom_site_fract_x
 _atom_site_fract_y
 _atom_site_fract_z
 _atom_site_occupancy
  Tm  Tm0  1  0.000000  0.000000  0.000000  1
  Tm  Tm1  1  0.786147  0.302363  0.836561  1
  Tm  Tm2  1  0.213853  0.697637  0.163439  1
  Tm  Tm3  1  0.465803  0.949586  0.163439  1
  Tm  Tm4  1  0.302363  0.465803  0.516216  1
  Tm  Tm5  1  0.050414  0.213853  0.516216  1
  Tm  Tm6  1  0.534197  0.050414  0.836561  1
  Tm  Tm7  1  0.697637  0.534197  0.483784  1
  Tm  Tm8  1  0.949586  0.786147  0.483784  1
  Al  Al9  1  0.500000  0.500000  0.000000  1
  Bi  Bi10  1  0.235040  0.235040  0.000000  1
  Bi  Bi11  1  0.764960  0.764960  0.000000  1
  Ru  Ru12  1  0.165931  0.616588  0.782519  1
  Ru  Ru13  1  0.834069  0.383412  0.217481  1
  Ru  Ru14  1  0.616588  0.834069  0.450657  1
  Ru  Ru15  1  0.383412  0.165931  0.549343  1
