# generated using pymatgen
data_Hf18Ti2Fe2ReMo5
_symmetry_space_group_name_H-M   'P 1'
_cell_length_a   8.32074400
_cell_length_b   8.71779329
_cell_length_c   8.71974500
_cell_angle_alpha   120.00649210
_cell_angle_beta   90.00000000
_cell_angle_gamma   90.00000000
_symmetry_Int_Tables_number   1
_chemical_formula_structural   Hf18Ti2Fe2ReMo5
_chemical_formula_sum   'Hf18 Ti2 Fe2 Re1 Mo5'
_cell_volume   547.74034267
_cell_formula_units_Z   1
loop_
 _symmetry_equiv_pos_site_id
 _symmetry_equiv_pos_as_xyz
  1  'x, y, z'
loop_
 _atom_site_type_symbol
 _atom_site_label
 _atom_site_symmetry_multiplicity
 _atom_site_fract_x
 _atom_site_fract_y
 _atom_site_fract_z
 _atom_site_occupancy
  Hf  Hf0  1  0.559313  0.797208  0.594722  1
  Hf  Hf1  1  0.559314  0.797202  0.202493  1
  Hf  Hf2  1  0.557685  0.404118  0.202060  1
  Hf  Hf3  1  0.439498  0.202234  0.403516  1
  Hf  Hf4  1  0.439495  0.202237  0.798707  1
  Hf  Hf5  1  0.440564  0.595127  0.797560  1
  Hf  Hf6  1  0.060502  0.202234  0.403516  1
  Hf  Hf7  1  0.060505  0.202237  0.798707  1
  Hf  Hf8  1  0.059436  0.595127  0.797560  1
  Hf  Hf9  1  0.940687  0.797208  0.594722  1
  Hf  Hf10  1  0.940686  0.797202  0.202493  1
  Hf  Hf11  1  0.942315  0.404118  0.202060  1
  Hf  Hf12  1  0.750000  0.457922  0.916798  1
  Hf  Hf13  1  0.750000  0.457915  0.541131  1
  Hf  Hf14  1  0.750000  0.083301  0.541652  1
  Hf  Hf15  1  0.250000  0.540865  0.083535  1
  Hf  Hf16  1  0.250000  0.540875  0.457330  1
  Hf  Hf17  1  0.250000  0.916168  0.458080  1
  Ti  Ti18  1  0.499188  0.001856  0.000929  1
  Ti  Ti19  1  0.000812  0.001856  0.000929  1
  Fe  Fe20  1  0.750000  0.665099  0.332562  1
  Fe  Fe21  1  0.250000  0.333652  0.666817  1
  Re  Re22  1  0.250000  0.230704  0.115348  1
  Mo  Mo23  1  0.750000  0.114364  0.228997  1
  Mo  Mo24  1  0.750000  0.114378  0.885382  1
  Mo  Mo25  1  0.750000  0.770339  0.885181  1
  Mo  Mo26  1  0.250000  0.887229  0.772525  1
  Mo  Mo27  1  0.250000  0.887220  0.114688  1
