# generated using pymatgen
data_Ho3AlGa4Pd
_symmetry_space_group_name_H-M   'P 1'
_cell_length_a   6.88818800
_cell_length_b   6.93969451
_cell_length_c   4.31785600
_cell_angle_alpha   90.00000000
_cell_angle_beta   90.00000000
_cell_angle_gamma   119.75478396
_symmetry_Int_Tables_number   1
_chemical_formula_structural   Ho3AlGa4Pd
_chemical_formula_sum   'Ho3 Al1 Ga4 Pd1'
_cell_volume   179.18925363
_cell_formula_units_Z   1
loop_
 _symmetry_equiv_pos_site_id
 _symmetry_equiv_pos_as_xyz
  1  'x, y, z'
loop_
 _atom_site_type_symbol
 _atom_site_label
 _atom_site_symmetry_multiplicity
 _atom_site_fract_x
 _atom_site_fract_y
 _atom_site_fract_z
 _atom_site_occupancy
  Ho  Ho0  1  0.584650  0.000000  0.000000  1
  Ho  Ho1  1  0.417991  0.418538  0.000000  1
  Ho  Ho2  1  0.999453  0.581462  0.000000  1
  Al  Al3  1  0.233193  0.000000  0.500000  1
  Ga  Ga4  1  0.003585  0.245250  0.500000  1
  Ga  Ga5  1  0.663366  0.329630  0.500000  1
  Ga  Ga6  1  0.333737  0.670370  0.500000  1
  Ga  Ga7  1  0.758335  0.754751  0.500000  1
  Pd  Pd8  1  0.005689  0.000000  0.000000  1
