# generated using pymatgen
data_Sr6CeSmBi6
_symmetry_space_group_name_H-M   'P 1'
_cell_length_a   8.71002328
_cell_length_b   8.81716912
_cell_length_c   8.72273093
_cell_angle_alpha   109.64199023
_cell_angle_beta   109.01158229
_cell_angle_gamma   109.60291182
_symmetry_Int_Tables_number   1
_chemical_formula_structural   Sr6CeSmBi6
_chemical_formula_sum   'Sr6 Ce1 Sm1 Bi6'
_cell_volume   516.66172665
_cell_formula_units_Z   1
loop_
 _symmetry_equiv_pos_site_id
 _symmetry_equiv_pos_as_xyz
  1  'x, y, z'
loop_
 _atom_site_type_symbol
 _atom_site_label
 _atom_site_symmetry_multiplicity
 _atom_site_fract_x
 _atom_site_fract_y
 _atom_site_fract_z
 _atom_site_occupancy
  Sr  Sr0  1  0.360151  0.356771  0.358560  1
  Sr  Sr1  1  0.000693  0.140294  0.498375  1
  Sr  Sr2  1  0.859517  0.856487  0.860398  1
  Sr  Sr3  1  0.997557  0.639419  0.499970  1
  Sr  Sr4  1  0.503389  0.003156  0.139196  1
  Sr  Sr5  1  0.638950  0.503813  0.003449  1
  Ce  Ce6  1  0.501338  0.001377  0.641330  1
  Sm  Sm7  1  0.137581  0.501626  0.001333  1
  Bi  Bi8  1  0.877315  0.252958  0.110741  1
  Bi  Bi9  1  0.133949  0.866631  0.252008  1
  Bi  Bi10  1  0.371373  0.627881  0.752223  1
  Bi  Bi11  1  0.251226  0.129232  0.872348  1
  Bi  Bi12  1  0.756871  0.370239  0.636312  1
  Bi  Bi13  1  0.610089  0.750120  0.373757  1
