# generated using pymatgen
data_Hg3Ir3RuPbO14
_symmetry_space_group_name_H-M   'P 1'
_cell_length_a   7.29727789
_cell_length_b   7.37587174
_cell_length_c   7.29727800
_cell_angle_alpha   60.35186017
_cell_angle_beta   59.99999950
_cell_angle_gamma   60.35186549
_symmetry_Int_Tables_number   1
_chemical_formula_structural   Hg3Ir3RuPbO14
_chemical_formula_sum   'Hg3 Ir3 Ru1 Pb1 O14'
_cell_volume   279.19621648
_cell_formula_units_Z   1
loop_
 _symmetry_equiv_pos_site_id
 _symmetry_equiv_pos_as_xyz
  1  'x, y, z'
loop_
 _atom_site_type_symbol
 _atom_site_label
 _atom_site_symmetry_multiplicity
 _atom_site_fract_x
 _atom_site_fract_y
 _atom_site_fract_z
 _atom_site_occupancy
  Hg  Hg0  1  0.625000  0.125000  0.125000  1
  Hg  Hg1  1  0.125000  0.125000  0.625000  1
  Hg  Hg2  1  0.125000  0.125000  0.125000  1
  Ir  Ir3  1  0.125000  0.625000  0.625000  1
  Ir  Ir4  1  0.625000  0.625000  0.125000  1
  Ir  Ir5  1  0.625000  0.625000  0.625000  1
  Ru  Ru6  1  0.625000  0.125000  0.625000  1
  Pb  Pb7  1  0.125000  0.625000  0.125000  1
  O  O8  1  0.708954  0.693123  0.298962  1
  O  O9  1  0.308149  0.312811  0.689521  1
  O  O10  1  0.689521  0.312811  0.689521  1
  O  O11  1  0.298962  0.693123  0.298962  1
  O  O12  1  0.298962  0.693123  0.708954  1
  O  O13  1  0.689521  0.312811  0.308149  1
  O  O14  1  0.541046  0.556877  0.951038  1
  O  O15  1  0.941851  0.937189  0.560479  1
  O  O16  1  0.560479  0.937189  0.560479  1
  O  O17  1  0.951038  0.556877  0.951038  1
  O  O18  1  0.951038  0.556877  0.541046  1
  O  O19  1  0.560479  0.937189  0.941851  1
  O  O20  1  0.256900  0.229302  0.256900  1
  O  O21  1  0.993100  0.020698  0.993100  1
