# generated using pymatgen
data_Tb10Tm2Si11Ni
_symmetry_space_group_name_H-M   'P 1'
_cell_length_a   3.86928800
_cell_length_b   5.72864810
_cell_length_c   23.78702166
_cell_angle_alpha   82.77445431
_cell_angle_beta   90.00000000
_cell_angle_gamma   90.00000000
_symmetry_Int_Tables_number   1
_chemical_formula_structural   Tb10Tm2Si11Ni
_chemical_formula_sum   'Tb10 Tm2 Si11 Ni1'
_cell_volume   523.07100835
_cell_formula_units_Z   1
loop_
 _symmetry_equiv_pos_site_id
 _symmetry_equiv_pos_as_xyz
  1  'x, y, z'
loop_
 _atom_site_type_symbol
 _atom_site_label
 _atom_site_symmetry_multiplicity
 _atom_site_fract_x
 _atom_site_fract_y
 _atom_site_fract_z
 _atom_site_occupancy
  Tb  Tb0  1  0.250000  0.659874  0.942091  1
  Tb  Tb1  1  0.250000  0.468644  0.774118  1
  Tb  Tb2  1  0.750000  0.167298  0.391425  1
  Tb  Tb3  1  0.250000  0.827702  0.606454  1
  Tb  Tb4  1  0.750000  0.351998  0.559130  1
  Tb  Tb5  1  0.250000  0.643290  0.438343  1
  Tb  Tb6  1  0.750000  0.994657  0.726963  1
  Tb  Tb7  1  0.250000  0.995961  0.270842  1
  Tb  Tb8  1  0.750000  0.169079  0.894695  1
  Tb  Tb9  1  0.250000  0.834755  0.109243  1
  Tm  Tm10  1  0.750000  0.354646  0.067637  1
  Tm  Tm11  1  0.750000  0.518513  0.220006  1
  Si  Si12  1  0.750000  0.877285  0.014534  1
  Si  Si13  1  0.250000  0.148740  0.991074  1
  Si  Si14  1  0.750000  0.055253  0.178240  1
  Si  Si15  1  0.250000  0.954906  0.821913  1
  Si  Si16  1  0.750000  0.701914  0.343193  1
  Si  Si17  1  0.250000  0.290540  0.654207  1
  Si  Si18  1  0.750000  0.864375  0.511402  1
  Si  Si19  1  0.250000  0.132322  0.486394  1
  Si  Si20  1  0.750000  0.532915  0.679010  1
  Si  Si21  1  0.250000  0.463214  0.316878  1
  Si  Si22  1  0.750000  0.683833  0.846859  1
  Ni  Ni23  1  0.250000  0.308285  0.155347  1
