# generated using pymatgen
data_LiLa4Y12Cd3Ni4
_symmetry_space_group_name_H-M   'P 1'
_cell_length_a   9.71852610
_cell_length_b   9.71852631
_cell_length_c   9.71852580
_cell_angle_alpha   59.73554499
_cell_angle_beta   59.73553459
_cell_angle_gamma   59.73554483
_symmetry_Int_Tables_number   1
_chemical_formula_structural   LiLa4Y12Cd3Ni4
_chemical_formula_sum   'Li1 La4 Y12 Cd3 Ni4'
_cell_volume   645.16388919
_cell_formula_units_Z   1
loop_
 _symmetry_equiv_pos_site_id
 _symmetry_equiv_pos_as_xyz
  1  'x, y, z'
loop_
 _atom_site_type_symbol
 _atom_site_label
 _atom_site_symmetry_multiplicity
 _atom_site_fract_x
 _atom_site_fract_y
 _atom_site_fract_z
 _atom_site_occupancy
  Li  Li0  1  0.821122  0.821122  0.821122  1
  La  La1  1  0.599454  0.599454  0.599454  1
  La  La2  1  0.599906  0.599906  0.200407  1
  La  La3  1  0.599906  0.200407  0.599906  1
  La  La4  1  0.200407  0.599906  0.599906  1
  Y  Y5  1  0.064138  0.438262  0.438262  1
  Y  Y6  1  0.434595  0.066125  0.066125  1
  Y  Y7  1  0.438262  0.064138  0.438262  1
  Y  Y8  1  0.066125  0.434595  0.066125  1
  Y  Y9  1  0.438262  0.438262  0.064138  1
  Y  Y10  1  0.066125  0.066125  0.434595  1
  Y  Y11  1  0.186339  0.816224  0.816224  1
  Y  Y12  1  0.815906  0.184755  0.184755  1
  Y  Y13  1  0.816224  0.186339  0.816224  1
  Y  Y14  1  0.184755  0.815906  0.184755  1
  Y  Y15  1  0.816224  0.816224  0.186339  1
  Y  Y16  1  0.184755  0.184755  0.815906  1
  Cd  Cd17  1  0.832534  0.832534  0.502079  1
  Cd  Cd18  1  0.832534  0.502079  0.832534  1
  Cd  Cd19  1  0.502079  0.832534  0.832534  1
  Ni  Ni20  1  0.392024  0.392024  0.392024  1
  Ni  Ni21  1  0.390453  0.390453  0.827415  1
  Ni  Ni22  1  0.390453  0.827415  0.390453  1
  Ni  Ni23  1  0.827415  0.390453  0.390453  1
