# generated using pymatgen
data_Er6VB14Os
_symmetry_space_group_name_H-M   'P 1'
_cell_length_a   8.02521644
_cell_length_b   8.02521636
_cell_length_c   9.30775500
_cell_angle_alpha   90.00000000
_cell_angle_beta   90.00000000
_cell_angle_gamma   155.10827809
_symmetry_Int_Tables_number   1
_chemical_formula_structural   Er6VB14Os
_chemical_formula_sum   'Er6 V1 B14 Os1'
_cell_volume   252.31454316
_cell_formula_units_Z   1
loop_
 _symmetry_equiv_pos_site_id
 _symmetry_equiv_pos_as_xyz
  1  'x, y, z'
loop_
 _atom_site_type_symbol
 _atom_site_label
 _atom_site_symmetry_multiplicity
 _atom_site_fract_x
 _atom_site_fract_y
 _atom_site_fract_z
 _atom_site_occupancy
  Er  Er0  1  0.894091  0.105909  0.439800  1
  Er  Er1  1  0.106410  0.893590  0.560224  1
  Er  Er2  1  0.894091  0.105909  0.060200  1
  Er  Er3  1  0.106410  0.893590  0.939776  1
  Er  Er4  1  0.244090  0.755910  0.250000  1
  Er  Er5  1  0.757010  0.242990  0.750000  1
  V  V6  1  0.947988  0.052012  0.750000  1
  B  B7  1  0.726677  0.273323  0.465362  1
  B  B8  1  0.271863  0.728137  0.533214  1
  B  B9  1  0.726677  0.273323  0.034638  1
  B  B10  1  0.271863  0.728137  0.966786  1
  B  B11  1  0.631611  0.368389  0.149400  1
  B  B12  1  0.367410  0.632590  0.850342  1
  B  B13  1  0.631611  0.368389  0.350600  1
  B  B14  1  0.367410  0.632590  0.649658  1
  B  B15  1  0.520271  0.479729  0.094838  1
  B  B16  1  0.479905  0.520095  0.906529  1
  B  B17  1  0.520271  0.479729  0.405162  1
  B  B18  1  0.479905  0.520095  0.593471  1
  B  B19  1  0.456342  0.543658  0.250000  1
  B  B20  1  0.544176  0.455824  0.750000  1
  Os  Os21  1  0.053919  0.946081  0.250000  1
