# generated using pymatgen
data_DyScCo4(SiC)2
_symmetry_space_group_name_H-M   'P 1'
_cell_length_a   5.52834721
_cell_length_b   5.52834796
_cell_length_c   6.65205500
_cell_angle_alpha   90.00000000
_cell_angle_beta   90.00000000
_cell_angle_gamma   141.63551854
_symmetry_Int_Tables_number   1
_chemical_formula_structural   DyScCo4(SiC)2
_chemical_formula_sum   'Dy1 Sc1 Co4 Si2 C2'
_cell_volume   126.18320545
_cell_formula_units_Z   1
loop_
 _symmetry_equiv_pos_site_id
 _symmetry_equiv_pos_as_xyz
  1  'x, y, z'
loop_
 _atom_site_type_symbol
 _atom_site_label
 _atom_site_symmetry_multiplicity
 _atom_site_fract_x
 _atom_site_fract_y
 _atom_site_fract_z
 _atom_site_occupancy
  Dy  Dy0  1  0.450800  0.549200  0.750000  1
  Sc  Sc1  1  0.548729  0.451271  0.250000  1
  Co  Co2  1  0.836185  0.163815  0.058300  1
  Co  Co3  1  0.163511  0.836489  0.947546  1
  Co  Co4  1  0.163511  0.836489  0.552454  1
  Co  Co5  1  0.836185  0.163815  0.441700  1
  Si  Si6  1  0.270316  0.729684  0.250000  1
  Si  Si7  1  0.728391  0.271609  0.750000  1
  C  C8  1  0.001186  0.998814  0.011987  1
  C  C9  1  0.001186  0.998814  0.488013  1
