# generated using pymatgen
data_Hf6Ni20P13
_symmetry_space_group_name_H-M   'P 1'
_cell_length_a   12.47504704
_cell_length_b   12.47466699
_cell_length_c   3.60986900
_cell_angle_alpha   90.00000000
_cell_angle_beta   90.00000000
_cell_angle_gamma   119.99326693
_symmetry_Int_Tables_number   1
_chemical_formula_structural   Hf6Ni20P13
_chemical_formula_sum   'Hf6 Ni20 P13'
_cell_volume   486.54463496
_cell_formula_units_Z   1
loop_
 _symmetry_equiv_pos_site_id
 _symmetry_equiv_pos_as_xyz
  1  'x, y, z'
loop_
 _atom_site_type_symbol
 _atom_site_label
 _atom_site_symmetry_multiplicity
 _atom_site_fract_x
 _atom_site_fract_y
 _atom_site_fract_z
 _atom_site_occupancy
  Hf  Hf0  1  0.282072  0.474172  0.000000  1
  Hf  Hf1  1  0.192109  0.717932  0.000000  1
  Hf  Hf2  1  0.525813  0.807900  0.000000  1
  Hf  Hf3  1  0.475082  0.192079  0.500000  1
  Hf  Hf4  1  0.807928  0.283015  0.500000  1
  Hf  Hf5  1  0.716972  0.524874  0.500000  1
  Ni  Ni6  1  0.754663  0.080555  0.000000  1
  Ni  Ni7  1  0.104836  0.199705  0.000000  1
  Ni  Ni8  1  0.325885  0.245337  0.000000  1
  Ni  Ni9  1  0.666664  0.333326  0.000000  1
  Ni  Ni10  1  0.019416  0.438246  0.000000  1
  Ni  Ni11  1  0.561780  0.581199  0.000000  1
  Ni  Ni12  1  0.919445  0.674126  0.000000  1
  Ni  Ni13  1  0.094905  0.895173  0.000000  1
  Ni  Ni14  1  0.800283  0.905110  0.000000  1
  Ni  Ni15  1  0.418830  0.980574  0.000000  1
  Ni  Ni16  1  0.584589  0.019970  0.500000  1
  Ni  Ni17  1  0.161034  0.079317  0.500000  1
  Ni  Ni18  1  0.920676  0.081722  0.500000  1
  Ni  Ni19  1  0.072772  0.325434  0.500000  1
  Ni  Ni20  1  0.435357  0.415412  0.500000  1
  Ni  Ni21  1  0.980067  0.564644  0.500000  1
  Ni  Ni22  1  0.333327  0.666664  0.500000  1
  Ni  Ni23  1  0.674579  0.747383  0.500000  1
  Ni  Ni24  1  0.918338  0.838946  0.500000  1
  Ni  Ni25  1  0.252613  0.927201  0.500000  1
  P  P26  1  0.999975  0.999997  0.000000  1
  P  P27  1  0.288329  0.054335  0.000000  1
  P  P28  1  0.613452  0.140715  0.000000  1
  P  P29  1  0.945657  0.233964  0.000000  1
  P  P30  1  0.527277  0.386565  0.000000  1
  P  P31  1  0.859273  0.472724  0.000000  1
  P  P32  1  0.766023  0.711705  0.000000  1
  P  P33  1  0.232645  0.287099  0.500000  1
  P  P34  1  0.141284  0.528267  0.500000  1
  P  P35  1  0.471729  0.613002  0.500000  1
  P  P36  1  0.054439  0.767315  0.500000  1
  P  P37  1  0.386987  0.858729  0.500000  1
  P  P38  1  0.712892  0.945577  0.500000  1
