# generated using pymatgen
data_Tb12InFe4Au
_symmetry_space_group_name_H-M   'P 1'
_cell_length_a   8.41426832
_cell_length_b   8.41426814
_cell_length_c   8.41426785
_cell_angle_alpha   111.07809310
_cell_angle_beta   110.57831381
_cell_angle_gamma   106.79047869
_symmetry_Int_Tables_number   1
_chemical_formula_structural   Tb12InFe4Au
_chemical_formula_sum   'Tb12 In1 Fe4 Au1'
_cell_volume   457.83502740
_cell_formula_units_Z   1
loop_
 _symmetry_equiv_pos_site_id
 _symmetry_equiv_pos_as_xyz
  1  'x, y, z'
loop_
 _atom_site_type_symbol
 _atom_site_label
 _atom_site_symmetry_multiplicity
 _atom_site_fract_x
 _atom_site_fract_y
 _atom_site_fract_z
 _atom_site_occupancy
  Tb  Tb0  1  0.423736  0.219828  0.203909  1
  Tb  Tb1  1  0.576264  0.780172  0.796091  1
  Tb  Tb2  1  0.015918  0.219828  0.796091  1
  Tb  Tb3  1  0.984082  0.780172  0.203909  1
  Tb  Tb4  1  0.186954  0.291212  0.478166  1
  Tb  Tb5  1  0.813046  0.708788  0.521834  1
  Tb  Tb6  1  0.186954  0.708788  0.895741  1
  Tb  Tb7  1  0.813046  0.291212  0.104259  1
  Tb  Tb8  1  0.313756  0.614805  0.301049  1
  Tb  Tb9  1  0.686244  0.385195  0.698951  1
  Tb  Tb10  1  0.313756  0.012707  0.698951  1
  Tb  Tb11  1  0.686244  0.987293  0.301049  1
  In  In12  1  0.500000  0.500000  0.000000  1
  Fe  Fe13  1  0.385745  0.000000  0.385745  1
  Fe  Fe14  1  0.614255  0.000000  0.614255  1
  Fe  Fe15  1  0.107772  0.607772  0.500000  1
  Fe  Fe16  1  0.892228  0.392228  0.500000  1
  Au  Au17  1  0.000000  0.000000  0.000000  1
