# generated using pymatgen
data_Sm6Cd23S
_symmetry_space_group_name_H-M   'P 1'
_cell_length_a   9.99707619
_cell_length_b   9.99707673
_cell_length_c   9.99707800
_cell_angle_alpha   60.00000240
_cell_angle_beta   60.00000063
_cell_angle_gamma   59.99999837
_symmetry_Int_Tables_number   1
_chemical_formula_structural   Sm6Cd23S
_chemical_formula_sum   'Sm6 Cd23 S1'
_cell_volume   706.48690204
_cell_formula_units_Z   1
loop_
 _symmetry_equiv_pos_site_id
 _symmetry_equiv_pos_as_xyz
  1  'x, y, z'
loop_
 _atom_site_type_symbol
 _atom_site_label
 _atom_site_symmetry_multiplicity
 _atom_site_fract_x
 _atom_site_fract_y
 _atom_site_fract_z
 _atom_site_occupancy
  Sm  Sm0  1  0.800029  0.800029  0.199971  1
  Sm  Sm1  1  0.199971  0.800029  0.199971  1
  Sm  Sm2  1  0.800029  0.199971  0.199971  1
  Sm  Sm3  1  0.199971  0.199971  0.800029  1
  Sm  Sm4  1  0.800029  0.199971  0.800029  1
  Sm  Sm5  1  0.199971  0.800029  0.800029  1
  Cd  Cd6  1  0.835748  0.835748  0.492757  1
  Cd  Cd7  1  0.835748  0.492757  0.835748  1
  Cd  Cd8  1  0.492757  0.835748  0.835748  1
  Cd  Cd9  1  0.835748  0.835748  0.835748  1
  Cd  Cd10  1  0.164252  0.164252  0.507243  1
  Cd  Cd11  1  0.164252  0.507243  0.164252  1
  Cd  Cd12  1  0.507243  0.164252  0.164252  1
  Cd  Cd13  1  0.164252  0.164252  0.164252  1
  Cd  Cd14  1  0.621963  0.621963  0.134112  1
  Cd  Cd15  1  0.621963  0.134112  0.621963  1
  Cd  Cd16  1  0.134112  0.621963  0.621963  1
  Cd  Cd17  1  0.621963  0.621963  0.621963  1
  Cd  Cd18  1  0.378037  0.378037  0.865888  1
  Cd  Cd19  1  0.378037  0.865888  0.378037  1
  Cd  Cd20  1  0.865888  0.378037  0.378037  1
  Cd  Cd21  1  0.378037  0.378037  0.378037  1
  Cd  Cd22  1  0.000000  0.000000  0.500000  1
  Cd  Cd23  1  0.500000  0.000000  0.500000  1
  Cd  Cd24  1  0.000000  0.500000  0.500000  1
  Cd  Cd25  1  0.500000  0.500000  0.000000  1
  Cd  Cd26  1  0.000000  0.500000  0.000000  1
  Cd  Cd27  1  0.500000  0.000000  0.000000  1
  Cd  Cd28  1  0.500000  0.500000  0.500000  1
  S  S29  1  0.000000  0.000000  0.000000  1
