# generated using pymatgen
data_Ca(Ga3Pt)3
_symmetry_space_group_name_H-M   'P 1'
_cell_length_a   10.58721020
_cell_length_b   10.58721020
_cell_length_c   10.58720878
_cell_angle_alpha   41.88498450
_cell_angle_beta   41.88499176
_cell_angle_gamma   41.88498636
_symmetry_Int_Tables_number   1
_chemical_formula_structural   Ca(Ga3Pt)3
_chemical_formula_sum   'Ca2 Ga18 Pt6'
_cell_volume   478.37501239
_cell_formula_units_Z   2
loop_
 _symmetry_equiv_pos_site_id
 _symmetry_equiv_pos_as_xyz
  1  'x, y, z'
loop_
 _atom_site_type_symbol
 _atom_site_label
 _atom_site_symmetry_multiplicity
 _atom_site_fract_x
 _atom_site_fract_y
 _atom_site_fract_z
 _atom_site_occupancy
  Ca  Ca0  1  0.166636  0.166636  0.166636  1
  Ca  Ca1  1  0.833364  0.833364  0.833364  1
  Ga  Ga2  1  0.048483  0.048483  0.048483  1
  Ga  Ga3  1  0.703074  0.500000  0.296926  1
  Ga  Ga4  1  0.666412  0.333588  0.000000  1
  Ga  Ga5  1  0.107741  0.436748  0.767036  1
  Ga  Ga6  1  0.436748  0.767036  0.107741  1
  Ga  Ga7  1  0.383342  0.383342  0.383342  1
  Ga  Ga8  1  0.333588  0.000000  0.666412  1
  Ga  Ga9  1  0.616658  0.616658  0.616658  1
  Ga  Ga10  1  0.232964  0.563252  0.892259  1
  Ga  Ga11  1  0.563252  0.892259  0.232964  1
  Ga  Ga12  1  0.500000  0.296926  0.703074  1
  Ga  Ga13  1  0.767036  0.107741  0.436748  1
  Ga  Ga14  1  0.951517  0.951517  0.951517  1
  Ga  Ga15  1  0.296926  0.703074  0.500000  1
  Ga  Ga16  1  0.000000  0.666412  0.333588  1
  Ga  Ga17  1  0.714378  0.714378  0.714378  1
  Ga  Ga18  1  0.285622  0.285622  0.285622  1
  Ga  Ga19  1  0.892259  0.232964  0.563252  1
  Pt  Pt20  1  0.243221  0.921474  0.580989  1
  Pt  Pt21  1  0.921474  0.580989  0.243221  1
  Pt  Pt22  1  0.756779  0.419011  0.078526  1
  Pt  Pt23  1  0.078526  0.756779  0.419011  1
  Pt  Pt24  1  0.419011  0.078526  0.756779  1
  Pt  Pt25  1  0.580989  0.243221  0.921474  1
