# generated using pymatgen
data_Dy20Ni3Bi8Os
_symmetry_space_group_name_H-M   'P 1'
_cell_length_a   8.05612932
_cell_length_b   8.96974400
_cell_length_c   12.44737716
_cell_angle_alpha   90.00000000
_cell_angle_beta   89.84430794
_cell_angle_gamma   90.00000000
_symmetry_Int_Tables_number   1
_chemical_formula_structural   Dy20Ni3Bi8Os
_chemical_formula_sum   'Dy20 Ni3 Bi8 Os1'
_cell_volume   899.46179827
_cell_formula_units_Z   1
loop_
 _symmetry_equiv_pos_site_id
 _symmetry_equiv_pos_as_xyz
  1  'x, y, z'
loop_
 _atom_site_type_symbol
 _atom_site_label
 _atom_site_symmetry_multiplicity
 _atom_site_fract_x
 _atom_site_fract_y
 _atom_site_fract_z
 _atom_site_occupancy
  Dy  Dy0  1  0.341787  0.750000  0.706095  1
  Dy  Dy1  1  0.656431  0.250000  0.296524  1
  Dy  Dy2  1  0.846001  0.250000  0.798115  1
  Dy  Dy3  1  0.154369  0.750000  0.205069  1
  Dy  Dy4  1  0.878901  0.750000  0.804457  1
  Dy  Dy5  1  0.119081  0.250000  0.193537  1
  Dy  Dy6  1  0.380489  0.250000  0.691353  1
  Dy  Dy7  1  0.619403  0.750000  0.309332  1
  Dy  Dy8  1  0.677851  0.539900  0.564366  1
  Dy  Dy9  1  0.322184  0.458827  0.436044  1
  Dy  Dy10  1  0.177944  0.460259  0.934507  1
  Dy  Dy11  1  0.322184  0.041173  0.436044  1
  Dy  Dy12  1  0.824324  0.542897  0.063597  1
  Dy  Dy13  1  0.677851  0.960100  0.564366  1
  Dy  Dy14  1  0.824324  0.957103  0.063597  1
  Dy  Dy15  1  0.177944  0.039741  0.934507  1
  Dy  Dy16  1  0.047430  0.750000  0.499178  1
  Dy  Dy17  1  0.952398  0.250000  0.500511  1
  Dy  Dy18  1  0.550041  0.250000  0.002217  1
  Dy  Dy19  1  0.446642  0.750000  0.998177  1
  Ni  Ni20  1  0.928724  0.250000  0.010702  1
  Ni  Ni21  1  0.568004  0.250000  0.508579  1
  Ni  Ni22  1  0.430617  0.750000  0.492409  1
  Bi  Bi23  1  0.571588  0.508080  0.825956  1
  Bi  Bi24  1  0.429736  0.490902  0.174116  1
  Bi  Bi25  1  0.072146  0.489735  0.671742  1
  Bi  Bi26  1  0.429736  0.009098  0.174116  1
  Bi  Bi27  1  0.927183  0.508998  0.327414  1
  Bi  Bi28  1  0.571588  0.991920  0.825956  1
  Bi  Bi29  1  0.927183  0.991002  0.327414  1
  Bi  Bi30  1  0.072146  0.010265  0.671742  1
  Os  Os31  1  0.073771  0.750000  0.988260  1
