# generated using pymatgen
data_Sr3AgPtO6
_symmetry_space_group_name_H-M   'P 1'
_cell_length_a   6.87193396
_cell_length_b   6.87193394
_cell_length_c   6.87193423
_cell_angle_alpha   89.15928468
_cell_angle_beta   89.15927754
_cell_angle_gamma   89.15928193
_symmetry_Int_Tables_number   1
_chemical_formula_structural   Sr3AgPtO6
_chemical_formula_sum   'Sr6 Ag2 Pt2 O12'
_cell_volume   324.41283348
_cell_formula_units_Z   2
loop_
 _symmetry_equiv_pos_site_id
 _symmetry_equiv_pos_as_xyz
  1  'x, y, z'
loop_
 _atom_site_type_symbol
 _atom_site_label
 _atom_site_symmetry_multiplicity
 _atom_site_fract_x
 _atom_site_fract_y
 _atom_site_fract_z
 _atom_site_occupancy
  Sr  Sr0  1  0.390548  0.109452  0.750000  1
  Sr  Sr1  1  0.109452  0.750000  0.390548  1
  Sr  Sr2  1  0.750000  0.390548  0.109452  1
  Sr  Sr3  1  0.609452  0.890548  0.250000  1
  Sr  Sr4  1  0.250000  0.609452  0.890548  1
  Sr  Sr5  1  0.890548  0.250000  0.609452  1
  Ag  Ag6  1  0.750000  0.750000  0.750000  1
  Ag  Ag7  1  0.250000  0.250000  0.250000  1
  Pt  Pt8  1  0.500000  0.500000  0.500000  1
  Pt  Pt9  1  0.000000  0.000000  0.000000  1
  O  O10  1  0.940169  0.077086  0.280458  1
  O  O11  1  0.280458  0.940169  0.077086  1
  O  O12  1  0.077086  0.280458  0.940169  1
  O  O13  1  0.559831  0.219542  0.422914  1
  O  O14  1  0.422914  0.559831  0.219542  1
  O  O15  1  0.219542  0.422914  0.559831  1
  O  O16  1  0.059831  0.922914  0.719542  1
  O  O17  1  0.719542  0.059831  0.922914  1
  O  O18  1  0.922914  0.719542  0.059831  1
  O  O19  1  0.440169  0.780458  0.577086  1
  O  O20  1  0.780458  0.577086  0.440169  1
  O  O21  1  0.577086  0.440169  0.780458  1
