# generated using pymatgen
data_GdMg2P6BrN12
_symmetry_space_group_name_H-M   'P 1'
_cell_length_a   7.37962119
_cell_length_b   7.37939613
_cell_length_c   7.37962016
_cell_angle_alpha   109.67577682
_cell_angle_beta   109.50229564
_cell_angle_gamma   109.67574946
_symmetry_Int_Tables_number   1
_chemical_formula_structural   GdMg2P6BrN12
_chemical_formula_sum   'Gd1 Mg2 P6 Br1 N12'
_cell_volume   307.66935068
_cell_formula_units_Z   1
loop_
 _symmetry_equiv_pos_site_id
 _symmetry_equiv_pos_as_xyz
  1  'x, y, z'
loop_
 _atom_site_type_symbol
 _atom_site_label
 _atom_site_symmetry_multiplicity
 _atom_site_fract_x
 _atom_site_fract_y
 _atom_site_fract_z
 _atom_site_occupancy
  Gd  Gd0  1  0.015819  0.354067  0.015819  1
  Mg  Mg1  1  0.004518  0.005614  0.388053  1
  Mg  Mg2  1  0.388053  0.005614  0.004518  1
  P  P3  1  0.498487  0.258454  0.746748  1
  P  P4  1  0.251035  0.754343  0.500374  1
  P  P5  1  0.742062  0.504640  0.257841  1
  P  P6  1  0.746748  0.258454  0.498487  1
  P  P7  1  0.500374  0.754343  0.251035  1
  P  P8  1  0.257841  0.504640  0.742062  1
  Br  Br9  1  0.007856  0.957919  0.007856  1
  N  N10  1  0.388481  0.683521  0.388481  1
  N  N11  1  0.698831  0.422054  0.420542  1
  N  N12  1  0.420542  0.422054  0.698831  1
  N  N13  1  0.716017  0.286095  0.716017  1
  N  N14  1  0.992900  0.579609  0.291819  1
  N  N15  1  0.291819  0.579609  0.992900  1
  N  N16  1  0.282948  0.002956  0.571262  1
  N  N17  1  0.998744  0.285407  0.574206  1
  N  N18  1  0.719001  0.726122  0.292458  1
  N  N19  1  0.571262  0.002956  0.282948  1
  N  N20  1  0.292458  0.726122  0.719001  1
  N  N21  1  0.574206  0.285407  0.998744  1
