# generated using pymatgen
data_NaHo3Hg4
_symmetry_space_group_name_H-M   'P 1'
_cell_length_a   6.42503187
_cell_length_b   6.42503092
_cell_length_c   5.13465000
_cell_angle_alpha   90.00000000
_cell_angle_beta   90.00000000
_cell_angle_gamma   71.47738011
_symmetry_Int_Tables_number   1
_chemical_formula_structural   NaHo3Hg4
_chemical_formula_sum   'Na1 Ho3 Hg4'
_cell_volume   200.98355881
_cell_formula_units_Z   1
loop_
 _symmetry_equiv_pos_site_id
 _symmetry_equiv_pos_as_xyz
  1  'x, y, z'
loop_
 _atom_site_type_symbol
 _atom_site_label
 _atom_site_symmetry_multiplicity
 _atom_site_fract_x
 _atom_site_fract_y
 _atom_site_fract_z
 _atom_site_occupancy
  Na  Na0  1  0.868425  0.868425  0.249998  1
  Ho  Ho1  1  0.639674  0.639674  0.749999  1
  Ho  Ho2  1  0.373635  0.373635  0.249998  1
  Ho  Ho3  1  0.119341  0.119341  0.749999  1
  Hg  Hg4  1  0.871402  0.363810  0.249998  1
  Hg  Hg5  1  0.141014  0.622701  0.749999  1
  Hg  Hg6  1  0.622701  0.141014  0.749999  1
  Hg  Hg7  1  0.363810  0.871402  0.249998  1
