# generated using pymatgen
data_Dy16In4TcRh3
_symmetry_space_group_name_H-M   'P 1'
_cell_length_a   9.69037546
_cell_length_b   9.69037508
_cell_length_c   9.69037561
_cell_angle_alpha   59.74625420
_cell_angle_beta   59.74625466
_cell_angle_gamma   59.74625805
_symmetry_Int_Tables_number   1
_chemical_formula_structural   Dy16In4TcRh3
_chemical_formula_sum   'Dy16 In4 Tc1 Rh3'
_cell_volume   639.73057221
_cell_formula_units_Z   1
loop_
 _symmetry_equiv_pos_site_id
 _symmetry_equiv_pos_as_xyz
  1  'x, y, z'
loop_
 _atom_site_type_symbol
 _atom_site_label
 _atom_site_symmetry_multiplicity
 _atom_site_fract_x
 _atom_site_fract_y
 _atom_site_fract_z
 _atom_site_occupancy
  Dy  Dy0  1  0.690053  0.309558  0.309558  1
  Dy  Dy1  1  0.691947  0.691947  0.310651  1
  Dy  Dy2  1  0.309558  0.690053  0.309558  1
  Dy  Dy3  1  0.936773  0.936773  0.564285  1
  Dy  Dy4  1  0.150310  0.150310  0.546077  1
  Dy  Dy5  1  0.557421  0.946607  0.557421  1
  Dy  Dy6  1  0.151431  0.151431  0.151431  1
  Dy  Dy7  1  0.309558  0.309558  0.690053  1
  Dy  Dy8  1  0.946607  0.557421  0.557421  1
  Dy  Dy9  1  0.557421  0.557421  0.946607  1
  Dy  Dy10  1  0.564285  0.936773  0.936773  1
  Dy  Dy11  1  0.936773  0.564285  0.936773  1
  Dy  Dy12  1  0.150310  0.546077  0.150310  1
  Dy  Dy13  1  0.310651  0.691947  0.691947  1
  Dy  Dy14  1  0.691947  0.310651  0.691947  1
  Dy  Dy15  1  0.546077  0.150310  0.150310  1
  In  In16  1  0.917973  0.917973  0.248172  1
  In  In17  1  0.248172  0.917973  0.917973  1
  In  In18  1  0.917973  0.248172  0.917973  1
  In  In19  1  0.918107  0.918107  0.918107  1
  Tc  Tc20  1  0.359031  0.359031  0.359031  1
  Rh  Rh21  1  0.921936  0.357844  0.357844  1
  Rh  Rh22  1  0.357844  0.357844  0.921936  1
  Rh  Rh23  1  0.357844  0.921936  0.357844  1
