# generated using pymatgen
data_PrBiPtO6
_symmetry_space_group_name_H-M   'P 1'
_cell_length_a   5.50735310
_cell_length_b   5.50594005
_cell_length_c   7.49817294
_cell_angle_alpha   111.40121092
_cell_angle_beta   111.40136078
_cell_angle_gamma   120.13293499
_symmetry_Int_Tables_number   1
_chemical_formula_structural   PrBiPtO6
_chemical_formula_sum   'Pr1 Bi1 Pt1 O6'
_cell_volume   134.12845780
_cell_formula_units_Z   1
loop_
 _symmetry_equiv_pos_site_id
 _symmetry_equiv_pos_as_xyz
  1  'x, y, z'
loop_
 _atom_site_type_symbol
 _atom_site_label
 _atom_site_symmetry_multiplicity
 _atom_site_fract_x
 _atom_site_fract_y
 _atom_site_fract_z
 _atom_site_occupancy
  Pr  Pr0  1  0.999301  0.000811  0.499924  1
  Bi  Bi1  1  0.165923  0.834051  0.999925  1
  Pt  Pt2  1  0.832979  0.166911  0.999969  1
  O  O3  1  0.739271  0.086467  0.219636  1
  O  O4  1  0.064555  0.697854  0.219929  1
  O  O5  1  0.351581  0.373843  0.221317  1
  O  O6  1  0.626246  0.648272  0.778898  1
  O  O7  1  0.302091  0.935105  0.779839  1
  O  O8  1  0.914029  0.260722  0.780564  1
