# generated using pymatgen
data_Mg2Zr4ScNb(Co4P3)4
_symmetry_space_group_name_H-M   'P 1'
_cell_length_a   11.99810700
_cell_length_b   11.99810650
_cell_length_c   3.62853700
_cell_angle_alpha   90.00000000
_cell_angle_beta   90.00000000
_cell_angle_gamma   119.77229841
_symmetry_Int_Tables_number   1
_chemical_formula_structural   Mg2Zr4ScNb(Co4P3)4
_chemical_formula_sum   'Mg2 Zr4 Sc1 Nb1 Co16 P12'
_cell_volume   453.39793900
_cell_formula_units_Z   1
loop_
 _symmetry_equiv_pos_site_id
 _symmetry_equiv_pos_as_xyz
  1  'x, y, z'
loop_
 _atom_site_type_symbol
 _atom_site_label
 _atom_site_symmetry_multiplicity
 _atom_site_fract_x
 _atom_site_fract_y
 _atom_site_fract_z
 _atom_site_occupancy
  Mg  Mg0  1  0.442487  0.998843  0.000000  1
  Mg  Mg1  1  0.997948  0.442129  0.000000  1
  Zr  Zr2  1  0.816529  0.999956  0.500000  1
  Zr  Zr3  1  0.000617  0.816721  0.500000  1
  Zr  Zr4  1  0.181777  0.182152  0.500000  1
  Zr  Zr5  1  0.333489  0.664064  0.000000  1
  Sc  Sc6  1  0.664468  0.333762  0.000000  1
  Nb  Nb7  1  0.555301  0.554945  0.000000  1
  Co  Co8  1  0.282476  0.001057  0.500000  1
  Co  Co9  1  0.001242  0.282808  0.500000  1
  Co  Co10  1  0.721956  0.722320  0.500000  1
  Co  Co11  1  0.629144  0.806110  0.000000  1
  Co  Co12  1  0.195604  0.821161  0.000000  1
  Co  Co13  1  0.179122  0.376091  0.000000  1
  Co  Co14  1  0.374887  0.177746  0.000000  1
  Co  Co15  1  0.805717  0.630168  0.000000  1
  Co  Co16  1  0.822659  0.195872  0.000000  1
  Co  Co17  1  0.515541  0.870033  0.500000  1
  Co  Co18  1  0.125587  0.645170  0.500000  1
  Co  Co19  1  0.354644  0.481319  0.500000  1
  Co  Co20  1  0.481105  0.354657  0.500000  1
  Co  Co21  1  0.870447  0.515803  0.500000  1
  Co  Co22  1  0.645339  0.124815  0.500000  1
  Co  Co23  1  0.001137  0.001174  0.000000  1
  P  P24  1  0.176397  0.999453  0.000000  1
  P  P25  1  0.999749  0.176601  0.000000  1
  P  P26  1  0.826558  0.826511  0.000000  1
  P  P27  1  0.518714  0.689385  0.500000  1
  P  P28  1  0.310441  0.827573  0.500000  1
  P  P29  1  0.170984  0.484141  0.500000  1
  P  P30  1  0.485374  0.172321  0.500000  1
  P  P31  1  0.689260  0.517346  0.500000  1
  P  P32  1  0.825865  0.310090  0.500000  1
  P  P33  1  0.646088  0.001601  0.000000  1
  P  P34  1  0.000084  0.645545  0.000000  1
  P  P35  1  0.351261  0.350557  0.000000  1
