# generated using pymatgen
data_ErTmSc3Si7Pt9
_symmetry_space_group_name_H-M   'P 1'
_cell_length_a   10.04340300
_cell_length_b   10.04340263
_cell_length_c   3.96070400
_cell_angle_alpha   90.00000000
_cell_angle_beta   90.00000000
_cell_angle_gamma   119.99999792
_symmetry_Int_Tables_number   1
_chemical_formula_structural   ErTmSc3Si7Pt9
_chemical_formula_sum   'Er1 Tm1 Sc3 Si7 Pt9'
_cell_volume   345.99099102
_cell_formula_units_Z   1
loop_
 _symmetry_equiv_pos_site_id
 _symmetry_equiv_pos_as_xyz
  1  'x, y, z'
loop_
 _atom_site_type_symbol
 _atom_site_label
 _atom_site_symmetry_multiplicity
 _atom_site_fract_x
 _atom_site_fract_y
 _atom_site_fract_z
 _atom_site_occupancy
  Er  Er0  1  0.000000  0.000000  0.000000  1
  Tm  Tm1  1  0.333333  0.666667  0.500000  1
  Sc  Sc2  1  0.895254  0.456590  0.500000  1
  Sc  Sc3  1  0.561336  0.104746  0.500000  1
  Sc  Sc4  1  0.543410  0.438664  0.500000  1
  Si  Si5  1  0.244855  0.194045  0.500000  1
  Si  Si6  1  0.805955  0.050811  0.500000  1
  Si  Si7  1  0.949189  0.755145  0.500000  1
  Si  Si8  1  0.555887  0.646951  0.000000  1
  Si  Si9  1  0.353049  0.908934  0.000000  1
  Si  Si10  1  0.091066  0.444113  0.000000  1
  Si  Si11  1  0.666667  0.333333  0.000000  1
  Pt  Pt12  1  0.218380  0.935931  0.500000  1
  Pt  Pt13  1  0.064069  0.282450  0.500000  1
  Pt  Pt14  1  0.717550  0.781620  0.500000  1
  Pt  Pt15  1  0.314162  0.414440  0.000000  1
  Pt  Pt16  1  0.585560  0.899723  0.000000  1
  Pt  Pt17  1  0.100277  0.685838  0.000000  1
  Pt  Pt18  1  0.383766  0.171642  0.000000  1
  Pt  Pt19  1  0.828358  0.212124  0.000000  1
  Pt  Pt20  1  0.787876  0.616234  0.000000  1
