# generated using pymatgen
data_Er2LuPa(ZnRh)4
_symmetry_space_group_name_H-M   'P 1'
_cell_length_a   3.83563000
_cell_length_b   7.05803563
_cell_length_c   8.29032647
_cell_angle_alpha   90.97686599
_cell_angle_beta   90.00000000
_cell_angle_gamma   90.00000000
_symmetry_Int_Tables_number   1
_chemical_formula_structural   Er2LuPa(ZnRh)4
_chemical_formula_sum   'Er2 Lu1 Pa1 Zn4 Rh4'
_cell_volume   224.40320811
_cell_formula_units_Z   1
loop_
 _symmetry_equiv_pos_site_id
 _symmetry_equiv_pos_as_xyz
  1  'x, y, z'
loop_
 _atom_site_type_symbol
 _atom_site_label
 _atom_site_symmetry_multiplicity
 _atom_site_fract_x
 _atom_site_fract_y
 _atom_site_fract_z
 _atom_site_occupancy
  Er  Er0  1  0.750000  0.941296  0.686428  1
  Er  Er1  1  0.250000  0.053143  0.322134  1
  Lu  Lu2  1  0.750000  0.442079  0.809152  1
  Pa  Pa3  1  0.250000  0.552747  0.177430  1
  Zn  Zn4  1  0.250000  0.620839  0.564575  1
  Zn  Zn5  1  0.750000  0.369572  0.443491  1
  Zn  Zn6  1  0.750000  0.894321  0.062830  1
  Zn  Zn7  1  0.250000  0.127455  0.934140  1
  Rh  Rh8  1  0.250000  0.735937  0.887558  1
  Rh  Rh9  1  0.750000  0.281356  0.127879  1
  Rh  Rh10  1  0.750000  0.743645  0.356457  1
  Rh  Rh11  1  0.250000  0.237611  0.627925  1
