# generated using pymatgen
data_Ho4Tc4OsRu3
_symmetry_space_group_name_H-M   'P 1'
_cell_length_a   5.28085376
_cell_length_b   5.13579356
_cell_length_c   9.18038500
_cell_angle_alpha   90.00000000
_cell_angle_beta   90.00000000
_cell_angle_gamma   118.56583199
_symmetry_Int_Tables_number   1
_chemical_formula_structural   Ho4Tc4OsRu3
_chemical_formula_sum   'Ho4 Tc4 Os1 Ru3'
_cell_volume   218.67533194
_cell_formula_units_Z   1
loop_
 _symmetry_equiv_pos_site_id
 _symmetry_equiv_pos_as_xyz
  1  'x, y, z'
loop_
 _atom_site_type_symbol
 _atom_site_label
 _atom_site_symmetry_multiplicity
 _atom_site_fract_x
 _atom_site_fract_y
 _atom_site_fract_z
 _atom_site_occupancy
  Ho  Ho0  1  0.671060  0.335188  0.564986  1
  Ho  Ho1  1  0.328529  0.664855  0.434905  1
  Ho  Ho2  1  0.328529  0.664855  0.065095  1
  Ho  Ho3  1  0.671060  0.335188  0.935014  1
  Tc  Tc4  1  0.170880  0.340166  0.750000  1
  Tc  Tc5  1  0.170098  0.830807  0.750000  1
  Tc  Tc6  1  0.834498  0.659450  0.250000  1
  Tc  Tc7  1  0.835735  0.173902  0.250000  1
  Os  Os8  1  0.659882  0.829534  0.750000  1
  Ru  Ru9  1  0.991719  0.996185  0.498779  1
  Ru  Ru10  1  0.991719  0.996185  0.001221  1
  Ru  Ru11  1  0.346293  0.173687  0.250000  1
