# generated using pymatgen
data_Sr(LaCo)2
_symmetry_space_group_name_H-M   'P 1'
_cell_length_a   4.05418200
_cell_length_b   4.05418098
_cell_length_c   22.02922500
_cell_angle_alpha   90.00000000
_cell_angle_beta   90.00000000
_cell_angle_gamma   119.99999203
_symmetry_Int_Tables_number   1
_chemical_formula_structural   Sr(LaCo)2
_chemical_formula_sum   'Sr2 La4 Co4'
_cell_volume   313.57126496
_cell_formula_units_Z   2
loop_
 _symmetry_equiv_pos_site_id
 _symmetry_equiv_pos_as_xyz
  1  'x, y, z'
loop_
 _atom_site_type_symbol
 _atom_site_label
 _atom_site_symmetry_multiplicity
 _atom_site_fract_x
 _atom_site_fract_y
 _atom_site_fract_z
 _atom_site_occupancy
  Sr  Sr0  1  0.333333  0.666667  0.750000  1
  Sr  Sr1  1  0.666667  0.333333  0.250000  1
  La  La2  1  0.000000  0.000000  0.084095  1
  La  La3  1  0.000000  0.000000  0.415905  1
  La  La4  1  0.000000  0.000000  0.915905  1
  La  La5  1  0.000000  0.000000  0.584095  1
  Co  Co6  1  0.333333  0.666667  0.999290  1
  Co  Co7  1  0.666667  0.333333  0.000710  1
  Co  Co8  1  0.333333  0.666667  0.500710  1
  Co  Co9  1  0.666667  0.333333  0.499290  1
