# generated using pymatgen
data_Tb3Y2Pa3(ReB6)4
_symmetry_space_group_name_H-M   'P 1'
_cell_length_a   3.71437600
_cell_length_b   9.21232618
_cell_length_c   11.54753809
_cell_angle_alpha   89.82151602
_cell_angle_beta   90.00000000
_cell_angle_gamma   90.00000000
_symmetry_Int_Tables_number   1
_chemical_formula_structural   Tb3Y2Pa3(ReB6)4
_chemical_formula_sum   'Tb3 Y2 Pa3 Re4 B24'
_cell_volume   395.13224069
_cell_formula_units_Z   1
loop_
 _symmetry_equiv_pos_site_id
 _symmetry_equiv_pos_as_xyz
  1  'x, y, z'
loop_
 _atom_site_type_symbol
 _atom_site_label
 _atom_site_symmetry_multiplicity
 _atom_site_fract_x
 _atom_site_fract_y
 _atom_site_fract_z
 _atom_site_occupancy
  Tb  Tb0  1  0.000000  0.677667  0.587345  1
  Tb  Tb1  1  0.000000  0.445793  0.124597  1
  Tb  Tb2  1  0.000000  0.555060  0.873346  1
  Y  Y3  1  0.000000  0.943898  0.375549  1
  Y  Y4  1  0.000000  0.053293  0.625360  1
  Pa  Pa5  1  0.000000  0.822939  0.087274  1
  Pa  Pa6  1  0.000000  0.176597  0.912243  1
  Pa  Pa7  1  0.000000  0.324544  0.413444  1
  Re  Re8  1  0.000000  0.138274  0.177578  1
  Re  Re9  1  0.000000  0.864460  0.825553  1
  Re  Re10  1  0.000000  0.637934  0.319433  1
  Re  Re11  1  0.000000  0.359028  0.678355  1
  B  B12  1  0.500000  0.053140  0.067665  1
  B  B13  1  0.500000  0.947638  0.933713  1
  B  B14  1  0.500000  0.552553  0.431663  1
  B  B15  1  0.500000  0.445524  0.566886  1
  B  B16  1  0.500000  0.247020  0.079238  1
  B  B17  1  0.500000  0.753655  0.920424  1
  B  B18  1  0.500000  0.746882  0.420551  1
  B  B19  1  0.500000  0.252950  0.579073  1
  B  B20  1  0.500000  0.292584  0.233616  1
  B  B21  1  0.500000  0.708477  0.767113  1
  B  B22  1  0.500000  0.792776  0.267127  1
  B  B23  1  0.500000  0.206723  0.733379  1
  B  B24  1  0.500000  0.133913  0.314520  1
  B  B25  1  0.500000  0.866849  0.686547  1
  B  B26  1  0.500000  0.634455  0.185685  1
  B  B27  1  0.500000  0.365657  0.813069  1
  B  B28  1  0.500000  0.483376  0.286730  1
  B  B29  1  0.500000  0.516312  0.713156  1
  B  B30  1  0.500000  0.983500  0.214049  1
  B  B31  1  0.500000  0.016343  0.786405  1
  B  B32  1  0.500000  0.114153  0.468129  1
  B  B33  1  0.500000  0.885970  0.531985  1
  B  B34  1  0.500000  0.617292  0.032020  1
  B  B35  1  0.500000  0.382773  0.967176  1
