# generated using pymatgen
data_Tb5Dy3Cd3SnAu8
_symmetry_space_group_name_H-M   'P 1'
_cell_length_a   8.02687309
_cell_length_b   8.02438108
_cell_length_c   7.39855901
_cell_angle_alpha   90.00191748
_cell_angle_beta   90.00596593
_cell_angle_gamma   89.98400836
_symmetry_Int_Tables_number   1
_chemical_formula_structural   Tb5Dy3Cd3SnAu8
_chemical_formula_sum   'Tb5 Dy3 Cd3 Sn1 Au8'
_cell_volume   476.54625870
_cell_formula_units_Z   1
loop_
 _symmetry_equiv_pos_site_id
 _symmetry_equiv_pos_as_xyz
  1  'x, y, z'
loop_
 _atom_site_type_symbol
 _atom_site_label
 _atom_site_symmetry_multiplicity
 _atom_site_fract_x
 _atom_site_fract_y
 _atom_site_fract_z
 _atom_site_occupancy
  Tb  Tb0  1  0.844317  0.167691  0.500114  1
  Tb  Tb1  1  0.155873  0.832380  0.500114  1
  Tb  Tb2  1  0.332250  0.344296  0.999927  1
  Tb  Tb3  1  0.667672  0.655657  0.999930  1
  Tb  Tb4  1  0.685714  0.674292  0.500174  1
  Dy  Dy5  1  0.314356  0.325750  0.500161  1
  Dy  Dy6  1  0.174210  0.814435  0.999792  1
  Dy  Dy7  1  0.825719  0.185604  0.999779  1
  Cd  Cd8  1  0.499961  0.000033  0.250003  1
  Cd  Cd9  1  0.000036  0.499952  0.750084  1
  Cd  Cd10  1  0.499945  0.000038  0.749992  1
  Sn  Sn11  1  0.000105  0.499939  0.249954  1
  Au  Au12  1  0.621251  0.364836  0.268766  1
  Au  Au13  1  0.378435  0.634907  0.268780  1
  Au  Au14  1  0.132555  0.125188  0.768092  1
  Au  Au15  1  0.867665  0.875035  0.768449  1
  Au  Au16  1  0.374600  0.632481  0.732075  1
  Au  Au17  1  0.625145  0.367249  0.732038  1
  Au  Au18  1  0.865244  0.878876  0.230732  1
  Au  Au19  1  0.134948  0.121362  0.231046  1
