# generated using pymatgen
data_Tb3DyAl24Pt7Au2
_symmetry_space_group_name_H-M   'P 1'
_cell_length_a   7.56918483
_cell_length_b   7.58606441
_cell_length_c   13.16453103
_cell_angle_alpha   84.53042364
_cell_angle_beta   78.98316712
_cell_angle_gamma   59.92663882
_symmetry_Int_Tables_number   1
_chemical_formula_structural   Tb3DyAl24Pt7Au2
_chemical_formula_sum   'Tb3 Dy1 Al24 Pt7 Au2'
_cell_volume   642.09876768
_cell_formula_units_Z   1
loop_
 _symmetry_equiv_pos_site_id
 _symmetry_equiv_pos_as_xyz
  1  'x, y, z'
loop_
 _atom_site_type_symbol
 _atom_site_label
 _atom_site_symmetry_multiplicity
 _atom_site_fract_x
 _atom_site_fract_y
 _atom_site_fract_z
 _atom_site_occupancy
  Tb  Tb0  1  0.392367  0.169441  0.809258  1
  Tb  Tb1  1  0.607636  0.830559  0.190738  1
  Tb  Tb2  1  0.733687  0.498972  0.810084  1
  Dy  Dy3  1  0.266308  0.501020  0.189952  1
  Al  Al4  1  0.683189  0.834353  0.945007  1
  Al  Al5  1  0.316803  0.165696  0.055013  1
  Al  Al6  1  0.145913  0.839070  0.562254  1
  Al  Al7  1  0.854087  0.160926  0.437748  1
  Al  Al8  1  0.487914  0.159493  0.559579  1
  Al  Al9  1  0.512081  0.840510  0.440425  1
  Al  Al10  1  0.222760  0.160568  0.326483  1
  Al  Al11  1  0.777249  0.839475  0.673497  1
  Al  Al12  1  0.440348  0.506639  0.673706  1
  Al  Al13  1  0.559605  0.493366  0.326271  1
  Al  Al14  1  0.109345  0.154624  0.672442  1
  Al  Al15  1  0.890710  0.845328  0.327536  1
  Al  Al16  1  0.352877  0.499148  0.944745  1
  Al  Al17  1  0.647064  0.500851  0.055299  1
  Al  Al18  1  0.015445  0.167229  0.953686  1
  Al  Al19  1  0.984591  0.832730  0.046333  1
  Al  Al20  1  0.195215  0.499335  0.437433  1
  Al  Al21  1  0.804793  0.500666  0.562550  1
  Al  Al22  1  0.732673  0.164723  0.183274  1
  Al  Al23  1  0.267273  0.835313  0.816726  1
  Al  Al24  1  0.060396  0.633791  0.817701  1
  Al  Al25  1  0.939641  0.366227  0.182299  1
  Al  Al26  1  0.854374  0.042207  0.816229  1
  Al  Al27  1  0.145644  0.957733  0.183771  1
  Pt  Pt28  1  0.657410  0.171647  0.999770  1
  Pt  Pt29  1  0.342560  0.828359  0.000254  1
  Pt  Pt30  1  0.537296  0.166870  0.362217  1
  Pt  Pt31  1  0.462670  0.833175  0.637754  1
  Pt  Pt32  1  0.779958  0.175155  0.636546  1
  Pt  Pt33  1  0.220052  0.824801  0.363426  1
  Pt  Pt34  1  0.000013  0.500002  0.000012  1
  Au  Au35  1  0.120215  0.490782  0.637857  1
  Au  Au36  1  0.879833  0.509217  0.362125  1
