# generated using pymatgen
data_Sm3As4Pd7
_symmetry_space_group_name_H-M   'P 1'
_cell_length_a   4.17662419
_cell_length_b   8.41795179
_cell_length_c   8.23828602
_cell_angle_alpha   101.42426384
_cell_angle_beta   104.68405358
_cell_angle_gamma   104.36383900
_symmetry_Int_Tables_number   1
_chemical_formula_structural   Sm3As4Pd7
_chemical_formula_sum   'Sm3 As4 Pd7'
_cell_volume   260.69114116
_cell_formula_units_Z   1
loop_
 _symmetry_equiv_pos_site_id
 _symmetry_equiv_pos_as_xyz
  1  'x, y, z'
loop_
 _atom_site_type_symbol
 _atom_site_label
 _atom_site_symmetry_multiplicity
 _atom_site_fract_x
 _atom_site_fract_y
 _atom_site_fract_z
 _atom_site_occupancy
  Sm  Sm0  1  0.000000  0.000000  0.000000  1
  Sm  Sm1  1  0.994714  0.672962  0.316466  1
  Sm  Sm2  1  0.005286  0.327038  0.683535  1
  As  As3  1  0.404446  0.743872  0.065021  1
  As  As4  1  0.283132  0.177201  0.389063  1
  As  As5  1  0.716868  0.822799  0.610938  1
  As  As6  1  0.595555  0.256129  0.934980  1
  Pd  Pd7  1  0.258338  0.421936  0.094741  1
  Pd  Pd8  1  0.777827  0.289436  0.266216  1
  Pd  Pd9  1  0.668784  0.974762  0.362805  1
  Pd  Pd10  1  0.500000  0.499999  0.500000  1
  Pd  Pd11  1  0.331217  0.025238  0.637195  1
  Pd  Pd12  1  0.222172  0.710563  0.733783  1
  Pd  Pd13  1  0.741661  0.578063  0.905258  1
