# generated using pymatgen
data_Mn6In6PdRh11
_symmetry_space_group_name_H-M   'P 1'
_cell_length_a   4.48314900
_cell_length_b   6.27344500
_cell_length_c   13.42971300
_cell_angle_alpha   90.00000000
_cell_angle_beta   89.99943299
_cell_angle_gamma   90.00000000
_symmetry_Int_Tables_number   1
_chemical_formula_structural   Mn6In6PdRh11
_chemical_formula_sum   'Mn6 In6 Pd1 Rh11'
_cell_volume   377.70784013
_cell_formula_units_Z   1
loop_
 _symmetry_equiv_pos_site_id
 _symmetry_equiv_pos_as_xyz
  1  'x, y, z'
loop_
 _atom_site_type_symbol
 _atom_site_label
 _atom_site_symmetry_multiplicity
 _atom_site_fract_x
 _atom_site_fract_y
 _atom_site_fract_z
 _atom_site_occupancy
  Mn  Mn0  1  0.000000  0.504713  0.000000  1
  Mn  Mn1  1  0.499821  0.997890  0.168364  1
  Mn  Mn2  1  0.999905  0.500011  0.333496  1
  Mn  Mn3  1  0.500000  0.000102  0.500000  1
  Mn  Mn4  1  0.000095  0.500011  0.666504  1
  Mn  Mn5  1  0.500178  0.997890  0.831637  1
  In  In6  1  0.000000  0.997211  0.000000  1
  In  In7  1  0.499773  0.501466  0.167975  1
  In  In8  1  0.999678  0.999670  0.333794  1
  In  In9  1  0.500000  0.500124  0.500000  1
  In  In10  1  0.000324  0.999670  0.666205  1
  In  In11  1  0.500227  0.501466  0.832025  1
  Pd  Pd12  1  0.500000  0.250032  0.000000  1
  Rh  Rh13  1  0.500000  0.749250  0.000000  1
  Rh  Rh14  1  0.999765  0.250311  0.166229  1
  Rh  Rh15  1  0.999771  0.749749  0.166211  1
  Rh  Rh16  1  0.499758  0.249405  0.333023  1
  Rh  Rh17  1  0.499759  0.750805  0.333261  1
  Rh  Rh18  1  0.000000  0.250884  0.500000  1
  Rh  Rh19  1  0.000000  0.749076  0.500000  1
  Rh  Rh20  1  0.500244  0.249405  0.666977  1
  Rh  Rh21  1  0.500243  0.750805  0.666739  1
  Rh  Rh22  1  0.000235  0.250311  0.833770  1
  Rh  Rh23  1  0.000229  0.749749  0.833788  1
