# generated using pymatgen
data_Sm3HgRh2Pb3
_symmetry_space_group_name_H-M   'P 1'
_cell_length_a   7.97608200
_cell_length_b   7.97608095
_cell_length_c   4.00750100
_cell_angle_alpha   90.00000000
_cell_angle_beta   90.00000000
_cell_angle_gamma   119.99999606
_symmetry_Int_Tables_number   1
_chemical_formula_structural   Sm3HgRh2Pb3
_chemical_formula_sum   'Sm3 Hg1 Rh2 Pb3'
_cell_volume   220.79206005
_cell_formula_units_Z   1
loop_
 _symmetry_equiv_pos_site_id
 _symmetry_equiv_pos_as_xyz
  1  'x, y, z'
loop_
 _atom_site_type_symbol
 _atom_site_label
 _atom_site_symmetry_multiplicity
 _atom_site_fract_x
 _atom_site_fract_y
 _atom_site_fract_z
 _atom_site_occupancy
  Sm  Sm0  1  0.974558  0.390700  0.500000  1
  Sm  Sm1  1  0.609300  0.583856  0.500000  1
  Sm  Sm2  1  0.416144  0.025442  0.500000  1
  Hg  Hg3  1  0.333333  0.666667  0.000000  1
  Rh  Rh4  1  0.000000  0.000000  0.500000  1
  Rh  Rh5  1  0.666667  0.333333  0.000000  1
  Pb  Pb6  1  0.256084  0.251826  0.000000  1
  Pb  Pb7  1  0.995742  0.743916  0.000000  1
  Pb  Pb8  1  0.748174  0.004258  0.000000  1
