# generated using pymatgen
data_Nd4ErZr5(Si5Ir2)4
_symmetry_space_group_name_H-M   'P 1'
_cell_length_a   12.57867600
_cell_length_b   12.57867600
_cell_length_c   4.22054300
_cell_angle_alpha   90.00000000
_cell_angle_beta   90.00000000
_cell_angle_gamma   90.00000000
_symmetry_Int_Tables_number   1
_chemical_formula_structural   Nd4ErZr5(Si5Ir2)4
_chemical_formula_sum   'Nd4 Er1 Zr5 Si20 Ir8'
_cell_volume   667.78735457
_cell_formula_units_Z   1
loop_
 _symmetry_equiv_pos_site_id
 _symmetry_equiv_pos_as_xyz
  1  'x, y, z'
loop_
 _atom_site_type_symbol
 _atom_site_label
 _atom_site_symmetry_multiplicity
 _atom_site_fract_x
 _atom_site_fract_y
 _atom_site_fract_z
 _atom_site_occupancy
  Nd  Nd0  1  0.884851  0.385014  0.500000  1
  Nd  Nd1  1  0.115149  0.614986  0.500000  1
  Nd  Nd2  1  0.385014  0.115149  0.500000  1
  Nd  Nd3  1  0.614986  0.884851  0.500000  1
  Er  Er4  1  0.000000  0.000000  0.000000  1
  Zr  Zr5  1  0.500000  0.500000  0.000000  1
  Zr  Zr6  1  0.676214  0.176969  0.500000  1
  Zr  Zr7  1  0.323786  0.823031  0.500000  1
  Zr  Zr8  1  0.176969  0.323786  0.500000  1
  Zr  Zr9  1  0.823031  0.676214  0.500000  1
  Si  Si10  1  0.567861  0.069079  0.000000  1
  Si  Si11  1  0.432139  0.930921  0.000000  1
  Si  Si12  1  0.069079  0.432139  0.000000  1
  Si  Si13  1  0.930921  0.567861  0.000000  1
  Si  Si14  1  0.663465  0.700674  0.000000  1
  Si  Si15  1  0.336535  0.299326  0.000000  1
  Si  Si16  1  0.162151  0.800965  0.000000  1
  Si  Si17  1  0.837849  0.199035  0.000000  1
  Si  Si18  1  0.299326  0.663465  0.000000  1
  Si  Si19  1  0.700674  0.336535  0.000000  1
  Si  Si20  1  0.199035  0.162151  0.000000  1
  Si  Si21  1  0.800965  0.837849  0.000000  1
  Si  Si22  1  0.652815  0.509135  0.500000  1
  Si  Si23  1  0.347185  0.490865  0.500000  1
  Si  Si24  1  0.155719  0.990654  0.500000  1
  Si  Si25  1  0.844281  0.009346  0.500000  1
  Si  Si26  1  0.490865  0.652815  0.500000  1
  Si  Si27  1  0.509135  0.347185  0.500000  1
  Si  Si28  1  0.009346  0.155719  0.500000  1
  Si  Si29  1  0.990654  0.844281  0.500000  1
  Ir  Ir30  1  0.740409  0.523568  0.000000  1
  Ir  Ir31  1  0.259591  0.476432  0.000000  1
  Ir  Ir32  1  0.243449  0.976373  0.000000  1
  Ir  Ir33  1  0.756551  0.023627  0.000000  1
  Ir  Ir34  1  0.476432  0.740409  0.000000  1
  Ir  Ir35  1  0.523568  0.259591  0.000000  1
  Ir  Ir36  1  0.023627  0.243449  0.000000  1
  Ir  Ir37  1  0.976373  0.756551  0.000000  1
