# generated using pymatgen
data_Dy2Ho6Tc3B24Ru
_symmetry_space_group_name_H-M   'P 1'
_cell_length_a   3.66788700
_cell_length_b   9.14075815
_cell_length_c   11.52463201
_cell_angle_alpha   89.92076594
_cell_angle_beta   90.00000000
_cell_angle_gamma   90.00000000
_symmetry_Int_Tables_number   1
_chemical_formula_structural   Dy2Ho6Tc3B24Ru
_chemical_formula_sum   'Dy2 Ho6 Tc3 B24 Ru1'
_cell_volume   386.38905611
_cell_formula_units_Z   1
loop_
 _symmetry_equiv_pos_site_id
 _symmetry_equiv_pos_as_xyz
  1  'x, y, z'
loop_
 _atom_site_type_symbol
 _atom_site_label
 _atom_site_symmetry_multiplicity
 _atom_site_fract_x
 _atom_site_fract_y
 _atom_site_fract_z
 _atom_site_occupancy
  Dy  Dy0  1  0.000000  0.323646  0.413892  1
  Dy  Dy1  1  0.000000  0.675163  0.584113  1
  Ho  Ho2  1  0.000000  0.823150  0.087301  1
  Ho  Ho3  1  0.000000  0.177826  0.914531  1
  Ho  Ho4  1  0.000000  0.942715  0.370273  1
  Ho  Ho5  1  0.000000  0.057522  0.630624  1
  Ho  Ho6  1  0.000000  0.443223  0.129947  1
  Ho  Ho7  1  0.000000  0.557733  0.869325  1
  Tc  Tc8  1  0.000000  0.638434  0.320436  1
  Tc  Tc9  1  0.000000  0.361600  0.680025  1
  Tc  Tc10  1  0.000000  0.137888  0.178293  1
  B  B11  1  0.500000  0.553118  0.432768  1
  B  B12  1  0.500000  0.446605  0.566821  1
  B  B13  1  0.500000  0.053034  0.066753  1
  B  B14  1  0.500000  0.946125  0.932902  1
  B  B15  1  0.500000  0.748621  0.418834  1
  B  B16  1  0.500000  0.250788  0.581287  1
  B  B17  1  0.500000  0.249180  0.081008  1
  B  B18  1  0.500000  0.751503  0.918658  1
  B  B19  1  0.500000  0.791949  0.265523  1
  B  B20  1  0.500000  0.208244  0.735193  1
  B  B21  1  0.500000  0.291839  0.234517  1
  B  B22  1  0.500000  0.709130  0.765336  1
  B  B23  1  0.500000  0.631250  0.185436  1
  B  B24  1  0.500000  0.368944  0.815051  1
  B  B25  1  0.500000  0.130569  0.314123  1
  B  B26  1  0.500000  0.868795  0.685709  1
  B  B27  1  0.500000  0.981832  0.211871  1
  B  B28  1  0.500000  0.016710  0.788359  1
  B  B29  1  0.500000  0.482297  0.287822  1
  B  B30  1  0.500000  0.517595  0.711740  1
  B  B31  1  0.500000  0.602552  0.028146  1
  B  B32  1  0.500000  0.399075  0.971495  1
  B  B33  1  0.500000  0.101696  0.472031  1
  B  B34  1  0.500000  0.897966  0.528813  1
  Ru  Ru35  1  0.000000  0.861687  0.821044  1
