# generated using pymatgen
data_Tm3LuScBi3
_symmetry_space_group_name_H-M   'P 1'
_cell_length_a   8.04654650
_cell_length_b   9.31662440
_cell_length_c   11.81543222
_cell_angle_alpha   90.03333705
_cell_angle_beta   89.95971583
_cell_angle_gamma   89.99747966
_symmetry_Int_Tables_number   1
_chemical_formula_structural   Tm3LuScBi3
_chemical_formula_sum   'Tm12 Lu4 Sc4 Bi12'
_cell_volume   885.76301966
_cell_formula_units_Z   4
loop_
 _symmetry_equiv_pos_site_id
 _symmetry_equiv_pos_as_xyz
  1  'x, y, z'
loop_
 _atom_site_type_symbol
 _atom_site_label
 _atom_site_symmetry_multiplicity
 _atom_site_fract_x
 _atom_site_fract_y
 _atom_site_fract_z
 _atom_site_occupancy
  Tm  Tm0  1  0.355211  0.250161  0.283274  1
  Tm  Tm1  1  0.644628  0.749689  0.716747  1
  Tm  Tm2  1  0.145101  0.749790  0.783045  1
  Tm  Tm3  1  0.854660  0.250301  0.216938  1
  Tm  Tm4  1  0.185846  0.250108  0.781494  1
  Tm  Tm5  1  0.814018  0.749959  0.218617  1
  Tm  Tm6  1  0.313785  0.749876  0.281597  1
  Tm  Tm7  1  0.686001  0.250050  0.718331  1
  Tm  Tm8  1  0.195301  0.066731  0.058658  1
  Tm  Tm9  1  0.804811  0.933517  0.941369  1
  Tm  Tm10  1  0.304487  0.933367  0.558658  1
  Tm  Tm11  1  0.804470  0.566333  0.941319  1
  Lu  Lu12  1  0.695541  0.067657  0.441315  1
  Lu  Lu13  1  0.195598  0.432648  0.058699  1
  Lu  Lu14  1  0.695812  0.432470  0.441364  1
  Lu  Lu15  1  0.304274  0.567310  0.558657  1
  Sc  Sc16  1  0.023444  0.249850  0.511893  1
  Sc  Sc17  1  0.976077  0.749999  0.487959  1
  Sc  Sc18  1  0.475842  0.750152  0.012083  1
  Sc  Sc19  1  0.523737  0.250007  0.987951  1
  Bi  Bi20  1  0.401044  0.251119  0.542861  1
  Bi  Bi21  1  0.599639  0.749686  0.456812  1
  Bi  Bi22  1  0.099434  0.748921  0.043078  1
  Bi  Bi23  1  0.901096  0.250327  0.957224  1
  Bi  Bi24  1  0.065892  0.003796  0.329827  1
  Bi  Bi25  1  0.934028  0.996159  0.670134  1
  Bi  Bi26  1  0.433963  0.996213  0.829586  1
  Bi  Bi27  1  0.934211  0.503864  0.670148  1
  Bi  Bi28  1  0.566192  0.003881  0.170411  1
  Bi  Bi29  1  0.065901  0.496088  0.329850  1
  Bi  Bi30  1  0.565992  0.496091  0.170471  1
  Bi  Bi31  1  0.433964  0.503880  0.829628  1
