# generated using pymatgen
data_HoPd5PtPb
_symmetry_space_group_name_H-M   'P 1'
_cell_length_a   4.13472800
_cell_length_b   4.13472800
_cell_length_c   8.17729000
_cell_angle_alpha   90.00000000
_cell_angle_beta   90.00000000
_cell_angle_gamma   90.00000000
_symmetry_Int_Tables_number   1
_chemical_formula_structural   HoPd5PtPb
_chemical_formula_sum   'Ho1 Pd5 Pt1 Pb1'
_cell_volume   139.79875059
_cell_formula_units_Z   1
loop_
 _symmetry_equiv_pos_site_id
 _symmetry_equiv_pos_as_xyz
  1  'x, y, z'
loop_
 _atom_site_type_symbol
 _atom_site_label
 _atom_site_symmetry_multiplicity
 _atom_site_fract_x
 _atom_site_fract_y
 _atom_site_fract_z
 _atom_site_occupancy
  Ho  Ho0  1  0.000000  0.000000  0.000000  1
  Pd  Pd1  1  0.500000  0.500000  0.500000  1
  Pd  Pd2  1  0.500000  0.000000  0.250911  1
  Pd  Pd3  1  0.500000  0.000000  0.749089  1
  Pd  Pd4  1  0.000000  0.500000  0.250911  1
  Pd  Pd5  1  0.000000  0.500000  0.749089  1
  Pt  Pt6  1  0.500000  0.500000  0.000000  1
  Pb  Pb7  1  0.000000  0.000000  0.500000  1
