# generated using pymatgen
data_CeTh7(Nb3Si4)4
_symmetry_space_group_name_H-M   'P 1'
_cell_length_a   7.19749613
_cell_length_b   7.19374095
_cell_length_c   13.36696701
_cell_angle_alpha   90.05890737
_cell_angle_beta   90.02163022
_cell_angle_gamma   90.00070313
_symmetry_Int_Tables_number   1
_chemical_formula_structural   CeTh7(Nb3Si4)4
_chemical_formula_sum   'Ce1 Th7 Nb12 Si16'
_cell_volume   692.10000136
_cell_formula_units_Z   1
loop_
 _symmetry_equiv_pos_site_id
 _symmetry_equiv_pos_as_xyz
  1  'x, y, z'
loop_
 _atom_site_type_symbol
 _atom_site_label
 _atom_site_symmetry_multiplicity
 _atom_site_fract_x
 _atom_site_fract_y
 _atom_site_fract_z
 _atom_site_occupancy
  Ce  Ce0  1  0.999594  0.338283  0.217143  1
  Th  Th1  1  0.001225  0.662459  0.717999  1
  Th  Th2  1  0.161977  0.498410  0.467068  1
  Th  Th3  1  0.501263  0.837701  0.032806  1
  Th  Th4  1  0.837849  0.500641  0.968291  1
  Th  Th5  1  0.499162  0.162506  0.532009  1
  Th  Th6  1  0.337529  0.998806  0.782257  1
  Th  Th7  1  0.664016  0.002651  0.281656  1
  Nb  Nb8  1  0.167588  0.169120  0.000751  1
  Nb  Nb9  1  0.831629  0.831638  0.499863  1
  Nb  Nb10  1  0.331661  0.668835  0.249869  1
  Nb  Nb11  1  0.668374  0.331566  0.750121  1
  Nb  Nb12  1  0.158831  0.995215  0.374053  1
  Nb  Nb13  1  0.840922  0.004806  0.874149  1
  Nb  Nb14  1  0.504165  0.659175  0.624331  1
  Nb  Nb15  1  0.340642  0.495299  0.875784  1
  Nb  Nb16  1  0.495378  0.340858  0.124036  1
  Nb  Nb17  1  0.659924  0.504294  0.375523  1
  Nb  Nb18  1  0.995336  0.159095  0.625774  1
  Nb  Nb19  1  0.005177  0.840270  0.125715  1
  Si  Si20  1  0.285868  0.043056  0.186766  1
  Si  Si21  1  0.711773  0.959595  0.686300  1
  Si  Si22  1  0.459513  0.788397  0.436088  1
  Si  Si23  1  0.209777  0.538406  0.065169  1
  Si  Si24  1  0.540646  0.211863  0.936837  1
  Si  Si25  1  0.788343  0.459675  0.563448  1
  Si  Si26  1  0.040499  0.288424  0.813768  1
  Si  Si27  1  0.960049  0.708422  0.312530  1
  Si  Si28  1  0.372043  0.298811  0.312536  1
  Si  Si29  1  0.624766  0.701696  0.813922  1
  Si  Si30  1  0.201726  0.875244  0.563620  1
  Si  Si31  1  0.124781  0.798190  0.936595  1
  Si  Si32  1  0.799991  0.126610  0.065017  1
  Si  Si33  1  0.875958  0.202414  0.435454  1
  Si  Si34  1  0.297965  0.375321  0.686158  1
  Si  Si35  1  0.704060  0.622246  0.186595  1
