# generated using pymatgen
data_Eu4Mn3NiO12
_symmetry_space_group_name_H-M   'P 1'
_cell_length_a   5.45193162
_cell_length_b   5.54652322
_cell_length_c   7.72927037
_cell_angle_alpha   90.00767984
_cell_angle_beta   90.20308237
_cell_angle_gamma   90.10813219
_symmetry_Int_Tables_number   1
_chemical_formula_structural   Eu4Mn3NiO12
_chemical_formula_sum   'Eu4 Mn3 Ni1 O12'
_cell_volume   233.72557050
_cell_formula_units_Z   1
loop_
 _symmetry_equiv_pos_site_id
 _symmetry_equiv_pos_as_xyz
  1  'x, y, z'
loop_
 _atom_site_type_symbol
 _atom_site_label
 _atom_site_symmetry_multiplicity
 _atom_site_fract_x
 _atom_site_fract_y
 _atom_site_fract_z
 _atom_site_occupancy
  Eu  Eu0  1  0.495463  0.458352  0.244317  1
  Eu  Eu1  1  0.009207  0.953063  0.243449  1
  Eu  Eu2  1  0.504537  0.541648  0.755683  1
  Eu  Eu3  1  0.990793  0.046937  0.756551  1
  Mn  Mn4  1  0.500000  0.000000  0.500000  1
  Mn  Mn5  1  0.000000  0.500000  0.500000  1
  Mn  Mn6  1  0.500000  0.000000  0.000000  1
  Ni  Ni7  1  0.000000  0.500000  0.000000  1
  O  O8  1  0.212681  0.195513  0.036561  1
  O  O9  1  0.296990  0.706675  0.457590  1
  O  O10  1  0.792917  0.797299  0.542908  1
  O  O11  1  0.694365  0.287288  0.962499  1
  O  O12  1  0.787319  0.804487  0.963439  1
  O  O13  1  0.703010  0.293325  0.542410  1
  O  O14  1  0.207083  0.202701  0.457092  1
  O  O15  1  0.305635  0.712712  0.037501  1
  O  O16  1  0.579270  0.020048  0.250077  1
  O  O17  1  0.923906  0.519518  0.258700  1
  O  O18  1  0.420730  0.979952  0.749923  1
  O  O19  1  0.076094  0.480482  0.741300  1
