# generated using pymatgen
data_Pr16Co3Hg4Ru
_symmetry_space_group_name_H-M   'P 1'
_cell_length_a   9.89453694
_cell_length_b   9.85113517
_cell_length_c   9.85113500
_cell_angle_alpha   59.99999720
_cell_angle_beta   60.14499365
_cell_angle_gamma   60.14499328
_symmetry_Int_Tables_number   1
_chemical_formula_structural   Pr16Co3Hg4Ru
_chemical_formula_sum   'Pr16 Co3 Hg4 Ru1'
_cell_volume   680.45801921
_cell_formula_units_Z   1
loop_
 _symmetry_equiv_pos_site_id
 _symmetry_equiv_pos_as_xyz
  1  'x, y, z'
loop_
 _atom_site_type_symbol
 _atom_site_label
 _atom_site_symmetry_multiplicity
 _atom_site_fract_x
 _atom_site_fract_y
 _atom_site_fract_z
 _atom_site_occupancy
  Pr  Pr0  1  0.344461  0.349016  0.349016  1
  Pr  Pr1  1  0.344461  0.349016  0.957506  1
  Pr  Pr2  1  0.344461  0.957506  0.349016  1
  Pr  Pr3  1  0.959986  0.346671  0.346671  1
  Pr  Pr4  1  0.813251  0.189552  0.189552  1
  Pr  Pr5  1  0.190282  0.810310  0.810310  1
  Pr  Pr6  1  0.190282  0.810310  0.189098  1
  Pr  Pr7  1  0.813251  0.189552  0.807645  1
  Pr  Pr8  1  0.190282  0.189098  0.810310  1
  Pr  Pr9  1  0.813251  0.807645  0.189552  1
  Pr  Pr10  1  0.938319  0.561605  0.561605  1
  Pr  Pr11  1  0.563140  0.939422  0.939422  1
  Pr  Pr12  1  0.563140  0.939422  0.558017  1
  Pr  Pr13  1  0.938319  0.561605  0.938472  1
  Pr  Pr14  1  0.563140  0.558017  0.939422  1
  Pr  Pr15  1  0.938319  0.938472  0.561605  1
  Co  Co16  1  0.137567  0.141364  0.141364  1
  Co  Co17  1  0.137567  0.141364  0.579706  1
  Co  Co18  1  0.137567  0.579706  0.141364  1
  Hg  Hg19  1  0.582707  0.582932  0.582932  1
  Hg  Hg20  1  0.582707  0.582932  0.251428  1
  Hg  Hg21  1  0.582707  0.251428  0.582932  1
  Hg  Hg22  1  0.249880  0.583373  0.583373  1
  Ru  Ru23  1  0.580950  0.139683  0.139683  1
