# generated using pymatgen
data_YHo2Ga7Cu4
_symmetry_space_group_name_H-M   'P 1'
_cell_length_a   8.00155219
_cell_length_b   8.00155098
_cell_length_c   9.35872122
_cell_angle_alpha   54.47457740
_cell_angle_beta   54.47458228
_cell_angle_gamma   30.52552258
_symmetry_Int_Tables_number   1
_chemical_formula_structural   YHo2Ga7Cu4
_chemical_formula_sum   'Y1 Ho2 Ga7 Cu4'
_cell_volume   242.94522962
_cell_formula_units_Z   1
loop_
 _symmetry_equiv_pos_site_id
 _symmetry_equiv_pos_as_xyz
  1  'x, y, z'
loop_
 _atom_site_type_symbol
 _atom_site_label
 _atom_site_symmetry_multiplicity
 _atom_site_fract_x
 _atom_site_fract_y
 _atom_site_fract_z
 _atom_site_occupancy
  Y  Y0  1  0.000000  0.000000  0.000000  1
  Ho  Ho1  1  0.303359  0.303359  0.703782  1
  Ho  Ho2  1  0.696641  0.696641  0.296218  1
  Ga  Ga3  1  0.859071  0.859071  0.419823  1
  Ga  Ga4  1  0.140929  0.140929  0.580177  1
  Ga  Ga5  1  0.139444  0.139444  0.132605  1
  Ga  Ga6  1  0.860556  0.860556  0.867395  1
  Ga  Ga7  1  0.000000  0.000000  0.500000  1
  Ga  Ga8  1  0.343965  0.343965  0.277056  1
  Ga  Ga9  1  0.656035  0.656035  0.722944  1
  Cu  Cu10  1  0.496545  0.496545  0.310845  1
  Cu  Cu11  1  0.503455  0.503455  0.689155  1
  Cu  Cu12  1  0.657948  0.657948  0.983273  1
  Cu  Cu13  1  0.342052  0.342052  0.016727  1
