# generated using pymatgen
data_SmUB6Ru
_symmetry_space_group_name_H-M   'P 1'
_cell_length_a   3.63024200
_cell_length_b   9.39622700
_cell_length_c   11.49592600
_cell_angle_alpha   90.00000000
_cell_angle_beta   90.00000000
_cell_angle_gamma   90.00000000
_symmetry_Int_Tables_number   1
_chemical_formula_structural   SmUB6Ru
_chemical_formula_sum   'Sm4 U4 B24 Ru4'
_cell_volume   392.13267932
_cell_formula_units_Z   4
loop_
 _symmetry_equiv_pos_site_id
 _symmetry_equiv_pos_as_xyz
  1  'x, y, z'
loop_
 _atom_site_type_symbol
 _atom_site_label
 _atom_site_symmetry_multiplicity
 _atom_site_fract_x
 _atom_site_fract_y
 _atom_site_fract_z
 _atom_site_occupancy
  Sm  Sm0  1  0.000000  0.337459  0.407687  1
  Sm  Sm1  1  0.000000  0.662541  0.592313  1
  Sm  Sm2  1  0.000000  0.837459  0.092313  1
  Sm  Sm3  1  0.000000  0.162541  0.907687  1
  U  U4  1  0.000000  0.957929  0.398306  1
  U  U5  1  0.000000  0.042071  0.601694  1
  U  U6  1  0.000000  0.457929  0.101694  1
  U  U7  1  0.000000  0.542071  0.898306  1
  B  B8  1  0.500000  0.554160  0.429395  1
  B  B9  1  0.500000  0.445840  0.570605  1
  B  B10  1  0.500000  0.054160  0.070605  1
  B  B11  1  0.500000  0.945840  0.929395  1
  B  B12  1  0.500000  0.744207  0.421831  1
  B  B13  1  0.500000  0.255793  0.578169  1
  B  B14  1  0.500000  0.244207  0.078169  1
  B  B15  1  0.500000  0.755793  0.921831  1
  B  B16  1  0.500000  0.802602  0.274671  1
  B  B17  1  0.500000  0.197398  0.725329  1
  B  B18  1  0.500000  0.302602  0.225329  1
  B  B19  1  0.500000  0.697398  0.774671  1
  B  B20  1  0.500000  0.644560  0.188490  1
  B  B21  1  0.500000  0.355440  0.811510  1
  B  B22  1  0.500000  0.144560  0.311510  1
  B  B23  1  0.500000  0.855440  0.688490  1
  B  B24  1  0.500000  0.991024  0.219974  1
  B  B25  1  0.500000  0.008976  0.780026  1
  B  B26  1  0.500000  0.491024  0.280026  1
  B  B27  1  0.500000  0.508976  0.719974  1
  B  B28  1  0.500000  0.640460  0.038607  1
  B  B29  1  0.500000  0.359540  0.961393  1
  B  B30  1  0.500000  0.140460  0.461393  1
  B  B31  1  0.500000  0.859540  0.538607  1
  Ru  Ru32  1  0.000000  0.646914  0.318514  1
  Ru  Ru33  1  0.000000  0.353086  0.681486  1
  Ru  Ru34  1  0.000000  0.146914  0.181486  1
  Ru  Ru35  1  0.000000  0.853086  0.818514  1
