# generated using pymatgen
data_HoTm2Fe8Co
_symmetry_space_group_name_H-M   'P 1'
_cell_length_a   5.07520093
_cell_length_b   5.07520145
_cell_length_c   8.58037745
_cell_angle_alpha   72.79781756
_cell_angle_beta   72.79780213
_cell_angle_gamma   60.00001473
_symmetry_Int_Tables_number   1
_chemical_formula_structural   HoTm2Fe8Co
_chemical_formula_sum   'Ho1 Tm2 Fe8 Co1'
_cell_volume   179.89431608
_cell_formula_units_Z   1
loop_
 _symmetry_equiv_pos_site_id
 _symmetry_equiv_pos_as_xyz
  1  'x, y, z'
loop_
 _atom_site_type_symbol
 _atom_site_label
 _atom_site_symmetry_multiplicity
 _atom_site_fract_x
 _atom_site_fract_y
 _atom_site_fract_z
 _atom_site_occupancy
  Ho  Ho0  1  0.000000  0.000000  0.000000  1
  Tm  Tm1  1  0.142086  0.142086  0.573740  1
  Tm  Tm2  1  0.857914  0.857914  0.426260  1
  Fe  Fe3  1  0.081836  0.582356  0.753450  1
  Fe  Fe4  1  0.582356  0.582356  0.753450  1
  Fe  Fe5  1  0.582356  0.081836  0.753450  1
  Fe  Fe6  1  0.918164  0.417644  0.246550  1
  Fe  Fe7  1  0.417644  0.417644  0.246550  1
  Fe  Fe8  1  0.417644  0.918164  0.246550  1
  Fe  Fe9  1  0.332925  0.332925  0.001224  1
  Fe  Fe10  1  0.667075  0.667075  0.998776  1
  Co  Co11  1  0.500000  0.500000  0.500000  1
