# generated using pymatgen
data_Zr6Al15CuPt7
_symmetry_space_group_name_H-M   'P 1'
_cell_length_a   8.78368805
_cell_length_b   8.78368883
_cell_length_c   8.76692302
_cell_angle_alpha   59.93672161
_cell_angle_beta   59.93672097
_cell_angle_gamma   59.99999874
_symmetry_Int_Tables_number   1
_chemical_formula_structural   Zr6Al15CuPt7
_chemical_formula_sum   'Zr6 Al15 Cu1 Pt7'
_cell_volume   477.82623393
_cell_formula_units_Z   1
loop_
 _symmetry_equiv_pos_site_id
 _symmetry_equiv_pos_as_xyz
  1  'x, y, z'
loop_
 _atom_site_type_symbol
 _atom_site_label
 _atom_site_symmetry_multiplicity
 _atom_site_fract_x
 _atom_site_fract_y
 _atom_site_fract_z
 _atom_site_occupancy
  Zr  Zr0  1  0.686726  0.686726  0.314913  1
  Zr  Zr1  1  0.311635  0.686726  0.314913  1
  Zr  Zr2  1  0.686726  0.311635  0.314913  1
  Zr  Zr3  1  0.315246  0.315246  0.685216  1
  Zr  Zr4  1  0.684291  0.315246  0.685216  1
  Zr  Zr5  1  0.315246  0.684291  0.685216  1
  Al  Al6  1  0.879611  0.360697  0.880080  1
  Al  Al7  1  0.360697  0.879611  0.880080  1
  Al  Al8  1  0.879611  0.879611  0.880080  1
  Al  Al9  1  0.120323  0.120323  0.639032  1
  Al  Al10  1  0.113672  0.644936  0.127721  1
  Al  Al11  1  0.644936  0.113672  0.127721  1
  Al  Al12  1  0.113672  0.113672  0.127721  1
  Al  Al13  1  0.663558  0.663558  0.009328  1
  Al  Al14  1  0.670233  0.001817  0.657718  1
  Al  Al15  1  0.001817  0.670233  0.657718  1
  Al  Al16  1  0.670233  0.670233  0.657718  1
  Al  Al17  1  0.334831  0.334831  0.995505  1
  Al  Al18  1  0.337656  0.991821  0.332867  1
  Al  Al19  1  0.991821  0.337656  0.332867  1
  Al  Al20  1  0.337656  0.337656  0.332867  1
  Cu  Cu21  1  0.878795  0.878795  0.363616  1
  Pt  Pt22  1  0.003402  0.003402  0.989793  1
  Pt  Pt23  1  0.003469  0.003469  0.505784  1
  Pt  Pt24  1  0.487279  0.003469  0.505784  1
  Pt  Pt25  1  0.003469  0.487279  0.505784  1
  Pt  Pt26  1  0.501085  0.501085  0.996609  1
  Pt  Pt27  1  0.001220  0.501085  0.996609  1
  Pt  Pt28  1  0.501085  0.001220  0.996609  1
