# generated using pymatgen
data_ZrU(NiP)3
_symmetry_space_group_name_H-M   'P 1'
_cell_length_a   3.73261700
_cell_length_b   10.21400800
_cell_length_c   12.48992200
_cell_angle_alpha   90.00000000
_cell_angle_beta   90.00000000
_cell_angle_gamma   90.00000000
_symmetry_Int_Tables_number   1
_chemical_formula_structural   ZrU(NiP)3
_chemical_formula_sum   'Zr4 U4 Ni12 P12'
_cell_volume   476.17802519
_cell_formula_units_Z   4
loop_
 _symmetry_equiv_pos_site_id
 _symmetry_equiv_pos_as_xyz
  1  'x, y, z'
loop_
 _atom_site_type_symbol
 _atom_site_label
 _atom_site_symmetry_multiplicity
 _atom_site_fract_x
 _atom_site_fract_y
 _atom_site_fract_z
 _atom_site_occupancy
  Zr  Zr0  1  0.250000  0.162075  0.496565  1
  Zr  Zr1  1  0.750000  0.837925  0.503435  1
  Zr  Zr2  1  0.750000  0.662075  0.003435  1
  Zr  Zr3  1  0.250000  0.337925  0.996565  1
  U  U4  1  0.250000  0.069146  0.208068  1
  U  U5  1  0.750000  0.930854  0.791932  1
  U  U6  1  0.750000  0.569146  0.291932  1
  U  U7  1  0.250000  0.430854  0.708068  1
  Ni  Ni8  1  0.250000  0.724510  0.663749  1
  Ni  Ni9  1  0.750000  0.275490  0.336251  1
  Ni  Ni10  1  0.750000  0.224510  0.836251  1
  Ni  Ni11  1  0.250000  0.775490  0.163749  1
  Ni  Ni12  1  0.250000  0.362859  0.215073  1
  Ni  Ni13  1  0.750000  0.637141  0.784927  1
  Ni  Ni14  1  0.750000  0.862859  0.284927  1
  Ni  Ni15  1  0.250000  0.137141  0.715073  1
  Ni  Ni16  1  0.250000  0.598620  0.487009  1
  Ni  Ni17  1  0.750000  0.401380  0.512991  1
  Ni  Ni18  1  0.750000  0.098620  0.012991  1
  Ni  Ni19  1  0.250000  0.901380  0.987009  1
  P  P20  1  0.250000  0.943105  0.625684  1
  P  P21  1  0.750000  0.056895  0.374316  1
  P  P22  1  0.750000  0.443105  0.874316  1
  P  P23  1  0.250000  0.556895  0.125684  1
  P  P24  1  0.250000  0.396218  0.400596  1
  P  P25  1  0.750000  0.603782  0.599404  1
  P  P26  1  0.750000  0.896218  0.099404  1
  P  P27  1  0.250000  0.103782  0.900596  1
  P  P28  1  0.250000  0.763001  0.354426  1
  P  P29  1  0.750000  0.236999  0.645574  1
  P  P30  1  0.750000  0.263001  0.145574  1
  P  P31  1  0.250000  0.736999  0.854426  1
