# generated using pymatgen
data_PrYHf3Co9As7
_symmetry_space_group_name_H-M   'P 1'
_cell_length_a   3.82645100
_cell_length_b   9.72071017
_cell_length_c   9.72071000
_cell_angle_alpha   119.99999942
_cell_angle_beta   90.00000000
_cell_angle_gamma   90.00000000
_symmetry_Int_Tables_number   1
_chemical_formula_structural   PrYHf3Co9As7
_chemical_formula_sum   'Pr1 Y1 Hf3 Co9 As7'
_cell_volume   313.12862577
_cell_formula_units_Z   1
loop_
 _symmetry_equiv_pos_site_id
 _symmetry_equiv_pos_as_xyz
  1  'x, y, z'
loop_
 _atom_site_type_symbol
 _atom_site_label
 _atom_site_symmetry_multiplicity
 _atom_site_fract_x
 _atom_site_fract_y
 _atom_site_fract_z
 _atom_site_occupancy
  Pr  Pr0  1  0.500000  0.333333  0.666667  1
  Y  Y1  1  0.000000  0.666667  0.333333  1
  Hf  Hf2  1  0.500000  0.769966  0.888606  1
  Hf  Hf3  1  0.500000  0.118639  0.230034  1
  Hf  Hf4  1  0.500000  0.111394  0.881361  1
  Co  Co5  1  0.000000  0.579653  0.939373  1
  Co  Co6  1  0.000000  0.359720  0.420347  1
  Co  Co7  1  0.000000  0.060627  0.640280  1
  Co  Co8  1  0.000000  0.877920  0.161369  1
  Co  Co9  1  0.000000  0.283449  0.122080  1
  Co  Co10  1  0.000000  0.838631  0.716551  1
  Co  Co11  1  0.500000  0.945809  0.388526  1
  Co  Co12  1  0.500000  0.442716  0.054191  1
  Co  Co13  1  0.500000  0.611474  0.557284  1
  As  As14  1  0.000000  0.000000  0.000000  1
  As  As15  1  0.500000  0.712258  0.131789  1
  As  As16  1  0.500000  0.419531  0.287742  1
  As  As17  1  0.500000  0.868211  0.580469  1
  As  As18  1  0.000000  0.577268  0.680305  1
  As  As19  1  0.000000  0.103037  0.422732  1
  As  As20  1  0.000000  0.319695  0.896963  1
