# generated using pymatgen
data_PrAl5Pt3
_symmetry_space_group_name_H-M   'P 1'
_cell_length_a   4.15062400
_cell_length_b   7.38920300
_cell_length_c   20.79483900
_cell_angle_alpha   90.00000000
_cell_angle_beta   90.00000000
_cell_angle_gamma   90.00000000
_symmetry_Int_Tables_number   1
_chemical_formula_structural   PrAl5Pt3
_chemical_formula_sum   'Pr4 Al20 Pt12'
_cell_volume   637.77362205
_cell_formula_units_Z   4
loop_
 _symmetry_equiv_pos_site_id
 _symmetry_equiv_pos_as_xyz
  1  'x, y, z'
loop_
 _atom_site_type_symbol
 _atom_site_label
 _atom_site_symmetry_multiplicity
 _atom_site_fract_x
 _atom_site_fract_y
 _atom_site_fract_z
 _atom_site_occupancy
  Pr  Pr0  1  0.250000  0.118255  0.640046  1
  Pr  Pr1  1  0.750000  0.881745  0.359954  1
  Pr  Pr2  1  0.250000  0.381745  0.140046  1
  Pr  Pr3  1  0.750000  0.618255  0.859954  1
  Al  Al4  1  0.750000  0.355450  0.383279  1
  Al  Al5  1  0.750000  0.886553  0.982811  1
  Al  Al6  1  0.750000  0.687550  0.200781  1
  Al  Al7  1  0.250000  0.869091  0.491705  1
  Al  Al8  1  0.250000  0.630909  0.991705  1
  Al  Al9  1  0.250000  0.312450  0.799219  1
  Al  Al10  1  0.750000  0.076278  0.208468  1
  Al  Al11  1  0.250000  0.644550  0.616721  1
  Al  Al12  1  0.250000  0.576278  0.291532  1
  Al  Al13  1  0.250000  0.187550  0.299219  1
  Al  Al14  1  0.750000  0.144550  0.883279  1
  Al  Al15  1  0.250000  0.923722  0.791532  1
  Al  Al16  1  0.750000  0.369091  0.008295  1
  Al  Al17  1  0.750000  0.613447  0.482811  1
  Al  Al18  1  0.750000  0.130909  0.508295  1
  Al  Al19  1  0.250000  0.113447  0.017189  1
  Al  Al20  1  0.250000  0.855450  0.116721  1
  Al  Al21  1  0.250000  0.386553  0.517189  1
  Al  Al22  1  0.750000  0.423722  0.708468  1
  Al  Al23  1  0.750000  0.812450  0.700781  1
  Pt  Pt24  1  0.750000  0.383239  0.262655  1
  Pt  Pt25  1  0.250000  0.883239  0.237345  1
  Pt  Pt26  1  0.250000  0.616761  0.737345  1
  Pt  Pt27  1  0.750000  0.116761  0.762655  1
  Pt  Pt28  1  0.250000  0.164498  0.427558  1
  Pt  Pt29  1  0.750000  0.422229  0.584354  1
  Pt  Pt30  1  0.750000  0.077771  0.084354  1
  Pt  Pt31  1  0.250000  0.922229  0.915646  1
  Pt  Pt32  1  0.750000  0.835502  0.572442  1
  Pt  Pt33  1  0.250000  0.335502  0.927558  1
  Pt  Pt34  1  0.750000  0.664498  0.072442  1
  Pt  Pt35  1  0.250000  0.577771  0.415646  1
