# generated using pymatgen
data_La16Cd4CuTc3
_symmetry_space_group_name_H-M   'P 1'
_cell_length_a   10.16261402
_cell_length_b   10.16261356
_cell_length_c   10.00953788
_cell_angle_alpha   59.49281373
_cell_angle_beta   59.49280749
_cell_angle_gamma   59.99999838
_symmetry_Int_Tables_number   1
_chemical_formula_structural   La16Cd4CuTc3
_chemical_formula_sum   'La16 Cd4 Cu1 Tc3'
_cell_volume   725.33327646
_cell_formula_units_Z   1
loop_
 _symmetry_equiv_pos_site_id
 _symmetry_equiv_pos_as_xyz
  1  'x, y, z'
loop_
 _atom_site_type_symbol
 _atom_site_label
 _atom_site_symmetry_multiplicity
 _atom_site_fract_x
 _atom_site_fract_y
 _atom_site_fract_z
 _atom_site_occupancy
  La  La0  1  0.899551  0.899551  0.905461  1
  La  La1  1  0.437396  0.437396  0.061154  1
  La  La2  1  0.059757  0.059757  0.430460  1
  La  La3  1  0.437396  0.064054  0.061154  1
  La  La4  1  0.308190  0.690384  0.311043  1
  La  La5  1  0.690384  0.690384  0.311043  1
  La  La6  1  0.690384  0.308190  0.311043  1
  La  La7  1  0.295439  0.899551  0.905461  1
  La  La8  1  0.899551  0.295439  0.905461  1
  La  La9  1  0.308611  0.684652  0.698126  1
  La  La10  1  0.905979  0.905979  0.282065  1
  La  La11  1  0.064054  0.437396  0.061154  1
  La  La12  1  0.308611  0.308611  0.698126  1
  La  La13  1  0.059757  0.450026  0.430460  1
  La  La14  1  0.450026  0.059757  0.430460  1
  La  La15  1  0.684652  0.308611  0.698126  1
  Cd  Cd16  1  0.670722  0.670722  0.987834  1
  Cd  Cd17  1  0.987490  0.670940  0.670629  1
  Cd  Cd18  1  0.670940  0.987490  0.670629  1
  Cd  Cd19  1  0.670940  0.670940  0.670629  1
  Cu  Cu20  1  0.109928  0.109928  0.670217  1
  Tc  Tc21  1  0.115719  0.115719  0.109756  1
  Tc  Tc22  1  0.115719  0.658806  0.109756  1
  Tc  Tc23  1  0.658806  0.115719  0.109756  1
