# generated using pymatgen
data_Zr6Ti2Al14AsOs4Rh3
_symmetry_space_group_name_H-M   'P 1'
_cell_length_a   8.81764938
_cell_length_b   8.82525191
_cell_length_c   8.83193300
_cell_angle_alpha   120.07774816
_cell_angle_beta   119.66795971
_cell_angle_gamma   90.04856129
_symmetry_Int_Tables_number   1
_chemical_formula_structural   Zr6Ti2Al14AsOs4Rh3
_chemical_formula_sum   'Zr6 Ti2 Al14 As1 Os4 Rh3'
_cell_volume   487.63434271
_cell_formula_units_Z   1
loop_
 _symmetry_equiv_pos_site_id
 _symmetry_equiv_pos_as_xyz
  1  'x, y, z'
loop_
 _atom_site_type_symbol
 _atom_site_label
 _atom_site_symmetry_multiplicity
 _atom_site_fract_x
 _atom_site_fract_y
 _atom_site_fract_z
 _atom_site_occupancy
  Zr  Zr0  1  0.786525  0.290332  0.081084  1
  Zr  Zr1  1  0.216744  0.297402  0.504519  1
  Zr  Zr2  1  0.210912  0.710320  0.508651  1
  Zr  Zr3  1  0.218120  0.715852  0.920119  1
  Zr  Zr4  1  0.793963  0.712793  0.497616  1
  Zr  Zr5  1  0.781419  0.282047  0.489764  1
  Ti  Ti6  1  0.376776  0.122705  0.742768  1
  Ti  Ti7  1  0.383596  0.636470  0.260204  1
  Al  Al8  1  0.160423  0.335987  0.170710  1
  Al  Al9  1  0.164097  0.995665  0.831050  1
  Al  Al10  1  0.159211  0.337430  0.825002  1
  Al  Al11  1  0.506960  0.336311  0.173061  1
  Al  Al12  1  0.837120  0.662043  0.824790  1
  Al  Al13  1  0.838776  0.006229  0.171878  1
  Al  Al14  1  0.836443  0.662946  0.169753  1
  Al  Al15  1  0.499363  0.666165  0.832780  1
  Al  Al16  1  0.379596  0.121030  0.260588  1
  Al  Al17  1  0.858374  0.120949  0.738370  1
  Al  Al18  1  0.620379  0.875838  0.256660  1
  Al  Al19  1  0.620188  0.361631  0.742076  1
  Al  Al20  1  0.616796  0.877410  0.737494  1
  Al  Al21  1  0.140574  0.878352  0.262502  1
  As  As22  1  0.996967  0.496381  0.500641  1
  Os  Os23  1  0.001781  0.999935  0.502354  1
  Os  Os24  1  0.500310  0.002146  0.000009  1
  Os  Os25  1  0.497892  0.497515  0.999533  1
  Os  Os26  1  0.496905  0.499324  0.497167  1
  Rh  Rh27  1  0.001130  0.500431  0.000611  1
  Rh  Rh28  1  0.999967  0.000194  0.999062  1
  Rh  Rh29  1  0.498692  0.998166  0.499180  1
