# generated using pymatgen
data_Pr2P7(RuRh)6
_symmetry_space_group_name_H-M   'P 1'
_cell_length_a   3.91069705
_cell_length_b   9.60950132
_cell_length_c   9.61160784
_cell_angle_alpha   120.01096559
_cell_angle_beta   90.00671622
_cell_angle_gamma   89.99394868
_symmetry_Int_Tables_number   1
_chemical_formula_structural   Pr2P7(RuRh)6
_chemical_formula_sum   'Pr2 P7 Ru6 Rh6'
_cell_volume   312.77619840
_cell_formula_units_Z   1
loop_
 _symmetry_equiv_pos_site_id
 _symmetry_equiv_pos_as_xyz
  1  'x, y, z'
loop_
 _atom_site_type_symbol
 _atom_site_label
 _atom_site_symmetry_multiplicity
 _atom_site_fract_x
 _atom_site_fract_y
 _atom_site_fract_z
 _atom_site_occupancy
  Pr  Pr0  1  0.253720  0.666812  0.333454  1
  Pr  Pr1  1  0.746280  0.333188  0.666546  1
  P  P2  1  0.500000  0.000000  0.000000  1
  P  P3  1  0.754033  0.886051  0.601081  1
  P  P4  1  0.754062  0.399082  0.285015  1
  P  P5  1  0.754199  0.715078  0.114066  1
  P  P6  1  0.245967  0.113949  0.398919  1
  P  P7  1  0.245938  0.600918  0.714985  1
  P  P8  1  0.245801  0.284922  0.885934  1
  Ru  Ru9  1  0.740763  0.114277  0.852798  1
  Ru  Ru10  1  0.740943  0.147210  0.261277  1
  Ru  Ru11  1  0.740907  0.738622  0.885928  1
  Ru  Ru12  1  0.259237  0.885723  0.147202  1
  Ru  Ru13  1  0.259057  0.852790  0.738723  1
  Ru  Ru14  1  0.259093  0.261378  0.114072  1
  Rh  Rh15  1  0.753218  0.616957  0.556708  1
  Rh  Rh16  1  0.753274  0.443507  0.060410  1
  Rh  Rh17  1  0.753327  0.939774  0.383108  1
  Rh  Rh18  1  0.246782  0.383043  0.443292  1
  Rh  Rh19  1  0.246726  0.556493  0.939590  1
  Rh  Rh20  1  0.246673  0.060226  0.616892  1
