# generated using pymatgen
data_Sc6Zn22GeAu
_symmetry_space_group_name_H-M   'P 1'
_cell_length_a   8.76383814
_cell_length_b   8.76383866
_cell_length_c   8.76384600
_cell_angle_alpha   59.99990434
_cell_angle_beta   59.99990239
_cell_angle_gamma   59.99992816
_symmetry_Int_Tables_number   1
_chemical_formula_structural   Sc6Zn22GeAu
_chemical_formula_sum   'Sc6 Zn22 Ge1 Au1'
_cell_volume   475.95686033
_cell_formula_units_Z   1
loop_
 _symmetry_equiv_pos_site_id
 _symmetry_equiv_pos_as_xyz
  1  'x, y, z'
loop_
 _atom_site_type_symbol
 _atom_site_label
 _atom_site_symmetry_multiplicity
 _atom_site_fract_x
 _atom_site_fract_y
 _atom_site_fract_z
 _atom_site_occupancy
  Sc  Sc0  1  0.715151  0.284849  0.284849  1
  Sc  Sc1  1  0.284849  0.715151  0.715151  1
  Sc  Sc2  1  0.284849  0.715151  0.284849  1
  Sc  Sc3  1  0.715151  0.284849  0.715151  1
  Sc  Sc4  1  0.284849  0.284849  0.715151  1
  Sc  Sc5  1  0.715151  0.715151  0.284849  1
  Zn  Zn6  1  0.124892  0.124892  0.124892  1
  Zn  Zn7  1  0.875108  0.875108  0.875108  1
  Zn  Zn8  1  0.124891  0.124891  0.625325  1
  Zn  Zn9  1  0.124891  0.625325  0.124891  1
  Zn  Zn10  1  0.875109  0.875109  0.374675  1
  Zn  Zn11  1  0.875109  0.374675  0.875109  1
  Zn  Zn12  1  0.625325  0.124891  0.124891  1
  Zn  Zn13  1  0.374675  0.875109  0.875109  1
  Zn  Zn14  1  0.500000  0.000000  0.000000  1
  Zn  Zn15  1  0.000000  0.500000  0.500000  1
  Zn  Zn16  1  0.000000  0.500000  0.000000  1
  Zn  Zn17  1  0.500000  0.000000  0.500000  1
  Zn  Zn18  1  0.000000  0.000000  0.500000  1
  Zn  Zn19  1  0.500000  0.500000  0.000000  1
  Zn  Zn20  1  0.337520  0.337520  0.337520  1
  Zn  Zn21  1  0.662480  0.662480  0.662480  1
  Zn  Zn22  1  0.337519  0.337519  0.987444  1
  Zn  Zn23  1  0.337518  0.987443  0.337519  1
  Zn  Zn24  1  0.662481  0.662481  0.012556  1
  Zn  Zn25  1  0.662482  0.012557  0.662481  1
  Zn  Zn26  1  0.987443  0.337518  0.337519  1
  Zn  Zn27  1  0.012557  0.662482  0.662481  1
  Ge  Ge28  1  0.500000  0.500000  0.500000  1
  Au  Au29  1  0.000000  0.000000  0.000000  1
