# generated using pymatgen
data_Sc3ZnAu2C
_symmetry_space_group_name_H-M   'P 1'
_cell_length_a   8.76208011
_cell_length_b   8.76208063
_cell_length_c   8.76208100
_cell_angle_alpha   60.00000238
_cell_angle_beta   60.00000043
_cell_angle_gamma   60.00000006
_symmetry_Int_Tables_number   1
_chemical_formula_structural   Sc3ZnAu2C
_chemical_formula_sum   'Sc12 Zn4 Au8 C4'
_cell_volume   475.67107157
_cell_formula_units_Z   4
loop_
 _symmetry_equiv_pos_site_id
 _symmetry_equiv_pos_as_xyz
  1  'x, y, z'
loop_
 _atom_site_type_symbol
 _atom_site_label
 _atom_site_symmetry_multiplicity
 _atom_site_fract_x
 _atom_site_fract_y
 _atom_site_fract_z
 _atom_site_occupancy
  Sc  Sc0  1  0.439670  0.439670  0.060330  1
  Sc  Sc1  1  0.060330  0.439670  0.060330  1
  Sc  Sc2  1  0.439670  0.060330  0.060330  1
  Sc  Sc3  1  0.060330  0.060330  0.439670  1
  Sc  Sc4  1  0.439670  0.060330  0.439670  1
  Sc  Sc5  1  0.060330  0.439670  0.439670  1
  Sc  Sc6  1  0.810330  0.810330  0.189670  1
  Sc  Sc7  1  0.189670  0.810330  0.189670  1
  Sc  Sc8  1  0.810330  0.189670  0.189670  1
  Sc  Sc9  1  0.189670  0.189670  0.810330  1
  Sc  Sc10  1  0.810330  0.189670  0.810330  1
  Sc  Sc11  1  0.189670  0.810330  0.810330  1
  Zn  Zn12  1  0.625000  0.625000  0.125000  1
  Zn  Zn13  1  0.625000  0.125000  0.625000  1
  Zn  Zn14  1  0.125000  0.625000  0.625000  1
  Zn  Zn15  1  0.625000  0.625000  0.625000  1
  Au  Au16  1  0.836915  0.836915  0.489255  1
  Au  Au17  1  0.836915  0.489255  0.836915  1
  Au  Au18  1  0.489255  0.836915  0.836915  1
  Au  Au19  1  0.836915  0.836915  0.836915  1
  Au  Au20  1  0.413085  0.413085  0.760745  1
  Au  Au21  1  0.413085  0.760745  0.413085  1
  Au  Au22  1  0.760745  0.413085  0.413085  1
  Au  Au23  1  0.413085  0.413085  0.413085  1
  C  C24  1  0.125000  0.125000  0.625000  1
  C  C25  1  0.125000  0.625000  0.125000  1
  C  C26  1  0.625000  0.125000  0.125000  1
  C  C27  1  0.125000  0.125000  0.125000  1
