# generated using pymatgen
data_Dy2Er6Re3RuC8
_symmetry_space_group_name_H-M   'P 1'
_cell_length_a   5.07066400
_cell_length_b   6.53185098
_cell_length_c   9.77952700
_cell_angle_alpha   89.89132574
_cell_angle_beta   90.00000000
_cell_angle_gamma   90.00000000
_symmetry_Int_Tables_number   1
_chemical_formula_structural   Dy2Er6Re3RuC8
_chemical_formula_sum   'Dy2 Er6 Re3 Ru1 C8'
_cell_volume   323.90538668
_cell_formula_units_Z   1
loop_
 _symmetry_equiv_pos_site_id
 _symmetry_equiv_pos_as_xyz
  1  'x, y, z'
loop_
 _atom_site_type_symbol
 _atom_site_label
 _atom_site_symmetry_multiplicity
 _atom_site_fract_x
 _atom_site_fract_y
 _atom_site_fract_z
 _atom_site_occupancy
  Dy  Dy0  1  0.750000  0.531940  0.786162  1
  Dy  Dy1  1  0.250000  0.967336  0.282833  1
  Er  Er2  1  0.750000  0.677180  0.442882  1
  Er  Er3  1  0.250000  0.827247  0.944129  1
  Er  Er4  1  0.750000  0.177954  0.057745  1
  Er  Er5  1  0.250000  0.321490  0.557543  1
  Er  Er6  1  0.250000  0.466409  0.215899  1
  Er  Er7  1  0.750000  0.034144  0.715802  1
  Re  Re8  1  0.250000  0.781875  0.633019  1
  Re  Re9  1  0.750000  0.219031  0.368329  1
  Re  Re10  1  0.750000  0.719369  0.132189  1
  Ru  Ru11  1  0.250000  0.280994  0.866833  1
  C  C12  1  0.250000  0.673431  0.448277  1
  C  C13  1  0.250000  0.549588  0.756817  1
  C  C14  1  0.750000  0.452032  0.240787  1
  C  C15  1  0.750000  0.825200  0.946835  1
  C  C16  1  0.250000  0.047013  0.739949  1
  C  C17  1  0.250000  0.172800  0.051045  1
  C  C18  1  0.750000  0.323474  0.553401  1
  C  C19  1  0.750000  0.951491  0.259524  1
