# generated using pymatgen
data_Dy10FeBi4Ir
_symmetry_space_group_name_H-M   'P 1'
_cell_length_a   7.98344672
_cell_length_b   8.96176500
_cell_length_c   12.43319813
_cell_angle_alpha   90.00000000
_cell_angle_beta   89.72030613
_cell_angle_gamma   90.00000000
_symmetry_Int_Tables_number   1
_chemical_formula_structural   Dy10FeBi4Ir
_chemical_formula_sum   'Dy20 Fe2 Bi8 Ir2'
_cell_volume   889.53217714
_cell_formula_units_Z   2
loop_
 _symmetry_equiv_pos_site_id
 _symmetry_equiv_pos_as_xyz
  1  'x, y, z'
loop_
 _atom_site_type_symbol
 _atom_site_label
 _atom_site_symmetry_multiplicity
 _atom_site_fract_x
 _atom_site_fract_y
 _atom_site_fract_z
 _atom_site_occupancy
  Dy  Dy0  1  0.839977  0.750000  0.791820  1
  Dy  Dy1  1  0.160023  0.250000  0.208180  1
  Dy  Dy2  1  0.344547  0.250000  0.701341  1
  Dy  Dy3  1  0.655453  0.750000  0.298659  1
  Dy  Dy4  1  0.382114  0.750000  0.689342  1
  Dy  Dy5  1  0.617886  0.250000  0.310658  1
  Dy  Dy6  1  0.876083  0.250000  0.805682  1
  Dy  Dy7  1  0.123917  0.750000  0.194318  1
  Dy  Dy8  1  0.943148  0.750000  0.502838  1
  Dy  Dy9  1  0.056852  0.250000  0.497162  1
  Dy  Dy10  1  0.446514  0.250000  0.997109  1
  Dy  Dy11  1  0.553486  0.750000  0.002891  1
  Dy  Dy12  1  0.672976  0.037178  0.561780  1
  Dy  Dy13  1  0.327024  0.962822  0.438220  1
  Dy  Dy14  1  0.177058  0.957013  0.933173  1
  Dy  Dy15  1  0.327024  0.537178  0.438220  1
  Dy  Dy16  1  0.822942  0.042987  0.066827  1
  Dy  Dy17  1  0.672976  0.462822  0.561780  1
  Dy  Dy18  1  0.822942  0.457013  0.066827  1
  Dy  Dy19  1  0.177058  0.542987  0.933173  1
  Fe  Fe20  1  0.572627  0.750000  0.510683  1
  Fe  Fe21  1  0.427373  0.250000  0.489317  1
  Bi  Bi22  1  0.568849  0.491369  0.826450  1
  Bi  Bi23  1  0.431151  0.508631  0.173550  1
  Bi  Bi24  1  0.070150  0.508744  0.672009  1
  Bi  Bi25  1  0.431151  0.991369  0.173550  1
  Bi  Bi26  1  0.929850  0.491256  0.327991  1
  Bi  Bi27  1  0.568849  0.008631  0.826450  1
  Bi  Bi28  1  0.929850  0.008744  0.327991  1
  Bi  Bi29  1  0.070150  0.991256  0.672009  1
  Ir  Ir30  1  0.071736  0.250000  0.990146  1
  Ir  Ir31  1  0.928264  0.750000  0.009854  1
