# generated using pymatgen
data_Ho7Tm3(Co2Rh)2
_symmetry_space_group_name_H-M   'P 1'
_cell_length_a   7.06345697
_cell_length_b   7.06345653
_cell_length_c   8.69023318
_cell_angle_alpha   113.98285810
_cell_angle_beta   113.97938536
_cell_angle_gamma   89.99524999
_symmetry_Int_Tables_number   1
_chemical_formula_structural   Ho7Tm3(Co2Rh)2
_chemical_formula_sum   'Ho7 Tm3 Co4 Rh2'
_cell_volume   354.80452851
_cell_formula_units_Z   1
loop_
 _symmetry_equiv_pos_site_id
 _symmetry_equiv_pos_as_xyz
  1  'x, y, z'
loop_
 _atom_site_type_symbol
 _atom_site_label
 _atom_site_symmetry_multiplicity
 _atom_site_fract_x
 _atom_site_fract_y
 _atom_site_fract_z
 _atom_site_occupancy
  Ho  Ho0  1  0.963700  0.463583  0.282245  1
  Ho  Ho1  1  0.318663  0.818545  0.282245  1
  Ho  Ho2  1  0.818368  0.963931  0.282299  1
  Ho  Ho3  1  0.181481  0.036369  0.717849  1
  Ho  Ho4  1  0.681430  0.181518  0.717645  1
  Ho  Ho5  1  0.036128  0.536214  0.717645  1
  Ho  Ho6  1  0.536325  0.681168  0.717494  1
  Tm  Tm7  1  0.000340  0.000243  0.000190  1
  Tm  Tm8  1  0.499947  0.499850  0.000190  1
  Tm  Tm9  1  0.463421  0.318449  0.281869  1
  Co  Co10  1  0.612756  0.113084  0.000275  1
  Co  Co11  1  0.113100  0.386967  0.000066  1
  Co  Co12  1  0.887170  0.612925  0.000095  1
  Co  Co13  1  0.387193  0.887519  0.000275  1
  Rh  Rh14  1  0.250267  0.250095  0.499806  1
  Rh  Rh15  1  0.749711  0.749539  0.499806  1
