# generated using pymatgen
data_Dy2Ho(Cd2Ga)2
_symmetry_space_group_name_H-M   'P 1'
_cell_length_a   7.41951618
_cell_length_b   7.41951587
_cell_length_c   4.36140900
_cell_angle_alpha   90.00000000
_cell_angle_beta   90.00000000
_cell_angle_gamma   119.94698845
_symmetry_Int_Tables_number   1
_chemical_formula_structural   Dy2Ho(Cd2Ga)2
_chemical_formula_sum   'Dy2 Ho1 Cd4 Ga2'
_cell_volume   208.03688630
_cell_formula_units_Z   1
loop_
 _symmetry_equiv_pos_site_id
 _symmetry_equiv_pos_as_xyz
  1  'x, y, z'
loop_
 _atom_site_type_symbol
 _atom_site_label
 _atom_site_symmetry_multiplicity
 _atom_site_fract_x
 _atom_site_fract_y
 _atom_site_fract_z
 _atom_site_occupancy
  Dy  Dy0  1  0.571744  0.999815  0.500000  1
  Dy  Dy1  1  0.999815  0.571744  0.500000  1
  Ho  Ho2  1  0.428219  0.428219  0.500000  1
  Cd  Cd3  1  0.000473  0.000473  0.500000  1
  Cd  Cd4  1  0.743645  0.743645  0.000000  1
  Cd  Cd5  1  0.256207  0.000150  0.000000  1
  Cd  Cd6  1  0.000150  0.256207  0.000000  1
  Ga  Ga7  1  0.666264  0.333484  0.000000  1
  Ga  Ga8  1  0.333484  0.666264  0.000000  1
