# generated using pymatgen
data_Dy5Mg2TiGa3P9Ir16
_symmetry_space_group_name_H-M   'P 1'
_cell_length_a   12.87452500
_cell_length_b   12.76722844
_cell_length_c   3.96902000
_cell_angle_alpha   90.00000000
_cell_angle_beta   90.00000000
_cell_angle_gamma   120.27839826
_symmetry_Int_Tables_number   1
_chemical_formula_structural   Dy5Mg2TiGa3P9Ir16
_chemical_formula_sum   'Dy5 Mg2 Ti1 Ga3 P9 Ir16'
_cell_volume   563.39965570
_cell_formula_units_Z   1
loop_
 _symmetry_equiv_pos_site_id
 _symmetry_equiv_pos_as_xyz
  1  'x, y, z'
loop_
 _atom_site_type_symbol
 _atom_site_label
 _atom_site_symmetry_multiplicity
 _atom_site_fract_x
 _atom_site_fract_y
 _atom_site_fract_z
 _atom_site_occupancy
  Dy  Dy0  1  0.335107  0.670797  0.500000  1
  Dy  Dy1  1  0.664311  0.329203  0.500000  1
  Dy  Dy2  1  0.004181  0.818237  0.000000  1
  Dy  Dy3  1  0.185943  0.181763  0.000000  1
  Dy  Dy4  1  0.813019  0.000000  0.000000  1
  Mg  Mg5  1  0.002072  0.445001  0.500000  1
  Mg  Mg6  1  0.557070  0.554999  0.500000  1
  Ti  Ti7  1  0.437324  0.000000  0.500000  1
  Ga  Ga8  1  0.998334  0.640114  0.500000  1
  Ga  Ga9  1  0.358221  0.359886  0.500000  1
  Ga  Ga10  1  0.637715  0.000000  0.500000  1
  P  P11  1  0.516762  0.692607  0.000000  1
  P  P12  1  0.314092  0.832471  0.000000  1
  P  P13  1  0.178578  0.486655  0.000000  1
  P  P14  1  0.481622  0.167529  0.000000  1
  P  P15  1  0.691922  0.513345  0.000000  1
  P  P16  1  0.824156  0.307393  0.000000  1
  P  P17  1  0.998934  0.179101  0.500000  1
  P  P18  1  0.819834  0.820899  0.500000  1
  P  P19  1  0.176737  0.000000  0.500000  1
  Ir  Ir20  1  0.507170  0.869243  0.000000  1
  Ir  Ir21  1  0.136080  0.641219  0.000000  1
  Ir  Ir22  1  0.363384  0.493863  0.000000  1
  Ir  Ir23  1  0.494862  0.358781  0.000000  1
  Ir  Ir24  1  0.869521  0.506137  0.000000  1
  Ir  Ir25  1  0.637929  0.130757  0.000000  1
  Ir  Ir26  1  0.000763  0.273129  0.000000  1
  Ir  Ir27  1  0.727634  0.726871  0.000000  1
  Ir  Ir28  1  0.279816  0.000000  0.000000  1
  Ir  Ir29  1  0.620875  0.793372  0.500000  1
  Ir  Ir30  1  0.200944  0.825888  0.500000  1
  Ir  Ir31  1  0.173082  0.379778  0.500000  1
  Ir  Ir32  1  0.375055  0.174112  0.500000  1
  Ir  Ir33  1  0.793303  0.620222  0.500000  1
  Ir  Ir34  1  0.827503  0.206628  0.500000  1
  Ir  Ir35  1  0.996144  0.000000  0.500000  1
