# generated using pymatgen
data_SrNd7(ScSn3)2
_symmetry_space_group_name_H-M   'P 1'
_cell_length_a   9.25343008
_cell_length_b   9.25344294
_cell_length_c   9.28970000
_cell_angle_alpha   96.53470363
_cell_angle_beta   96.20128622
_cell_angle_gamma   141.01380511
_symmetry_Int_Tables_number   1
_chemical_formula_structural   SrNd7(ScSn3)2
_chemical_formula_sum   'Sr1 Nd7 Sc2 Sn6'
_cell_volume   471.98325539
_cell_formula_units_Z   1
loop_
 _symmetry_equiv_pos_site_id
 _symmetry_equiv_pos_as_xyz
  1  'x, y, z'
loop_
 _atom_site_type_symbol
 _atom_site_label
 _atom_site_symmetry_multiplicity
 _atom_site_fract_x
 _atom_site_fract_y
 _atom_site_fract_z
 _atom_site_occupancy
  Sr  Sr0  1  0.279594  0.414131  0.693726  1
  Nd  Nd1  1  0.087571  0.219938  0.307528  1
  Nd  Nd2  1  0.911507  0.777701  0.689186  1
  Nd  Nd3  1  0.778621  0.086445  0.865077  1
  Nd  Nd4  1  0.413863  0.722293  0.136189  1
  Nd  Nd5  1  0.220556  0.913081  0.133618  1
  Nd  Nd6  1  0.588394  0.279616  0.868030  1
  Nd  Nd7  1  0.721608  0.585690  0.307285  1
  Sc  Sc8  1  0.249158  0.751226  0.499251  1
  Sc  Sc9  1  0.748035  0.250099  0.499265  1
  Sn  Sn10  1  0.148281  0.653971  0.802243  1
  Sn  Sn11  1  0.850695  0.347911  0.198610  1
  Sn  Sn12  1  0.348832  0.148958  0.497767  1
  Sn  Sn13  1  0.648138  0.846457  0.494596  1
  Sn  Sn14  1  0.249749  0.248421  0.003811  1
  Sn  Sn15  1  0.755397  0.754061  0.003818  1
