# generated using pymatgen
data_HfZr3Mo8
_symmetry_space_group_name_H-M   'P 1'
_cell_length_a   9.35082934
_cell_length_b   9.35082963
_cell_length_c   9.35083059
_cell_angle_alpha   33.45456044
_cell_angle_beta   33.45455920
_cell_angle_gamma   33.45456351
_symmetry_Int_Tables_number   1
_chemical_formula_structural   HfZr3Mo8
_chemical_formula_sum   'Hf1 Zr3 Mo8'
_cell_volume   221.28780701
_cell_formula_units_Z   1
loop_
 _symmetry_equiv_pos_site_id
 _symmetry_equiv_pos_as_xyz
  1  'x, y, z'
loop_
 _atom_site_type_symbol
 _atom_site_label
 _atom_site_symmetry_multiplicity
 _atom_site_fract_x
 _atom_site_fract_y
 _atom_site_fract_z
 _atom_site_occupancy
  Hf  Hf0  1  0.124946  0.124946  0.124946  1
  Zr  Zr1  1  0.625020  0.625020  0.625020  1
  Zr  Zr2  1  0.000353  0.000353  0.000353  1
  Zr  Zr3  1  0.499777  0.499777  0.499777  1
  Mo  Mo4  1  0.562435  0.063378  0.562435  1
  Mo  Mo5  1  0.062517  0.561623  0.062517  1
  Mo  Mo6  1  0.063378  0.562435  0.562435  1
  Mo  Mo7  1  0.561623  0.062517  0.062517  1
  Mo  Mo8  1  0.812559  0.812559  0.812559  1
  Mo  Mo9  1  0.312439  0.312439  0.312439  1
  Mo  Mo10  1  0.562435  0.562435  0.063378  1
  Mo  Mo11  1  0.062517  0.062517  0.561623  1
