# generated using pymatgen
data_Dy3MgZn2Si2Ag
_symmetry_space_group_name_H-M   'P 1'
_cell_length_a   6.97370069
_cell_length_b   7.01121549
_cell_length_c   4.34407300
_cell_angle_alpha   90.00000000
_cell_angle_beta   90.00000000
_cell_angle_gamma   120.17811813
_symmetry_Int_Tables_number   1
_chemical_formula_structural   Dy3MgZn2Si2Ag
_chemical_formula_sum   'Dy3 Mg1 Zn2 Si2 Ag1'
_cell_volume   183.61242928
_cell_formula_units_Z   1
loop_
 _symmetry_equiv_pos_site_id
 _symmetry_equiv_pos_as_xyz
  1  'x, y, z'
loop_
 _atom_site_type_symbol
 _atom_site_label
 _atom_site_symmetry_multiplicity
 _atom_site_fract_x
 _atom_site_fract_y
 _atom_site_fract_z
 _atom_site_occupancy
  Dy  Dy0  1  0.428982  0.430699  0.500000  1
  Dy  Dy1  1  0.571018  0.001718  0.500000  1
  Dy  Dy2  1  0.000000  0.580252  0.500000  1
  Mg  Mg3  1  0.000000  0.234634  0.000000  1
  Zn  Zn4  1  0.746684  0.745852  0.000000  1
  Zn  Zn5  1  0.253316  0.999168  0.000000  1
  Si  Si6  1  0.661909  0.337161  0.000000  1
  Si  Si7  1  0.338091  0.675253  0.000000  1
  Ag  Ag8  1  0.000000  0.995264  0.500000  1
