# generated using pymatgen
data_Er3Lu(Sc3Ga4)2
_symmetry_space_group_name_H-M   'P 1'
_cell_length_a   7.21576301
_cell_length_b   7.52261377
_cell_length_c   14.40204700
_cell_angle_alpha   89.97568822
_cell_angle_beta   89.99757025
_cell_angle_gamma   89.99122479
_symmetry_Int_Tables_number   1
_chemical_formula_structural   Er3Lu(Sc3Ga4)2
_chemical_formula_sum   'Er6 Lu2 Sc12 Ga16'
_cell_volume   781.76316671
_cell_formula_units_Z   2
loop_
 _symmetry_equiv_pos_site_id
 _symmetry_equiv_pos_as_xyz
  1  'x, y, z'
loop_
 _atom_site_type_symbol
 _atom_site_label
 _atom_site_symmetry_multiplicity
 _atom_site_fract_x
 _atom_site_fract_y
 _atom_site_fract_z
 _atom_site_occupancy
  Er  Er0  1  0.489640  0.679604  0.905376  1
  Er  Er1  1  0.989598  0.820469  0.594590  1
  Er  Er2  1  0.510360  0.320396  0.094624  1
  Er  Er3  1  0.010402  0.179531  0.405410  1
  Er  Er4  1  0.510361  0.320416  0.405226  1
  Er  Er5  1  0.489639  0.679584  0.594774  1
  Lu  Lu6  1  0.010357  0.179920  0.094579  1
  Lu  Lu7  1  0.989643  0.820080  0.905421  1
  Sc  Sc8  1  0.162474  0.503566  0.749996  1
  Sc  Sc9  1  0.837526  0.496434  0.250004  1
  Sc  Sc10  1  0.336818  0.003650  0.249947  1
  Sc  Sc11  1  0.663182  0.996350  0.750053  1
  Sc  Sc12  1  0.330203  0.173575  0.624353  1
  Sc  Sc13  1  0.669797  0.826425  0.375647  1
  Sc  Sc14  1  0.169862  0.673396  0.375497  1
  Sc  Sc15  1  0.670185  0.826505  0.124466  1
  Sc  Sc16  1  0.830138  0.326604  0.624503  1
  Sc  Sc17  1  0.329815  0.173495  0.875534  1
  Sc  Sc18  1  0.830514  0.326315  0.875663  1
  Sc  Sc19  1  0.169486  0.673685  0.124337  1
  Ga  Ga20  1  0.031115  0.116526  0.750215  1
  Ga  Ga21  1  0.968885  0.883474  0.249785  1
  Ga  Ga22  1  0.468646  0.616821  0.249958  1
  Ga  Ga23  1  0.531354  0.383179  0.750042  1
  Ga  Ga24  1  0.282396  0.869845  0.750522  1
  Ga  Ga25  1  0.717604  0.130155  0.249478  1
  Ga  Ga26  1  0.216057  0.369722  0.249561  1
  Ga  Ga27  1  0.783943  0.630278  0.750439  1
  Ga  Ga28  1  0.162410  0.464608  0.540567  1
  Ga  Ga29  1  0.837590  0.535392  0.459433  1
  Ga  Ga30  1  0.337489  0.964582  0.459531  1
  Ga  Ga31  1  0.837986  0.534596  0.040511  1
  Ga  Ga32  1  0.662511  0.035418  0.540469  1
  Ga  Ga33  1  0.162014  0.465404  0.959489  1
  Ga  Ga34  1  0.663564  0.034264  0.959405  1
  Ga  Ga35  1  0.336436  0.965736  0.040595  1
