# generated using pymatgen
data_Zr2Pa5Si12Ir17
_symmetry_space_group_name_H-M   'P 1'
_cell_length_a   12.94534300
_cell_length_b   12.99626630
_cell_length_c   4.01204800
_cell_angle_alpha   90.00000000
_cell_angle_beta   90.00000000
_cell_angle_gamma   119.87046548
_symmetry_Int_Tables_number   1
_chemical_formula_structural   Zr2Pa5Si12Ir17
_chemical_formula_sum   'Zr2 Pa5 Si12 Ir17'
_cell_volume   585.32127664
_cell_formula_units_Z   1
loop_
 _symmetry_equiv_pos_site_id
 _symmetry_equiv_pos_as_xyz
  1  'x, y, z'
loop_
 _atom_site_type_symbol
 _atom_site_label
 _atom_site_symmetry_multiplicity
 _atom_site_fract_x
 _atom_site_fract_y
 _atom_site_fract_z
 _atom_site_occupancy
  Zr  Zr0  1  0.999799  0.439306  0.500000  1
  Zr  Zr1  1  0.560494  0.560694  0.500000  1
  Pa  Pa2  1  0.331978  0.664123  0.500000  1
  Pa  Pa3  1  0.667856  0.335877  0.500000  1
  Pa  Pa4  1  0.000287  0.812123  0.000000  1
  Pa  Pa5  1  0.188164  0.187877  0.000000  1
  Pa  Pa6  1  0.812502  0.000000  0.000000  1
  Si  Si7  1  0.005854  0.643471  0.500000  1
  Si  Si8  1  0.362383  0.356529  0.500000  1
  Si  Si9  1  0.628898  0.000000  0.500000  1
  Si  Si10  1  0.513381  0.688761  0.000000  1
  Si  Si11  1  0.311026  0.830042  0.000000  1
  Si  Si12  1  0.172132  0.480370  0.000000  1
  Si  Si13  1  0.480982  0.169958  0.000000  1
  Si  Si14  1  0.691761  0.519630  0.000000  1
  Si  Si15  1  0.824620  0.311239  0.000000  1
  Si  Si16  1  0.997473  0.180897  0.500000  1
  Si  Si17  1  0.816576  0.819103  0.500000  1
  Si  Si18  1  0.185317  0.000000  0.500000  1
  Ir  Ir19  1  0.508807  0.873191  0.000000  1
  Ir  Ir20  1  0.134052  0.642071  0.000000  1
  Ir  Ir21  1  0.359060  0.486091  0.000000  1
  Ir  Ir22  1  0.491981  0.357929  0.000000  1
  Ir  Ir23  1  0.872971  0.513909  0.000000  1
  Ir  Ir24  1  0.635617  0.126809  0.000000  1
  Ir  Ir25  1  0.446059  0.000000  0.500000  1
  Ir  Ir26  1  0.995216  0.271255  0.000000  1
  Ir  Ir27  1  0.723960  0.728745  0.000000  1
  Ir  Ir28  1  0.281433  0.000000  0.000000  1
  Ir  Ir29  1  0.623959  0.810638  0.500000  1
  Ir  Ir30  1  0.196097  0.821851  0.500000  1
  Ir  Ir31  1  0.181434  0.368749  0.500000  1
  Ir  Ir32  1  0.374247  0.178149  0.500000  1
  Ir  Ir33  1  0.812684  0.631251  0.500000  1
  Ir  Ir34  1  0.813321  0.189362  0.500000  1
  Ir  Ir35  1  0.997619  0.000000  0.500000  1
