# generated using pymatgen
data_Dy3Y13Cd4(IrPt)2
_symmetry_space_group_name_H-M   'P 1'
_cell_length_a   9.68314815
_cell_length_b   9.69193101
_cell_length_c   9.66148400
_cell_angle_alpha   60.10386504
_cell_angle_beta   60.07398187
_cell_angle_gamma   60.29312627
_symmetry_Int_Tables_number   1
_chemical_formula_structural   Dy3Y13Cd4(IrPt)2
_chemical_formula_sum   'Dy3 Y13 Cd4 Ir2 Pt2'
_cell_volume   643.41851004
_cell_formula_units_Z   1
loop_
 _symmetry_equiv_pos_site_id
 _symmetry_equiv_pos_as_xyz
  1  'x, y, z'
loop_
 _atom_site_type_symbol
 _atom_site_label
 _atom_site_symmetry_multiplicity
 _atom_site_fract_x
 _atom_site_fract_y
 _atom_site_fract_z
 _atom_site_occupancy
  Dy  Dy0  1  0.350328  0.350330  0.346126  1
  Dy  Dy1  1  0.350328  0.350330  0.953217  1
  Dy  Dy2  1  0.355736  0.944733  0.349765  1
  Y  Y3  1  0.942853  0.356395  0.350376  1
  Y  Y4  1  0.806230  0.190561  0.190784  1
  Y  Y5  1  0.190711  0.806218  0.812190  1
  Y  Y6  1  0.190711  0.806218  0.190881  1
  Y  Y7  1  0.806230  0.190561  0.812424  1
  Y  Y8  1  0.191919  0.191845  0.808118  1
  Y  Y9  1  0.810921  0.810979  0.189050  1
  Y  Y10  1  0.938077  0.564586  0.561499  1
  Y  Y11  1  0.564173  0.938111  0.936289  1
  Y  Y12  1  0.564173  0.938111  0.561427  1
  Y  Y13  1  0.938077  0.564586  0.935837  1
  Y  Y14  1  0.563217  0.563522  0.936630  1
  Y  Y15  1  0.937605  0.937185  0.562605  1
  Cd  Cd16  1  0.580881  0.580980  0.582041  1
  Cd  Cd17  1  0.580881  0.580980  0.256100  1
  Cd  Cd18  1  0.580372  0.256160  0.581735  1
  Cd  Cd19  1  0.256329  0.580356  0.581658  1
  Ir  Ir20  1  0.142379  0.572236  0.142693  1
  Ir  Ir21  1  0.571617  0.141492  0.143446  1
  Pt  Pt22  1  0.143126  0.141763  0.144560  1
  Pt  Pt23  1  0.143126  0.141763  0.570552  1
