# generated using pymatgen
data_LiLa2Pr6CdIr2
_symmetry_space_group_name_H-M   'P 1'
_cell_length_a   10.08051497
_cell_length_b   10.08051479
_cell_length_c   10.05581800
_cell_angle_alpha   60.08101075
_cell_angle_beta   60.08101135
_cell_angle_gamma   60.16957882
_symmetry_Int_Tables_number   1
_chemical_formula_structural   LiLa2Pr6CdIr2
_chemical_formula_sum   'Li2 La4 Pr12 Cd2 Ir4'
_cell_volume   724.35823236
_cell_formula_units_Z   2
loop_
 _symmetry_equiv_pos_site_id
 _symmetry_equiv_pos_as_xyz
  1  'x, y, z'
loop_
 _atom_site_type_symbol
 _atom_site_label
 _atom_site_symmetry_multiplicity
 _atom_site_fract_x
 _atom_site_fract_y
 _atom_site_fract_z
 _atom_site_occupancy
  Li  Li0  1  0.571835  0.571835  0.576854  1
  Li  Li1  1  0.571835  0.571835  0.279476  1
  La  La2  1  0.347482  0.347482  0.348248  1
  La  La3  1  0.347482  0.347482  0.956787  1
  La  La4  1  0.346788  0.960694  0.346258  1
  La  La5  1  0.960694  0.346788  0.346258  1
  Pr  Pr6  1  0.812252  0.188210  0.189164  1
  Pr  Pr7  1  0.188210  0.812252  0.810373  1
  Pr  Pr8  1  0.188210  0.812252  0.189164  1
  Pr  Pr9  1  0.812252  0.188210  0.810373  1
  Pr  Pr10  1  0.191187  0.191187  0.808813  1
  Pr  Pr11  1  0.815593  0.815593  0.184407  1
  Pr  Pr12  1  0.937933  0.562349  0.563068  1
  Pr  Pr13  1  0.562349  0.937933  0.936650  1
  Pr  Pr14  1  0.562349  0.937933  0.563068  1
  Pr  Pr15  1  0.937933  0.562349  0.936650  1
  Pr  Pr16  1  0.563139  0.563139  0.936861  1
  Pr  Pr17  1  0.938167  0.938167  0.561833  1
  Cd  Cd18  1  0.582667  0.256871  0.580230  1
  Cd  Cd19  1  0.256871  0.582667  0.580230  1
  Ir  Ir20  1  0.143251  0.143251  0.140890  1
  Ir  Ir21  1  0.143251  0.143251  0.572607  1
  Ir  Ir22  1  0.144529  0.573736  0.140868  1
  Ir  Ir23  1  0.573736  0.144529  0.140868  1
