# generated using pymatgen
data_CsTc2F11
_symmetry_space_group_name_H-M   'P 1'
_cell_length_a   7.72974600
_cell_length_b   9.55131805
_cell_length_c   14.28890300
_cell_angle_alpha   90.00000000
_cell_angle_beta   90.00000000
_cell_angle_gamma   112.93545835
_symmetry_Int_Tables_number   1
_chemical_formula_structural   CsTc2F11
_chemical_formula_sum   'Cs4 Tc8 F44'
_cell_volume   971.54033551
_cell_formula_units_Z   4
loop_
 _symmetry_equiv_pos_site_id
 _symmetry_equiv_pos_as_xyz
  1  'x, y, z'
loop_
 _atom_site_type_symbol
 _atom_site_label
 _atom_site_symmetry_multiplicity
 _atom_site_fract_x
 _atom_site_fract_y
 _atom_site_fract_z
 _atom_site_occupancy
  Cs  Cs0  1  0.982203  0.720351  0.370849  1
  Cs  Cs1  1  0.017797  0.279649  0.629151  1
  Cs  Cs2  1  0.482203  0.220351  0.129151  1
  Cs  Cs3  1  0.517797  0.779649  0.870849  1
  Tc  Tc4  1  0.020755  0.753389  0.050561  1
  Tc  Tc5  1  0.979245  0.246611  0.949439  1
  Tc  Tc6  1  0.520755  0.253389  0.449439  1
  Tc  Tc7  1  0.409441  0.688306  0.195260  1
  Tc  Tc8  1  0.590559  0.311694  0.804740  1
  Tc  Tc9  1  0.090559  0.811694  0.695260  1
  Tc  Tc10  1  0.909441  0.188306  0.304740  1
  Tc  Tc11  1  0.479245  0.746611  0.550561  1
  F  F12  1  0.100879  0.996128  0.644696  1
  F  F13  1  0.933104  0.345796  0.053787  1
  F  F14  1  0.614322  0.659709  0.477257  1
  F  F15  1  0.637840  0.720280  0.257109  1
  F  F16  1  0.362160  0.279720  0.742891  1
  F  F17  1  0.155318  0.645959  0.130277  1
  F  F18  1  0.137840  0.220280  0.242891  1
  F  F19  1  0.772535  0.089043  0.199027  1
  F  F20  1  0.862160  0.779720  0.757109  1
  F  F21  1  0.385678  0.340291  0.522743  1
  F  F22  1  0.227465  0.910957  0.800973  1
  F  F23  1  0.491611  0.640491  0.659566  1
  F  F24  1  0.433104  0.845796  0.446213  1
  F  F25  1  0.600879  0.496128  0.855304  1
  F  F26  1  0.900156  0.371947  0.261907  1
  F  F27  1  0.599844  0.128053  0.761907  1
  F  F28  1  0.566896  0.154204  0.553787  1
  F  F29  1  0.257737  0.911468  0.027083  1
  F  F30  1  0.964847  0.711296  0.586916  1
  F  F31  1  0.727465  0.410957  0.699027  1
  F  F32  1  0.294184  0.091278  0.420746  1
  F  F33  1  0.742263  0.088532  0.972917  1
  F  F34  1  0.991611  0.140491  0.840434  1
  F  F35  1  0.399121  0.503872  0.144696  1
  F  F36  1  0.272535  0.589043  0.300973  1
  F  F37  1  0.655318  0.145959  0.369723  1
  F  F38  1  0.205816  0.408722  0.920746  1
  F  F39  1  0.114322  0.159709  0.022743  1
  F  F40  1  0.899121  0.003872  0.355304  1
  F  F41  1  0.035153  0.288704  0.413084  1
  F  F42  1  0.794184  0.591278  0.079254  1
  F  F43  1  0.400156  0.871947  0.238093  1
  F  F44  1  0.066896  0.654204  0.946213  1
  F  F45  1  0.344682  0.854041  0.630277  1
  F  F46  1  0.099844  0.628053  0.738093  1
  F  F47  1  0.242263  0.588532  0.527083  1
  F  F48  1  0.705816  0.908722  0.579254  1
  F  F49  1  0.757737  0.411468  0.472917  1
  F  F50  1  0.885678  0.840291  0.977257  1
  F  F51  1  0.508389  0.359509  0.340434  1
  F  F52  1  0.008389  0.859509  0.159566  1
  F  F53  1  0.535153  0.788704  0.086916  1
  F  F54  1  0.844682  0.354041  0.869723  1
  F  F55  1  0.464847  0.211296  0.913084  1
