# generated using pymatgen
data_DyHo5Lu10(Ga3Co)2
_symmetry_space_group_name_H-M   'P 1'
_cell_length_a   9.81494600
_cell_length_b   9.82318951
_cell_length_c   6.90788701
_cell_angle_alpha   90.00160541
_cell_angle_beta   90.00000000
_cell_angle_gamma   119.97224374
_symmetry_Int_Tables_number   1
_chemical_formula_structural   DyHo5Lu10(Ga3Co)2
_chemical_formula_sum   'Dy1 Ho5 Lu10 Ga6 Co2'
_cell_volume   576.94935745
_cell_formula_units_Z   1
loop_
 _symmetry_equiv_pos_site_id
 _symmetry_equiv_pos_as_xyz
  1  'x, y, z'
loop_
 _atom_site_type_symbol
 _atom_site_label
 _atom_site_symmetry_multiplicity
 _atom_site_fract_x
 _atom_site_fract_y
 _atom_site_fract_z
 _atom_site_occupancy
  Dy  Dy0  1  0.999927  0.999854  0.731729  1
  Ho  Ho1  1  0.463558  0.927118  0.208461  1
  Ho  Ho2  1  0.535544  0.464478  0.708343  1
  Ho  Ho3  1  0.928935  0.464478  0.708343  1
  Ho  Ho4  1  0.535848  0.071696  0.708713  1
  Ho  Ho5  1  0.000030  0.000061  0.231797  1
  Lu  Lu6  1  0.173613  0.825044  0.511626  1
  Lu  Lu7  1  0.651431  0.825044  0.511626  1
  Lu  Lu8  1  0.174471  0.348943  0.510485  1
  Lu  Lu9  1  0.826863  0.175057  0.013946  1
  Lu  Lu10  1  0.348194  0.175057  0.013946  1
  Lu  Lu11  1  0.825602  0.651205  0.014886  1
  Lu  Lu12  1  0.332769  0.665539  0.826822  1
  Lu  Lu13  1  0.667172  0.334342  0.325588  1
  Lu  Lu14  1  0.462704  0.536928  0.207675  1
  Lu  Lu15  1  0.074224  0.536928  0.207675  1
  Ga  Ga16  1  0.163391  0.835796  0.957176  1
  Ga  Ga17  1  0.672405  0.835796  0.957176  1
  Ga  Ga18  1  0.164359  0.328720  0.958095  1
  Ga  Ga19  1  0.836424  0.163283  0.456401  1
  Ga  Ga20  1  0.326860  0.163283  0.456401  1
  Ga  Ga21  1  0.836493  0.672985  0.455444  1
  Co  Co22  1  0.332522  0.665045  0.445444  1
  Co  Co23  1  0.666660  0.333318  0.947036  1
