# generated using pymatgen
data_Y2Er2Ga18PdRh5
_symmetry_space_group_name_H-M   'P 1'
_cell_length_a   7.58387509
_cell_length_b   7.58753115
_cell_length_c   9.50826508
_cell_angle_alpha   89.99487155
_cell_angle_beta   89.97078508
_cell_angle_gamma   119.80593263
_symmetry_Int_Tables_number   1
_chemical_formula_structural   Y2Er2Ga18PdRh5
_chemical_formula_sum   'Y2 Er2 Ga18 Pd1 Rh5'
_cell_volume   474.75489129
_cell_formula_units_Z   1
loop_
 _symmetry_equiv_pos_site_id
 _symmetry_equiv_pos_as_xyz
  1  'x, y, z'
loop_
 _atom_site_type_symbol
 _atom_site_label
 _atom_site_symmetry_multiplicity
 _atom_site_fract_x
 _atom_site_fract_y
 _atom_site_fract_z
 _atom_site_occupancy
  Y  Y0  1  0.995685  0.668132  0.250856  1
  Y  Y1  1  0.001347  0.329878  0.749214  1
  Er  Er2  1  0.670469  0.998187  0.250978  1
  Er  Er3  1  0.331726  0.004670  0.749010  1
  Ga  Ga4  1  0.126917  0.125521  0.250476  1
  Ga  Ga5  1  0.874466  0.873191  0.749624  1
  Ga  Ga6  1  0.003195  0.334115  0.081163  1
  Ga  Ga7  1  0.004196  0.669401  0.918729  1
  Ga  Ga8  1  0.001342  0.666100  0.579287  1
  Ga  Ga9  1  0.335260  0.999064  0.421373  1
  Ga  Ga10  1  0.999557  0.333932  0.420225  1
  Ga  Ga11  1  0.664541  0.999790  0.578973  1
  Ga  Ga12  1  0.664357  0.995844  0.919459  1
  Ga  Ga13  1  0.332236  0.996440  0.080210  1
  Ga  Ga14  1  0.331866  0.331681  0.563562  1
  Ga  Ga15  1  0.667733  0.668361  0.436456  1
  Ga  Ga16  1  0.667095  0.670833  0.067007  1
  Ga  Ga17  1  0.329425  0.332304  0.932858  1
  Ga  Ga18  1  0.340807  0.549979  0.250691  1
  Ga  Ga19  1  0.659881  0.454666  0.746791  1
  Ga  Ga20  1  0.544993  0.338342  0.252773  1
  Ga  Ga21  1  0.450553  0.660885  0.749302  1
  Pd  Pd22  1  0.672123  0.328655  0.000082  1
  Rh  Rh23  1  0.329011  0.670766  0.000185  1
  Rh  Rh24  1  0.328547  0.671478  0.500213  1
  Rh  Rh25  1  0.672087  0.328107  0.500081  1
  Rh  Rh26  1  0.000420  0.999698  0.000278  1
  Rh  Rh27  1  0.000164  0.999981  0.500143  1
