# generated using pymatgen
data_TbY5Al24PdRu7
_symmetry_space_group_name_H-M   'P 1'
_cell_length_a   8.83231685
_cell_length_b   8.82949751
_cell_length_c   9.56833218
_cell_angle_alpha   89.86598035
_cell_angle_beta   90.13047462
_cell_angle_gamma   119.73947954
_symmetry_Int_Tables_number   1
_chemical_formula_structural   TbY5Al24PdRu7
_chemical_formula_sum   'Tb1 Y5 Al24 Pd1 Ru7'
_cell_volume   647.90313537
_cell_formula_units_Z   1
loop_
 _symmetry_equiv_pos_site_id
 _symmetry_equiv_pos_as_xyz
  1  'x, y, z'
loop_
 _atom_site_type_symbol
 _atom_site_label
 _atom_site_symmetry_multiplicity
 _atom_site_fract_x
 _atom_site_fract_y
 _atom_site_fract_z
 _atom_site_occupancy
  Tb  Tb0  1  0.190994  0.385773  0.750411  1
  Y  Y1  1  0.385901  0.191079  0.249646  1
  Y  Y2  1  0.806114  0.193890  0.247877  1
  Y  Y3  1  0.808925  0.614169  0.249622  1
  Y  Y4  1  0.613959  0.808812  0.750382  1
  Y  Y5  1  0.193930  0.805980  0.752064  1
  Al  Al6  1  0.439413  0.878117  0.251259  1
  Al  Al7  1  0.121823  0.560584  0.251248  1
  Al  Al8  1  0.438437  0.561639  0.247764  1
  Al  Al9  1  0.560552  0.121831  0.748741  1
  Al  Al10  1  0.877802  0.439410  0.748708  1
  Al  Al11  1  0.561869  0.438315  0.752261  1
  Al  Al12  1  0.162870  0.837258  0.422936  1
  Al  Al13  1  0.156158  0.322984  0.421084  1
  Al  Al14  1  0.677010  0.843877  0.421154  1
  Al  Al15  1  0.837087  0.162712  0.577047  1
  Al  Al16  1  0.843848  0.676995  0.578796  1
  Al  Al17  1  0.322970  0.156104  0.578842  1
  Al  Al18  1  0.837164  0.162581  0.921606  1
  Al  Al19  1  0.836940  0.675706  0.922115  1
  Al  Al20  1  0.324261  0.162910  0.922067  1
  Al  Al21  1  0.162773  0.837362  0.078424  1
  Al  Al22  1  0.163080  0.324255  0.078031  1
  Al  Al23  1  0.675744  0.837038  0.077952  1
  Al  Al24  1  0.330315  0.669855  0.519211  1
  Al  Al25  1  0.669740  0.330278  0.480769  1
  Al  Al26  1  0.666589  0.333423  0.015439  1
  Al  Al27  1  0.333509  0.666716  0.984593  1
  Al  Al28  1  0.000746  0.999365  0.250008  1
  Al  Al29  1  0.999325  0.000815  0.750023  1
  Pd  Pd30  1  0.500089  0.500049  0.499914  1
  Ru  Ru31  1  0.999942  0.999907  0.499931  1
  Ru  Ru32  1  0.999948  0.999876  0.000090  1
  Ru  Ru33  1  0.500026  0.000082  0.499969  1
  Ru  Ru34  1  0.999951  0.500058  0.499935  1
  Ru  Ru35  1  0.500054  0.000123  0.000053  1
  Ru  Ru36  1  0.000006  0.500016  0.999980  1
  Ru  Ru37  1  0.500134  0.500054  0.000048  1
