# generated using pymatgen
data_HfZn2Cu2Pd
_symmetry_space_group_name_H-M   'P 1'
_cell_length_a   4.95982794
_cell_length_b   4.94703905
_cell_length_c   4.94703969
_cell_angle_alpha   60.35226217
_cell_angle_beta   59.91443299
_cell_angle_gamma   59.91443971
_symmetry_Int_Tables_number   1
_chemical_formula_structural   HfZn2Cu2Pd
_chemical_formula_sum   'Hf1 Zn2 Cu2 Pd1'
_cell_volume   85.94474050
_cell_formula_units_Z   1
loop_
 _symmetry_equiv_pos_site_id
 _symmetry_equiv_pos_as_xyz
  1  'x, y, z'
loop_
 _atom_site_type_symbol
 _atom_site_label
 _atom_site_symmetry_multiplicity
 _atom_site_fract_x
 _atom_site_fract_y
 _atom_site_fract_z
 _atom_site_occupancy
  Hf  Hf0  1  0.003240  0.996760  0.996760  1
  Zn  Zn1  1  0.622886  0.624435  0.129793  1
  Zn  Zn2  1  0.622886  0.129793  0.624435  1
  Cu  Cu3  1  0.123458  0.626132  0.626132  1
  Cu  Cu4  1  0.624278  0.626132  0.626132  1
  Pd  Pd5  1  0.253251  0.246749  0.246749  1
