# generated using pymatgen
data_FeMo3P8(PbO8)4
_symmetry_space_group_name_H-M   'P 1'
_cell_length_a   6.63387276
_cell_length_b   10.21392424
_cell_length_c   10.16435678
_cell_angle_alpha   90.02524459
_cell_angle_beta   98.37001154
_cell_angle_gamma   98.40467535
_symmetry_Int_Tables_number   1
_chemical_formula_structural   FeMo3P8(PbO8)4
_chemical_formula_sum   'Fe1 Mo3 P8 Pb4 O32'
_cell_volume   673.89576625
_cell_formula_units_Z   1
loop_
 _symmetry_equiv_pos_site_id
 _symmetry_equiv_pos_as_xyz
  1  'x, y, z'
loop_
 _atom_site_type_symbol
 _atom_site_label
 _atom_site_symmetry_multiplicity
 _atom_site_fract_x
 _atom_site_fract_y
 _atom_site_fract_z
 _atom_site_occupancy
  Fe  Fe0  1  0.181652  0.714879  0.001864  1
  Mo  Mo1  1  0.313531  0.987814  0.272397  1
  Mo  Mo2  1  0.685999  0.005745  0.727467  1
  Mo  Mo3  1  0.815184  0.278027  0.992546  1
  P  P4  1  0.303063  0.207377  0.015195  1
  P  P5  1  0.802921  0.015466  0.206476  1
  P  P6  1  0.037306  0.511349  0.235983  1
  P  P7  1  0.464204  0.762928  0.492910  1
  P  P8  1  0.537460  0.237187  0.505182  1
  P  P9  1  0.965322  0.494422  0.762528  1
  P  P10  1  0.197400  0.978598  0.796199  1
  P  P11  1  0.697643  0.788353  0.987331  1
  Pb  Pb12  1  0.538603  0.495795  0.253917  1
  Pb  Pb13  1  0.036783  0.264790  0.487056  1
  Pb  Pb14  1  0.955855  0.737252  0.509972  1
  Pb  Pb15  1  0.453954  0.508923  0.739244  1
  O  O16  1  0.880982  0.713970  0.017094  1
  O  O17  1  0.500051  0.708502  0.023581  1
  O  O18  1  0.749861  0.923690  0.077816  1
  O  O19  1  0.257317  0.880937  0.132449  1
  O  O20  1  0.865165  0.429174  0.133491  1
  O  O21  1  0.329981  0.154965  0.156798  1
  O  O22  1  0.830607  0.157239  0.158789  1
  O  O23  1  0.192596  0.599959  0.161139  1
  O  O24  1  0.627309  0.987475  0.290226  1
  O  O25  1  0.000962  0.982951  0.292022  1
  O  O26  1  0.915967  0.590777  0.319264  1
  O  O27  1  0.165559  0.421390  0.325447  1
  O  O28  1  0.304493  0.839653  0.405775  1
  O  O29  1  0.580542  0.682317  0.408589  1
  O  O30  1  0.661522  0.328036  0.414506  1
  O  O31  1  0.374420  0.128664  0.421919  1
  O  O32  1  0.632829  0.866948  0.571509  1
  O  O33  1  0.333125  0.673994  0.580946  1
  O  O34  1  0.410964  0.315380  0.585337  1
  O  O35  1  0.696553  0.165800  0.594475  1
  O  O36  1  0.834369  0.582016  0.672429  1
  O  O37  1  0.079366  0.409584  0.679432  1
  O  O38  1  0.999697  0.010527  0.710749  1
  O  O39  1  0.372619  0.006946  0.712396  1
  O  O40  1  0.805905  0.408941  0.839711  1
  O  O41  1  0.173540  0.840934  0.851699  1
  O  O42  1  0.667932  0.837508  0.845156  1
  O  O43  1  0.138985  0.572817  0.863837  1
  O  O44  1  0.750695  0.129319  0.873065  1
  O  O45  1  0.251174  0.078214  0.921647  1
  O  O46  1  0.498404  0.292698  0.983558  1
  O  O47  1  0.129642  0.289769  0.988882  1
