# generated using pymatgen
data_Ho2Tm6Sc12Si15Au
_symmetry_space_group_name_H-M   'P 1'
_cell_length_a   7.07959475
_cell_length_b   7.34081746
_cell_length_c   13.98869593
_cell_angle_alpha   89.97151097
_cell_angle_beta   89.66909151
_cell_angle_gamma   90.18906661
_symmetry_Int_Tables_number   1
_chemical_formula_structural   Ho2Tm6Sc12Si15Au
_chemical_formula_sum   'Ho2 Tm6 Sc12 Si15 Au1'
_cell_volume   726.97652629
_cell_formula_units_Z   1
loop_
 _symmetry_equiv_pos_site_id
 _symmetry_equiv_pos_as_xyz
  1  'x, y, z'
loop_
 _atom_site_type_symbol
 _atom_site_label
 _atom_site_symmetry_multiplicity
 _atom_site_fract_x
 _atom_site_fract_y
 _atom_site_fract_z
 _atom_site_occupancy
  Ho  Ho0  1  0.012382  0.175958  0.097096  1
  Ho  Ho1  1  0.987452  0.824622  0.903907  1
  Tm  Tm2  1  0.487278  0.677501  0.903533  1
  Tm  Tm3  1  0.988309  0.826776  0.597639  1
  Tm  Tm4  1  0.512016  0.323074  0.096460  1
  Tm  Tm5  1  0.010799  0.174995  0.400040  1
  Tm  Tm6  1  0.509455  0.324013  0.401346  1
  Tm  Tm7  1  0.490799  0.676398  0.598658  1
  Sc  Sc8  1  0.162988  0.502253  0.750977  1
  Sc  Sc9  1  0.837298  0.497688  0.250875  1
  Sc  Sc10  1  0.338154  0.001561  0.249436  1
  Sc  Sc11  1  0.663589  0.995411  0.750678  1
  Sc  Sc12  1  0.338113  0.176166  0.625641  1
  Sc  Sc13  1  0.666502  0.823461  0.373662  1
  Sc  Sc14  1  0.168964  0.673498  0.373400  1
  Sc  Sc15  1  0.669893  0.823935  0.125337  1
  Sc  Sc16  1  0.828574  0.325696  0.625391  1
  Sc  Sc17  1  0.329044  0.175591  0.875822  1
  Sc  Sc18  1  0.830136  0.322893  0.875781  1
  Sc  Sc19  1  0.169463  0.676510  0.125179  1
  Si  Si20  1  0.034672  0.117108  0.750522  1
  Si  Si21  1  0.966862  0.885891  0.249403  1
  Si  Si22  1  0.466945  0.613357  0.248407  1
  Si  Si23  1  0.534482  0.386815  0.752261  1
  Si  Si24  1  0.285061  0.871981  0.750605  1
  Si  Si25  1  0.713194  0.129952  0.249229  1
  Si  Si26  1  0.215001  0.369206  0.248140  1
  Si  Si27  1  0.786487  0.629078  0.752415  1
  Si  Si28  1  0.833911  0.536231  0.459533  1
  Si  Si29  1  0.339484  0.963945  0.460050  1
  Si  Si30  1  0.841986  0.534986  0.039007  1
  Si  Si31  1  0.659331  0.035358  0.537923  1
  Si  Si32  1  0.157575  0.464857  0.961612  1
  Si  Si33  1  0.657402  0.034667  0.961182  1
  Si  Si34  1  0.342763  0.964608  0.039247  1
  Au  Au35  1  0.163638  0.463962  0.539605  1
