# generated using pymatgen
data_Eu4Nb3SbO14
_symmetry_space_group_name_H-M   'P 1'
_cell_length_a   7.73946680
_cell_length_b   7.72396713
_cell_length_c   7.72396600
_cell_angle_alpha   60.00000486
_cell_angle_beta   60.06623085
_cell_angle_gamma   60.06622395
_symmetry_Int_Tables_number   1
_chemical_formula_structural   Eu4Nb3SbO14
_chemical_formula_sum   'Eu4 Nb3 Sb1 O14'
_cell_volume   326.82167116
_cell_formula_units_Z   1
loop_
 _symmetry_equiv_pos_site_id
 _symmetry_equiv_pos_as_xyz
  1  'x, y, z'
loop_
 _atom_site_type_symbol
 _atom_site_label
 _atom_site_symmetry_multiplicity
 _atom_site_fract_x
 _atom_site_fract_y
 _atom_site_fract_z
 _atom_site_occupancy
  Eu  Eu0  1  0.625000  0.125000  0.125000  1
  Eu  Eu1  1  0.125000  0.625000  0.125000  1
  Eu  Eu2  1  0.125000  0.125000  0.625000  1
  Eu  Eu3  1  0.125000  0.125000  0.125000  1
  Nb  Nb4  1  0.625000  0.125000  0.625000  1
  Nb  Nb5  1  0.625000  0.625000  0.125000  1
  Nb  Nb6  1  0.625000  0.625000  0.625000  1
  Sb  Sb7  1  0.125000  0.625000  0.625000  1
  O  O8  1  0.255106  0.248298  0.248298  1
  O  O9  1  0.994894  0.001702  0.001702  1
  O  O10  1  0.666336  0.701224  0.316220  1
  O  O11  1  0.307954  0.265788  0.713129  1
  O  O12  1  0.666336  0.316220  0.701224  1
  O  O13  1  0.307954  0.713129  0.265788  1
  O  O14  1  0.307954  0.713129  0.713129  1
  O  O15  1  0.666336  0.316220  0.316220  1
  O  O16  1  0.583664  0.548776  0.933780  1
  O  O17  1  0.942046  0.984212  0.536871  1
  O  O18  1  0.583664  0.933780  0.548776  1
  O  O19  1  0.942046  0.536871  0.984212  1
  O  O20  1  0.942046  0.536871  0.536871  1
  O  O21  1  0.583664  0.933780  0.933780  1
