# generated using pymatgen
data_Nd6Si2Hg
_symmetry_space_group_name_H-M   'P 1'
_cell_length_a   8.75467295
_cell_length_b   8.75465332
_cell_length_c   8.75467400
_cell_angle_alpha   111.61695181
_cell_angle_beta   110.71489117
_cell_angle_gamma   106.13394392
_symmetry_Int_Tables_number   1
_chemical_formula_structural   Nd6Si2Hg
_chemical_formula_sum   'Nd12 Si4 Hg2'
_cell_volume   515.19262223
_cell_formula_units_Z   2
loop_
 _symmetry_equiv_pos_site_id
 _symmetry_equiv_pos_as_xyz
  1  'x, y, z'
loop_
 _atom_site_type_symbol
 _atom_site_label
 _atom_site_symmetry_multiplicity
 _atom_site_fract_x
 _atom_site_fract_y
 _atom_site_fract_z
 _atom_site_occupancy
  Nd  Nd0  1  0.446342  0.244734  0.201599  1
  Nd  Nd1  1  0.553658  0.755266  0.798401  1
  Nd  Nd2  1  0.043135  0.244734  0.798391  1
  Nd  Nd3  1  0.956865  0.755266  0.201609  1
  Nd  Nd4  1  0.180967  0.274103  0.455065  1
  Nd  Nd5  1  0.819033  0.725897  0.544935  1
  Nd  Nd6  1  0.180960  0.725897  0.906864  1
  Nd  Nd7  1  0.819040  0.274103  0.093136  1
  Nd  Nd8  1  0.322793  0.618423  0.295631  1
  Nd  Nd9  1  0.677207  0.381577  0.704369  1
  Nd  Nd10  1  0.322790  0.027158  0.704368  1
  Nd  Nd11  1  0.677210  0.972842  0.295632  1
  Si  Si12  1  0.367538  0.000000  0.367538  1
  Si  Si13  1  0.632462  0.000000  0.632462  1
  Si  Si14  1  0.114017  0.614018  0.500001  1
  Si  Si15  1  0.885983  0.385982  0.499999  1
  Hg  Hg16  1  0.500000  0.500000  0.000000  1
  Hg  Hg17  1  0.000000  0.000000  0.000000  1
