# generated using pymatgen
data_Ta3Fe2OsN
_symmetry_space_group_name_H-M   'P 1'
_cell_length_a   8.09297447
_cell_length_b   8.09298368
_cell_length_c   8.09299000
_cell_angle_alpha   59.99997418
_cell_angle_beta   59.99993652
_cell_angle_gamma   60.00044175
_symmetry_Int_Tables_number   1
_chemical_formula_structural   Ta3Fe2OsN
_chemical_formula_sum   'Ta12 Fe8 Os4 N4'
_cell_volume   374.81071491
_cell_formula_units_Z   4
loop_
 _symmetry_equiv_pos_site_id
 _symmetry_equiv_pos_as_xyz
  1  'x, y, z'
loop_
 _atom_site_type_symbol
 _atom_site_label
 _atom_site_symmetry_multiplicity
 _atom_site_fract_x
 _atom_site_fract_y
 _atom_site_fract_z
 _atom_site_occupancy
  Ta  Ta0  1  0.804441  0.804438  0.195560  1
  Ta  Ta1  1  0.195557  0.195568  0.804437  1
  Ta  Ta2  1  0.804440  0.195562  0.804440  1
  Ta  Ta3  1  0.195559  0.804437  0.195566  1
  Ta  Ta4  1  0.195559  0.804437  0.804439  1
  Ta  Ta5  1  0.804440  0.195562  0.195557  1
  Ta  Ta6  1  0.445559  0.445562  0.054440  1
  Ta  Ta7  1  0.054443  0.054432  0.445563  1
  Ta  Ta8  1  0.445560  0.054438  0.445560  1
  Ta  Ta9  1  0.054441  0.445563  0.054434  1
  Ta  Ta10  1  0.054441  0.445563  0.445561  1
  Ta  Ta11  1  0.445560  0.054438  0.054443  1
  Fe  Fe12  1  0.730978  0.423012  0.423005  1
  Fe  Fe13  1  0.423003  0.730982  0.423008  1
  Fe  Fe14  1  0.423000  0.423010  0.730984  1
  Fe  Fe15  1  0.423000  0.423010  0.423006  1
  Fe  Fe16  1  0.519022  0.826988  0.826995  1
  Fe  Fe17  1  0.826997  0.519018  0.826992  1
  Fe  Fe18  1  0.827000  0.826990  0.519016  1
  Fe  Fe19  1  0.827000  0.826990  0.826994  1
  Os  Os20  1  0.125000  0.625000  0.625000  1
  Os  Os21  1  0.625000  0.125000  0.625000  1
  Os  Os22  1  0.625000  0.625000  0.125000  1
  Os  Os23  1  0.625000  0.625000  0.625000  1
  N  N24  1  0.625000  0.125000  0.125000  1
  N  N25  1  0.125000  0.625000  0.125000  1
  N  N26  1  0.125000  0.125000  0.625000  1
  N  N27  1  0.125000  0.125000  0.125000  1
