# generated using pymatgen
data_Tb3Tm(ZnIr)4
_symmetry_space_group_name_H-M   'P 1'
_cell_length_a   4.02848900
_cell_length_b   7.02952504
_cell_length_c   8.14695244
_cell_angle_alpha   90.23330210
_cell_angle_beta   90.00000000
_cell_angle_gamma   90.00000000
_symmetry_Int_Tables_number   1
_chemical_formula_structural   Tb3Tm(ZnIr)4
_chemical_formula_sum   'Tb3 Tm1 Zn4 Ir4'
_cell_volume   230.70645438
_cell_formula_units_Z   1
loop_
 _symmetry_equiv_pos_site_id
 _symmetry_equiv_pos_as_xyz
  1  'x, y, z'
loop_
 _atom_site_type_symbol
 _atom_site_label
 _atom_site_symmetry_multiplicity
 _atom_site_fract_x
 _atom_site_fract_y
 _atom_site_fract_z
 _atom_site_occupancy
  Tb  Tb0  1  0.750000  0.460988  0.182387  1
  Tb  Tb1  1  0.750000  0.961665  0.319110  1
  Tb  Tb2  1  0.250000  0.538093  0.816721  1
  Tm  Tm3  1  0.250000  0.039251  0.681407  1
  Zn  Zn4  1  0.750000  0.865281  0.933860  1
  Zn  Zn5  1  0.750000  0.364314  0.566298  1
  Zn  Zn6  1  0.250000  0.135028  0.064216  1
  Zn  Zn7  1  0.250000  0.636613  0.435864  1
  Ir  Ir8  1  0.750000  0.239560  0.873753  1
  Ir  Ir9  1  0.750000  0.745993  0.624295  1
  Ir  Ir10  1  0.250000  0.756576  0.124009  1
  Ir  Ir11  1  0.250000  0.256636  0.378080  1
