# generated using pymatgen
data_Ho16MgCo2Ni2Hg3
_symmetry_space_group_name_H-M   'P 1'
_cell_length_a   9.44980912
_cell_length_b   9.45385954
_cell_length_c   9.47281100
_cell_angle_alpha   59.93367579
_cell_angle_beta   59.91945808
_cell_angle_gamma   59.96492463
_symmetry_Int_Tables_number   1
_chemical_formula_structural   Ho16MgCo2Ni2Hg3
_chemical_formula_sum   'Ho16 Mg1 Co2 Ni2 Hg3'
_cell_volume   597.58282823
_cell_formula_units_Z   1
loop_
 _symmetry_equiv_pos_site_id
 _symmetry_equiv_pos_as_xyz
  1  'x, y, z'
loop_
 _atom_site_type_symbol
 _atom_site_label
 _atom_site_symmetry_multiplicity
 _atom_site_fract_x
 _atom_site_fract_y
 _atom_site_fract_z
 _atom_site_occupancy
  Ho  Ho0  1  0.346994  0.345768  0.348743  1
  Ho  Ho1  1  0.346994  0.345768  0.958493  1
  Ho  Ho2  1  0.346185  0.958698  0.347558  1
  Ho  Ho3  1  0.951401  0.347985  0.350306  1
  Ho  Ho4  1  0.812470  0.189433  0.190997  1
  Ho  Ho5  1  0.184510  0.816209  0.810152  1
  Ho  Ho6  1  0.184510  0.816209  0.189128  1
  Ho  Ho7  1  0.812470  0.189433  0.807100  1
  Ho  Ho8  1  0.185194  0.188530  0.813137  1
  Ho  Ho9  1  0.808746  0.809658  0.190798  1
  Ho  Ho10  1  0.936073  0.562105  0.565252  1
  Ho  Ho11  1  0.559656  0.938007  0.937205  1
  Ho  Ho12  1  0.559657  0.938007  0.565131  1
  Ho  Ho13  1  0.936073  0.562105  0.936568  1
  Ho  Ho14  1  0.561907  0.564238  0.936927  1
  Ho  Ho15  1  0.936752  0.938375  0.562436  1
  Mg  Mg16  1  0.283702  0.571527  0.572386  1
  Co  Co17  1  0.140504  0.143208  0.142310  1
  Co  Co18  1  0.140504  0.143208  0.573977  1
  Ni  Ni19  1  0.140667  0.574386  0.142473  1
  Ni  Ni20  1  0.574801  0.142345  0.141427  1
  Hg  Hg21  1  0.583303  0.585389  0.585789  1
  Hg  Hg22  1  0.583303  0.585389  0.245519  1
  Hg  Hg23  1  0.583621  0.244018  0.586180  1
