# generated using pymatgen
data_PrSn3BRh6
_symmetry_space_group_name_H-M   'P 1'
_cell_length_a   5.79886700
_cell_length_b   5.79886663
_cell_length_c   13.66477800
_cell_angle_alpha   90.00000000
_cell_angle_beta   90.00000000
_cell_angle_gamma   119.99999639
_symmetry_Int_Tables_number   1
_chemical_formula_structural   PrSn3BRh6
_chemical_formula_sum   'Pr2 Sn6 B2 Rh12'
_cell_volume   397.94174193
_cell_formula_units_Z   2
loop_
 _symmetry_equiv_pos_site_id
 _symmetry_equiv_pos_as_xyz
  1  'x, y, z'
loop_
 _atom_site_type_symbol
 _atom_site_label
 _atom_site_symmetry_multiplicity
 _atom_site_fract_x
 _atom_site_fract_y
 _atom_site_fract_z
 _atom_site_occupancy
  Pr  Pr0  1  0.333333  0.666667  0.394373  1
  Pr  Pr1  1  0.666667  0.333333  0.894373  1
  Sn  Sn2  1  0.000000  0.000000  0.752312  1
  Sn  Sn3  1  0.000000  0.000000  0.252312  1
  Sn  Sn4  1  0.333333  0.666667  0.754577  1
  Sn  Sn5  1  0.666667  0.333333  0.254577  1
  Sn  Sn6  1  0.666667  0.333333  0.574193  1
  Sn  Sn7  1  0.333333  0.666667  0.074193  1
  B  B8  1  0.000000  0.000000  0.504903  1
  B  B9  1  0.000000  0.000000  0.004903  1
  Rh  Rh10  1  0.334371  0.167186  0.411336  1
  Rh  Rh11  1  0.832814  0.167186  0.411336  1
  Rh  Rh12  1  0.832814  0.665629  0.411336  1
  Rh  Rh13  1  0.167186  0.334371  0.911336  1
  Rh  Rh14  1  0.660913  0.830456  0.595211  1
  Rh  Rh15  1  0.665629  0.832814  0.911336  1
  Rh  Rh16  1  0.339087  0.169544  0.095211  1
  Rh  Rh17  1  0.169544  0.339087  0.595211  1
  Rh  Rh18  1  0.169544  0.830456  0.595211  1
  Rh  Rh19  1  0.830456  0.169544  0.095211  1
  Rh  Rh20  1  0.830456  0.660913  0.095211  1
  Rh  Rh21  1  0.167186  0.832814  0.911336  1
