# generated using pymatgen
data_Cs2BeCrS4
_symmetry_space_group_name_H-M   'P 1'
_cell_length_a   14.12217108
_cell_length_b   12.66169997
_cell_length_c   7.38945500
_cell_angle_alpha   85.25263669
_cell_angle_beta   63.31734574
_cell_angle_gamma   31.43002404
_symmetry_Int_Tables_number   1
_chemical_formula_structural   Cs2BeCrS4
_chemical_formula_sum   'Cs4 Be2 Cr2 S8'
_cell_volume   470.59172954
_cell_formula_units_Z   2
loop_
 _symmetry_equiv_pos_site_id
 _symmetry_equiv_pos_as_xyz
  1  'x, y, z'
loop_
 _atom_site_type_symbol
 _atom_site_label
 _atom_site_symmetry_multiplicity
 _atom_site_fract_x
 _atom_site_fract_y
 _atom_site_fract_z
 _atom_site_occupancy
  Cs  Cs0  1  0.677528  0.677528  0.322472  1
  Cs  Cs1  1  0.322472  0.322472  0.677528  1
  Cs  Cs2  1  0.572472  0.572472  0.927528  1
  Cs  Cs3  1  0.927528  0.927528  0.572472  1
  Be  Be4  1  0.500000  0.500000  0.500000  1
  Be  Be5  1  0.750000  0.750000  0.750000  1
  Cr  Cr6  1  0.000000  0.000000  0.000000  1
  Cr  Cr7  1  0.250000  0.250000  0.250000  1
  S  S8  1  0.374774  0.030405  0.954461  1
  S  S9  1  0.640358  0.954461  0.030405  1
  S  S10  1  0.954461  0.640358  0.374774  1
  S  S11  1  0.030405  0.374774  0.640358  1
  S  S12  1  0.875226  0.219595  0.295539  1
  S  S13  1  0.609642  0.295539  0.219595  1
  S  S14  1  0.295539  0.609642  0.875226  1
  S  S15  1  0.219595  0.875226  0.609642  1
