# generated using pymatgen
data_TbTm7(InPt)2
_symmetry_space_group_name_H-M   'P 1'
_cell_length_a   9.61444229
_cell_length_b   9.61444184
_cell_length_c   9.60209000
_cell_angle_alpha   60.04248902
_cell_angle_beta   60.04249056
_cell_angle_gamma   59.91501813
_symmetry_Int_Tables_number   1
_chemical_formula_structural   TbTm7(InPt)2
_chemical_formula_sum   'Tb2 Tm14 In4 Pt4'
_cell_volume   627.62106085
_cell_formula_units_Z   2
loop_
 _symmetry_equiv_pos_site_id
 _symmetry_equiv_pos_as_xyz
  1  'x, y, z'
loop_
 _atom_site_type_symbol
 _atom_site_label
 _atom_site_symmetry_multiplicity
 _atom_site_fract_x
 _atom_site_fract_y
 _atom_site_fract_z
 _atom_site_occupancy
  Tb  Tb0  1  0.564560  0.564560  0.935440  1
  Tb  Tb1  1  0.935440  0.935440  0.564560  1
  Tm  Tm2  1  0.351310  0.351310  0.350622  1
  Tm  Tm3  1  0.351310  0.351310  0.946759  1
  Tm  Tm4  1  0.350622  0.946759  0.351310  1
  Tm  Tm5  1  0.946759  0.350622  0.351310  1
  Tm  Tm6  1  0.810461  0.189539  0.189539  1
  Tm  Tm7  1  0.189539  0.810461  0.810461  1
  Tm  Tm8  1  0.189539  0.810461  0.189539  1
  Tm  Tm9  1  0.810461  0.189539  0.810461  1
  Tm  Tm10  1  0.189526  0.189526  0.810474  1
  Tm  Tm11  1  0.810474  0.810474  0.189526  1
  Tm  Tm12  1  0.938802  0.561198  0.561198  1
  Tm  Tm13  1  0.561198  0.938802  0.938802  1
  Tm  Tm14  1  0.561198  0.938802  0.561198  1
  Tm  Tm15  1  0.938802  0.561198  0.938802  1
  In  In16  1  0.583659  0.583659  0.582045  1
  In  In17  1  0.583659  0.583659  0.250637  1
  In  In18  1  0.582045  0.250637  0.583659  1
  In  In19  1  0.250637  0.582045  0.583659  1
  Pt  Pt20  1  0.143426  0.143426  0.141717  1
  Pt  Pt21  1  0.143426  0.143426  0.571433  1
  Pt  Pt22  1  0.141717  0.571433  0.143426  1
  Pt  Pt23  1  0.571433  0.141717  0.143426  1
