# generated using pymatgen
data_HoTmTa4(B2Ru5)2
_symmetry_space_group_name_H-M   'P 1'
_cell_length_a   9.54177394
_cell_length_b   9.54177430
_cell_length_c   3.08990000
_cell_angle_alpha   90.00000000
_cell_angle_beta   90.00000000
_cell_angle_gamma   90.53242159
_symmetry_Int_Tables_number   1
_chemical_formula_structural   HoTmTa4(B2Ru5)2
_chemical_formula_sum   'Ho1 Tm1 Ta4 B4 Ru10'
_cell_volume   281.30920047
_cell_formula_units_Z   1
loop_
 _symmetry_equiv_pos_site_id
 _symmetry_equiv_pos_as_xyz
  1  'x, y, z'
loop_
 _atom_site_type_symbol
 _atom_site_label
 _atom_site_symmetry_multiplicity
 _atom_site_fract_x
 _atom_site_fract_y
 _atom_site_fract_z
 _atom_site_occupancy
  Ho  Ho0  1  0.823973  0.676027  0.000000  1
  Tm  Tm1  1  0.176318  0.323682  0.000000  1
  Ta  Ta2  1  0.323629  0.823723  0.000000  1
  Ta  Ta3  1  0.676277  0.176371  0.000000  1
  Ta  Ta4  1  0.499593  0.499839  0.000000  1
  Ta  Ta5  1  0.000161  0.000407  0.000000  1
  B  B6  1  0.620319  0.879681  0.000000  1
  B  B7  1  0.379048  0.120952  0.000000  1
  B  B8  1  0.121181  0.620626  0.000000  1
  B  B9  1  0.879374  0.378819  0.000000  1
  Ru  Ru10  1  0.559053  0.723199  0.500000  1
  Ru  Ru11  1  0.440067  0.277241  0.500000  1
  Ru  Ru12  1  0.081605  0.785455  0.500000  1
  Ru  Ru13  1  0.919364  0.214635  0.500000  1
  Ru  Ru14  1  0.285365  0.580636  0.500000  1
  Ru  Ru15  1  0.714545  0.418395  0.500000  1
  Ru  Ru16  1  0.222759  0.059933  0.500000  1
  Ru  Ru17  1  0.776801  0.940947  0.500000  1
  Ru  Ru18  1  0.499762  0.000238  0.500000  1
  Ru  Ru19  1  0.000808  0.499192  0.500000  1
