# generated using pymatgen
data_NdGa2Ir2Pt
_symmetry_space_group_name_H-M   'P 1'
_cell_length_a   5.64775961
_cell_length_b   5.64775916
_cell_length_c   3.90096200
_cell_angle_alpha   90.00000000
_cell_angle_beta   90.00000000
_cell_angle_gamma   119.38777656
_symmetry_Int_Tables_number   1
_chemical_formula_structural   NdGa2Ir2Pt
_chemical_formula_sum   'Nd1 Ga2 Ir2 Pt1'
_cell_volume   108.41791134
_cell_formula_units_Z   1
loop_
 _symmetry_equiv_pos_site_id
 _symmetry_equiv_pos_as_xyz
  1  'x, y, z'
loop_
 _atom_site_type_symbol
 _atom_site_label
 _atom_site_symmetry_multiplicity
 _atom_site_fract_x
 _atom_site_fract_y
 _atom_site_fract_z
 _atom_site_occupancy
  Nd  Nd0  1  0.000000  0.000000  0.000000  1
  Ga  Ga1  1  0.671125  0.328875  0.000000  1
  Ga  Ga2  1  0.328875  0.671125  0.000000  1
  Ir  Ir3  1  0.500000  0.000000  0.500000  1
  Ir  Ir4  1  0.000000  0.500000  0.500000  1
  Pt  Pt5  1  0.500000  0.500000  0.500000  1
