# generated using pymatgen
data_PuReF7
_symmetry_space_group_name_H-M   'P 1'
_cell_length_a   5.75451200
_cell_length_b   6.14243263
_cell_length_c   8.30026300
_cell_angle_alpha   77.61514004
_cell_angle_beta   90.00000000
_cell_angle_gamma   90.00000000
_symmetry_Int_Tables_number   1
_chemical_formula_structural   PuReF7
_chemical_formula_sum   'Pu2 Re2 F14'
_cell_volume   286.55951413
_cell_formula_units_Z   2
loop_
 _symmetry_equiv_pos_site_id
 _symmetry_equiv_pos_as_xyz
  1  'x, y, z'
loop_
 _atom_site_type_symbol
 _atom_site_label
 _atom_site_symmetry_multiplicity
 _atom_site_fract_x
 _atom_site_fract_y
 _atom_site_fract_z
 _atom_site_occupancy
  Pu  Pu0  1  0.201494  0.663719  0.312399  1
  Pu  Pu1  1  0.701494  0.336281  0.687601  1
  Re  Re2  1  0.210491  0.808413  0.776608  1
  Re  Re3  1  0.710491  0.191587  0.223392  1
  F  F4  1  0.384394  0.437369  0.523094  1
  F  F5  1  0.884394  0.562631  0.476906  1
  F  F6  1  0.926663  0.941559  0.222553  1
  F  F7  1  0.426663  0.058441  0.777447  1
  F  F8  1  0.450314  0.976363  0.237269  1
  F  F9  1  0.950314  0.023637  0.762731  1
  F  F10  1  0.497154  0.447831  0.207480  1
  F  F11  1  0.997154  0.552169  0.792520  1
  F  F12  1  0.206021  0.759709  0.018237  1
  F  F13  1  0.706021  0.240291  0.981763  1
  F  F14  1  0.216579  0.868218  0.531619  1
  F  F15  1  0.716579  0.131782  0.468381  1
  F  F16  1  0.983252  0.391506  0.211508  1
  F  F17  1  0.483252  0.608494  0.788492  1
