# generated using pymatgen
data_Tb3Ce2Tm3(CdRu)2
_symmetry_space_group_name_H-M   'P 1'
_cell_length_a   9.59388427
_cell_length_b   9.59388418
_cell_length_c   9.59388400
_cell_angle_alpha   59.99999371
_cell_angle_beta   59.99999404
_cell_angle_gamma   59.99999371
_symmetry_Int_Tables_number   1
_chemical_formula_structural   Tb3Ce2Tm3(CdRu)2
_chemical_formula_sum   'Tb6 Ce4 Tm6 Cd4 Ru4'
_cell_volume   624.40784487
_cell_formula_units_Z   2
loop_
 _symmetry_equiv_pos_site_id
 _symmetry_equiv_pos_as_xyz
  1  'x, y, z'
loop_
 _atom_site_type_symbol
 _atom_site_label
 _atom_site_symmetry_multiplicity
 _atom_site_fract_x
 _atom_site_fract_y
 _atom_site_fract_z
 _atom_site_occupancy
  Tb  Tb0  1  0.561243  0.561243  0.938757  1
  Tb  Tb1  1  0.938757  0.561243  0.938757  1
  Tb  Tb2  1  0.561243  0.938757  0.938757  1
  Tb  Tb3  1  0.938757  0.938757  0.561243  1
  Tb  Tb4  1  0.561243  0.938757  0.561243  1
  Tb  Tb5  1  0.938757  0.561243  0.561243  1
  Ce  Ce6  1  0.346679  0.346679  0.959964  1
  Ce  Ce7  1  0.346679  0.959964  0.346679  1
  Ce  Ce8  1  0.959964  0.346679  0.346679  1
  Ce  Ce9  1  0.346679  0.346679  0.346679  1
  Tm  Tm10  1  0.186951  0.186951  0.813049  1
  Tm  Tm11  1  0.813049  0.186951  0.813049  1
  Tm  Tm12  1  0.186950  0.813050  0.813049  1
  Tm  Tm13  1  0.813049  0.813050  0.186951  1
  Tm  Tm14  1  0.186950  0.813049  0.186950  1
  Tm  Tm15  1  0.813049  0.186951  0.186951  1
  Cd  Cd16  1  0.580889  0.580889  0.257331  1
  Cd  Cd17  1  0.580889  0.257331  0.580889  1
  Cd  Cd18  1  0.257331  0.580889  0.580889  1
  Cd  Cd19  1  0.580889  0.580889  0.580889  1
  Ru  Ru20  1  0.143985  0.143985  0.568046  1
  Ru  Ru21  1  0.143985  0.568046  0.143985  1
  Ru  Ru22  1  0.568046  0.143985  0.143985  1
  Ru  Ru23  1  0.143985  0.143985  0.143985  1
