# generated using pymatgen
data_Ac7Yb12PrSn16
_symmetry_space_group_name_H-M   'P 1'
_cell_length_a   8.16619363
_cell_length_b   8.64816021
_cell_length_c   16.43128431
_cell_angle_alpha   90.05876567
_cell_angle_beta   89.95716309
_cell_angle_gamma   89.98582432
_symmetry_Int_Tables_number   1
_chemical_formula_structural   Ac7Yb12PrSn16
_chemical_formula_sum   'Ac7 Yb12 Pr1 Sn16'
_cell_volume   1160.41824031
_cell_formula_units_Z   1
loop_
 _symmetry_equiv_pos_site_id
 _symmetry_equiv_pos_as_xyz
  1  'x, y, z'
loop_
 _atom_site_type_symbol
 _atom_site_label
 _atom_site_symmetry_multiplicity
 _atom_site_fract_x
 _atom_site_fract_y
 _atom_site_fract_z
 _atom_site_occupancy
  Ac  Ac0  1  0.494640  0.316999  0.904801  1
  Ac  Ac1  1  0.994689  0.182048  0.595761  1
  Ac  Ac2  1  0.504930  0.681828  0.404484  1
  Ac  Ac3  1  0.005066  0.819388  0.093622  1
  Ac  Ac4  1  0.506359  0.681755  0.094525  1
  Ac  Ac5  1  0.005019  0.818170  0.404527  1
  Ac  Ac6  1  0.495265  0.317801  0.596447  1
  Yb  Yb7  1  0.331202  0.828940  0.876698  1
  Yb  Yb8  1  0.831996  0.671877  0.624858  1
  Yb  Yb9  1  0.667939  0.171767  0.375924  1
  Yb  Yb10  1  0.167143  0.327083  0.123317  1
  Yb  Yb11  1  0.668426  0.171714  0.123688  1
  Yb  Yb12  1  0.168053  0.328408  0.375871  1
  Yb  Yb13  1  0.331747  0.828443  0.624789  1
  Yb  Yb14  1  0.832456  0.671776  0.875923  1
  Yb  Yb15  1  0.161762  0.504844  0.750954  1
  Yb  Yb16  1  0.662044  0.994957  0.751024  1
  Yb  Yb17  1  0.838380  0.493906  0.249721  1
  Yb  Yb18  1  0.337997  0.005982  0.249900  1
  Pr  Pr19  1  0.993018  0.187392  0.901922  1
  Sn  Sn20  1  0.334422  0.038936  0.038160  1
  Sn  Sn21  1  0.835444  0.461950  0.460864  1
  Sn  Sn22  1  0.664305  0.961813  0.539629  1
  Sn  Sn23  1  0.162115  0.532542  0.959297  1
  Sn  Sn24  1  0.670393  0.964964  0.959463  1
  Sn  Sn25  1  0.164414  0.538492  0.539708  1
  Sn  Sn26  1  0.335361  0.038356  0.460899  1
  Sn  Sn27  1  0.836823  0.457493  0.037344  1
  Sn  Sn28  1  0.534542  0.607799  0.750370  1
  Sn  Sn29  1  0.032395  0.893353  0.752139  1
  Sn  Sn30  1  0.466398  0.390705  0.249886  1
  Sn  Sn31  1  0.966547  0.109353  0.250217  1
  Sn  Sn32  1  0.284902  0.134500  0.752155  1
  Sn  Sn33  1  0.790905  0.364452  0.751637  1
  Sn  Sn34  1  0.711422  0.867403  0.249763  1
  Sn  Sn35  1  0.211483  0.632815  0.249711  1
