# generated using pymatgen
data_Ce3Pr6Dy7(CdOs)4
_symmetry_space_group_name_H-M   'P 1'
_cell_length_a   9.81967208
_cell_length_b   9.81967299
_cell_length_c   9.72094275
_cell_angle_alpha   59.66345425
_cell_angle_beta   59.66344839
_cell_angle_gamma   59.99999750
_symmetry_Int_Tables_number   1
_chemical_formula_structural   Ce3Pr6Dy7(CdOs)4
_chemical_formula_sum   'Ce3 Pr6 Dy7 Cd4 Os4'
_cell_volume   659.41577258
_cell_formula_units_Z   1
loop_
 _symmetry_equiv_pos_site_id
 _symmetry_equiv_pos_as_xyz
  1  'x, y, z'
loop_
 _atom_site_type_symbol
 _atom_site_label
 _atom_site_symmetry_multiplicity
 _atom_site_fract_x
 _atom_site_fract_y
 _atom_site_fract_z
 _atom_site_occupancy
  Ce  Ce0  1  0.343929  0.971071  0.341074  1
  Ce  Ce1  1  0.971071  0.343929  0.341074  1
  Ce  Ce2  1  0.343929  0.343929  0.341074  1
  Pr  Pr3  1  0.558170  0.558170  0.942284  1
  Pr  Pr4  1  0.941375  0.558170  0.942284  1
  Pr  Pr5  1  0.558170  0.941375  0.942284  1
  Pr  Pr6  1  0.942440  0.942440  0.557201  1
  Pr  Pr7  1  0.557919  0.942440  0.557201  1
  Pr  Pr8  1  0.942440  0.557919  0.557201  1
  Dy  Dy9  1  0.186692  0.186692  0.815043  1
  Dy  Dy10  1  0.811573  0.186692  0.815043  1
  Dy  Dy11  1  0.186691  0.811574  0.815043  1
  Dy  Dy12  1  0.812813  0.812814  0.186542  1
  Dy  Dy13  1  0.187832  0.812813  0.186541  1
  Dy  Dy14  1  0.812813  0.187833  0.186542  1
  Dy  Dy15  1  0.347773  0.347773  0.956679  1
  Cd  Cd16  1  0.578819  0.578819  0.263543  1
  Cd  Cd17  1  0.579320  0.263218  0.578142  1
  Cd  Cd18  1  0.263218  0.579320  0.578142  1
  Cd  Cd19  1  0.579320  0.579320  0.578142  1
  Os  Os20  1  0.142352  0.142352  0.572944  1
  Os  Os21  1  0.138483  0.574375  0.148660  1
  Os  Os22  1  0.574375  0.138483  0.148660  1
  Os  Os23  1  0.138483  0.138483  0.148660  1
