# generated using pymatgen
data_Ce5Y7(Tm2Ir3)4
_symmetry_space_group_name_H-M   'P 1'
_cell_length_a   10.96771324
_cell_length_b   10.96473174
_cell_length_c   6.29781579
_cell_angle_alpha   90.20454246
_cell_angle_beta   90.17176227
_cell_angle_gamma   89.76848048
_symmetry_Int_Tables_number   1
_chemical_formula_structural   Ce5Y7(Tm2Ir3)4
_chemical_formula_sum   'Ce5 Y7 Tm8 Ir12'
_cell_volume   757.34856240
_cell_formula_units_Z   1
loop_
 _symmetry_equiv_pos_site_id
 _symmetry_equiv_pos_as_xyz
  1  'x, y, z'
loop_
 _atom_site_type_symbol
 _atom_site_label
 _atom_site_symmetry_multiplicity
 _atom_site_fract_x
 _atom_site_fract_y
 _atom_site_fract_z
 _atom_site_occupancy
  Ce  Ce0  1  0.408755  0.209917  0.884750  1
  Ce  Ce1  1  0.207979  0.409796  0.616566  1
  Ce  Ce2  1  0.206373  0.591813  0.116473  1
  Ce  Ce3  1  0.793556  0.409467  0.117636  1
  Ce  Ce4  1  0.792656  0.590817  0.618494  1
  Y  Y5  1  0.289240  0.086502  0.375746  1
  Y  Y6  1  0.289249  0.909268  0.876615  1
  Y  Y7  1  0.712540  0.087342  0.875997  1
  Y  Y8  1  0.709174  0.912995  0.376507  1
  Y  Y9  1  0.588317  0.790828  0.881228  1
  Y  Y10  1  0.589434  0.209872  0.380531  1
  Y  Y11  1  0.412501  0.791459  0.382021  1
  Tm  Tm12  1  0.912508  0.713084  0.119224  1
  Tm  Tm13  1  0.914389  0.287182  0.619691  1
  Tm  Tm14  1  0.085557  0.712733  0.618601  1
  Tm  Tm15  1  0.086011  0.287001  0.119275  1
  Tm  Tm16  1  0.000303  0.999846  0.497260  1
  Tm  Tm17  1  0.000291  0.998590  0.997657  1
  Tm  Tm18  1  0.501054  0.501851  0.005494  1
  Tm  Tm19  1  0.499623  0.499928  0.505037  1
  Ir  Ir20  1  0.851908  0.154768  0.247323  1
  Ir  Ir21  1  0.850513  0.846092  0.745833  1
  Ir  Ir22  1  0.151491  0.151768  0.750209  1
  Ir  Ir23  1  0.148086  0.844105  0.246913  1
  Ir  Ir24  1  0.656294  0.348356  0.758703  1
  Ir  Ir25  1  0.656058  0.651054  0.258859  1
  Ir  Ir26  1  0.344055  0.347355  0.248586  1
  Ir  Ir27  1  0.343674  0.650667  0.756504  1
  Ir  Ir28  1  0.499817  0.002125  0.120579  1
  Ir  Ir29  1  0.498993  0.003165  0.627133  1
  Ir  Ir30  1  0.999546  0.500460  0.876780  1
  Ir  Ir31  1  0.000055  0.499792  0.377773  1
