# generated using pymatgen
data_Tm8Lu10ScSi16Ag
_symmetry_space_group_name_H-M   'P 1'
_cell_length_a   7.13277205
_cell_length_b   7.54830116
_cell_length_c   14.24019700
_cell_angle_alpha   90.00000000
_cell_angle_beta   90.00000000
_cell_angle_gamma   89.90798154
_symmetry_Int_Tables_number   1
_chemical_formula_structural   Tm8Lu10ScSi16Ag
_chemical_formula_sum   'Tm8 Lu10 Sc1 Si16 Ag1'
_cell_volume   766.69565385
_cell_formula_units_Z   1
loop_
 _symmetry_equiv_pos_site_id
 _symmetry_equiv_pos_as_xyz
  1  'x, y, z'
loop_
 _atom_site_type_symbol
 _atom_site_label
 _atom_site_symmetry_multiplicity
 _atom_site_fract_x
 _atom_site_fract_y
 _atom_site_fract_z
 _atom_site_occupancy
  Tm  Tm0  1  0.016875  0.181438  0.095329  1
  Tm  Tm1  1  0.984511  0.808948  0.900623  1
  Tm  Tm2  1  0.480543  0.676931  0.901616  1
  Tm  Tm3  1  0.984511  0.808948  0.599377  1
  Tm  Tm4  1  0.514427  0.320777  0.094110  1
  Tm  Tm5  1  0.016875  0.181438  0.404671  1
  Tm  Tm6  1  0.514427  0.320777  0.405890  1
  Tm  Tm7  1  0.480543  0.676931  0.598384  1
  Lu  Lu8  1  0.840082  0.490346  0.250000  1
  Lu  Lu9  1  0.345411  0.012052  0.250000  1
  Lu  Lu10  1  0.319664  0.182361  0.628746  1
  Lu  Lu11  1  0.675556  0.824082  0.376840  1
  Lu  Lu12  1  0.174395  0.681913  0.375979  1
  Lu  Lu13  1  0.675556  0.824082  0.123160  1
  Lu  Lu14  1  0.835532  0.324561  0.628521  1
  Lu  Lu15  1  0.319664  0.182361  0.871254  1
  Lu  Lu16  1  0.835532  0.324561  0.871479  1
  Lu  Lu17  1  0.174395  0.681913  0.124021  1
  Sc  Sc18  1  0.651601  0.987389  0.750000  1
  Si  Si19  1  0.015730  0.075275  0.750000  1
  Si  Si20  1  0.973662  0.899301  0.250000  1
  Si  Si21  1  0.470472  0.609116  0.250000  1
  Si  Si22  1  0.528700  0.399032  0.750000  1
  Si  Si23  1  0.282840  0.870424  0.750000  1
  Si  Si24  1  0.722174  0.132660  0.250000  1
  Si  Si25  1  0.220336  0.370527  0.250000  1
  Si  Si26  1  0.768873  0.635401  0.750000  1
  Si  Si27  1  0.162516  0.462841  0.532415  1
  Si  Si28  1  0.843876  0.531766  0.463301  1
  Si  Si29  1  0.346037  0.970357  0.464248  1
  Si  Si30  1  0.843876  0.531766  0.036699  1
  Si  Si31  1  0.655894  0.029948  0.543072  1
  Si  Si32  1  0.162516  0.462841  0.967585  1
  Si  Si33  1  0.655894  0.029948  0.956928  1
  Si  Si34  1  0.346037  0.970357  0.035752  1
  Ag  Ag35  1  0.160467  0.526631  0.750000  1
