# generated using pymatgen
data_Co3AsS7
_symmetry_space_group_name_H-M   'P 1'
_cell_length_a   5.52652668
_cell_length_b   5.52652687
_cell_length_c   5.52652712
_cell_angle_alpha   90.55210353
_cell_angle_beta   90.55209281
_cell_angle_gamma   90.55210696
_symmetry_Int_Tables_number   1
_chemical_formula_structural   Co3AsS7
_chemical_formula_sum   'Co3 As1 S7'
_cell_volume   168.77028352
_cell_formula_units_Z   1
loop_
 _symmetry_equiv_pos_site_id
 _symmetry_equiv_pos_as_xyz
  1  'x, y, z'
loop_
 _atom_site_type_symbol
 _atom_site_label
 _atom_site_symmetry_multiplicity
 _atom_site_fract_x
 _atom_site_fract_y
 _atom_site_fract_z
 _atom_site_occupancy
  Co  Co0  1  0.503254  0.501972  0.993717  1
  Co  Co1  1  0.501973  0.993717  0.503254  1
  Co  Co2  1  0.993717  0.503255  0.501972  1
  As  As3  1  0.379335  0.379335  0.379335  1
  S  S4  1  0.883187  0.401471  0.113180  1
  S  S5  1  0.599983  0.886200  0.117389  1
  S  S6  1  0.113180  0.883187  0.401471  1
  S  S7  1  0.886200  0.117389  0.599983  1
  S  S8  1  0.620312  0.620312  0.620312  1
  S  S9  1  0.401471  0.113180  0.883187  1
  S  S10  1  0.117389  0.599983  0.886200  1
