# generated using pymatgen
data_K12Al3FeSe12
_symmetry_space_group_name_H-M   'P 1'
_cell_length_a   13.31711457
_cell_length_b   8.19881336
_cell_length_c   10.56117663
_cell_angle_alpha   52.26275919
_cell_angle_beta   90.02662483
_cell_angle_gamma   89.96411122
_symmetry_Int_Tables_number   1
_chemical_formula_structural   K12Al3FeSe12
_chemical_formula_sum   'K12 Al3 Fe1 Se12'
_cell_volume   911.91421475
_cell_formula_units_Z   1
loop_
 _symmetry_equiv_pos_site_id
 _symmetry_equiv_pos_as_xyz
  1  'x, y, z'
loop_
 _atom_site_type_symbol
 _atom_site_label
 _atom_site_symmetry_multiplicity
 _atom_site_fract_x
 _atom_site_fract_y
 _atom_site_fract_z
 _atom_site_occupancy
  K  K0  1  0.311217  0.150651  0.074753  1
  K  K1  1  0.688290  0.848909  0.925495  1
  K  K2  1  0.811857  0.848820  0.424847  1
  K  K3  1  0.897742  0.322211  0.398751  1
  K  K4  1  0.619094  0.377170  0.470547  1
  K  K5  1  0.118961  0.624138  0.029600  1
  K  K6  1  0.381002  0.622383  0.529555  1
  K  K7  1  0.881119  0.376059  0.970987  1
  K  K8  1  0.602296  0.321040  0.898953  1
  K  K9  1  0.102267  0.678555  0.600643  1
  K  K10  1  0.397827  0.678610  0.101254  1
  K  K11  1  0.188286  0.151320  0.574852  1
  Al  Al12  1  0.562279  0.057018  0.342016  1
  Al  Al13  1  0.437725  0.942802  0.658032  1
  Al  Al14  1  0.938146  0.056595  0.843345  1
  Fe  Fe15  1  0.062254  0.943022  0.157564  1
  Se  Se16  1  0.398673  0.172169  0.368173  1
  Se  Se17  1  0.897512  0.827740  0.131004  1
  Se  Se18  1  0.601240  0.827797  0.631730  1
  Se  Se19  1  0.101396  0.173532  0.866869  1
  Se  Se20  1  0.685835  0.324420  0.199223  1
  Se  Se21  1  0.186031  0.675844  0.301369  1
  Se  Se22  1  0.314156  0.675198  0.800975  1
  Se  Se23  1  0.814224  0.324767  0.699364  1
  Se  Se24  1  0.546467  0.870590  0.237768  1
  Se  Se25  1  0.047005  0.128995  0.261923  1
  Se  Se26  1  0.453467  0.129183  0.762365  1
  Se  Se27  1  0.953632  0.870464  0.738042  1
