# generated using pymatgen
data_Ce2As3Se
_symmetry_space_group_name_H-M   'P 1'
_cell_length_a   4.06849100
_cell_length_b   8.49109962
_cell_length_c   8.14187568
_cell_angle_alpha   90.23947207
_cell_angle_beta   90.00000000
_cell_angle_gamma   90.00000000
_symmetry_Int_Tables_number   1
_chemical_formula_structural   Ce2As3Se
_chemical_formula_sum   'Ce4 As6 Se2'
_cell_volume   281.26647441
_cell_formula_units_Z   2
loop_
 _symmetry_equiv_pos_site_id
 _symmetry_equiv_pos_as_xyz
  1  'x, y, z'
loop_
 _atom_site_type_symbol
 _atom_site_label
 _atom_site_symmetry_multiplicity
 _atom_site_fract_x
 _atom_site_fract_y
 _atom_site_fract_z
 _atom_site_occupancy
  Ce  Ce0  1  0.750363  0.277938  0.378714  1
  Ce  Ce1  1  0.250363  0.722062  0.121286  1
  Ce  Ce2  1  0.249641  0.717974  0.626891  1
  Ce  Ce3  1  0.749641  0.282026  0.873109  1
  As  As4  1  0.749044  0.000222  0.625832  1
  As  As5  1  0.249044  0.999778  0.874168  1
  As  As6  1  0.250987  0.000205  0.376110  1
  As  As7  1  0.750987  0.999795  0.123890  1
  As  As8  1  0.749877  0.642038  0.873087  1
  As  As9  1  0.249877  0.357962  0.626913  1
  Se  Se10  1  0.250088  0.365076  0.125232  1
  Se  Se11  1  0.750088  0.634924  0.374768  1
