# generated using pymatgen
data_Nd4ZnB4Ir9
_symmetry_space_group_name_H-M   'P 1'
_cell_length_a   10.99384566
_cell_length_b   10.99384470
_cell_length_c   10.99384381
_cell_angle_alpha   29.39319838
_cell_angle_beta   29.39319875
_cell_angle_gamma   29.39320499
_symmetry_Int_Tables_number   1
_chemical_formula_structural   Nd4ZnB4Ir9
_chemical_formula_sum   'Nd4 Zn1 B4 Ir9'
_cell_volume   283.26859294
_cell_formula_units_Z   1
loop_
 _symmetry_equiv_pos_site_id
 _symmetry_equiv_pos_as_xyz
  1  'x, y, z'
loop_
 _atom_site_type_symbol
 _atom_site_label
 _atom_site_symmetry_multiplicity
 _atom_site_fract_x
 _atom_site_fract_y
 _atom_site_fract_z
 _atom_site_occupancy
  Nd  Nd0  1  0.149501  0.149501  0.149501  1
  Nd  Nd1  1  0.950260  0.950260  0.950260  1
  Nd  Nd2  1  0.850499  0.850499  0.850499  1
  Nd  Nd3  1  0.049740  0.049740  0.049740  1
  Zn  Zn4  1  0.500000  0.500000  0.500000  1
  B  B5  1  0.616250  0.616250  0.616250  1
  B  B6  1  0.717749  0.717749  0.717749  1
  B  B7  1  0.383750  0.383750  0.383750  1
  B  B8  1  0.282251  0.282251  0.282251  1
  Ir  Ir9  1  0.403479  0.903413  0.403479  1
  Ir  Ir10  1  0.903413  0.403479  0.403479  1
  Ir  Ir11  1  0.500000  0.500000  0.000000  1
  Ir  Ir12  1  0.500000  0.000000  0.500000  1
  Ir  Ir13  1  0.000000  0.500000  0.500000  1
  Ir  Ir14  1  0.596521  0.096587  0.596521  1
  Ir  Ir15  1  0.596521  0.596521  0.096587  1
  Ir  Ir16  1  0.096587  0.596521  0.596521  1
  Ir  Ir17  1  0.403479  0.403479  0.903413  1
