# generated using pymatgen
data_YbDyEr6(B6Ru)4
_symmetry_space_group_name_H-M   'P 1'
_cell_length_a   3.63926800
_cell_length_b   9.10252001
_cell_length_c   11.48542602
_cell_angle_alpha   89.92313170
_cell_angle_beta   90.00000000
_cell_angle_gamma   90.00000000
_symmetry_Int_Tables_number   1
_chemical_formula_structural   YbDyEr6(B6Ru)4
_chemical_formula_sum   'Yb1 Dy1 Er6 B24 Ru4'
_cell_volume   380.47173505
_cell_formula_units_Z   1
loop_
 _symmetry_equiv_pos_site_id
 _symmetry_equiv_pos_as_xyz
  1  'x, y, z'
loop_
 _atom_site_type_symbol
 _atom_site_label
 _atom_site_symmetry_multiplicity
 _atom_site_fract_x
 _atom_site_fract_y
 _atom_site_fract_z
 _atom_site_occupancy
  Yb  Yb0  1  0.000000  0.323185  0.413782  1
  Dy  Dy1  1  0.000000  0.676194  0.585005  1
  Er  Er2  1  0.000000  0.822098  0.086202  1
  Er  Er3  1  0.000000  0.178427  0.914690  1
  Er  Er4  1  0.000000  0.943761  0.370979  1
  Er  Er5  1  0.000000  0.058320  0.628113  1
  Er  Er6  1  0.000000  0.442757  0.129508  1
  Er  Er7  1  0.000000  0.556225  0.872281  1
  B  B8  1  0.500000  0.553897  0.432533  1
  B  B9  1  0.500000  0.445796  0.567425  1
  B  B10  1  0.500000  0.053143  0.066326  1
  B  B11  1  0.500000  0.946071  0.932755  1
  B  B12  1  0.500000  0.748501  0.419034  1
  B  B13  1  0.500000  0.252132  0.581037  1
  B  B14  1  0.500000  0.247634  0.080319  1
  B  B15  1  0.500000  0.751710  0.919770  1
  B  B16  1  0.500000  0.791257  0.265641  1
  B  B17  1  0.500000  0.209788  0.734596  1
  B  B18  1  0.500000  0.289720  0.233723  1
  B  B19  1  0.500000  0.709486  0.766240  1
  B  B20  1  0.500000  0.631545  0.185546  1
  B  B21  1  0.500000  0.368891  0.815503  1
  B  B22  1  0.500000  0.130634  0.314095  1
  B  B23  1  0.500000  0.869246  0.685064  1
  B  B24  1  0.500000  0.982544  0.211659  1
  B  B25  1  0.500000  0.017361  0.787403  1
  B  B26  1  0.500000  0.483347  0.287704  1
  B  B27  1  0.500000  0.516803  0.712861  1
  B  B28  1  0.500000  0.607217  0.029873  1
  B  B29  1  0.500000  0.392949  0.970836  1
  B  B30  1  0.500000  0.103497  0.471258  1
  B  B31  1  0.500000  0.895616  0.528829  1
  Ru  Ru32  1  0.000000  0.639310  0.320231  1
  Ru  Ru33  1  0.000000  0.361980  0.680542  1
  Ru  Ru34  1  0.000000  0.136378  0.177531  1
  Ru  Ru35  1  0.000000  0.862579  0.821105  1
