# generated using pymatgen
data_EuMnF7
_symmetry_space_group_name_H-M   'P 1'
_cell_length_a   5.56543900
_cell_length_b   8.93394413
_cell_length_c   11.94901519
_cell_angle_alpha   62.26337339
_cell_angle_beta   90.00000000
_cell_angle_gamma   90.00000000
_symmetry_Int_Tables_number   1
_chemical_formula_structural   EuMnF7
_chemical_formula_sum   'Eu4 Mn4 F28'
_cell_volume   525.85413595
_cell_formula_units_Z   4
loop_
 _symmetry_equiv_pos_site_id
 _symmetry_equiv_pos_as_xyz
  1  'x, y, z'
loop_
 _atom_site_type_symbol
 _atom_site_label
 _atom_site_symmetry_multiplicity
 _atom_site_fract_x
 _atom_site_fract_y
 _atom_site_fract_z
 _atom_site_occupancy
  Eu  Eu0  1  0.739778  0.807251  0.266204  1
  Eu  Eu1  1  0.239778  0.192749  0.233796  1
  Eu  Eu2  1  0.260222  0.192749  0.733796  1
  Eu  Eu3  1  0.760222  0.807251  0.766204  1
  Mn  Mn4  1  0.742390  0.273901  0.455985  1
  Mn  Mn5  1  0.242390  0.726099  0.044015  1
  Mn  Mn6  1  0.257610  0.726099  0.544015  1
  Mn  Mn7  1  0.757610  0.273901  0.955985  1
  F  F8  1  0.434258  0.708079  0.925613  1
  F  F9  1  0.934258  0.291921  0.574387  1
  F  F10  1  0.565742  0.291921  0.074387  1
  F  F11  1  0.065742  0.708079  0.425613  1
  F  F12  1  0.466793  0.283796  0.539331  1
  F  F13  1  0.966793  0.716204  0.960669  1
  F  F14  1  0.533207  0.716204  0.460669  1
  F  F15  1  0.033207  0.283796  0.039331  1
  F  F16  1  0.766538  0.507464  0.862919  1
  F  F17  1  0.266538  0.492536  0.637081  1
  F  F18  1  0.233462  0.492536  0.137081  1
  F  F19  1  0.733462  0.507464  0.362919  1
  F  F20  1  0.757805  0.042117  0.045910  1
  F  F21  1  0.257805  0.957883  0.454090  1
  F  F22  1  0.242195  0.957883  0.954090  1
  F  F23  1  0.742195  0.042117  0.545910  1
  F  F24  1  0.989836  0.729757  0.633507  1
  F  F25  1  0.489836  0.270243  0.866493  1
  F  F26  1  0.010164  0.270243  0.366493  1
  F  F27  1  0.510164  0.729757  0.133507  1
  F  F28  1  0.052764  0.742100  0.165948  1
  F  F29  1  0.552764  0.257900  0.334052  1
  F  F30  1  0.947236  0.257900  0.834052  1
  F  F31  1  0.447236  0.742100  0.665948  1
  F  F32  1  0.409590  0.969573  0.231082  1
  F  F33  1  0.909590  0.030427  0.268918  1
  F  F34  1  0.590410  0.030427  0.768918  1
  F  F35  1  0.090410  0.969573  0.731082  1
