# generated using pymatgen
data_ErZr2RuF15
_symmetry_space_group_name_H-M   'P 1'
_cell_length_a   8.10227450
_cell_length_b   8.10227472
_cell_length_c   8.13812457
_cell_angle_alpha   79.87029937
_cell_angle_beta   79.87030125
_cell_angle_gamma   99.71647307
_symmetry_Int_Tables_number   1
_chemical_formula_structural   ErZr2RuF15
_chemical_formula_sum   'Er2 Zr4 Ru2 F30'
_cell_volume   506.60397659
_cell_formula_units_Z   2
loop_
 _symmetry_equiv_pos_site_id
 _symmetry_equiv_pos_as_xyz
  1  'x, y, z'
loop_
 _atom_site_type_symbol
 _atom_site_label
 _atom_site_symmetry_multiplicity
 _atom_site_fract_x
 _atom_site_fract_y
 _atom_site_fract_z
 _atom_site_occupancy
  Er  Er0  1  0.675956  0.324044  0.750000  1
  Er  Er1  1  0.324044  0.675956  0.250000  1
  Zr  Zr2  1  0.821981  0.751960  0.325034  1
  Zr  Zr3  1  0.248040  0.178019  0.174966  1
  Zr  Zr4  1  0.178019  0.248040  0.674966  1
  Zr  Zr5  1  0.751960  0.821981  0.825034  1
  Ru  Ru6  1  0.249478  0.750522  0.750000  1
  Ru  Ru7  1  0.750522  0.249478  0.250000  1
  F  F8  1  0.149793  0.184983  0.946396  1
  F  F9  1  0.687517  0.560588  0.849996  1
  F  F10  1  0.043925  0.657680  0.312437  1
  F  F11  1  0.657680  0.043925  0.812437  1
  F  F12  1  0.560588  0.687517  0.349996  1
  F  F13  1  0.184983  0.149793  0.446396  1
  F  F14  1  0.850207  0.815017  0.053604  1
  F  F15  1  0.312483  0.439412  0.150004  1
  F  F16  1  0.956075  0.342320  0.687563  1
  F  F17  1  0.342320  0.956075  0.187563  1
  F  F18  1  0.439412  0.312483  0.650004  1
  F  F19  1  0.815017  0.850207  0.553604  1
  F  F20  1  0.969523  0.030477  0.750000  1
  F  F21  1  0.542960  0.753922  0.028233  1
  F  F22  1  0.246078  0.457040  0.471767  1
  F  F23  1  0.457040  0.246078  0.971767  1
  F  F24  1  0.753922  0.542960  0.528233  1
  F  F25  1  0.030477  0.969523  0.250000  1
  F  F26  1  0.217635  0.727207  0.991854  1
  F  F27  1  0.227398  0.499235  0.782860  1
  F  F28  1  0.995944  0.715630  0.776549  1
  F  F29  1  0.715630  0.995944  0.276549  1
  F  F30  1  0.499235  0.227398  0.282860  1
  F  F31  1  0.727207  0.217635  0.491854  1
  F  F32  1  0.782365  0.272793  0.008146  1
  F  F33  1  0.772602  0.500765  0.217140  1
  F  F34  1  0.004056  0.284370  0.223451  1
  F  F35  1  0.284370  0.004056  0.723451  1
  F  F36  1  0.500765  0.772602  0.717140  1
  F  F37  1  0.272793  0.782365  0.508146  1
