# generated using pymatgen
data_Pr3Sm2(PdO6)2
_symmetry_space_group_name_H-M   'P 1'
_cell_length_a   7.12515687
_cell_length_b   7.12515745
_cell_length_c   7.56204292
_cell_angle_alpha   74.28803767
_cell_angle_beta   74.28803126
_cell_angle_gamma   50.45973191
_symmetry_Int_Tables_number   1
_chemical_formula_structural   Pr3Sm2(PdO6)2
_chemical_formula_sum   'Pr3 Sm2 Pd2 O12'
_cell_volume   282.48453566
_cell_formula_units_Z   1
loop_
 _symmetry_equiv_pos_site_id
 _symmetry_equiv_pos_as_xyz
  1  'x, y, z'
loop_
 _atom_site_type_symbol
 _atom_site_label
 _atom_site_symmetry_multiplicity
 _atom_site_fract_x
 _atom_site_fract_y
 _atom_site_fract_z
 _atom_site_occupancy
  Pr  Pr0  1  0.695155  0.695155  0.165611  1
  Pr  Pr1  1  0.304845  0.304845  0.834389  1
  Pr  Pr2  1  0.000000  0.000000  0.500000  1
  Sm  Sm3  1  0.302806  0.302806  0.359097  1
  Sm  Sm4  1  0.697194  0.697194  0.640903  1
  Pd  Pd5  1  0.752830  0.247170  0.000000  1
  Pd  Pd6  1  0.247170  0.752830  0.000000  1
  O  O7  1  0.093433  0.596480  0.572476  1
  O  O8  1  0.000006  0.000006  0.175935  1
  O  O9  1  0.403520  0.906567  0.427524  1
  O  O10  1  0.498534  0.498534  0.180822  1
  O  O11  1  0.102889  0.571153  0.084638  1
  O  O12  1  0.906567  0.403520  0.427524  1
  O  O13  1  0.999994  0.999994  0.824065  1
  O  O14  1  0.596480  0.093432  0.572476  1
  O  O15  1  0.501466  0.501466  0.819178  1
  O  O16  1  0.571153  0.102889  0.084638  1
  O  O17  1  0.428847  0.897111  0.915362  1
  O  O18  1  0.897111  0.428847  0.915362  1
