# generated using pymatgen
data_CaPr8ZrIr6
_symmetry_space_group_name_H-M   'P 1'
_cell_length_a   11.31499900
_cell_length_b   11.31499900
_cell_length_c   6.46270900
_cell_angle_alpha   90.00000000
_cell_angle_beta   90.00000000
_cell_angle_gamma   90.00000000
_symmetry_Int_Tables_number   1
_chemical_formula_structural   CaPr8ZrIr6
_chemical_formula_sum   'Ca2 Pr16 Zr2 Ir12'
_cell_volume   827.41547842
_cell_formula_units_Z   2
loop_
 _symmetry_equiv_pos_site_id
 _symmetry_equiv_pos_as_xyz
  1  'x, y, z'
loop_
 _atom_site_type_symbol
 _atom_site_label
 _atom_site_symmetry_multiplicity
 _atom_site_fract_x
 _atom_site_fract_y
 _atom_site_fract_z
 _atom_site_occupancy
  Ca  Ca0  1  0.500000  0.500000  0.000000  1
  Ca  Ca1  1  0.500000  0.500000  0.500000  1
  Pr  Pr2  1  0.285668  0.087504  0.379783  1
  Pr  Pr3  1  0.285668  0.912496  0.879783  1
  Pr  Pr4  1  0.714332  0.087504  0.879783  1
  Pr  Pr5  1  0.714332  0.912496  0.379783  1
  Pr  Pr6  1  0.586969  0.790279  0.881564  1
  Pr  Pr7  1  0.586969  0.209721  0.381564  1
  Pr  Pr8  1  0.413031  0.790279  0.381564  1
  Pr  Pr9  1  0.413031  0.209721  0.881564  1
  Pr  Pr10  1  0.209721  0.413031  0.618436  1
  Pr  Pr11  1  0.209721  0.586969  0.118436  1
  Pr  Pr12  1  0.790279  0.413031  0.118436  1
  Pr  Pr13  1  0.790279  0.586969  0.618436  1
  Pr  Pr14  1  0.912496  0.714332  0.120217  1
  Pr  Pr15  1  0.912496  0.285668  0.620217  1
  Pr  Pr16  1  0.087504  0.714332  0.620217  1
  Pr  Pr17  1  0.087504  0.285668  0.120217  1
  Zr  Zr18  1  0.000000  0.000000  0.500000  1
  Zr  Zr19  1  0.000000  0.000000  0.000000  1
  Ir  Ir20  1  0.864060  0.135940  0.250000  1
  Ir  Ir21  1  0.864060  0.864060  0.750000  1
  Ir  Ir22  1  0.135940  0.135940  0.750000  1
  Ir  Ir23  1  0.135940  0.864060  0.250000  1
  Ir  Ir24  1  0.658285  0.341715  0.750000  1
  Ir  Ir25  1  0.658285  0.658285  0.250000  1
  Ir  Ir26  1  0.341715  0.341715  0.250000  1
  Ir  Ir27  1  0.341715  0.658285  0.750000  1
  Ir  Ir28  1  0.500000  0.000000  0.115894  1
  Ir  Ir29  1  0.500000  0.000000  0.615894  1
  Ir  Ir30  1  0.000000  0.500000  0.884106  1
  Ir  Ir31  1  0.000000  0.500000  0.384106  1
