# generated using pymatgen
data_Ce2HoMn2Al3
_symmetry_space_group_name_H-M   'P 1'
_cell_length_a   7.81073867
_cell_length_b   7.81073820
_cell_length_c   4.56848400
_cell_angle_alpha   82.97928764
_cell_angle_beta   82.97928807
_cell_angle_gamma   34.06539157
_symmetry_Int_Tables_number   1
_chemical_formula_structural   Ce2HoMn2Al3
_chemical_formula_sum   'Ce2 Ho1 Mn2 Al3'
_cell_volume   154.83672809
_cell_formula_units_Z   1
loop_
 _symmetry_equiv_pos_site_id
 _symmetry_equiv_pos_as_xyz
  1  'x, y, z'
loop_
 _atom_site_type_symbol
 _atom_site_label
 _atom_site_symmetry_multiplicity
 _atom_site_fract_x
 _atom_site_fract_y
 _atom_site_fract_z
 _atom_site_occupancy
  Ce  Ce0  1  0.830604  0.830604  0.558790  1
  Ce  Ce1  1  0.169396  0.169396  0.441210  1
  Ho  Ho2  1  0.000000  0.000000  0.000000  1
  Mn  Mn3  1  0.794320  0.794320  0.089541  1
  Mn  Mn4  1  0.205680  0.205680  0.910459  1
  Al  Al5  1  0.367504  0.367504  0.032862  1
  Al  Al6  1  0.500000  0.500000  0.500000  1
  Al  Al7  1  0.632496  0.632496  0.967138  1
