# generated using pymatgen
data_Tb2ErIn4CoAg
_symmetry_space_group_name_H-M   'P 1'
_cell_length_a   8.04508003
_cell_length_b   8.04695497
_cell_length_c   3.71398700
_cell_angle_alpha   90.00000000
_cell_angle_beta   90.00000000
_cell_angle_gamma   120.00165887
_symmetry_Int_Tables_number   1
_chemical_formula_structural   Tb2ErIn4CoAg
_chemical_formula_sum   'Tb2 Er1 In4 Co1 Ag1'
_cell_volume   208.22155740
_cell_formula_units_Z   1
loop_
 _symmetry_equiv_pos_site_id
 _symmetry_equiv_pos_as_xyz
  1  'x, y, z'
loop_
 _atom_site_type_symbol
 _atom_site_label
 _atom_site_symmetry_multiplicity
 _atom_site_fract_x
 _atom_site_fract_y
 _atom_site_fract_z
 _atom_site_occupancy
  Tb  Tb0  1  0.711359  0.953504  0.500000  1
  Tb  Tb1  1  0.243034  0.288499  0.500000  1
  Er  Er2  1  0.044888  0.758647  0.500000  1
  In  In3  1  0.938457  0.332785  0.000000  1
  In  In4  1  0.392570  0.061169  0.000000  1
  In  In5  1  0.669476  0.606490  0.000000  1
  In  In6  1  0.332261  0.667244  0.000000  1
  Co  Co7  1  0.000479  0.997807  0.000000  1
  Ag  Ag8  1  0.667477  0.333853  0.500000  1
