# generated using pymatgen
data_Yb2MoWO6
_symmetry_space_group_name_H-M   'P 1'
_cell_length_a   5.72687900
_cell_length_b   5.45195747
_cell_length_c   9.61379068
_cell_angle_alpha   55.37398937
_cell_angle_beta   90.00000000
_cell_angle_gamma   90.00000000
_symmetry_Int_Tables_number   1
_chemical_formula_structural   Yb2MoWO6
_chemical_formula_sum   'Yb4 Mo2 W2 O12'
_cell_volume   247.00221238
_cell_formula_units_Z   2
loop_
 _symmetry_equiv_pos_site_id
 _symmetry_equiv_pos_as_xyz
  1  'x, y, z'
loop_
 _atom_site_type_symbol
 _atom_site_label
 _atom_site_symmetry_multiplicity
 _atom_site_fract_x
 _atom_site_fract_y
 _atom_site_fract_z
 _atom_site_occupancy
  Yb  Yb0  1  0.441180  0.264215  0.752061  1
  Yb  Yb1  1  0.941180  0.735785  0.747939  1
  Yb  Yb2  1  0.558820  0.735785  0.247939  1
  Yb  Yb3  1  0.058820  0.264215  0.252061  1
  Mo  Mo4  1  0.500000  0.000000  0.500000  1
  Mo  Mo5  1  0.000000  0.000000  0.000000  1
  W  W6  1  0.500000  0.500000  0.000000  1
  W  W7  1  0.000000  0.500000  0.500000  1
  O  O8  1  0.208440  0.378368  0.933128  1
  O  O9  1  0.708440  0.621632  0.566872  1
  O  O10  1  0.791560  0.621632  0.066872  1
  O  O11  1  0.291560  0.378368  0.433128  1
  O  O12  1  0.310801  0.738654  0.052058  1
  O  O13  1  0.810801  0.261346  0.447942  1
  O  O14  1  0.689199  0.261346  0.947942  1
  O  O15  1  0.189199  0.738654  0.552058  1
  O  O16  1  0.050740  0.143501  0.742219  1
  O  O17  1  0.550740  0.856499  0.757781  1
  O  O18  1  0.449260  0.143501  0.242219  1
  O  O19  1  0.949260  0.856499  0.257781  1
