# generated using pymatgen
data_Dy15Lu5Ir11Au
_symmetry_space_group_name_H-M   'P 1'
_cell_length_a   10.89138521
_cell_length_b   10.89118513
_cell_length_c   6.32898350
_cell_angle_alpha   89.96165336
_cell_angle_beta   89.95890351
_cell_angle_gamma   89.78522759
_symmetry_Int_Tables_number   1
_chemical_formula_structural   Dy15Lu5Ir11Au
_chemical_formula_sum   'Dy15 Lu5 Ir11 Au1'
_cell_volume   750.73897491
_cell_formula_units_Z   1
loop_
 _symmetry_equiv_pos_site_id
 _symmetry_equiv_pos_as_xyz
  1  'x, y, z'
loop_
 _atom_site_type_symbol
 _atom_site_label
 _atom_site_symmetry_multiplicity
 _atom_site_fract_x
 _atom_site_fract_y
 _atom_site_fract_z
 _atom_site_occupancy
  Dy  Dy0  1  0.290922  0.912792  0.876931  1
  Dy  Dy1  1  0.705178  0.084796  0.868017  1
  Dy  Dy2  1  0.707061  0.906461  0.380230  1
  Dy  Dy3  1  0.587023  0.790319  0.879992  1
  Dy  Dy4  1  0.579501  0.210999  0.380328  1
  Dy  Dy5  1  0.411414  0.791037  0.378294  1
  Dy  Dy6  1  0.410562  0.209487  0.878697  1
  Dy  Dy7  1  0.209957  0.412413  0.620170  1
  Dy  Dy8  1  0.209625  0.588093  0.121940  1
  Dy  Dy9  1  0.789018  0.419014  0.119752  1
  Dy  Dy10  1  0.790187  0.588557  0.621813  1
  Dy  Dy11  1  0.912078  0.710097  0.121607  1
  Dy  Dy12  1  0.915374  0.294376  0.632185  1
  Dy  Dy13  1  0.088149  0.708845  0.622631  1
  Dy  Dy14  1  0.095125  0.291752  0.120271  1
  Lu  Lu15  1  0.291662  0.087159  0.380262  1
  Lu  Lu16  1  0.005259  0.997016  0.501327  1
  Lu  Lu17  1  0.003651  0.996275  0.996865  1
  Lu  Lu18  1  0.499510  0.499796  0.999207  1
  Lu  Lu19  1  0.499593  0.500392  0.500553  1
  Ir  Ir20  1  0.848902  0.850851  0.749347  1
  Ir  Ir21  1  0.150412  0.150499  0.747344  1
  Ir  Ir22  1  0.152775  0.850061  0.250987  1
  Ir  Ir23  1  0.652552  0.347372  0.749881  1
  Ir  Ir24  1  0.651374  0.650629  0.249311  1
  Ir  Ir25  1  0.349174  0.346675  0.251801  1
  Ir  Ir26  1  0.348641  0.651172  0.750120  1
  Ir  Ir27  1  0.499468  0.001023  0.127416  1
  Ir  Ir28  1  0.499049  0.000998  0.622753  1
  Ir  Ir29  1  0.999790  0.499525  0.876669  1
  Ir  Ir30  1  0.999893  0.498817  0.373520  1
  Au  Au31  1  0.847121  0.152703  0.249777  1
