# generated using pymatgen
data_Tb3CeInOs
_symmetry_space_group_name_H-M   'P 1'
_cell_length_a   9.73208153
_cell_length_b   9.73219969
_cell_length_c   9.73261900
_cell_angle_alpha   60.01369595
_cell_angle_beta   60.01314502
_cell_angle_gamma   60.01212282
_symmetry_Int_Tables_number   1
_chemical_formula_structural   Tb3CeInOs
_chemical_formula_sum   'Tb12 Ce4 In4 Os4'
_cell_volume   652.01761838
_cell_formula_units_Z   4
loop_
 _symmetry_equiv_pos_site_id
 _symmetry_equiv_pos_as_xyz
  1  'x, y, z'
loop_
 _atom_site_type_symbol
 _atom_site_label
 _atom_site_symmetry_multiplicity
 _atom_site_fract_x
 _atom_site_fract_y
 _atom_site_fract_z
 _atom_site_occupancy
  Tb  Tb0  1  0.060641  0.439578  0.439578  1
  Tb  Tb1  1  0.439578  0.060558  0.060578  1
  Tb  Tb2  1  0.439580  0.060643  0.439588  1
  Tb  Tb3  1  0.060562  0.439582  0.060580  1
  Tb  Tb4  1  0.439583  0.439588  0.060647  1
  Tb  Tb5  1  0.060574  0.060577  0.439579  1
  Tb  Tb6  1  0.190399  0.809749  0.809775  1
  Tb  Tb7  1  0.809279  0.190491  0.190485  1
  Tb  Tb8  1  0.809730  0.190415  0.809777  1
  Tb  Tb9  1  0.190469  0.809296  0.190481  1
  Tb  Tb10  1  0.809722  0.809740  0.190437  1
  Tb  Tb11  1  0.190449  0.190467  0.809326  1
  Ce  Ce12  1  0.595572  0.595578  0.595594  1
  Ce  Ce13  1  0.595658  0.595674  0.213026  1
  Ce  Ce14  1  0.595649  0.213086  0.595645  1
  Ce  Ce15  1  0.213118  0.595641  0.595634  1
  In  In16  1  0.832030  0.832025  0.832032  1
  In  In17  1  0.831861  0.831856  0.503161  1
  In  In18  1  0.831858  0.503132  0.831856  1
  In  In19  1  0.503102  0.831838  0.831890  1
  Os  Os20  1  0.392944  0.392901  0.392848  1
  Os  Os21  1  0.392942  0.392909  0.821730  1
  Os  Os22  1  0.392954  0.821738  0.392878  1
  Os  Os23  1  0.821744  0.392935  0.392872  1
