# generated using pymatgen
data_SrCrN2
_symmetry_space_group_name_H-M   'P 1'
_cell_length_a   6.03465433
_cell_length_b   7.39109200
_cell_length_c   5.89318772
_cell_angle_alpha   90.00000000
_cell_angle_beta   113.29635278
_cell_angle_gamma   90.00000000
_symmetry_Int_Tables_number   1
_chemical_formula_structural   SrCrN2
_chemical_formula_sum   'Sr4 Cr4 N8'
_cell_volume   241.42208387
_cell_formula_units_Z   4
loop_
 _symmetry_equiv_pos_site_id
 _symmetry_equiv_pos_as_xyz
  1  'x, y, z'
loop_
 _atom_site_type_symbol
 _atom_site_label
 _atom_site_symmetry_multiplicity
 _atom_site_fract_x
 _atom_site_fract_y
 _atom_site_fract_z
 _atom_site_occupancy
  Sr  Sr0  1  0.325998  0.936140  0.684992  1
  Sr  Sr1  1  0.674002  0.436140  0.815008  1
  Sr  Sr2  1  0.674002  0.063860  0.315008  1
  Sr  Sr3  1  0.325998  0.563860  0.184992  1
  Cr  Cr4  1  0.112379  0.363570  0.573668  1
  Cr  Cr5  1  0.887621  0.863570  0.926332  1
  Cr  Cr6  1  0.887621  0.636430  0.426332  1
  Cr  Cr7  1  0.112379  0.136430  0.073668  1
  N  N8  1  0.219623  0.901235  0.070307  1
  N  N9  1  0.780377  0.401235  0.429693  1
  N  N10  1  0.780377  0.098765  0.929693  1
  N  N11  1  0.219623  0.598765  0.570307  1
  N  N12  1  0.207556  0.276810  0.880676  1
  N  N13  1  0.792444  0.776810  0.619324  1
  N  N14  1  0.792444  0.723190  0.119324  1
  N  N15  1  0.207556  0.223190  0.380676  1
