# generated using pymatgen
data_Y15Ho5(Bi2Rh)4
_symmetry_space_group_name_H-M   'P 1'
_cell_length_a   8.03868014
_cell_length_b   9.01468421
_cell_length_c   12.52975219
_cell_angle_alpha   90.01671882
_cell_angle_beta   89.98944636
_cell_angle_gamma   90.01857223
_symmetry_Int_Tables_number   1
_chemical_formula_structural   Y15Ho5(Bi2Rh)4
_chemical_formula_sum   'Y15 Ho5 Bi8 Rh4'
_cell_volume   907.98296204
_cell_formula_units_Z   1
loop_
 _symmetry_equiv_pos_site_id
 _symmetry_equiv_pos_as_xyz
  1  'x, y, z'
loop_
 _atom_site_type_symbol
 _atom_site_label
 _atom_site_symmetry_multiplicity
 _atom_site_fract_x
 _atom_site_fract_y
 _atom_site_fract_z
 _atom_site_occupancy
  Y  Y0  1  0.839273  0.749327  0.792526  1
  Y  Y1  1  0.160422  0.250354  0.207411  1
  Y  Y2  1  0.339312  0.250723  0.707445  1
  Y  Y3  1  0.660748  0.749311  0.292362  1
  Y  Y4  1  0.373236  0.749119  0.692823  1
  Y  Y5  1  0.626715  0.250604  0.307088  1
  Y  Y6  1  0.872812  0.250511  0.807330  1
  Y  Y7  1  0.126560  0.749516  0.192859  1
  Y  Y8  1  0.953090  0.748205  0.501023  1
  Y  Y9  1  0.046846  0.251733  0.498944  1
  Y  Y10  1  0.453889  0.250979  0.999126  1
  Y  Y11  1  0.547624  0.749133  0.001306  1
  Y  Y12  1  0.676843  0.041722  0.566713  1
  Y  Y13  1  0.323103  0.958102  0.433108  1
  Y  Y14  1  0.177468  0.958060  0.933089  1
  Ho  Ho15  1  0.324402  0.542409  0.433235  1
  Ho  Ho16  1  0.825260  0.041762  0.066052  1
  Ho  Ho17  1  0.675591  0.457686  0.566591  1
  Ho  Ho18  1  0.824352  0.458111  0.066613  1
  Ho  Ho19  1  0.175642  0.542571  0.933509  1
  Bi  Bi20  1  0.566720  0.492027  0.826378  1
  Bi  Bi21  1  0.432880  0.507841  0.173703  1
  Bi  Bi22  1  0.066784  0.507767  0.674018  1
  Bi  Bi23  1  0.433108  0.992128  0.173199  1
  Bi  Bi24  1  0.933074  0.491941  0.326152  1
  Bi  Bi25  1  0.566886  0.007924  0.826563  1
  Bi  Bi26  1  0.932421  0.007993  0.326964  1
  Bi  Bi27  1  0.067280  0.992034  0.673071  1
  Rh  Rh28  1  0.571513  0.747675  0.509633  1
  Rh  Rh29  1  0.428638  0.252193  0.490316  1
  Rh  Rh30  1  0.069525  0.251406  0.990939  1
  Rh  Rh31  1  0.927983  0.749133  0.009911  1
