# generated using pymatgen
data_Li6Ta5FeRh12
_symmetry_space_group_name_H-M   'P 1'
_cell_length_a   4.34682000
_cell_length_b   6.05870300
_cell_length_c   12.98659100
_cell_angle_alpha   90.00000000
_cell_angle_beta   89.99979308
_cell_angle_gamma   90.00000000
_symmetry_Int_Tables_number   1
_chemical_formula_structural   Li6Ta5FeRh12
_chemical_formula_sum   'Li6 Ta5 Fe1 Rh12'
_cell_volume   342.01604722
_cell_formula_units_Z   1
loop_
 _symmetry_equiv_pos_site_id
 _symmetry_equiv_pos_as_xyz
  1  'x, y, z'
loop_
 _atom_site_type_symbol
 _atom_site_label
 _atom_site_symmetry_multiplicity
 _atom_site_fract_x
 _atom_site_fract_y
 _atom_site_fract_z
 _atom_site_occupancy
  Li  Li0  1  0.999975  0.500000  0.997422  1
  Li  Li1  1  0.499857  0.000000  0.164331  1
  Li  Li2  1  0.999835  0.500000  0.333376  1
  Li  Li3  1  0.499998  0.000000  0.502340  1
  Li  Li4  1  0.000149  0.500000  0.669202  1
  Li  Li5  1  0.500159  0.000000  0.833355  1
  Ta  Ta6  1  0.000000  0.000000  0.995180  1
  Ta  Ta7  1  0.499883  0.500000  0.164208  1
  Ta  Ta8  1  0.999885  0.000000  0.333315  1
  Ta  Ta9  1  0.499997  0.500000  0.502429  1
  Ta  Ta10  1  0.000128  0.000000  0.671528  1
  Fe  Fe11  1  0.500123  0.500000  0.833325  1
  Rh  Rh12  1  0.499991  0.252563  0.997640  1
  Rh  Rh13  1  0.499991  0.747437  0.997640  1
  Rh  Rh14  1  0.999890  0.249843  0.165620  1
  Rh  Rh15  1  0.999890  0.750156  0.165620  1
  Rh  Rh16  1  0.499887  0.250048  0.333349  1
  Rh  Rh17  1  0.499887  0.749951  0.333349  1
  Rh  Rh18  1  0.999996  0.249819  0.501007  1
  Rh  Rh19  1  0.999996  0.750181  0.501007  1
  Rh  Rh20  1  0.500122  0.252623  0.669032  1
  Rh  Rh21  1  0.500122  0.747376  0.669032  1
  Rh  Rh22  1  0.000116  0.257303  0.833348  1
  Rh  Rh23  1  0.000116  0.742696  0.833348  1
