# generated using pymatgen
data_Ho2In(PIr2)6
_symmetry_space_group_name_H-M   'P 1'
_cell_length_a   9.73360400
_cell_length_b   9.73360494
_cell_length_c   3.99186000
_cell_angle_alpha   90.00000000
_cell_angle_beta   90.00000000
_cell_angle_gamma   119.99999589
_symmetry_Int_Tables_number   1
_chemical_formula_structural   Ho2In(PIr2)6
_chemical_formula_sum   'Ho2 In1 P6 Ir12'
_cell_volume   327.53170077
_cell_formula_units_Z   1
loop_
 _symmetry_equiv_pos_site_id
 _symmetry_equiv_pos_as_xyz
  1  'x, y, z'
loop_
 _atom_site_type_symbol
 _atom_site_label
 _atom_site_symmetry_multiplicity
 _atom_site_fract_x
 _atom_site_fract_y
 _atom_site_fract_z
 _atom_site_occupancy
  Ho  Ho0  1  0.333333  0.666667  0.238325  1
  Ho  Ho1  1  0.666667  0.333333  0.761675  1
  In  In2  1  0.000000  0.000000  0.500000  1
  P  P3  1  0.405233  0.124001  0.264628  1
  P  P4  1  0.718768  0.594767  0.264628  1
  P  P5  1  0.875999  0.281232  0.264628  1
  P  P6  1  0.594767  0.875999  0.735372  1
  P  P7  1  0.281232  0.405233  0.735372  1
  P  P8  1  0.124001  0.718768  0.735372  1
  Ir  Ir9  1  0.459732  0.390993  0.255645  1
  Ir  Ir10  1  0.931261  0.540268  0.255645  1
  Ir  Ir11  1  0.609007  0.068739  0.255645  1
  Ir  Ir12  1  0.540268  0.609007  0.744355  1
  Ir  Ir13  1  0.068739  0.459732  0.744355  1
  Ir  Ir14  1  0.390993  0.931261  0.744355  1
  Ir  Ir15  1  0.167469  0.872354  0.228035  1
  Ir  Ir16  1  0.704885  0.832531  0.228035  1
  Ir  Ir17  1  0.127646  0.295115  0.228035  1
  Ir  Ir18  1  0.832531  0.127646  0.771965  1
  Ir  Ir19  1  0.295115  0.167469  0.771965  1
  Ir  Ir20  1  0.872354  0.704885  0.771965  1
