# generated using pymatgen
data_TbLu2UAs6Ru7
_symmetry_space_group_name_H-M   'P 1'
_cell_length_a   7.25085541
_cell_length_b   7.17606375
_cell_length_c   7.18553570
_cell_angle_alpha   109.25221961
_cell_angle_beta   109.67478390
_cell_angle_gamma   109.64380113
_symmetry_Int_Tables_number   1
_chemical_formula_structural   TbLu2UAs6Ru7
_chemical_formula_sum   'Tb1 Lu2 U1 As6 Ru7'
_cell_volume   287.25141806
_cell_formula_units_Z   1
loop_
 _symmetry_equiv_pos_site_id
 _symmetry_equiv_pos_as_xyz
  1  'x, y, z'
loop_
 _atom_site_type_symbol
 _atom_site_label
 _atom_site_symmetry_multiplicity
 _atom_site_fract_x
 _atom_site_fract_y
 _atom_site_fract_z
 _atom_site_occupancy
  Tb  Tb0  1  0.000000  0.500000  0.000000  1
  Lu  Lu1  1  0.000000  0.000000  0.500000  1
  Lu  Lu2  1  0.500000  0.500000  0.500000  1
  U  U3  1  0.500000  0.000000  0.000000  1
  As  As4  1  0.313969  0.002384  0.317925  1
  As  As5  1  0.003956  0.315542  0.317925  1
  As  As6  1  0.996044  0.684458  0.682075  1
  As  As7  1  0.313829  0.315101  0.000000  1
  As  As8  1  0.686171  0.684899  0.000000  1
  As  As9  1  0.686031  0.997616  0.682075  1
  Ru  Ru10  1  0.743966  0.492287  0.246790  1
  Ru  Ru11  1  0.502823  0.754501  0.246790  1
  Ru  Ru12  1  0.497177  0.245499  0.753210  1
  Ru  Ru13  1  0.745292  0.245292  0.490584  1
  Ru  Ru14  1  0.254708  0.754708  0.509416  1
  Ru  Ru15  1  0.256034  0.507713  0.753210  1
  Ru  Ru16  1  0.000000  0.000000  0.000000  1
