# generated using pymatgen
data_Y3Ho5Ti11Si16Ru
_symmetry_space_group_name_H-M   'P 1'
_cell_length_a   7.02223300
_cell_length_b   7.02212438
_cell_length_c   12.87874385
_cell_angle_alpha   90.03331020
_cell_angle_beta   89.95722903
_cell_angle_gamma   89.91184828
_symmetry_Int_Tables_number   1
_chemical_formula_structural   Y3Ho5Ti11Si16Ru
_chemical_formula_sum   'Y3 Ho5 Ti11 Si16 Ru1'
_cell_volume   635.06261843
_cell_formula_units_Z   1
loop_
 _symmetry_equiv_pos_site_id
 _symmetry_equiv_pos_as_xyz
  1  'x, y, z'
loop_
 _atom_site_type_symbol
 _atom_site_label
 _atom_site_symmetry_multiplicity
 _atom_site_fract_x
 _atom_site_fract_y
 _atom_site_fract_z
 _atom_site_occupancy
  Y  Y0  1  0.340498  0.004071  0.467320  1
  Y  Y1  1  0.496542  0.841072  0.718086  1
  Y  Y2  1  0.500926  0.159281  0.215189  1
  Ho  Ho3  1  0.841539  0.497087  0.282146  1
  Ho  Ho4  1  0.158943  0.500236  0.784958  1
  Ho  Ho5  1  0.658166  0.998670  0.968140  1
  Ho  Ho6  1  0.003486  0.340980  0.532776  1
  Ho  Ho7  1  0.998623  0.658052  0.031640  1
  Ti  Ti8  1  0.174420  0.827125  0.248547  1
  Ti  Ti9  1  0.827717  0.175075  0.751410  1
  Ti  Ti10  1  0.674160  0.673404  0.499860  1
  Ti  Ti11  1  0.150146  0.004120  0.875745  1
  Ti  Ti12  1  0.493053  0.655158  0.125177  1
  Ti  Ti13  1  0.506957  0.349124  0.627800  1
  Ti  Ti14  1  0.655329  0.492944  0.874901  1
  Ti  Ti15  1  0.348808  0.507019  0.372390  1
  Ti  Ti16  1  0.848724  0.993577  0.375327  1
  Ti  Ti17  1  0.004004  0.150362  0.124332  1
  Ti  Ti18  1  0.993634  0.848512  0.624820  1
  Si  Si19  1  0.202167  0.132601  0.685011  1
  Si  Si20  1  0.371963  0.700370  0.933913  1
  Si  Si21  1  0.631822  0.296747  0.434267  1
  Si  Si22  1  0.700930  0.372557  0.065896  1
  Si  Si23  1  0.295648  0.630206  0.565760  1
  Si  Si24  1  0.797138  0.868134  0.183871  1
  Si  Si25  1  0.130985  0.203189  0.315051  1
  Si  Si26  1  0.869212  0.796509  0.816352  1
  Si  Si27  1  0.287080  0.953067  0.064280  1
  Si  Si28  1  0.547555  0.791299  0.315538  1
  Si  Si29  1  0.449691  0.209841  0.817908  1
  Si  Si30  1  0.792650  0.546623  0.684333  1
  Si  Si31  1  0.208795  0.450354  0.182259  1
  Si  Si32  1  0.709404  0.048628  0.565362  1
  Si  Si33  1  0.953568  0.287489  0.935393  1
  Si  Si34  1  0.047649  0.708060  0.434410  1
  Ru  Ru35  1  0.328069  0.328455  0.999833  1
