# generated using pymatgen
data_Ce4ReB16W3
_symmetry_space_group_name_H-M   'P 1'
_cell_length_a   3.69427800
_cell_length_b   6.06151631
_cell_length_c   11.73763233
_cell_angle_alpha   89.98934812
_cell_angle_beta   90.00000000
_cell_angle_gamma   90.00000000
_symmetry_Int_Tables_number   1
_chemical_formula_structural   Ce4ReB16W3
_chemical_formula_sum   'Ce4 Re1 B16 W3'
_cell_volume   262.83993191
_cell_formula_units_Z   1
loop_
 _symmetry_equiv_pos_site_id
 _symmetry_equiv_pos_as_xyz
  1  'x, y, z'
loop_
 _atom_site_type_symbol
 _atom_site_label
 _atom_site_symmetry_multiplicity
 _atom_site_fract_x
 _atom_site_fract_y
 _atom_site_fract_z
 _atom_site_occupancy
  Ce  Ce0  1  0.000000  0.625475  0.350091  1
  Ce  Ce1  1  0.000000  0.375132  0.649751  1
  Ce  Ce2  1  0.000000  0.124817  0.151685  1
  Ce  Ce3  1  0.000000  0.874951  0.848001  1
  Re  Re4  1  0.000000  0.867082  0.588314  1
  B  B5  1  0.500000  0.785512  0.185715  1
  B  B6  1  0.500000  0.213539  0.813900  1
  B  B7  1  0.500000  0.286429  0.314510  1
  B  B8  1  0.500000  0.715851  0.684376  1
  B  B9  1  0.500000  0.864108  0.031916  1
  B  B10  1  0.500000  0.135640  0.967576  1
  B  B11  1  0.500000  0.363766  0.469140  1
  B  B12  1  0.500000  0.637850  0.532610  1
  B  B13  1  0.500000  0.885608  0.454888  1
  B  B14  1  0.500000  0.111871  0.547356  1
  B  B15  1  0.500000  0.386173  0.046186  1
  B  B16  1  0.500000  0.613862  0.953198  1
  B  B17  1  0.500000  0.973041  0.309207  1
  B  B18  1  0.500000  0.024852  0.690763  1
  B  B19  1  0.500000  0.474737  0.191709  1
  B  B20  1  0.500000  0.526341  0.807819  1
  W  W21  1  0.000000  0.630073  0.085675  1
  W  W22  1  0.000000  0.369749  0.913275  1
  W  W23  1  0.000000  0.133540  0.412340  1
