# generated using pymatgen
data_Tm4Ga17SiRh6
_symmetry_space_group_name_H-M   'P 1'
_cell_length_a   7.55455366
_cell_length_b   7.52614858
_cell_length_c   9.47489122
_cell_angle_alpha   90.05990121
_cell_angle_beta   89.89222808
_cell_angle_gamma   119.90369285
_symmetry_Int_Tables_number   1
_chemical_formula_structural   Tm4Ga17SiRh6
_chemical_formula_sum   'Tm4 Ga17 Si1 Rh6'
_cell_volume   466.98866161
_cell_formula_units_Z   1
loop_
 _symmetry_equiv_pos_site_id
 _symmetry_equiv_pos_as_xyz
  1  'x, y, z'
loop_
 _atom_site_type_symbol
 _atom_site_label
 _atom_site_symmetry_multiplicity
 _atom_site_fract_x
 _atom_site_fract_y
 _atom_site_fract_z
 _atom_site_occupancy
  Tm  Tm0  1  0.995682  0.663361  0.247646  1
  Tm  Tm1  1  0.003539  0.330953  0.752452  1
  Tm  Tm2  1  0.674381  0.003194  0.247737  1
  Tm  Tm3  1  0.329854  0.002644  0.749549  1
  Ga  Ga4  1  0.127822  0.127096  0.250536  1
  Ga  Ga5  1  0.872644  0.874658  0.750570  1
  Ga  Ga6  1  0.999514  0.670773  0.918324  1
  Ga  Ga7  1  0.000436  0.665415  0.579159  1
  Ga  Ga8  1  0.333829  0.997948  0.419994  1
  Ga  Ga9  1  0.999862  0.334776  0.422180  1
  Ga  Ga10  1  0.665421  0.000396  0.579183  1
  Ga  Ga11  1  0.659121  0.995649  0.918303  1
  Ga  Ga12  1  0.333124  0.997897  0.080422  1
  Ga  Ga13  1  0.333411  0.332489  0.566185  1
  Ga  Ga14  1  0.668610  0.669026  0.433396  1
  Ga  Ga15  1  0.667391  0.668989  0.068593  1
  Ga  Ga16  1  0.338464  0.332573  0.932360  1
  Ga  Ga17  1  0.339178  0.547871  0.250998  1
  Ga  Ga18  1  0.663171  0.451058  0.751067  1
  Ga  Ga19  1  0.547301  0.338210  0.250556  1
  Ga  Ga20  1  0.450296  0.659535  0.750310  1
  Si  Si21  1  0.000394  0.334462  0.074509  1
  Rh  Rh22  1  0.684657  0.329864  0.003887  1
  Rh  Rh23  1  0.314134  0.657686  0.001244  1
  Rh  Rh24  1  0.328199  0.671711  0.499975  1
  Rh  Rh25  1  0.671803  0.328261  0.499841  1
  Rh  Rh26  1  0.997810  0.013210  0.001158  1
  Rh  Rh27  1  0.999950  0.000295  0.499862  1
