# generated using pymatgen
data_Sm3Y7(Sn3Sb)2
_symmetry_space_group_name_H-M   'P 1'
_cell_length_a   8.16481900
_cell_length_b   8.21040051
_cell_length_c   15.48886037
_cell_angle_alpha   90.05733518
_cell_angle_beta   90.00000000
_cell_angle_gamma   90.00000000
_symmetry_Int_Tables_number   1
_chemical_formula_structural   Sm3Y7(Sn3Sb)2
_chemical_formula_sum   'Sm6 Y14 Sn12 Sb4'
_cell_volume   1038.31744722
_cell_formula_units_Z   2
loop_
 _symmetry_equiv_pos_site_id
 _symmetry_equiv_pos_as_xyz
  1  'x, y, z'
loop_
 _atom_site_type_symbol
 _atom_site_label
 _atom_site_symmetry_multiplicity
 _atom_site_fract_x
 _atom_site_fract_y
 _atom_site_fract_z
 _atom_site_occupancy
  Sm  Sm0  1  0.467386  0.674651  0.398565  1
  Sm  Sm1  1  0.967386  0.825349  0.101435  1
  Sm  Sm2  1  0.475763  0.677658  0.099466  1
  Sm  Sm3  1  0.975763  0.822342  0.400534  1
  Sm  Sm4  1  0.523375  0.321266  0.599442  1
  Sm  Sm5  1  0.023375  0.178734  0.900558  1
  Y  Y6  1  0.370351  0.839530  0.877993  1
  Y  Y7  1  0.870351  0.660470  0.622007  1
  Y  Y8  1  0.628191  0.160872  0.378190  1
  Y  Y9  1  0.128191  0.339128  0.121810  1
  Y  Y10  1  0.630643  0.161203  0.121662  1
  Y  Y11  1  0.130643  0.338797  0.378338  1
  Y  Y12  1  0.369132  0.838864  0.622797  1
  Y  Y13  1  0.869132  0.661136  0.877203  1
  Y  Y14  1  0.535771  0.327469  0.896218  1
  Y  Y15  1  0.035771  0.172531  0.603782  1
  Y  Y16  1  0.199248  0.500828  0.748183  1
  Y  Y17  1  0.699248  0.999172  0.751817  1
  Y  Y18  1  0.800397  0.498877  0.248185  1
  Y  Y19  1  0.300397  0.001123  0.251815  1
  Sn  Sn20  1  0.709281  0.965481  0.956737  1
  Sn  Sn21  1  0.209281  0.534519  0.543263  1
  Sn  Sn22  1  0.287938  0.036208  0.458526  1
  Sn  Sn23  1  0.787938  0.463792  0.041474  1
  Sn  Sn24  1  0.565957  0.622321  0.749518  1
  Sn  Sn25  1  0.065957  0.877679  0.750482  1
  Sn  Sn26  1  0.433511  0.377311  0.249221  1
  Sn  Sn27  1  0.933511  0.122689  0.250779  1
  Sn  Sn28  1  0.334029  0.146153  0.751544  1
  Sn  Sn29  1  0.834029  0.353847  0.748456  1
  Sn  Sn30  1  0.666701  0.855488  0.250699  1
  Sn  Sn31  1  0.166701  0.644512  0.249301  1
  Sb  Sb32  1  0.286012  0.032913  0.044261  1
  Sb  Sb33  1  0.786012  0.467087  0.455739  1
  Sb  Sb34  1  0.716316  0.968918  0.544610  1
  Sb  Sb35  1  0.216316  0.531082  0.955390  1
