# generated using pymatgen
data_Ce2U2Tc7As6
_symmetry_space_group_name_H-M   'P 1'
_cell_length_a   7.25099549
_cell_length_b   7.30515752
_cell_length_c   7.24708572
_cell_angle_alpha   109.35782843
_cell_angle_beta   109.36186303
_cell_angle_gamma   109.38228107
_symmetry_Int_Tables_number   1
_chemical_formula_structural   Ce2U2Tc7As6
_chemical_formula_sum   'Ce2 U2 Tc7 As6'
_cell_volume   296.63891144
_cell_formula_units_Z   1
loop_
 _symmetry_equiv_pos_site_id
 _symmetry_equiv_pos_as_xyz
  1  'x, y, z'
loop_
 _atom_site_type_symbol
 _atom_site_label
 _atom_site_symmetry_multiplicity
 _atom_site_fract_x
 _atom_site_fract_y
 _atom_site_fract_z
 _atom_site_occupancy
  Ce  Ce0  1  0.000000  0.000000  0.500000  1
  Ce  Ce1  1  0.500000  0.000000  0.000000  1
  U  U2  1  0.000000  0.500000  0.000000  1
  U  U3  1  0.500000  0.500000  0.500000  1
  Tc  Tc4  1  0.749951  0.500050  0.250132  1
  Tc  Tc5  1  0.491243  0.740772  0.249283  1
  Tc  Tc6  1  0.508757  0.259228  0.750717  1
  Tc  Tc7  1  0.750696  0.259524  0.509004  1
  Tc  Tc8  1  0.249304  0.740476  0.490996  1
  Tc  Tc9  1  0.250049  0.499950  0.749868  1
  Tc  Tc10  1  0.000000  0.000000  0.000000  1
  As  As11  1  0.311017  0.000124  0.311010  1
  As  As12  1  0.000462  0.311378  0.310714  1
  As  As13  1  0.999538  0.688622  0.689286  1
  As  As14  1  0.310833  0.311615  0.000731  1
  As  As15  1  0.689167  0.688385  0.999269  1
  As  As16  1  0.688983  0.999876  0.688990  1
