# generated using pymatgen
data_SrY3Ir3PdO14
_symmetry_space_group_name_H-M   'P 1'
_cell_length_a   7.31595672
_cell_length_b   7.30153213
_cell_length_c   7.31595700
_cell_angle_alpha   59.93462175
_cell_angle_beta   59.99999420
_cell_angle_gamma   59.93462107
_symmetry_Int_Tables_number   1
_chemical_formula_structural   SrY3Ir3PdO14
_chemical_formula_sum   'Sr1 Y3 Ir3 Pd1 O14'
_cell_volume   276.06501883
_cell_formula_units_Z   1
loop_
 _symmetry_equiv_pos_site_id
 _symmetry_equiv_pos_as_xyz
  1  'x, y, z'
loop_
 _atom_site_type_symbol
 _atom_site_label
 _atom_site_symmetry_multiplicity
 _atom_site_fract_x
 _atom_site_fract_y
 _atom_site_fract_z
 _atom_site_occupancy
  Sr  Sr0  1  0.125000  0.625000  0.125000  1
  Y  Y1  1  0.625000  0.125000  0.125000  1
  Y  Y2  1  0.125000  0.125000  0.625000  1
  Y  Y3  1  0.125000  0.125000  0.125000  1
  Ir  Ir4  1  0.125000  0.625000  0.625000  1
  Ir  Ir5  1  0.625000  0.625000  0.125000  1
  Ir  Ir6  1  0.625000  0.625000  0.625000  1
  Pd  Pd7  1  0.625000  0.125000  0.625000  1
  O  O8  1  0.695393  0.710011  0.297298  1
  O  O9  1  0.284785  0.290337  0.712439  1
  O  O10  1  0.712439  0.290337  0.712439  1
  O  O11  1  0.297298  0.710011  0.297298  1
  O  O12  1  0.297298  0.710011  0.695393  1
  O  O13  1  0.712439  0.290337  0.284785  1
  O  O14  1  0.554607  0.539989  0.952702  1
  O  O15  1  0.965215  0.959663  0.537561  1
  O  O16  1  0.537561  0.959663  0.537561  1
  O  O17  1  0.952702  0.539989  0.952702  1
  O  O18  1  0.952702  0.539989  0.554607  1
  O  O19  1  0.537561  0.959663  0.965215  1
  O  O20  1  0.257100  0.228699  0.257100  1
  O  O21  1  0.992900  0.021301  0.992900  1
