# generated using pymatgen
data_Tm4FeTcRu6
_symmetry_space_group_name_H-M   'P 1'
_cell_length_a   5.14597787
_cell_length_b   5.29267337
_cell_length_c   8.84992300
_cell_angle_alpha   90.00000000
_cell_angle_beta   90.00000000
_cell_angle_gamma   119.78883269
_symmetry_Int_Tables_number   1
_chemical_formula_structural   Tm4FeTcRu6
_chemical_formula_sum   'Tm4 Fe1 Tc1 Ru6'
_cell_volume   209.18634037
_cell_formula_units_Z   1
loop_
 _symmetry_equiv_pos_site_id
 _symmetry_equiv_pos_as_xyz
  1  'x, y, z'
loop_
 _atom_site_type_symbol
 _atom_site_label
 _atom_site_symmetry_multiplicity
 _atom_site_fract_x
 _atom_site_fract_y
 _atom_site_fract_z
 _atom_site_occupancy
  Tm  Tm0  1  0.331657  0.668121  0.432533  1
  Tm  Tm1  1  0.661197  0.328393  0.564346  1
  Tm  Tm2  1  0.661197  0.328393  0.935654  1
  Tm  Tm3  1  0.331657  0.668121  0.067467  1
  Fe  Fe4  1  0.836178  0.166246  0.250000  1
  Tc  Tc5  1  0.669189  0.833617  0.750000  1
  Ru  Ru6  1  0.987807  0.998633  0.497480  1
  Ru  Ru7  1  0.987807  0.998633  0.002520  1
  Ru  Ru8  1  0.826998  0.657759  0.250000  1
  Ru  Ru9  1  0.351751  0.175035  0.250000  1
  Ru  Ru10  1  0.176345  0.829157  0.750000  1
  Ru  Ru11  1  0.178215  0.347889  0.750000  1
