# generated using pymatgen
data_Hf3(AgCl4)2
_symmetry_space_group_name_H-M   'P 1'
_cell_length_a   4.11256436
_cell_length_b   11.24707471
_cell_length_c   14.66846732
_cell_angle_alpha   64.01174966
_cell_angle_beta   82.00359251
_cell_angle_gamma   71.88574365
_symmetry_Int_Tables_number   1
_chemical_formula_structural   Hf3(AgCl4)2
_chemical_formula_sum   'Hf3 Ag2 Cl8'
_cell_volume   579.64508477
_cell_formula_units_Z   1
loop_
 _symmetry_equiv_pos_site_id
 _symmetry_equiv_pos_as_xyz
  1  'x, y, z'
loop_
 _atom_site_type_symbol
 _atom_site_label
 _atom_site_symmetry_multiplicity
 _atom_site_fract_x
 _atom_site_fract_y
 _atom_site_fract_z
 _atom_site_occupancy
  Hf  Hf0  1  0.303938  0.914045  0.302604  1
  Hf  Hf1  1  0.742394  0.079298  0.123120  1
  Hf  Hf2  1  0.973715  0.727309  0.250331  1
  Ag  Ag3  1  0.487107  0.628111  0.418810  1
  Ag  Ag4  1  0.336049  0.415645  0.372400  1
  Cl  Cl5  1  0.663261  0.243996  0.956888  1
  Cl  Cl6  1  0.017209  0.497199  0.745452  1
  Cl  Cl7  1  0.175524  0.972011  0.439093  1
  Cl  Cl8  1  0.144907  0.534625  0.200960  1
  Cl  Cl9  1  0.956125  0.882804  0.071880  1
  Cl  Cl10  1  0.593118  0.177797  0.239281  1
  Cl  Cl11  1  0.504795  0.369539  0.532399  1
  Cl  Cl12  1  0.479038  0.562846  0.705969  1
