# generated using pymatgen
data_Eu3Cd(PPd4)5
_symmetry_space_group_name_H-M   'P 1'
_cell_length_a   8.76084132
_cell_length_b   8.77829673
_cell_length_c   8.77829600
_cell_angle_alpha   59.86848281
_cell_angle_beta   60.06575118
_cell_angle_gamma   60.06575159
_symmetry_Int_Tables_number   1
_chemical_formula_structural   Eu3Cd(PPd4)5
_chemical_formula_sum   'Eu3 Cd1 P5 Pd20'
_cell_volume   477.36197226
_cell_formula_units_Z   1
loop_
 _symmetry_equiv_pos_site_id
 _symmetry_equiv_pos_as_xyz
  1  'x, y, z'
loop_
 _atom_site_type_symbol
 _atom_site_label
 _atom_site_symmetry_multiplicity
 _atom_site_fract_x
 _atom_site_fract_y
 _atom_site_fract_z
 _atom_site_occupancy
  Eu  Eu0  1  0.252906  0.247094  0.247094  1
  Eu  Eu1  1  0.752906  0.747094  0.747094  1
  Eu  Eu2  1  0.996411  0.003589  0.003589  1
  Cd  Cd3  1  0.735034  0.264966  0.264966  1
  P  P4  1  0.261563  0.738437  0.738437  1
  P  P5  1  0.269746  0.730254  0.261939  1
  P  P6  1  0.738061  0.261939  0.730254  1
  P  P7  1  0.269746  0.261939  0.730254  1
  P  P8  1  0.738061  0.730254  0.261939  1
  Pd  Pd9  1  0.362390  0.395315  0.395315  1
  Pd  Pd10  1  0.608218  0.616307  0.616307  1
  Pd  Pd11  1  0.383693  0.391782  0.840831  1
  Pd  Pd12  1  0.383693  0.840831  0.391782  1
  Pd  Pd13  1  0.604685  0.637610  0.153019  1
  Pd  Pd14  1  0.604685  0.153019  0.637610  1
  Pd  Pd15  1  0.846981  0.395315  0.395315  1
  Pd  Pd16  1  0.159169  0.616307  0.616307  1
  Pd  Pd17  1  0.345481  0.999861  0.999861  1
  Pd  Pd18  1  0.654798  0.999861  0.999861  1
  Pd  Pd19  1  0.000139  0.345202  0.654519  1
  Pd  Pd20  1  0.000139  0.654519  0.345202  1
  Pd  Pd21  1  0.024126  0.351446  0.975874  1
  Pd  Pd22  1  0.648554  0.975874  0.351446  1
  Pd  Pd23  1  0.998057  0.654991  0.001943  1
  Pd  Pd24  1  0.345009  0.001943  0.654991  1
  Pd  Pd25  1  0.024126  0.975874  0.351446  1
  Pd  Pd26  1  0.998057  0.001943  0.654991  1
  Pd  Pd27  1  0.648554  0.351446  0.975874  1
  Pd  Pd28  1  0.345009  0.654991  0.001943  1
