# generated using pymatgen
data_Fe2Re3(TcAs6)2
_symmetry_space_group_name_H-M   'P 1'
_cell_length_a   3.10437000
_cell_length_b   12.87161467
_cell_length_c   15.84449605
_cell_angle_alpha   89.94168248
_cell_angle_beta   90.00000000
_cell_angle_gamma   90.00000000
_symmetry_Int_Tables_number   1
_chemical_formula_structural   Fe2Re3(TcAs6)2
_chemical_formula_sum   'Fe4 Re6 Tc4 As24'
_cell_volume   633.11807650
_cell_formula_units_Z   2
loop_
 _symmetry_equiv_pos_site_id
 _symmetry_equiv_pos_as_xyz
  1  'x, y, z'
loop_
 _atom_site_type_symbol
 _atom_site_label
 _atom_site_symmetry_multiplicity
 _atom_site_fract_x
 _atom_site_fract_y
 _atom_site_fract_z
 _atom_site_occupancy
  Fe  Fe0  1  0.500000  0.125990  0.344071  1
  Fe  Fe1  1  0.500000  0.874268  0.656386  1
  Fe  Fe2  1  0.000000  0.374065  0.843410  1
  Fe  Fe3  1  0.000000  0.625182  0.156232  1
  Re  Re4  1  0.500000  0.316438  0.103084  1
  Re  Re5  1  0.500000  0.683385  0.896979  1
  Re  Re6  1  0.000000  0.183574  0.603281  1
  Re  Re7  1  0.000000  0.817243  0.396194  1
  Re  Re8  1  0.500000  0.914319  0.261521  1
  Re  Re9  1  0.500000  0.500113  0.499957  1
  Tc  Tc10  1  0.500000  0.085256  0.738884  1
  Tc  Tc11  1  0.000000  0.585306  0.761118  1
  Tc  Tc12  1  0.000000  0.414722  0.238916  1
  Tc  Tc13  1  0.000000  0.999914  0.000050  1
  As  As14  1  0.500000  0.903756  0.097032  1
  As  As15  1  0.500000  0.096410  0.903047  1
  As  As16  1  0.000000  0.596864  0.597307  1
  As  As17  1  0.000000  0.403202  0.402718  1
  As  As18  1  0.500000  0.567727  0.259777  1
  As  As19  1  0.500000  0.431964  0.740112  1
  As  As20  1  0.000000  0.931976  0.760110  1
  As  As21  1  0.000000  0.068542  0.239675  1
  As  As22  1  0.500000  0.654917  0.405594  1
  As  As23  1  0.500000  0.345212  0.594490  1
  As  As24  1  0.000000  0.845021  0.905886  1
  As  As25  1  0.000000  0.155001  0.093488  1
  As  As26  1  0.500000  0.969796  0.421213  1
  As  As27  1  0.500000  0.030984  0.579981  1
  As  As28  1  0.000000  0.530182  0.920788  1
  As  As29  1  0.000000  0.469504  0.078966  1
  As  As30  1  0.500000  0.707182  0.060689  1
  As  As31  1  0.500000  0.292651  0.939185  1
  As  As32  1  0.000000  0.793410  0.560300  1
  As  As33  1  0.000000  0.206990  0.439650  1
  As  As34  1  0.500000  0.730071  0.742328  1
  As  As35  1  0.500000  0.270043  0.257953  1
  As  As36  1  0.000000  0.768901  0.241441  1
  As  As37  1  0.000000  0.229920  0.758189  1
