# generated using pymatgen
data_TiNb8SnSe16
_symmetry_space_group_name_H-M   'P 1'
_cell_length_a   7.01122300
_cell_length_b   7.01122269
_cell_length_c   14.00197300
_cell_angle_alpha   90.00000000
_cell_angle_beta   90.00000000
_cell_angle_gamma   120.00001564
_symmetry_Int_Tables_number   1
_chemical_formula_structural   TiNb8SnSe16
_chemical_formula_sum   'Ti1 Nb8 Sn1 Se16'
_cell_volume   596.08382985
_cell_formula_units_Z   1
loop_
 _symmetry_equiv_pos_site_id
 _symmetry_equiv_pos_as_xyz
  1  'x, y, z'
loop_
 _atom_site_type_symbol
 _atom_site_label
 _atom_site_symmetry_multiplicity
 _atom_site_fract_x
 _atom_site_fract_y
 _atom_site_fract_z
 _atom_site_occupancy
  Ti  Ti0  1  0.000000  0.000000  0.000000  1
  Nb  Nb1  1  0.000000  0.000000  0.230613  1
  Nb  Nb2  1  0.000000  0.000000  0.769387  1
  Nb  Nb3  1  0.506820  0.493180  0.231005  1
  Nb  Nb4  1  0.506820  0.013640  0.231005  1
  Nb  Nb5  1  0.986360  0.493180  0.231005  1
  Nb  Nb6  1  0.493180  0.506820  0.768995  1
  Nb  Nb7  1  0.493180  0.986360  0.768995  1
  Nb  Nb8  1  0.013640  0.506820  0.768995  1
  Sn  Sn9  1  0.000000  0.000000  0.500000  1
  Se  Se10  1  0.333333  0.666667  0.891174  1
  Se  Se11  1  0.666667  0.333333  0.108826  1
  Se  Se12  1  0.666667  0.333333  0.354780  1
  Se  Se13  1  0.333333  0.666667  0.645220  1
  Se  Se14  1  0.169045  0.830955  0.349569  1
  Se  Se15  1  0.169045  0.338090  0.349569  1
  Se  Se16  1  0.661910  0.830955  0.349569  1
  Se  Se17  1  0.830955  0.169045  0.650431  1
  Se  Se18  1  0.830955  0.661910  0.650431  1
  Se  Se19  1  0.338090  0.169045  0.650431  1
  Se  Se20  1  0.832098  0.167902  0.888026  1
  Se  Se21  1  0.832098  0.664196  0.888026  1
  Se  Se22  1  0.335804  0.167902  0.888026  1
  Se  Se23  1  0.167902  0.832098  0.111974  1
  Se  Se24  1  0.167902  0.335804  0.111974  1
  Se  Se25  1  0.664196  0.832098  0.111974  1
