# generated using pymatgen
data_Dy7Pa(TcB6)4
_symmetry_space_group_name_H-M   'P 1'
_cell_length_a   3.69976300
_cell_length_b   9.16622895
_cell_length_c   11.54134307
_cell_angle_alpha   90.16489644
_cell_angle_beta   90.00000000
_cell_angle_gamma   90.00000000
_symmetry_Int_Tables_number   1
_chemical_formula_structural   Dy7Pa(TcB6)4
_chemical_formula_sum   'Dy7 Pa1 Tc4 B24'
_cell_volume   391.39850083
_cell_formula_units_Z   1
loop_
 _symmetry_equiv_pos_site_id
 _symmetry_equiv_pos_as_xyz
  1  'x, y, z'
loop_
 _atom_site_type_symbol
 _atom_site_label
 _atom_site_symmetry_multiplicity
 _atom_site_fract_x
 _atom_site_fract_y
 _atom_site_fract_z
 _atom_site_occupancy
  Dy  Dy0  1  0.000000  0.678448  0.586869  1
  Dy  Dy1  1  0.000000  0.823902  0.085381  1
  Dy  Dy2  1  0.000000  0.175403  0.913566  1
  Dy  Dy3  1  0.000000  0.942271  0.371022  1
  Dy  Dy4  1  0.000000  0.055784  0.629732  1
  Dy  Dy5  1  0.000000  0.443000  0.128400  1
  Dy  Dy6  1  0.000000  0.557509  0.869474  1
  Pa  Pa7  1  0.000000  0.323974  0.414045  1
  Tc  Tc8  1  0.000000  0.635424  0.322025  1
  Tc  Tc9  1  0.000000  0.362175  0.675913  1
  Tc  Tc10  1  0.000000  0.141103  0.181993  1
  Tc  Tc11  1  0.000000  0.861707  0.821088  1
  B  B12  1  0.500000  0.552547  0.432159  1
  B  B13  1  0.500000  0.445844  0.566901  1
  B  B14  1  0.500000  0.053913  0.067698  1
  B  B15  1  0.500000  0.947079  0.933584  1
  B  B16  1  0.500000  0.747943  0.418611  1
  B  B17  1  0.500000  0.251477  0.580777  1
  B  B18  1  0.500000  0.248212  0.080904  1
  B  B19  1  0.500000  0.751616  0.919035  1
  B  B20  1  0.500000  0.791046  0.266136  1
  B  B21  1  0.500000  0.208475  0.734331  1
  B  B22  1  0.500000  0.291606  0.234622  1
  B  B23  1  0.500000  0.708500  0.765698  1
  B  B24  1  0.500000  0.631310  0.185340  1
  B  B25  1  0.500000  0.369146  0.813569  1
  B  B26  1  0.500000  0.132474  0.314784  1
  B  B27  1  0.500000  0.868371  0.686251  1
  B  B28  1  0.500000  0.983118  0.212303  1
  B  B29  1  0.500000  0.017363  0.788261  1
  B  B30  1  0.500000  0.482925  0.287784  1
  B  B31  1  0.500000  0.517202  0.712333  1
  B  B32  1  0.500000  0.602778  0.028151  1
  B  B33  1  0.500000  0.397291  0.970657  1
  B  B34  1  0.500000  0.106362  0.470643  1
  B  B35  1  0.500000  0.892698  0.529961  1
