# generated using pymatgen
data_TmNb8AlSe16
_symmetry_space_group_name_H-M   'P 1'
_cell_length_a   7.01612100
_cell_length_b   7.01612073
_cell_length_c   13.49469600
_cell_angle_alpha   90.00000000
_cell_angle_beta   90.00000000
_cell_angle_gamma   119.99999655
_symmetry_Int_Tables_number   1
_chemical_formula_structural   TmNb8AlSe16
_chemical_formula_sum   'Tm1 Nb8 Al1 Se16'
_cell_volume   575.29139246
_cell_formula_units_Z   1
loop_
 _symmetry_equiv_pos_site_id
 _symmetry_equiv_pos_as_xyz
  1  'x, y, z'
loop_
 _atom_site_type_symbol
 _atom_site_label
 _atom_site_symmetry_multiplicity
 _atom_site_fract_x
 _atom_site_fract_y
 _atom_site_fract_z
 _atom_site_occupancy
  Tm  Tm0  1  0.000000  0.000000  0.500000  1
  Nb  Nb1  1  0.000000  0.000000  0.238739  1
  Nb  Nb2  1  0.000000  0.000000  0.761261  1
  Nb  Nb3  1  0.507021  0.014042  0.236559  1
  Nb  Nb4  1  0.985958  0.492979  0.236559  1
  Nb  Nb5  1  0.507021  0.492979  0.236559  1
  Nb  Nb6  1  0.492979  0.985958  0.763441  1
  Nb  Nb7  1  0.014042  0.507021  0.763441  1
  Nb  Nb8  1  0.492979  0.507021  0.763441  1
  Al  Al9  1  0.000000  0.000000  0.000000  1
  Se  Se10  1  0.333333  0.666667  0.890022  1
  Se  Se11  1  0.666667  0.333333  0.109978  1
  Se  Se12  1  0.666667  0.333333  0.365164  1
  Se  Se13  1  0.333333  0.666667  0.634836  1
  Se  Se14  1  0.169956  0.830044  0.360383  1
  Se  Se15  1  0.169956  0.339913  0.360383  1
  Se  Se16  1  0.660087  0.830044  0.360383  1
  Se  Se17  1  0.830044  0.169956  0.639617  1
  Se  Se18  1  0.830044  0.660087  0.639617  1
  Se  Se19  1  0.339913  0.169956  0.639617  1
  Se  Se20  1  0.831525  0.168475  0.885944  1
  Se  Se21  1  0.831525  0.663052  0.885944  1
  Se  Se22  1  0.336948  0.168475  0.885944  1
  Se  Se23  1  0.168475  0.831525  0.114056  1
  Se  Se24  1  0.168475  0.336948  0.114056  1
  Se  Se25  1  0.663052  0.831525  0.114056  1
