# generated using pymatgen
data_AcLa3(Ga5Ir3)2
_symmetry_space_group_name_H-M   'P 1'
_cell_length_a   8.74768722
_cell_length_b   8.75162363
_cell_length_c   8.75171699
_cell_angle_alpha   140.57448238
_cell_angle_beta   107.66680762
_cell_angle_gamma   85.64694058
_symmetry_Int_Tables_number   1
_chemical_formula_structural   AcLa3(Ga5Ir3)2
_chemical_formula_sum   'Ac1 La3 Ga10 Ir6'
_cell_volume   391.27366956
_cell_formula_units_Z   1
loop_
 _symmetry_equiv_pos_site_id
 _symmetry_equiv_pos_as_xyz
  1  'x, y, z'
loop_
 _atom_site_type_symbol
 _atom_site_label
 _atom_site_symmetry_multiplicity
 _atom_site_fract_x
 _atom_site_fract_y
 _atom_site_fract_z
 _atom_site_occupancy
  Ac  Ac0  1  0.092370  0.863715  0.228661  1
  La  La1  1  0.635671  0.363994  0.271696  1
  La  La2  1  0.906692  0.135321  0.771340  1
  La  La3  1  0.364329  0.635844  0.728555  1
  Ga  Ga4  1  0.290980  0.040302  0.753539  1
  Ga  Ga5  1  0.291029  0.537489  0.250779  1
  Ga  Ga6  1  0.998572  0.251361  0.249089  1
  Ga  Ga7  1  0.243823  0.407169  0.836609  1
  Ga  Ga8  1  0.757822  0.592494  0.165325  1
  Ga  Ga9  1  0.709068  0.459203  0.747716  1
  Ga  Ga10  1  0.571591  0.907117  0.664483  1
  Ga  Ga11  1  0.709130  0.961426  0.249883  1
  Ga  Ga12  1  0.430869  0.095009  0.335875  1
  Ga  Ga13  1  0.998201  0.749214  0.746950  1
  Ir  Ir14  1  0.046203  0.646181  0.399989  1
  Ir  Ir15  1  0.751937  0.853629  0.898232  1
  Ir  Ir16  1  0.954448  0.354656  0.599843  1
  Ir  Ir17  1  0.245334  0.145137  0.100257  1
  Ir  Ir18  1  0.500967  0.750117  0.250338  1
  Ir  Ir19  1  0.500965  0.250623  0.750840  1
