# generated using pymatgen
data_Y8Er12Cd6TcRu
_symmetry_space_group_name_H-M   'P 1'
_cell_length_a   9.54219527
_cell_length_b   9.54131666
_cell_length_c   9.85375013
_cell_angle_alpha   89.90911232
_cell_angle_beta   90.09070460
_cell_angle_gamma   119.97523769
_symmetry_Int_Tables_number   1
_chemical_formula_structural   Y8Er12Cd6TcRu
_chemical_formula_sum   'Y8 Er12 Cd6 Tc1 Ru1'
_cell_volume   777.13482380
_cell_formula_units_Z   1
loop_
 _symmetry_equiv_pos_site_id
 _symmetry_equiv_pos_as_xyz
  1  'x, y, z'
loop_
 _atom_site_type_symbol
 _atom_site_label
 _atom_site_symmetry_multiplicity
 _atom_site_fract_x
 _atom_site_fract_y
 _atom_site_fract_z
 _atom_site_occupancy
  Y  Y0  1  0.208907  0.418484  0.058159  1
  Y  Y1  1  0.581537  0.791110  0.058149  1
  Y  Y2  1  0.540016  0.459999  0.251214  1
  Y  Y3  1  0.539079  0.078993  0.250581  1
  Y  Y4  1  0.920968  0.460899  0.250588  1
  Y  Y5  1  0.460088  0.539910  0.748569  1
  Y  Y6  1  0.459444  0.919628  0.749257  1
  Y  Y7  1  0.080388  0.540554  0.749253  1
  Er  Er8  1  0.000059  0.999943  0.500098  1
  Er  Er9  1  0.000641  0.999367  0.999298  1
  Er  Er10  1  0.209913  0.790092  0.441419  1
  Er  Er11  1  0.210105  0.420361  0.441973  1
  Er  Er12  1  0.579643  0.789907  0.441981  1
  Er  Er13  1  0.789636  0.210341  0.559030  1
  Er  Er14  1  0.789725  0.579198  0.558952  1
  Er  Er15  1  0.420793  0.210262  0.558951  1
  Er  Er16  1  0.789477  0.210528  0.940556  1
  Er  Er17  1  0.789895  0.578900  0.940785  1
  Er  Er18  1  0.421084  0.210098  0.940797  1
  Er  Er19  1  0.209703  0.790295  0.059134  1
  Cd  Cd20  1  0.885922  0.114085  0.249875  1
  Cd  Cd21  1  0.885956  0.771956  0.250144  1
  Cd  Cd22  1  0.228041  0.114053  0.250149  1
  Cd  Cd23  1  0.113788  0.886182  0.749885  1
  Cd  Cd24  1  0.113579  0.227486  0.749829  1
  Cd  Cd25  1  0.772499  0.886398  0.749822  1
  Tc  Tc26  1  0.332556  0.667464  0.251726  1
  Ru  Ru27  1  0.666558  0.333507  0.749826  1
