# generated using pymatgen
data_Yb2Gd6Be3Si12Pt
_symmetry_space_group_name_H-M   'P 1'
_cell_length_a   7.94639500
_cell_length_b   7.94639617
_cell_length_c   8.28540700
_cell_angle_alpha   90.00000000
_cell_angle_beta   90.00000000
_cell_angle_gamma   119.99999930
_symmetry_Int_Tables_number   1
_chemical_formula_structural   Yb2Gd6Be3Si12Pt
_chemical_formula_sum   'Yb2 Gd6 Be3 Si12 Pt1'
_cell_volume   453.09038276
_cell_formula_units_Z   1
loop_
 _symmetry_equiv_pos_site_id
 _symmetry_equiv_pos_as_xyz
  1  'x, y, z'
loop_
 _atom_site_type_symbol
 _atom_site_label
 _atom_site_symmetry_multiplicity
 _atom_site_fract_x
 _atom_site_fract_y
 _atom_site_fract_z
 _atom_site_occupancy
  Yb  Yb0  1  0.000000  0.000000  0.247819  1
  Yb  Yb1  1  0.000000  0.000000  0.752117  1
  Gd  Gd2  1  0.502063  0.004127  0.248085  1
  Gd  Gd3  1  0.501948  0.003897  0.751905  1
  Gd  Gd4  1  0.995873  0.497937  0.248085  1
  Gd  Gd5  1  0.996103  0.498052  0.751905  1
  Gd  Gd6  1  0.502063  0.497937  0.248085  1
  Gd  Gd7  1  0.501948  0.498052  0.751905  1
  Be  Be8  1  0.333333  0.666667  0.000645  1
  Be  Be9  1  0.666667  0.333333  0.999867  1
  Be  Be10  1  0.666667  0.333333  0.500007  1
  Si  Si11  1  0.173428  0.346855  0.999983  1
  Si  Si12  1  0.827337  0.654675  0.999954  1
  Si  Si13  1  0.653145  0.826572  0.999983  1
  Si  Si14  1  0.829115  0.658232  0.500030  1
  Si  Si15  1  0.345325  0.172663  0.999954  1
  Si  Si16  1  0.165740  0.331478  0.499951  1
  Si  Si17  1  0.173428  0.826572  0.999983  1
  Si  Si18  1  0.341768  0.170885  0.500030  1
  Si  Si19  1  0.827337  0.172663  0.999954  1
  Si  Si20  1  0.668522  0.834260  0.499951  1
  Si  Si21  1  0.829115  0.170885  0.500030  1
  Si  Si22  1  0.165740  0.834260  0.499951  1
  Pt  Pt23  1  0.333333  0.666667  0.499820  1
