# generated using pymatgen
data_Mg2ZnIn3Pd10
_symmetry_space_group_name_H-M   'P 1'
_cell_length_a   4.22171100
_cell_length_b   5.61378079
_cell_length_c   11.03500093
_cell_angle_alpha   89.90389201
_cell_angle_beta   90.00000000
_cell_angle_gamma   90.00000000
_symmetry_Int_Tables_number   1
_chemical_formula_structural   Mg2ZnIn3Pd10
_chemical_formula_sum   'Mg2 Zn1 In3 Pd10'
_cell_volume   261.52650671
_cell_formula_units_Z   1
loop_
 _symmetry_equiv_pos_site_id
 _symmetry_equiv_pos_as_xyz
  1  'x, y, z'
loop_
 _atom_site_type_symbol
 _atom_site_label
 _atom_site_symmetry_multiplicity
 _atom_site_fract_x
 _atom_site_fract_y
 _atom_site_fract_z
 _atom_site_occupancy
  Mg  Mg0  1  0.500000  0.320282  0.641210  1
  Mg  Mg1  1  0.500000  0.679718  0.358790  1
  Zn  Zn2  1  0.000000  0.500000  0.000000  1
  In  In3  1  0.000000  0.000000  0.500000  1
  In  In4  1  0.500000  0.177448  0.139358  1
  In  In5  1  0.500000  0.822552  0.860642  1
  Pd  Pd6  1  0.500000  0.202929  0.387601  1
  Pd  Pd7  1  0.500000  0.797071  0.612399  1
  Pd  Pd8  1  0.500000  0.316534  0.891750  1
  Pd  Pd9  1  0.500000  0.683466  0.108250  1
  Pd  Pd10  1  0.000000  0.430525  0.242333  1
  Pd  Pd11  1  0.000000  0.569475  0.757667  1
  Pd  Pd12  1  0.000000  0.076860  0.746159  1
  Pd  Pd13  1  0.000000  0.923140  0.253841  1
  Pd  Pd14  1  0.000000  0.000000  0.000000  1
  Pd  Pd15  1  0.000000  0.500000  0.500000  1
