# generated using pymatgen
data_Tm3LuVOs7
_symmetry_space_group_name_H-M   'P 1'
_cell_length_a   5.40315406
_cell_length_b   5.21126222
_cell_length_c   8.82920600
_cell_angle_alpha   90.00149876
_cell_angle_beta   90.00130621
_cell_angle_gamma   121.23912671
_symmetry_Int_Tables_number   1
_chemical_formula_structural   Tm3LuVOs7
_chemical_formula_sum   'Tm3 Lu1 V1 Os7'
_cell_volume   212.56084855
_cell_formula_units_Z   1
loop_
 _symmetry_equiv_pos_site_id
 _symmetry_equiv_pos_as_xyz
  1  'x, y, z'
loop_
 _atom_site_type_symbol
 _atom_site_label
 _atom_site_symmetry_multiplicity
 _atom_site_fract_x
 _atom_site_fract_y
 _atom_site_fract_z
 _atom_site_occupancy
  Tm  Tm0  1  0.331673  0.663472  0.434216  1
  Tm  Tm1  1  0.331646  0.663415  0.066037  1
  Tm  Tm2  1  0.668513  0.337308  0.936166  1
  Lu  Lu3  1  0.668717  0.337718  0.563697  1
  V  V4  1  0.167804  0.336620  0.749503  1
  Os  Os5  1  0.003896  0.006056  0.502290  1
  Os  Os6  1  0.004011  0.006334  0.997908  1
  Os  Os7  1  0.172957  0.823330  0.749353  1
  Os  Os8  1  0.651163  0.823595  0.749362  1
  Os  Os9  1  0.830113  0.661291  0.250518  1
  Os  Os10  1  0.824554  0.170469  0.250473  1
  Os  Os11  1  0.344953  0.170391  0.250477  1
