# generated using pymatgen
data_Dy2Th3Sb3C
_symmetry_space_group_name_H-M   'P 1'
_cell_length_a   6.41030800
_cell_length_b   9.17363470
_cell_length_c   9.17403600
_cell_angle_alpha   119.99855970
_cell_angle_beta   90.00000000
_cell_angle_gamma   90.00000000
_symmetry_Int_Tables_number   1
_chemical_formula_structural   Dy2Th3Sb3C
_chemical_formula_sum   'Dy4 Th6 Sb6 C2'
_cell_volume   467.21600726
_cell_formula_units_Z   2
loop_
 _symmetry_equiv_pos_site_id
 _symmetry_equiv_pos_as_xyz
  1  'x, y, z'
loop_
 _atom_site_type_symbol
 _atom_site_label
 _atom_site_symmetry_multiplicity
 _atom_site_fract_x
 _atom_site_fract_y
 _atom_site_fract_z
 _atom_site_occupancy
  Dy  Dy0  1  0.499997  0.333320  0.666660  1
  Dy  Dy1  1  0.499997  0.666662  0.333340  1
  Dy  Dy2  1  0.999997  0.666680  0.333340  1
  Dy  Dy3  1  0.999997  0.333338  0.666660  1
  Th  Th4  1  0.749967  0.225525  0.000000  1
  Th  Th5  1  0.750017  0.774438  0.774468  1
  Th  Th6  1  0.750017  0.999969  0.225532  1
  Th  Th7  1  0.249967  0.774475  0.000000  1
  Th  Th8  1  0.250017  0.225562  0.225532  1
  Th  Th9  1  0.250017  0.000031  0.774468  1
  Sb  Sb10  1  0.749867  0.596566  0.000000  1
  Sb  Sb11  1  0.750070  0.403354  0.403365  1
  Sb  Sb12  1  0.750070  0.999988  0.596635  1
  Sb  Sb13  1  0.249867  0.403434  0.000000  1
  Sb  Sb14  1  0.250070  0.596646  0.596635  1
  Sb  Sb15  1  0.250070  0.000012  0.403365  1
  C  C16  1  0.499999  0.999978  0.000000  1
  C  C17  1  0.999999  0.000022  0.000000  1
