# generated using pymatgen
data_Cs3TeF7
_symmetry_space_group_name_H-M   'P 1'
_cell_length_a   8.90381800
_cell_length_b   8.90381800
_cell_length_c   6.58396400
_cell_angle_alpha   90.00000000
_cell_angle_beta   90.00000000
_cell_angle_gamma   90.00000000
_symmetry_Int_Tables_number   1
_chemical_formula_structural   Cs3TeF7
_chemical_formula_sum   'Cs6 Te2 F14'
_cell_volume   521.96333324
_cell_formula_units_Z   2
loop_
 _symmetry_equiv_pos_site_id
 _symmetry_equiv_pos_as_xyz
  1  'x, y, z'
loop_
 _atom_site_type_symbol
 _atom_site_label
 _atom_site_symmetry_multiplicity
 _atom_site_fract_x
 _atom_site_fract_y
 _atom_site_fract_z
 _atom_site_occupancy
  Cs  Cs0  1  0.194498  0.694498  0.500000  1
  Cs  Cs1  1  0.694498  0.805502  0.500000  1
  Cs  Cs2  1  0.305502  0.194498  0.500000  1
  Cs  Cs3  1  0.805502  0.305502  0.500000  1
  Cs  Cs4  1  0.500000  0.500000  0.000000  1
  Cs  Cs5  1  0.000000  0.000000  0.000000  1
  Te  Te6  1  0.000000  0.500000  0.000000  1
  Te  Te7  1  0.500000  0.000000  0.000000  1
  F  F8  1  0.386122  0.886122  0.768034  1
  F  F9  1  0.613878  0.113878  0.768034  1
  F  F10  1  0.113878  0.386122  0.768034  1
  F  F11  1  0.886122  0.613878  0.768034  1
  F  F12  1  0.386122  0.886122  0.231966  1
  F  F13  1  0.886122  0.613878  0.231966  1
  F  F14  1  0.113878  0.386122  0.231966  1
  F  F15  1  0.613878  0.113878  0.231966  1
  F  F16  1  0.000000  0.000000  0.500000  1
  F  F17  1  0.500000  0.500000  0.500000  1
  F  F18  1  0.833296  0.333296  0.000000  1
  F  F19  1  0.333296  0.166704  0.000000  1
  F  F20  1  0.666704  0.833296  0.000000  1
  F  F21  1  0.166704  0.666704  0.000000  1
