# generated using pymatgen
data_DyEr6Co6Sn23
_symmetry_space_group_name_H-M   'P 1'
_cell_length_a   9.68592700
_cell_length_b   9.68592652
_cell_length_c   9.95830900
_cell_angle_alpha   90.00000000
_cell_angle_beta   90.00000000
_cell_angle_gamma   120.00000505
_symmetry_Int_Tables_number   1
_chemical_formula_structural   DyEr6Co6Sn23
_chemical_formula_sum   'Dy1 Er6 Co6 Sn23'
_cell_volume   809.09323381
_cell_formula_units_Z   1
loop_
 _symmetry_equiv_pos_site_id
 _symmetry_equiv_pos_as_xyz
  1  'x, y, z'
loop_
 _atom_site_type_symbol
 _atom_site_label
 _atom_site_symmetry_multiplicity
 _atom_site_fract_x
 _atom_site_fract_y
 _atom_site_fract_z
 _atom_site_occupancy
  Dy  Dy0  1  0.000000  0.000000  0.000000  1
  Er  Er1  1  0.479094  0.520906  0.305883  1
  Er  Er2  1  0.520906  0.479094  0.694117  1
  Er  Er3  1  0.479094  0.958189  0.305883  1
  Er  Er4  1  0.520906  0.041811  0.694117  1
  Er  Er5  1  0.041811  0.520906  0.305883  1
  Er  Er6  1  0.958189  0.479094  0.694117  1
  Co  Co7  1  0.832248  0.167752  0.197497  1
  Co  Co8  1  0.167752  0.832248  0.802503  1
  Co  Co9  1  0.832248  0.664497  0.197497  1
  Co  Co10  1  0.167752  0.335503  0.802503  1
  Co  Co11  1  0.335503  0.167752  0.197497  1
  Co  Co12  1  0.664497  0.832248  0.802503  1
  Sn  Sn13  1  0.118400  0.881600  0.274935  1
  Sn  Sn14  1  0.881600  0.118400  0.725065  1
  Sn  Sn15  1  0.118400  0.236799  0.274935  1
  Sn  Sn16  1  0.881600  0.763201  0.725065  1
  Sn  Sn17  1  0.763201  0.881600  0.274935  1
  Sn  Sn18  1  0.236799  0.118400  0.725065  1
  Sn  Sn19  1  0.780825  0.219175  0.452250  1
  Sn  Sn20  1  0.219175  0.780825  0.547750  1
  Sn  Sn21  1  0.780825  0.561651  0.452250  1
  Sn  Sn22  1  0.219175  0.438349  0.547750  1
  Sn  Sn23  1  0.438349  0.219175  0.452250  1
  Sn  Sn24  1  0.561651  0.780825  0.547750  1
  Sn  Sn25  1  0.346043  0.000000  0.000000  1
  Sn  Sn26  1  0.653957  0.000000  0.000000  1
  Sn  Sn27  1  0.000000  0.346043  0.000000  1
  Sn  Sn28  1  0.000000  0.653957  0.000000  1
  Sn  Sn29  1  0.653957  0.653957  0.000000  1
  Sn  Sn30  1  0.346043  0.346043  0.000000  1
  Sn  Sn31  1  0.333333  0.666667  0.118906  1
  Sn  Sn32  1  0.666667  0.333333  0.881094  1
  Sn  Sn33  1  0.333333  0.666667  0.817668  1
  Sn  Sn34  1  0.666667  0.333333  0.182332  1
  Sn  Sn35  1  0.000000  0.000000  0.500000  1
