# generated using pymatgen
data_Cs10Sc2Al3GaSe14
_symmetry_space_group_name_H-M   'P 1'
_cell_length_a   11.57886447
_cell_length_b   11.57882825
_cell_length_c   9.65493121
_cell_angle_alpha   76.90647743
_cell_angle_beta   76.90647457
_cell_angle_gamma   71.73988046
_symmetry_Int_Tables_number   1
_chemical_formula_structural   Cs10Sc2Al3GaSe14
_chemical_formula_sum   'Cs10 Sc2 Al3 Ga1 Se14'
_cell_volume   1180.23839578
_cell_formula_units_Z   1
loop_
 _symmetry_equiv_pos_site_id
 _symmetry_equiv_pos_as_xyz
  1  'x, y, z'
loop_
 _atom_site_type_symbol
 _atom_site_label
 _atom_site_symmetry_multiplicity
 _atom_site_fract_x
 _atom_site_fract_y
 _atom_site_fract_z
 _atom_site_occupancy
  Cs  Cs0  1  0.030574  0.427087  0.717883  1
  Cs  Cs1  1  0.427103  0.030567  0.717889  1
  Cs  Cs2  1  0.970149  0.573535  0.281525  1
  Cs  Cs3  1  0.573536  0.970148  0.281517  1
  Cs  Cs4  1  0.295167  0.704678  0.000747  1
  Cs  Cs5  1  0.704683  0.295167  0.000748  1
  Cs  Cs6  1  0.839984  0.157869  0.499586  1
  Cs  Cs7  1  0.157871  0.839982  0.499590  1
  Cs  Cs8  1  0.431738  0.431740  0.691676  1
  Cs  Cs9  1  0.568650  0.568653  0.310334  1
  Sc  Sc10  1  0.212929  0.212932  0.180444  1
  Sc  Sc11  1  0.786784  0.786784  0.818795  1
  Al  Al12  1  0.069723  0.069721  0.055891  1
  Al  Al13  1  0.930237  0.930239  0.943311  1
  Al  Al14  1  0.346039  0.346040  0.335517  1
  Ga  Ga15  1  0.653707  0.653703  0.663433  1
  Se  Se16  1  0.995071  0.278540  0.111230  1
  Se  Se17  1  0.278534  0.995077  0.111241  1
  Se  Se18  1  0.004824  0.721411  0.888387  1
  Se  Se19  1  0.721410  0.004825  0.888390  1
  Se  Se20  1  0.209878  0.209879  0.444955  1
  Se  Se21  1  0.792027  0.792028  0.552814  1
  Se  Se22  1  0.060411  0.060413  0.810650  1
  Se  Se23  1  0.939579  0.939580  0.188746  1
  Se  Se24  1  0.353910  0.353915  0.072721  1
  Se  Se25  1  0.646362  0.646363  0.930787  1
  Se  Se26  1  0.252198  0.545624  0.398473  1
  Se  Se27  1  0.545622  0.252201  0.398472  1
  Se  Se28  1  0.749773  0.451527  0.602122  1
  Se  Se29  1  0.451529  0.749772  0.602124  1
