# generated using pymatgen
data_Ho2Si4Pt7
_symmetry_space_group_name_H-M   'P 1'
_cell_length_a   4.00573300
_cell_length_b   11.30279900
_cell_length_c   19.61589500
_cell_angle_alpha   90.00000000
_cell_angle_beta   90.00000000
_cell_angle_gamma   90.00000000
_symmetry_Int_Tables_number   1
_chemical_formula_structural   Ho2Si4Pt7
_chemical_formula_sum   'Ho8 Si16 Pt28'
_cell_volume   888.12916289
_cell_formula_units_Z   4
loop_
 _symmetry_equiv_pos_site_id
 _symmetry_equiv_pos_as_xyz
  1  'x, y, z'
loop_
 _atom_site_type_symbol
 _atom_site_label
 _atom_site_symmetry_multiplicity
 _atom_site_fract_x
 _atom_site_fract_y
 _atom_site_fract_z
 _atom_site_occupancy
  Ho  Ho0  1  0.750000  0.744899  0.028169  1
  Ho  Ho1  1  0.750000  0.755101  0.528169  1
  Ho  Ho2  1  0.250000  0.255101  0.971831  1
  Ho  Ho3  1  0.250000  0.017261  0.279744  1
  Ho  Ho4  1  0.250000  0.244899  0.471831  1
  Ho  Ho5  1  0.750000  0.982739  0.720256  1
  Ho  Ho6  1  0.250000  0.482739  0.779744  1
  Ho  Ho7  1  0.750000  0.517261  0.220256  1
  Si  Si8  1  0.750000  0.422272  0.414151  1
  Si  Si9  1  0.250000  0.292700  0.255905  1
  Si  Si10  1  0.250000  0.562718  0.085394  1
  Si  Si11  1  0.250000  0.922272  0.085849  1
  Si  Si12  1  0.250000  0.207300  0.755905  1
  Si  Si13  1  0.750000  0.246948  0.595538  1
  Si  Si14  1  0.750000  0.437282  0.914606  1
  Si  Si15  1  0.250000  0.746948  0.904462  1
  Si  Si16  1  0.250000  0.937282  0.585394  1
  Si  Si17  1  0.750000  0.062718  0.414606  1
  Si  Si18  1  0.750000  0.707300  0.744095  1
  Si  Si19  1  0.750000  0.792700  0.244095  1
  Si  Si20  1  0.250000  0.753052  0.404462  1
  Si  Si21  1  0.750000  0.253052  0.095538  1
  Si  Si22  1  0.250000  0.577728  0.585849  1
  Si  Si23  1  0.750000  0.077728  0.914151  1
  Pt  Pt24  1  0.750000  0.450480  0.042056  1
  Pt  Pt25  1  0.750000  0.619434  0.371802  1
  Pt  Pt26  1  0.750000  0.431957  0.533007  1
  Pt  Pt27  1  0.750000  0.880566  0.871802  1
  Pt  Pt28  1  0.750000  0.068043  0.033007  1
  Pt  Pt29  1  0.250000  0.549520  0.957944  1
  Pt  Pt30  1  0.250000  0.119434  0.128198  1
  Pt  Pt31  1  0.750000  0.559538  0.660399  1
  Pt  Pt32  1  0.750000  0.940462  0.160399  1
  Pt  Pt33  1  0.750000  0.259750  0.852994  1
  Pt  Pt34  1  0.250000  0.740250  0.147006  1
  Pt  Pt35  1  0.250000  0.380566  0.628198  1
  Pt  Pt36  1  0.250000  0.814669  0.782913  1
  Pt  Pt37  1  0.750000  0.240250  0.352994  1
  Pt  Pt38  1  0.750000  0.870964  0.362383  1
  Pt  Pt39  1  0.250000  0.931957  0.966993  1
  Pt  Pt40  1  0.250000  0.685331  0.282913  1
  Pt  Pt41  1  0.750000  0.314669  0.717087  1
  Pt  Pt42  1  0.750000  0.629036  0.862383  1
  Pt  Pt43  1  0.250000  0.059538  0.839601  1
  Pt  Pt44  1  0.250000  0.129036  0.637617  1
  Pt  Pt45  1  0.250000  0.950480  0.457944  1
  Pt  Pt46  1  0.750000  0.049520  0.542056  1
  Pt  Pt47  1  0.250000  0.568043  0.466993  1
  Pt  Pt48  1  0.250000  0.440462  0.339601  1
  Pt  Pt49  1  0.250000  0.759750  0.647006  1
  Pt  Pt50  1  0.250000  0.370964  0.137617  1
  Pt  Pt51  1  0.750000  0.185331  0.217087  1
