# generated using pymatgen
data_Hf6Al16Cu2Ir5
_symmetry_space_group_name_H-M   'P 1'
_cell_length_a   8.68924919
_cell_length_b   8.73147431
_cell_length_c   8.68923510
_cell_angle_alpha   59.83630323
_cell_angle_beta   60.32513821
_cell_angle_gamma   59.83614790
_symmetry_Int_Tables_number   1
_chemical_formula_structural   Hf6Al16Cu2Ir5
_chemical_formula_sum   'Hf6 Al16 Cu2 Ir5'
_cell_volume   466.13028235
_cell_formula_units_Z   1
loop_
 _symmetry_equiv_pos_site_id
 _symmetry_equiv_pos_as_xyz
  1  'x, y, z'
loop_
 _atom_site_type_symbol
 _atom_site_label
 _atom_site_symmetry_multiplicity
 _atom_site_fract_x
 _atom_site_fract_y
 _atom_site_fract_z
 _atom_site_occupancy
  Hf  Hf0  1  0.691606  0.308385  0.308418  1
  Hf  Hf1  1  0.308394  0.691615  0.691582  1
  Hf  Hf2  1  0.327317  0.672688  0.327317  1
  Hf  Hf3  1  0.672683  0.327312  0.672683  1
  Hf  Hf4  1  0.308419  0.308385  0.691605  1
  Hf  Hf5  1  0.691581  0.691615  0.308395  1
  Al  Al6  1  0.338443  0.330868  0.338443  1
  Al  Al7  1  0.661557  0.669132  0.661557  1
  Al  Al8  1  0.330824  0.338413  0.992326  1
  Al  Al9  1  0.338392  0.992355  0.338392  1
  Al  Al10  1  0.669176  0.661587  0.007674  1
  Al  Al11  1  0.661608  0.007645  0.661608  1
  Al  Al12  1  0.992326  0.338413  0.330824  1
  Al  Al13  1  0.007674  0.661587  0.669176  1
  Al  Al14  1  0.124605  0.109800  0.124605  1
  Al  Al15  1  0.875395  0.890200  0.875395  1
  Al  Al16  1  0.109785  0.124674  0.640956  1
  Al  Al17  1  0.124641  0.640976  0.124641  1
  Al  Al18  1  0.890215  0.875326  0.359044  1
  Al  Al19  1  0.875359  0.359024  0.875359  1
  Al  Al20  1  0.640956  0.124674  0.109786  1
  Al  Al21  1  0.359044  0.875326  0.890214  1
  Cu  Cu22  1  0.000000  0.500000  0.000000  1
  Cu  Cu23  1  0.500000  0.000000  0.500000  1
  Ir  Ir24  1  0.500000  0.000000  0.000000  1
  Ir  Ir25  1  0.000000  0.500000  0.500000  1
  Ir  Ir26  1  0.000000  0.000000  0.500000  1
  Ir  Ir27  1  0.500000  0.500000  0.000000  1
  Ir  Ir28  1  0.000000  0.000000  0.000000  1
