# generated using pymatgen
data_Sm3Re(P3Rh4)2
_symmetry_space_group_name_H-M   'P 1'
_cell_length_a   3.95111300
_cell_length_b   11.16837800
_cell_length_c   12.89969400
_cell_angle_alpha   90.00000000
_cell_angle_beta   90.00000000
_cell_angle_gamma   90.00000000
_symmetry_Int_Tables_number   1
_chemical_formula_structural   Sm3Re(P3Rh4)2
_chemical_formula_sum   'Sm6 Re2 P12 Rh16'
_cell_volume   569.23155019
_cell_formula_units_Z   2
loop_
 _symmetry_equiv_pos_site_id
 _symmetry_equiv_pos_as_xyz
  1  'x, y, z'
loop_
 _atom_site_type_symbol
 _atom_site_label
 _atom_site_symmetry_multiplicity
 _atom_site_fract_x
 _atom_site_fract_y
 _atom_site_fract_z
 _atom_site_occupancy
  Sm  Sm0  1  0.000000  0.500000  0.520299  1
  Sm  Sm1  1  0.500000  0.000000  0.479701  1
  Sm  Sm2  1  0.500000  0.816218  0.205005  1
  Sm  Sm3  1  0.500000  0.183782  0.205005  1
  Sm  Sm4  1  0.000000  0.683782  0.794995  1
  Sm  Sm5  1  0.000000  0.316218  0.794995  1
  Re  Re6  1  0.500000  0.500000  0.158757  1
  Re  Re7  1  0.000000  0.000000  0.841243  1
  P  P8  1  0.500000  0.500000  0.877841  1
  P  P9  1  0.000000  0.000000  0.122159  1
  P  P10  1  0.500000  0.500000  0.344588  1
  P  P11  1  0.000000  0.000000  0.655412  1
  P  P12  1  0.500000  0.314337  0.617441  1
  P  P13  1  0.500000  0.685663  0.617441  1
  P  P14  1  0.000000  0.185663  0.382559  1
  P  P15  1  0.000000  0.814337  0.382559  1
  P  P16  1  0.500000  0.849329  0.888796  1
  P  P17  1  0.500000  0.150671  0.888796  1
  P  P18  1  0.000000  0.650671  0.111204  1
  P  P19  1  0.000000  0.349329  0.111204  1
  Rh  Rh20  1  0.500000  0.500000  0.701350  1
  Rh  Rh21  1  0.000000  0.000000  0.298650  1
  Rh  Rh22  1  0.000000  0.500000  0.989780  1
  Rh  Rh23  1  0.500000  0.000000  0.010220  1
  Rh  Rh24  1  0.500000  0.331589  0.985536  1
  Rh  Rh25  1  0.500000  0.668411  0.985536  1
  Rh  Rh26  1  0.000000  0.168411  0.014464  1
  Rh  Rh27  1  0.000000  0.831589  0.014464  1
  Rh  Rh28  1  0.500000  0.294350  0.431081  1
  Rh  Rh29  1  0.500000  0.705650  0.431081  1
  Rh  Rh30  1  0.000000  0.205650  0.568919  1
  Rh  Rh31  1  0.000000  0.794350  0.568919  1
  Rh  Rh32  1  0.500000  0.876621  0.710073  1
  Rh  Rh33  1  0.500000  0.123379  0.710073  1
  Rh  Rh34  1  0.000000  0.623379  0.289927  1
  Rh  Rh35  1  0.000000  0.376621  0.289927  1
