# generated using pymatgen
data_RuIF5
_symmetry_space_group_name_H-M   'P 1'
_cell_length_a   5.64999086
_cell_length_b   9.30549255
_cell_length_c   10.95670809
_cell_angle_alpha   90.35323730
_cell_angle_beta   87.26707774
_cell_angle_gamma   80.36720454
_symmetry_Int_Tables_number   1
_chemical_formula_structural   RuIF5
_chemical_formula_sum   'Ru4 I4 F20'
_cell_volume   567.23265925
_cell_formula_units_Z   4
loop_
 _symmetry_equiv_pos_site_id
 _symmetry_equiv_pos_as_xyz
  1  'x, y, z'
loop_
 _atom_site_type_symbol
 _atom_site_label
 _atom_site_symmetry_multiplicity
 _atom_site_fract_x
 _atom_site_fract_y
 _atom_site_fract_z
 _atom_site_occupancy
  Ru  Ru0  1  0.771925  0.882523  0.794568  1
  Ru  Ru1  1  0.228075  0.117477  0.205432  1
  Ru  Ru2  1  0.418473  0.267924  0.901752  1
  Ru  Ru3  1  0.581527  0.732076  0.098248  1
  I  I4  1  0.287833  0.839732  0.468178  1
  I  I5  1  0.712167  0.160268  0.531822  1
  I  I6  1  0.669589  0.416542  0.411784  1
  I  I7  1  0.330411  0.583458  0.588216  1
  F  F8  1  0.690723  0.233332  0.994406  1
  F  F9  1  0.309277  0.766668  0.005594  1
  F  F10  1  0.506161  0.789956  0.773446  1
  F  F11  1  0.493839  0.210044  0.226554  1
  F  F12  1  0.154107  0.284592  0.801462  1
  F  F13  1  0.845893  0.715408  0.198538  1
  F  F14  1  0.290267  0.438499  0.985908  1
  F  F15  1  0.220717  0.076638  0.380060  1
  F  F16  1  0.709733  0.561501  0.014092  1
  F  F17  1  0.779283  0.923362  0.619940  1
  F  F18  1  0.757741  0.844402  0.976978  1
  F  F19  1  0.242259  0.155598  0.023022  1
  F  F20  1  0.988622  0.702375  0.762105  1
  F  F21  1  0.011378  0.297625  0.237895  1
  F  F22  1  0.578844  0.366017  0.783030  1
  F  F23  1  0.979061  0.013219  0.182673  1
  F  F24  1  0.421156  0.633983  0.216970  1
  F  F25  1  0.020939  0.986781  0.817327  1
  F  F26  1  0.467653  0.926841  0.184069  1
  F  F27  1  0.532347  0.073159  0.815931  1
