# generated using pymatgen
data_Er16CdCo4Hg3
_symmetry_space_group_name_H-M   'P 1'
_cell_length_a   9.35470683
_cell_length_b   9.35867829
_cell_length_c   9.35470700
_cell_angle_alpha   60.01403971
_cell_angle_beta   60.00000294
_cell_angle_gamma   60.01404077
_symmetry_Int_Tables_number   1
_chemical_formula_structural   Er16CdCo4Hg3
_chemical_formula_sum   'Er16 Cd1 Co4 Hg3'
_cell_volume   579.23131626
_cell_formula_units_Z   1
loop_
 _symmetry_equiv_pos_site_id
 _symmetry_equiv_pos_as_xyz
  1  'x, y, z'
loop_
 _atom_site_type_symbol
 _atom_site_label
 _atom_site_symmetry_multiplicity
 _atom_site_fract_x
 _atom_site_fract_y
 _atom_site_fract_z
 _atom_site_occupancy
  Er  Er0  1  0.939034  0.938144  0.561411  1
  Er  Er1  1  0.812127  0.187370  0.188376  1
  Er  Er2  1  0.938705  0.560925  0.561666  1
  Er  Er3  1  0.938705  0.560925  0.938705  1
  Er  Er4  1  0.811527  0.810973  0.188750  1
  Er  Er5  1  0.347123  0.347597  0.347123  1
  Er  Er6  1  0.561411  0.938144  0.939034  1
  Er  Er7  1  0.561411  0.938144  0.561411  1
  Er  Er8  1  0.188750  0.810973  0.811527  1
  Er  Er9  1  0.188376  0.187370  0.812127  1
  Er  Er10  1  0.347123  0.347597  0.958158  1
  Er  Er11  1  0.348351  0.954946  0.348351  1
  Er  Er12  1  0.812127  0.187370  0.812127  1
  Er  Er13  1  0.561666  0.560925  0.938705  1
  Er  Er14  1  0.188750  0.810973  0.188750  1
  Er  Er15  1  0.958158  0.347597  0.347123  1
  Cd  Cd16  1  0.579386  0.261843  0.579386  1
  Co  Co17  1  0.575890  0.140691  0.141710  1
  Co  Co18  1  0.141710  0.140691  0.141710  1
  Co  Co19  1  0.141433  0.575704  0.141433  1
  Co  Co20  1  0.141710  0.140691  0.575890  1
  Hg  Hg21  1  0.584816  0.583470  0.246900  1
  Hg  Hg22  1  0.246900  0.583470  0.584816  1
  Hg  Hg23  1  0.584816  0.583470  0.584816  1
