# generated using pymatgen
data_Pr2Dy2V3Cr(WO6)4
_symmetry_space_group_name_H-M   'P 1'
_cell_length_a   5.32720400
_cell_length_b   7.51556897
_cell_length_c   11.21354300
_cell_angle_alpha   90.00025920
_cell_angle_beta   89.99963432
_cell_angle_gamma   89.87127521
_symmetry_Int_Tables_number   1
_chemical_formula_structural   Pr2Dy2V3Cr(WO6)4
_chemical_formula_sum   'Pr2 Dy2 V3 Cr1 W4 O24'
_cell_volume   448.95514115
_cell_formula_units_Z   1
loop_
 _symmetry_equiv_pos_site_id
 _symmetry_equiv_pos_as_xyz
  1  'x, y, z'
loop_
 _atom_site_type_symbol
 _atom_site_label
 _atom_site_symmetry_multiplicity
 _atom_site_fract_x
 _atom_site_fract_y
 _atom_site_fract_z
 _atom_site_occupancy
  Pr  Pr0  1  0.460133  0.251207  0.544198  1
  Pr  Pr1  1  0.959446  0.750379  0.957264  1
  Dy  Dy2  1  0.050470  0.251652  0.047867  1
  Dy  Dy3  1  0.549470  0.751276  0.452149  1
  V  V4  1  0.051395  0.498560  0.364319  1
  V  V5  1  0.950733  0.996926  0.632435  1
  V  V6  1  0.451243  0.497244  0.867056  1
  Cr  Cr7  1  0.550589  0.000402  0.135191  1
  W  W8  1  0.556692  0.502708  0.144991  1
  W  W9  1  0.055597  0.002040  0.353749  1
  W  W10  1  0.946946  0.509446  0.642022  1
  W  W11  1  0.444473  0.008953  0.858763  1
  O  O12  1  0.262191  0.970776  0.022213  1
  O  O13  1  0.267233  0.535365  0.030987  1
  O  O14  1  0.658421  0.746375  0.119932  1
  O  O15  1  0.434589  0.257236  0.146373  1
  O  O16  1  0.873192  0.432780  0.205597  1
  O  O17  1  0.889357  0.061735  0.211416  1
  O  O18  1  0.390165  0.563493  0.288102  1
  O  O19  1  0.373865  0.936140  0.290887  1
  O  O20  1  0.937028  0.757206  0.353240  1
  O  O21  1  0.158804  0.246358  0.380417  1
  O  O22  1  0.767672  0.035968  0.467991  1
  O  O23  1  0.762006  0.471180  0.478016  1
  O  O24  1  0.239448  0.955086  0.516901  1
  O  O25  1  0.234533  0.549702  0.528565  1
  O  O26  1  0.823085  0.750854  0.616690  1
  O  O27  1  0.048183  0.259473  0.638567  1
  O  O28  1  0.635638  0.442606  0.709856  1
  O  O29  1  0.621274  0.064586  0.719503  1
  O  O30  1  0.119668  0.565084  0.781850  1
  O  O31  1  0.134369  0.942594  0.790766  1
  O  O32  1  0.549095  0.759982  0.861261  1
  O  O33  1  0.323822  0.250810  0.882485  1
  O  O34  1  0.730132  0.048814  0.976282  1
  O  O35  1  0.739052  0.455405  0.982098  1
