# generated using pymatgen
data_Zr4Re21Tc3Sn
_symmetry_space_group_name_H-M   'P 1'
_cell_length_a   8.49162117
_cell_length_b   8.48145704
_cell_length_c   8.48145676
_cell_angle_alpha   109.44693888
_cell_angle_beta   109.49550397
_cell_angle_gamma   109.49549583
_symmetry_Int_Tables_number   1
_chemical_formula_structural   Zr4Re21Tc3Sn
_chemical_formula_sum   'Zr4 Re21 Tc3 Sn1'
_cell_volume   470.08822754
_cell_formula_units_Z   1
loop_
 _symmetry_equiv_pos_site_id
 _symmetry_equiv_pos_as_xyz
  1  'x, y, z'
loop_
 _atom_site_type_symbol
 _atom_site_label
 _atom_site_symmetry_multiplicity
 _atom_site_fract_x
 _atom_site_fract_y
 _atom_site_fract_z
 _atom_site_occupancy
  Zr  Zr0  1  0.628828  0.000000  0.000000  1
  Zr  Zr1  1  0.999973  0.630633  0.000000  1
  Zr  Zr2  1  0.999973  0.000000  0.630633  1
  Zr  Zr3  1  0.369340  0.369367  0.369367  1
  Re  Re4  1  0.675399  0.393203  0.000000  1
  Re  Re5  1  0.000723  0.394253  0.675506  1
  Re  Re6  1  0.325217  0.718747  0.324494  1
  Re  Re7  1  0.325217  0.324494  0.718747  1
  Re  Re8  1  0.000723  0.675506  0.394253  1
  Re  Re9  1  0.675399  0.000000  0.393203  1
  Re  Re10  1  0.606470  0.605747  0.281253  1
  Re  Re11  1  0.282196  0.606797  0.606797  1
  Re  Re12  1  0.606470  0.281253  0.605747  1
  Re  Re13  1  0.376188  0.195423  0.000000  1
  Re  Re14  1  0.180763  0.804577  0.804577  1
  Re  Re15  1  0.376188  0.000000  0.195423  1
  Re  Re16  1  0.195210  0.378380  0.000000  1
  Re  Re17  1  0.000641  0.377411  0.194781  1
  Re  Re18  1  0.805860  0.182629  0.805219  1
  Re  Re19  1  0.805860  0.805219  0.182629  1
  Re  Re20  1  0.000641  0.194781  0.377411  1
  Re  Re21  1  0.195210  0.000000  0.378380  1
  Re  Re22  1  0.623230  0.622589  0.817371  1
  Re  Re23  1  0.816830  0.621620  0.621620  1
  Re  Re24  1  0.623230  0.817371  0.622589  1
  Tc  Tc25  1  0.394472  0.676808  0.000000  1
  Tc  Tc26  1  0.717664  0.323192  0.323192  1
  Tc  Tc27  1  0.394472  0.000000  0.676808  1
  Sn  Sn28  1  0.997612  0.000000  0.000000  1
