# generated using pymatgen
data_BaYbAs2O7
_symmetry_space_group_name_H-M   'P 1'
_cell_length_a   5.99498383
_cell_length_b   7.35528597
_cell_length_c   7.94517464
_cell_angle_alpha   100.63532977
_cell_angle_beta   90.40321011
_cell_angle_gamma   97.02039908
_symmetry_Int_Tables_number   1
_chemical_formula_structural   BaYbAs2O7
_chemical_formula_sum   'Ba2 Yb2 As4 O14'
_cell_volume   341.58398965
_cell_formula_units_Z   2
loop_
 _symmetry_equiv_pos_site_id
 _symmetry_equiv_pos_as_xyz
  1  'x, y, z'
loop_
 _atom_site_type_symbol
 _atom_site_label
 _atom_site_symmetry_multiplicity
 _atom_site_fract_x
 _atom_site_fract_y
 _atom_site_fract_z
 _atom_site_occupancy
  Ba  Ba0  1  0.709185  0.270909  0.934442  1
  Ba  Ba1  1  0.290815  0.729091  0.065558  1
  Yb  Yb2  1  0.311834  0.831819  0.601730  1
  Yb  Yb3  1  0.688166  0.168181  0.398270  1
  As  As4  1  0.808932  0.772665  0.809562  1
  As  As5  1  0.191068  0.227335  0.190438  1
  As  As6  1  0.788148  0.671488  0.393810  1
  As  As7  1  0.211852  0.328512  0.606190  1
  O  O8  1  0.944925  0.228236  0.626124  1
  O  O9  1  0.055075  0.771764  0.373876  1
  O  O10  1  0.781632  0.638937  0.962460  1
  O  O11  1  0.218368  0.361063  0.037540  1
  O  O12  1  0.776030  0.613121  0.606561  1
  O  O13  1  0.223970  0.386879  0.393439  1
  O  O14  1  0.590933  0.903480  0.815426  1
  O  O15  1  0.409067  0.096520  0.184574  1
  O  O16  1  0.592697  0.824752  0.388529  1
  O  O17  1  0.407303  0.175248  0.611471  1
  O  O18  1  0.284114  0.546404  0.720538  1
  O  O19  1  0.715886  0.453596  0.279462  1
  O  O20  1  0.068863  0.896349  0.819176  1
  O  O21  1  0.931137  0.103651  0.180824  1
