# generated using pymatgen
data_Cs3Lu2Br9
_symmetry_space_group_name_H-M   'P 1'
_cell_length_a   10.35566629
_cell_length_b   10.35566629
_cell_length_c   10.35566687
_cell_angle_alpha   83.66522766
_cell_angle_beta   83.66522512
_cell_angle_gamma   83.66522853
_symmetry_Int_Tables_number   1
_chemical_formula_structural   Cs3Lu2Br9
_chemical_formula_sum   'Cs6 Lu4 Br18'
_cell_volume   1091.58980621
_cell_formula_units_Z   2
loop_
 _symmetry_equiv_pos_site_id
 _symmetry_equiv_pos_as_xyz
  1  'x, y, z'
loop_
 _atom_site_type_symbol
 _atom_site_label
 _atom_site_symmetry_multiplicity
 _atom_site_fract_x
 _atom_site_fract_y
 _atom_site_fract_z
 _atom_site_occupancy
  Cs  Cs0  1  0.089570  0.750000  0.410430  1
  Cs  Cs1  1  0.750000  0.410430  0.089570  1
  Cs  Cs2  1  0.250000  0.589570  0.910430  1
  Cs  Cs3  1  0.410430  0.089570  0.750000  1
  Cs  Cs4  1  0.910430  0.250000  0.589570  1
  Cs  Cs5  1  0.589570  0.910430  0.250000  1
  Lu  Lu6  1  0.346756  0.346756  0.346756  1
  Lu  Lu7  1  0.653244  0.653244  0.653244  1
  Lu  Lu8  1  0.846756  0.846756  0.846756  1
  Lu  Lu9  1  0.153244  0.153244  0.153244  1
  Br  Br10  1  0.262776  0.922694  0.083075  1
  Br  Br11  1  0.737224  0.077306  0.916925  1
  Br  Br12  1  0.903101  0.596899  0.750000  1
  Br  Br13  1  0.077306  0.916925  0.737224  1
  Br  Br14  1  0.596899  0.750000  0.903101  1
  Br  Br15  1  0.416925  0.577306  0.237224  1
  Br  Br16  1  0.250000  0.096899  0.403101  1
  Br  Br17  1  0.922694  0.083075  0.262776  1
  Br  Br18  1  0.583075  0.422694  0.762776  1
  Br  Br19  1  0.083075  0.262776  0.922694  1
  Br  Br20  1  0.916925  0.737224  0.077306  1
  Br  Br21  1  0.422694  0.762776  0.583075  1
  Br  Br22  1  0.237224  0.416925  0.577306  1
  Br  Br23  1  0.750000  0.903101  0.596899  1
  Br  Br24  1  0.096899  0.403101  0.250000  1
  Br  Br25  1  0.762776  0.583075  0.422694  1
  Br  Br26  1  0.403101  0.250000  0.096899  1
  Br  Br27  1  0.577306  0.237224  0.416925  1
