# generated using pymatgen
data_Sc10GaBi5S2
_symmetry_space_group_name_H-M   'P 1'
_cell_length_a   8.54062100
_cell_length_b   8.54062236
_cell_length_c   6.19648300
_cell_angle_alpha   90.00000000
_cell_angle_beta   90.00000000
_cell_angle_gamma   119.88428760
_symmetry_Int_Tables_number   1
_chemical_formula_structural   Sc10GaBi5S2
_chemical_formula_sum   'Sc10 Ga1 Bi5 S2'
_cell_volume   391.88628866
_cell_formula_units_Z   1
loop_
 _symmetry_equiv_pos_site_id
 _symmetry_equiv_pos_as_xyz
  1  'x, y, z'
loop_
 _atom_site_type_symbol
 _atom_site_label
 _atom_site_symmetry_multiplicity
 _atom_site_fract_x
 _atom_site_fract_y
 _atom_site_fract_z
 _atom_site_occupancy
  Sc  Sc0  1  0.657821  0.336183  0.494457  1
  Sc  Sc1  1  0.336183  0.657821  0.494457  1
  Sc  Sc2  1  0.336183  0.657821  0.005543  1
  Sc  Sc3  1  0.657821  0.336183  0.005543  1
  Sc  Sc4  1  0.746550  0.746550  0.250000  1
  Sc  Sc5  1  0.249996  0.017923  0.250000  1
  Sc  Sc6  1  0.017923  0.249996  0.250000  1
  Sc  Sc7  1  0.242773  0.242773  0.750000  1
  Sc  Sc8  1  0.757244  0.000334  0.750000  1
  Sc  Sc9  1  0.000334  0.757244  0.750000  1
  Ga  Ga10  1  0.400248  0.400248  0.250000  1
  Bi  Bi11  1  0.606248  0.002640  0.250000  1
  Bi  Bi12  1  0.002640  0.606248  0.250000  1
  Bi  Bi13  1  0.599203  0.599203  0.750000  1
  Bi  Bi14  1  0.397059  0.997155  0.750000  1
  Bi  Bi15  1  0.997155  0.397059  0.750000  1
  S  S16  1  0.997311  0.997311  0.499656  1
  S  S17  1  0.997311  0.997311  0.000344  1
