# generated using pymatgen
data_CaLa4ErSi3Ge
_symmetry_space_group_name_H-M   'P 1'
_cell_length_a   7.75797956
_cell_length_b   7.74434963
_cell_length_c   4.52783400
_cell_angle_alpha   90.00000000
_cell_angle_beta   90.00000000
_cell_angle_gamma   89.75736780
_symmetry_Int_Tables_number   1
_chemical_formula_structural   CaLa4ErSi3Ge
_chemical_formula_sum   'Ca1 La4 Er1 Si3 Ge1'
_cell_volume   272.03211918
_cell_formula_units_Z   1
loop_
 _symmetry_equiv_pos_site_id
 _symmetry_equiv_pos_as_xyz
  1  'x, y, z'
loop_
 _atom_site_type_symbol
 _atom_site_label
 _atom_site_symmetry_multiplicity
 _atom_site_fract_x
 _atom_site_fract_y
 _atom_site_fract_z
 _atom_site_occupancy
  Ca  Ca0  1  0.999348  0.001178  0.000000  1
  La  La1  1  0.678005  0.175968  0.500000  1
  La  La2  1  0.323030  0.825086  0.500000  1
  La  La3  1  0.176339  0.319835  0.500000  1
  La  La4  1  0.821439  0.678296  0.500000  1
  Er  Er5  1  0.502736  0.498832  0.000000  1
  Si  Si6  1  0.878658  0.391714  0.000000  1
  Si  Si7  1  0.605548  0.881525  0.000000  1
  Si  Si8  1  0.394114  0.118136  0.000000  1
  Ge  Ge9  1  0.120785  0.609432  0.000000  1
