# generated using pymatgen
data_Lu3Co2(PbO6)2
_symmetry_space_group_name_H-M   'P 1'
_cell_length_a   6.63882626
_cell_length_b   6.63882714
_cell_length_c   7.03675200
_cell_angle_alpha   74.43437137
_cell_angle_beta   74.43437822
_cell_angle_gamma   50.58410765
_symmetry_Int_Tables_number   1
_chemical_formula_structural   Lu3Co2(PbO6)2
_chemical_formula_sum   'Lu3 Co2 Pb2 O12'
_cell_volume   228.80357092
_cell_formula_units_Z   1
loop_
 _symmetry_equiv_pos_site_id
 _symmetry_equiv_pos_as_xyz
  1  'x, y, z'
loop_
 _atom_site_type_symbol
 _atom_site_label
 _atom_site_symmetry_multiplicity
 _atom_site_fract_x
 _atom_site_fract_y
 _atom_site_fract_z
 _atom_site_occupancy
  Lu  Lu0  1  0.309925  0.309925  0.350720  1
  Lu  Lu1  1  0.690864  0.690864  0.653067  1
  Lu  Lu2  1  0.309505  0.309505  0.840174  1
  Co  Co3  1  0.755312  0.246440  0.000456  1
  Co  Co4  1  0.246440  0.755312  0.000456  1
  Pb  Pb5  1  0.694168  0.694168  0.155367  1
  Pb  Pb6  1  0.997399  0.997399  0.507169  1
  O  O7  1  0.906669  0.423338  0.913739  1
  O  O8  1  0.423338  0.906669  0.913739  1
  O  O9  1  0.101827  0.567734  0.085950  1
  O  O10  1  0.567734  0.101827  0.085950  1
  O  O11  1  0.095282  0.600150  0.571161  1
  O  O12  1  0.600150  0.095282  0.571161  1
  O  O13  1  0.904160  0.396960  0.428351  1
  O  O14  1  0.396960  0.904160  0.428351  1
  O  O15  1  0.999298  0.999298  0.817568  1
  O  O16  1  0.999596  0.999596  0.171045  1
  O  O17  1  0.499337  0.499337  0.821019  1
  O  O18  1  0.502034  0.502034  0.184559  1
