# generated using pymatgen
data_Y4Er8TlCo4Ni
_symmetry_space_group_name_H-M   'P 1'
_cell_length_a   8.25329094
_cell_length_b   8.25328878
_cell_length_c   8.25328951
_cell_angle_alpha   110.47326391
_cell_angle_beta   110.87404728
_cell_angle_gamma   107.09248107
_symmetry_Int_Tables_number   1
_chemical_formula_structural   Y4Er8TlCo4Ni
_chemical_formula_sum   'Y4 Er8 Tl1 Co4 Ni1'
_cell_volume   432.21016179
_cell_formula_units_Z   1
loop_
 _symmetry_equiv_pos_site_id
 _symmetry_equiv_pos_as_xyz
  1  'x, y, z'
loop_
 _atom_site_type_symbol
 _atom_site_label
 _atom_site_symmetry_multiplicity
 _atom_site_fract_x
 _atom_site_fract_y
 _atom_site_fract_z
 _atom_site_occupancy
  Y  Y0  1  0.187647  0.291237  0.478884  1
  Y  Y1  1  0.812353  0.708763  0.521116  1
  Y  Y2  1  0.187647  0.708763  0.896410  1
  Y  Y3  1  0.812353  0.291237  0.103590  1
  Er  Er4  1  0.314961  0.621904  0.306943  1
  Er  Er5  1  0.685039  0.378096  0.693057  1
  Er  Er6  1  0.314961  0.008018  0.693057  1
  Er  Er7  1  0.685039  0.991982  0.306943  1
  Er  Er8  1  0.406339  0.211501  0.194838  1
  Er  Er9  1  0.593661  0.788499  0.805162  1
  Er  Er10  1  0.016662  0.211501  0.805162  1
  Er  Er11  1  0.983338  0.788499  0.194838  1
  Tl  Tl12  1  0.500000  0.500000  0.000000  1
  Co  Co13  1  0.112809  0.612809  0.500000  1
  Co  Co14  1  0.887191  0.387191  0.500000  1
  Co  Co15  1  0.378359  0.000000  0.378359  1
  Co  Co16  1  0.621641  0.000000  0.621641  1
  Ni  Ni17  1  0.000000  0.000000  0.000000  1
