# generated using pymatgen
data_La4ErInSi3Ge
_symmetry_space_group_name_H-M   'P 1'
_cell_length_a   7.60549860
_cell_length_b   7.59431117
_cell_length_c   4.52589000
_cell_angle_alpha   90.00000000
_cell_angle_beta   90.00000000
_cell_angle_gamma   89.81552137
_symmetry_Int_Tables_number   1
_chemical_formula_structural   La4ErInSi3Ge
_chemical_formula_sum   'La4 Er1 In1 Si3 Ge1'
_cell_volume   261.40736675
_cell_formula_units_Z   1
loop_
 _symmetry_equiv_pos_site_id
 _symmetry_equiv_pos_as_xyz
  1  'x, y, z'
loop_
 _atom_site_type_symbol
 _atom_site_label
 _atom_site_symmetry_multiplicity
 _atom_site_fract_x
 _atom_site_fract_y
 _atom_site_fract_z
 _atom_site_occupancy
  La  La0  1  0.689141  0.168979  0.500000  1
  La  La1  1  0.311569  0.832698  0.500000  1
  La  La2  1  0.169066  0.308227  0.500000  1
  La  La3  1  0.828792  0.689857  0.500000  1
  Er  Er4  1  0.502536  0.498839  0.000000  1
  In  In5  1  0.998544  0.002620  0.000000  1
  Si  Si6  1  0.874389  0.394700  0.000000  1
  Si  Si7  1  0.602016  0.877364  0.000000  1
  Si  Si8  1  0.398032  0.122799  0.000000  1
  Ge  Ge9  1  0.125918  0.603918  0.000000  1
