# generated using pymatgen
data_K4Mn2GaFeF14
_symmetry_space_group_name_H-M   'P 1'
_cell_length_a   7.80285812
_cell_length_b   7.87021868
_cell_length_c   7.87021873
_cell_angle_alpha   121.02916363
_cell_angle_beta   117.25599232
_cell_angle_gamma   91.76164280
_symmetry_Int_Tables_number   1
_chemical_formula_structural   K4Mn2GaFeF14
_chemical_formula_sum   'K4 Mn2 Ga1 Fe1 F14'
_cell_volume   344.84659517
_cell_formula_units_Z   1
loop_
 _symmetry_equiv_pos_site_id
 _symmetry_equiv_pos_as_xyz
  1  'x, y, z'
loop_
 _atom_site_type_symbol
 _atom_site_label
 _atom_site_symmetry_multiplicity
 _atom_site_fract_x
 _atom_site_fract_y
 _atom_site_fract_z
 _atom_site_occupancy
  K  K0  1  0.500000  0.500000  0.000000  1
  K  K1  1  0.000000  0.000000  0.000000  1
  K  K2  1  0.000000  0.500000  0.000000  1
  K  K3  1  0.000000  0.000000  0.500000  1
  Mn  Mn4  1  0.500000  0.500000  0.500000  1
  Mn  Mn5  1  0.500000  0.000000  0.000000  1
  Ga  Ga6  1  0.000000  0.500000  0.500000  1
  Fe  Fe7  1  0.500000  0.000000  0.500000  1
  F  F8  1  0.877436  0.583049  0.294387  1
  F  F9  1  0.203143  0.913020  0.290124  1
  F  F10  1  0.182724  0.792668  0.752277  1
  F  F11  1  0.456694  0.701885  0.384129  1
  F  F12  1  0.456694  0.072565  0.754809  1
  F  F13  1  0.182724  0.430447  0.390055  1
  F  F14  1  0.817276  0.569553  0.609945  1
  F  F15  1  0.543306  0.927435  0.245191  1
  F  F16  1  0.543306  0.298115  0.615871  1
  F  F17  1  0.817276  0.207332  0.247723  1
  F  F18  1  0.388758  0.248573  0.140185  1
  F  F19  1  0.122564  0.416951  0.705613  1
  F  F20  1  0.796857  0.086980  0.709876  1
  F  F21  1  0.611242  0.751427  0.859815  1
