# generated using pymatgen
data_Sr2(AlAu2)3
_symmetry_space_group_name_H-M   'P 1'
_cell_length_a   8.88153537
_cell_length_b   8.88153481
_cell_length_c   8.88153695
_cell_angle_alpha   57.45451085
_cell_angle_beta   57.45451712
_cell_angle_gamma   57.45451032
_symmetry_Int_Tables_number   1
_chemical_formula_structural   Sr2(AlAu2)3
_chemical_formula_sum   'Sr4 Al6 Au12'
_cell_volume   466.38276982
_cell_formula_units_Z   2
loop_
 _symmetry_equiv_pos_site_id
 _symmetry_equiv_pos_as_xyz
  1  'x, y, z'
loop_
 _atom_site_type_symbol
 _atom_site_label
 _atom_site_symmetry_multiplicity
 _atom_site_fract_x
 _atom_site_fract_y
 _atom_site_fract_z
 _atom_site_occupancy
  Sr  Sr0  1  0.910653  0.910653  0.910653  1
  Sr  Sr1  1  0.410653  0.410653  0.410653  1
  Sr  Sr2  1  0.089347  0.089347  0.089347  1
  Sr  Sr3  1  0.589347  0.589347  0.589347  1
  Al  Al4  1  0.556053  0.750000  0.943947  1
  Al  Al5  1  0.943947  0.556053  0.750000  1
  Al  Al6  1  0.750000  0.943947  0.556053  1
  Al  Al7  1  0.443947  0.250000  0.056053  1
  Al  Al8  1  0.056053  0.443947  0.250000  1
  Al  Al9  1  0.250000  0.056053  0.443947  1
  Au  Au10  1  0.471729  0.870643  0.202211  1
  Au  Au11  1  0.202211  0.471729  0.870643  1
  Au  Au12  1  0.870643  0.202211  0.471729  1
  Au  Au13  1  0.702211  0.370643  0.971729  1
  Au  Au14  1  0.971729  0.702211  0.370643  1
  Au  Au15  1  0.370643  0.971729  0.702211  1
  Au  Au16  1  0.528271  0.129357  0.797789  1
  Au  Au17  1  0.797789  0.528271  0.129357  1
  Au  Au18  1  0.129357  0.797789  0.528271  1
  Au  Au19  1  0.297789  0.629357  0.028271  1
  Au  Au20  1  0.028271  0.297789  0.629357  1
  Au  Au21  1  0.629357  0.028271  0.297789  1
