# generated using pymatgen
data_Th2Al3Cu7
_symmetry_space_group_name_H-M   'P 1'
_cell_length_a   4.21107900
_cell_length_b   5.20713073
_cell_length_c   8.93690561
_cell_angle_alpha   88.90176672
_cell_angle_beta   90.00000000
_cell_angle_gamma   90.00000000
_symmetry_Int_Tables_number   1
_chemical_formula_structural   Th2Al3Cu7
_chemical_formula_sum   'Th2 Al3 Cu7'
_cell_volume   195.92924046
_cell_formula_units_Z   1
loop_
 _symmetry_equiv_pos_site_id
 _symmetry_equiv_pos_as_xyz
  1  'x, y, z'
loop_
 _atom_site_type_symbol
 _atom_site_label
 _atom_site_symmetry_multiplicity
 _atom_site_fract_x
 _atom_site_fract_y
 _atom_site_fract_z
 _atom_site_occupancy
  Th  Th0  1  0.000000  0.247415  0.749117  1
  Th  Th1  1  0.000000  0.752585  0.250883  1
  Al  Al2  1  0.500000  0.740597  0.743513  1
  Al  Al3  1  0.500000  0.259403  0.256487  1
  Al  Al4  1  0.500000  0.000000  0.000000  1
  Cu  Cu5  1  0.000000  0.255728  0.084138  1
  Cu  Cu6  1  0.000000  0.751281  0.581472  1
  Cu  Cu7  1  0.000000  0.744272  0.915862  1
  Cu  Cu8  1  0.000000  0.248719  0.418528  1
  Cu  Cu9  1  0.500000  0.500000  0.500000  1
  Cu  Cu10  1  0.500000  0.500000  0.000000  1
  Cu  Cu11  1  0.500000  0.000000  0.500000  1
