# generated using pymatgen
data_Zr12Si11Ni
_symmetry_space_group_name_H-M   'P 1'
_cell_length_a   3.78088500
_cell_length_b   5.34478708
_cell_length_c   21.37319853
_cell_angle_alpha   82.90191837
_cell_angle_beta   90.00000000
_cell_angle_gamma   90.00000000
_symmetry_Int_Tables_number   1
_chemical_formula_structural   Zr12Si11Ni
_chemical_formula_sum   'Zr12 Si11 Ni1'
_cell_volume   428.60001015
_cell_formula_units_Z   1
loop_
 _symmetry_equiv_pos_site_id
 _symmetry_equiv_pos_as_xyz
  1  'x, y, z'
loop_
 _atom_site_type_symbol
 _atom_site_label
 _atom_site_symmetry_multiplicity
 _atom_site_fract_x
 _atom_site_fract_y
 _atom_site_fract_z
 _atom_site_occupancy
  Zr  Zr0  1  0.750000  0.358210  0.061826  1
  Zr  Zr1  1  0.250000  0.653575  0.940832  1
  Zr  Zr2  1  0.750000  0.517708  0.222916  1
  Zr  Zr3  1  0.250000  0.482189  0.774022  1
  Zr  Zr4  1  0.750000  0.176899  0.392316  1
  Zr  Zr5  1  0.250000  0.816462  0.607794  1
  Zr  Zr6  1  0.750000  0.342591  0.558465  1
  Zr  Zr7  1  0.250000  0.652272  0.441240  1
  Zr  Zr8  1  0.750000  0.007294  0.725323  1
  Zr  Zr9  1  0.250000  0.989209  0.274733  1
  Zr  Zr10  1  0.750000  0.179753  0.892356  1
  Zr  Zr11  1  0.250000  0.823232  0.108571  1
  Si  Si12  1  0.750000  0.864728  0.013612  1
  Si  Si13  1  0.250000  0.150265  0.988165  1
  Si  Si14  1  0.750000  0.039335  0.179461  1
  Si  Si15  1  0.250000  0.973388  0.820241  1
  Si  Si16  1  0.750000  0.713403  0.346677  1
  Si  Si17  1  0.250000  0.280442  0.652415  1
  Si  Si18  1  0.750000  0.851748  0.513957  1
  Si  Si19  1  0.250000  0.142514  0.485555  1
  Si  Si20  1  0.750000  0.543192  0.680473  1
  Si  Si21  1  0.250000  0.454161  0.317902  1
  Si  Si22  1  0.750000  0.685623  0.847464  1
  Ni  Ni23  1  0.250000  0.301808  0.153680  1
