# generated using pymatgen
data_Tm4ReOs7
_symmetry_space_group_name_H-M   'P 1'
_cell_length_a   5.37149517
_cell_length_b   5.26579960
_cell_length_c   8.85512800
_cell_angle_alpha   90.00000000
_cell_angle_beta   90.00000000
_cell_angle_gamma   120.73190383
_symmetry_Int_Tables_number   1
_chemical_formula_structural   Tm4ReOs7
_chemical_formula_sum   'Tm4 Re1 Os7'
_cell_volume   215.29528823
_cell_formula_units_Z   1
loop_
 _symmetry_equiv_pos_site_id
 _symmetry_equiv_pos_as_xyz
  1  'x, y, z'
loop_
 _atom_site_type_symbol
 _atom_site_label
 _atom_site_symmetry_multiplicity
 _atom_site_fract_x
 _atom_site_fract_y
 _atom_site_fract_z
 _atom_site_occupancy
  Tm  Tm0  1  0.671423  0.343057  0.564419  1
  Tm  Tm1  1  0.335870  0.671736  0.434885  1
  Tm  Tm2  1  0.335870  0.671736  0.065115  1
  Tm  Tm3  1  0.671423  0.343057  0.935581  1
  Re  Re4  1  0.160754  0.320524  0.750000  1
  Os  Os5  1  0.011531  0.023378  0.499877  1
  Os  Os6  1  0.011531  0.023378  0.000123  1
  Os  Os7  1  0.173682  0.818219  0.750000  1
  Os  Os8  1  0.644528  0.818571  0.750000  1
  Os  Os9  1  0.820283  0.640546  0.250000  1
  Os  Os10  1  0.830155  0.162921  0.250000  1
  Os  Os11  1  0.332950  0.162876  0.250000  1
