# generated using pymatgen
data_Lu3Sc2As2Ru
_symmetry_space_group_name_H-M   'P 1'
_cell_length_a   5.95177700
_cell_length_b   8.04303537
_cell_length_c   8.21950591
_cell_angle_alpha   119.29230362
_cell_angle_beta   90.00000000
_cell_angle_gamma   90.00000000
_symmetry_Int_Tables_number   1
_chemical_formula_structural   Lu3Sc2As2Ru
_chemical_formula_sum   'Lu6 Sc4 As4 Ru2'
_cell_volume   343.15952489
_cell_formula_units_Z   2
loop_
 _symmetry_equiv_pos_site_id
 _symmetry_equiv_pos_as_xyz
  1  'x, y, z'
loop_
 _atom_site_type_symbol
 _atom_site_label
 _atom_site_symmetry_multiplicity
 _atom_site_fract_x
 _atom_site_fract_y
 _atom_site_fract_z
 _atom_site_occupancy
  Lu  Lu0  1  0.750000  0.741878  0.764493  1
  Lu  Lu1  1  0.250000  0.258122  0.235507  1
  Lu  Lu2  1  0.750000  0.977386  0.235507  1
  Lu  Lu3  1  0.250000  0.022614  0.764493  1
  Lu  Lu4  1  0.750000  0.252713  0.000000  1
  Lu  Lu5  1  0.250000  0.747287  0.000000  1
  Sc  Sc6  1  0.000000  0.661389  0.322776  1
  Sc  Sc7  1  0.000000  0.338611  0.677224  1
  Sc  Sc8  1  0.500000  0.338611  0.677224  1
  Sc  Sc9  1  0.500000  0.661389  0.322776  1
  As  As10  1  0.750000  0.383977  0.394000  1
  As  As11  1  0.250000  0.616023  0.606000  1
  As  As12  1  0.750000  0.989978  0.606000  1
  As  As13  1  0.250000  0.010022  0.394000  1
  Ru  Ru14  1  0.750000  0.588334  0.000000  1
  Ru  Ru15  1  0.250000  0.411666  0.000000  1
