# generated using pymatgen
data_Dy8Er2In8Pt3Rh
_symmetry_space_group_name_H-M   'P 1'
_cell_length_a   3.63049300
_cell_length_b   8.14573883
_cell_length_c   18.26538600
_cell_angle_alpha   90.02646198
_cell_angle_beta   90.00000000
_cell_angle_gamma   90.00000000
_symmetry_Int_Tables_number   1
_chemical_formula_structural   Dy8Er2In8Pt3Rh
_chemical_formula_sum   'Dy8 Er2 In8 Pt3 Rh1'
_cell_volume   540.16307545
_cell_formula_units_Z   1
loop_
 _symmetry_equiv_pos_site_id
 _symmetry_equiv_pos_as_xyz
  1  'x, y, z'
loop_
 _atom_site_type_symbol
 _atom_site_label
 _atom_site_symmetry_multiplicity
 _atom_site_fract_x
 _atom_site_fract_y
 _atom_site_fract_z
 _atom_site_occupancy
  Dy  Dy0  1  0.000000  0.382972  0.915283  1
  Dy  Dy1  1  0.000000  0.617085  0.085680  1
  Dy  Dy2  1  0.000000  0.239519  0.221769  1
  Dy  Dy3  1  0.000000  0.757346  0.779513  1
  Dy  Dy4  1  0.000000  0.256698  0.720758  1
  Dy  Dy5  1  0.000000  0.750699  0.279280  1
  Dy  Dy6  1  0.000000  0.999876  0.000071  1
  Dy  Dy7  1  0.000000  0.500207  0.499779  1
  Er  Er8  1  0.000000  0.114501  0.412009  1
  Er  Er9  1  0.000000  0.882965  0.585389  1
  In  In10  1  0.500000  0.422745  0.351565  1
  In  In11  1  0.500000  0.576077  0.648382  1
  In  In12  1  0.500000  0.075304  0.851411  1
  In  In13  1  0.500000  0.928094  0.149498  1
  In  In14  1  0.500000  0.291663  0.067053  1
  In  In15  1  0.500000  0.707770  0.933370  1
  In  In16  1  0.500000  0.206551  0.566231  1
  In  In17  1  0.500000  0.794033  0.431797  1
  Pt  Pt18  1  0.500000  0.974530  0.695735  1
  Pt  Pt19  1  0.500000  0.475248  0.803344  1
  Pt  Pt20  1  0.500000  0.523054  0.197140  1
  Rh  Rh21  1  0.500000  0.023060  0.304941  1
