# generated using pymatgen
data_CaSiNi4
_symmetry_space_group_name_H-M   'P 1'
_cell_length_a   3.91557723
_cell_length_b   5.13413190
_cell_length_c   4.85794353
_cell_angle_alpha   121.93349106
_cell_angle_beta   90.01596831
_cell_angle_gamma   90.00636058
_symmetry_Int_Tables_number   1
_chemical_formula_structural   CaSiNi4
_chemical_formula_sum   'Ca1 Si1 Ni4'
_cell_volume   82.88011281
_cell_formula_units_Z   1
loop_
 _symmetry_equiv_pos_site_id
 _symmetry_equiv_pos_as_xyz
  1  'x, y, z'
loop_
 _atom_site_type_symbol
 _atom_site_label
 _atom_site_symmetry_multiplicity
 _atom_site_fract_x
 _atom_site_fract_y
 _atom_site_fract_z
 _atom_site_occupancy
  Ca  Ca0  1  0.244393  0.917316  0.435058  1
  Si  Si1  1  0.743292  0.416458  0.433264  1
  Ni  Ni2  1  0.743609  0.417021  0.934388  1
  Ni  Ni3  1  0.243647  0.259325  0.119947  1
  Ni  Ni4  1  0.243131  0.573532  0.748842  1
  Ni  Ni5  1  0.744306  0.915569  0.934096  1
