# generated using pymatgen
data_LaHoFe5Co3B8
_symmetry_space_group_name_H-M   'P 1'
_cell_length_a   7.01840054
_cell_length_b   7.04127898
_cell_length_c   3.80870007
_cell_angle_alpha   90.07978867
_cell_angle_beta   90.03160727
_cell_angle_gamma   90.06914516
_symmetry_Int_Tables_number   1
_chemical_formula_structural   LaHoFe5Co3B8
_chemical_formula_sum   'La1 Ho1 Fe5 Co3 B8'
_cell_volume   188.21995805
_cell_formula_units_Z   1
loop_
 _symmetry_equiv_pos_site_id
 _symmetry_equiv_pos_as_xyz
  1  'x, y, z'
loop_
 _atom_site_type_symbol
 _atom_site_label
 _atom_site_symmetry_multiplicity
 _atom_site_fract_x
 _atom_site_fract_y
 _atom_site_fract_z
 _atom_site_occupancy
  La  La0  1  0.501065  0.498733  0.502367  1
  Ho  Ho1  1  0.000228  0.000970  0.001824  1
  Fe  Fe2  1  0.384328  0.129174  0.894074  1
  Fe  Fe3  1  0.616369  0.869821  0.892397  1
  Fe  Fe4  1  0.364854  0.886545  0.394608  1
  Fe  Fe5  1  0.635880  0.112554  0.393772  1
  Fe  Fe6  1  0.112947  0.364675  0.607496  1
  Co  Co7  1  0.886828  0.639731  0.607009  1
  Co  Co8  1  0.132038  0.618317  0.107966  1
  Co  Co9  1  0.865605  0.385082  0.108078  1
  B  B10  1  0.802567  0.668434  0.101511  1
  B  B11  1  0.196330  0.330496  0.103430  1
  B  B12  1  0.842529  0.285673  0.605106  1
  B  B13  1  0.162966  0.707181  0.605665  1
  B  B14  1  0.704468  0.838477  0.390806  1
  B  B15  1  0.291643  0.162548  0.393467  1
  B  B16  1  0.667679  0.192949  0.894897  1
  B  B17  1  0.331675  0.808642  0.895528  1
