# generated using pymatgen
data_Er6TlHg9
_symmetry_space_group_name_H-M   'P 1'
_cell_length_a   6.34061753
_cell_length_b   6.34061781
_cell_length_c   10.15665900
_cell_angle_alpha   90.00000000
_cell_angle_beta   90.00000000
_cell_angle_gamma   105.53091416
_symmetry_Int_Tables_number   1
_chemical_formula_structural   Er6TlHg9
_chemical_formula_sum   'Er6 Tl1 Hg9'
_cell_volume   393.42274918
_cell_formula_units_Z   1
loop_
 _symmetry_equiv_pos_site_id
 _symmetry_equiv_pos_as_xyz
  1  'x, y, z'
loop_
 _atom_site_type_symbol
 _atom_site_label
 _atom_site_symmetry_multiplicity
 _atom_site_fract_x
 _atom_site_fract_y
 _atom_site_fract_z
 _atom_site_occupancy
  Er  Er0  1  0.554940  0.554940  0.250000  1
  Er  Er1  1  0.436998  0.436998  0.750000  1
  Er  Er2  1  0.217026  0.781843  0.503548  1
  Er  Er3  1  0.217026  0.781843  0.996452  1
  Er  Er4  1  0.781843  0.217026  0.503548  1
  Er  Er5  1  0.781843  0.217026  0.996452  1
  Tl  Tl6  1  0.975895  0.975895  0.250000  1
  Hg  Hg7  1  0.037128  0.037128  0.750000  1
  Hg  Hg8  1  0.288235  0.288235  0.025346  1
  Hg  Hg9  1  0.706350  0.706350  0.973196  1
  Hg  Hg10  1  0.288235  0.288235  0.474654  1
  Hg  Hg11  1  0.706350  0.706350  0.526804  1
  Hg  Hg12  1  0.483746  0.031257  0.250000  1
  Hg  Hg13  1  0.966276  0.526854  0.750000  1
  Hg  Hg14  1  0.526854  0.966276  0.750000  1
  Hg  Hg15  1  0.031257  0.483746  0.250000  1
