# generated using pymatgen
data_Ce8Ta11Si16W
_symmetry_space_group_name_H-M   'P 1'
_cell_length_a   6.93591609
_cell_length_b   7.11434709
_cell_length_c   13.40019900
_cell_angle_alpha   90.00000000
_cell_angle_beta   90.00000000
_cell_angle_gamma   89.95899134
_symmetry_Int_Tables_number   1
_chemical_formula_structural   Ce8Ta11Si16W
_chemical_formula_sum   'Ce8 Ta11 Si16 W1'
_cell_volume   661.22614337
_cell_formula_units_Z   1
loop_
 _symmetry_equiv_pos_site_id
 _symmetry_equiv_pos_as_xyz
  1  'x, y, z'
loop_
 _atom_site_type_symbol
 _atom_site_label
 _atom_site_symmetry_multiplicity
 _atom_site_fract_x
 _atom_site_fract_y
 _atom_site_fract_z
 _atom_site_occupancy
  Ce  Ce0  1  0.996802  0.167858  0.093891  1
  Ce  Ce1  1  0.497110  0.331725  0.406003  1
  Ce  Ce2  1  0.502317  0.667675  0.905529  1
  Ce  Ce3  1  0.002731  0.832241  0.594942  1
  Ce  Ce4  1  0.002731  0.832241  0.905058  1
  Ce  Ce5  1  0.502317  0.667675  0.594471  1
  Ce  Ce6  1  0.497110  0.331725  0.093997  1
  Ce  Ce7  1  0.996802  0.167858  0.406109  1
  Ta  Ta8  1  0.661810  0.993771  0.250000  1
  Ta  Ta9  1  0.162027  0.506483  0.250000  1
  Ta  Ta10  1  0.838130  0.493887  0.750000  1
  Ta  Ta11  1  0.836378  0.672856  0.125306  1
  Ta  Ta12  1  0.336534  0.827490  0.375121  1
  Ta  Ta13  1  0.663336  0.171936  0.873905  1
  Ta  Ta14  1  0.164434  0.326811  0.626120  1
  Ta  Ta15  1  0.164434  0.326811  0.873880  1
  Ta  Ta16  1  0.663336  0.171936  0.626095  1
  Ta  Ta17  1  0.336534  0.827490  0.124879  1
  Ta  Ta18  1  0.836378  0.672856  0.374694  1
  Si  Si19  1  0.796807  0.376386  0.250000  1
  Si  Si20  1  0.297129  0.123776  0.250000  1
  Si  Si21  1  0.699725  0.876893  0.750000  1
  Si  Si22  1  0.202131  0.624969  0.750000  1
  Si  Si23  1  0.039640  0.875253  0.250000  1
  Si  Si24  1  0.539008  0.624829  0.250000  1
  Si  Si25  1  0.459865  0.373783  0.750000  1
  Si  Si26  1  0.962895  0.124002  0.750000  1
  Si  Si27  1  0.840267  0.460128  0.956633  1
  Si  Si28  1  0.340204  0.040546  0.544530  1
  Si  Si29  1  0.660575  0.959111  0.042503  1
  Si  Si30  1  0.160160  0.540768  0.457196  1
  Si  Si31  1  0.160160  0.540768  0.042804  1
  Si  Si32  1  0.660575  0.959111  0.457497  1
  Si  Si33  1  0.340204  0.040546  0.955470  1
  Si  Si34  1  0.840267  0.460128  0.543367  1
  W  W35  1  0.339134  0.007670  0.750000  1
