# generated using pymatgen
data_Tb4YP12Ru16Pt3
_symmetry_space_group_name_H-M   'P 1'
_cell_length_a   12.60469300
_cell_length_b   12.60588499
_cell_length_c   3.99355700
_cell_angle_alpha   90.00000000
_cell_angle_beta   90.00000000
_cell_angle_gamma   119.99686947
_symmetry_Int_Tables_number   1
_chemical_formula_structural   Tb4YP12Ru16Pt3
_chemical_formula_sum   'Tb4 Y1 P12 Ru16 Pt3'
_cell_volume   549.55331398
_cell_formula_units_Z   1
loop_
 _symmetry_equiv_pos_site_id
 _symmetry_equiv_pos_as_xyz
  1  'x, y, z'
loop_
 _atom_site_type_symbol
 _atom_site_label
 _atom_site_symmetry_multiplicity
 _atom_site_fract_x
 _atom_site_fract_y
 _atom_site_fract_z
 _atom_site_occupancy
  Tb  Tb0  1  0.000074  0.182147  0.500000  1
  Tb  Tb1  1  0.817927  0.817853  0.500000  1
  Tb  Tb2  1  0.666677  0.333341  0.000000  1
  Tb  Tb3  1  0.333335  0.666659  0.000000  1
  Y  Y4  1  0.182191  0.000000  0.500000  1
  P  P5  1  0.999930  0.814709  0.000000  1
  P  P6  1  0.185221  0.185291  0.000000  1
  P  P7  1  0.814715  0.000000  0.000000  1
  P  P8  1  0.700023  0.180209  0.500000  1
  P  P9  1  0.819834  0.519852  0.500000  1
  P  P10  1  0.480183  0.300004  0.500000  1
  P  P11  1  0.180179  0.699996  0.500000  1
  P  P12  1  0.519814  0.819791  0.500000  1
  P  P13  1  0.299981  0.480148  0.500000  1
  P  P14  1  0.000003  0.365558  0.000000  1
  P  P15  1  0.634445  0.634442  0.000000  1
  P  P16  1  0.365514  0.000000  0.000000  1
  Ru  Ru17  1  0.000034  0.710965  0.500000  1
  Ru  Ru18  1  0.289069  0.289035  0.500000  1
  Ru  Ru19  1  0.710912  0.000000  0.500000  1
  Ru  Ru20  1  0.806259  0.184815  0.000000  1
  Ru  Ru21  1  0.815174  0.621452  0.000000  1
  Ru  Ru22  1  0.378477  0.193599  0.000000  1
  Ru  Ru23  1  0.184880  0.806401  0.000000  1
  Ru  Ru24  1  0.621446  0.815185  0.000000  1
  Ru  Ru25  1  0.193723  0.378548  0.000000  1
  Ru  Ru26  1  0.875562  0.369426  0.500000  1
  Ru  Ru27  1  0.630542  0.506128  0.500000  1
  Ru  Ru28  1  0.493871  0.124426  0.500000  1
  Ru  Ru29  1  0.369445  0.875574  0.500000  1
  Ru  Ru30  1  0.506136  0.630574  0.500000  1
  Ru  Ru31  1  0.124414  0.493872  0.500000  1
  Ru  Ru32  1  0.000008  0.000000  0.000000  1
  Pt  Pt33  1  0.999994  0.551450  0.000000  1
  Pt  Pt34  1  0.448544  0.448550  0.000000  1
  Pt  Pt35  1  0.551466  0.000000  0.000000  1
