# generated using pymatgen
data_Ce2CoSi5P2Ru11
_symmetry_space_group_name_H-M   'P 1'
_cell_length_a   9.59189766
_cell_length_b   9.53632850
_cell_length_c   3.90670300
_cell_angle_alpha   90.00000000
_cell_angle_beta   90.00000000
_cell_angle_gamma   120.00132987
_symmetry_Int_Tables_number   1
_chemical_formula_structural   Ce2CoSi5P2Ru11
_chemical_formula_sum   'Ce2 Co1 Si5 P2 Ru11'
_cell_volume   309.47170437
_cell_formula_units_Z   1
loop_
 _symmetry_equiv_pos_site_id
 _symmetry_equiv_pos_as_xyz
  1  'x, y, z'
loop_
 _atom_site_type_symbol
 _atom_site_label
 _atom_site_symmetry_multiplicity
 _atom_site_fract_x
 _atom_site_fract_y
 _atom_site_fract_z
 _atom_site_occupancy
  Ce  Ce0  1  0.332165  0.667052  0.000000  1
  Ce  Ce1  1  0.999109  0.993781  0.500000  1
  Co  Co2  1  0.537830  0.486530  0.000000  1
  Si  Si3  1  0.968127  0.222900  0.000000  1
  Si  Si4  1  0.262981  0.036045  0.000000  1
  Si  Si5  1  0.767573  0.729176  0.000000  1
  Si  Si6  1  0.057665  0.623674  0.500000  1
  Si  Si7  1  0.663450  0.342873  0.000000  1
  P  P8  1  0.565566  0.941866  0.500000  1
  P  P9  1  0.379618  0.437896  0.500000  1
  Ru  Ru10  1  0.729044  0.961270  0.000000  1
  Ru  Ru11  1  0.243260  0.274529  0.000000  1
  Ru  Ru12  1  0.033196  0.765408  0.000000  1
  Ru  Ru13  1  0.938699  0.453520  0.000000  1
  Ru  Ru14  1  0.520453  0.062241  0.000000  1
  Ru  Ru15  1  0.112434  0.391453  0.500000  1
  Ru  Ru16  1  0.288443  0.894676  0.500000  1
  Ru  Ru17  1  0.599936  0.710349  0.500000  1
  Ru  Ru18  1  0.769013  0.217202  0.500000  1
  Ru  Ru19  1  0.460966  0.243809  0.500000  1
  Ru  Ru20  1  0.770472  0.543753  0.500000  1
