# generated using pymatgen
data_Cu12Sn2MoWS16
_symmetry_space_group_name_H-M   'P 1'
_cell_length_a   7.67607000
_cell_length_b   7.67606896
_cell_length_c   12.58378600
_cell_angle_alpha   90.00000000
_cell_angle_beta   90.00000000
_cell_angle_gamma   119.99999585
_symmetry_Int_Tables_number   1
_chemical_formula_structural   Cu12Sn2MoWS16
_chemical_formula_sum   'Cu12 Sn2 Mo1 W1 S16'
_cell_volume   642.12528016
_cell_formula_units_Z   1
loop_
 _symmetry_equiv_pos_site_id
 _symmetry_equiv_pos_as_xyz
  1  'x, y, z'
loop_
 _atom_site_type_symbol
 _atom_site_label
 _atom_site_symmetry_multiplicity
 _atom_site_fract_x
 _atom_site_fract_y
 _atom_site_fract_z
 _atom_site_occupancy
  Cu  Cu0  1  0.835898  0.671796  0.104168  1
  Cu  Cu1  1  0.500441  0.499559  0.354980  1
  Cu  Cu2  1  0.002366  0.501183  0.854361  1
  Cu  Cu3  1  0.835898  0.164102  0.104168  1
  Cu  Cu4  1  0.498817  0.501183  0.854361  1
  Cu  Cu5  1  0.164661  0.329322  0.603539  1
  Cu  Cu6  1  0.500441  0.000882  0.354980  1
  Cu  Cu7  1  0.999118  0.499559  0.354980  1
  Cu  Cu8  1  0.164661  0.835339  0.603539  1
  Cu  Cu9  1  0.498817  0.997634  0.854361  1
  Cu  Cu10  1  0.670678  0.835339  0.603539  1
  Cu  Cu11  1  0.328204  0.164102  0.104168  1
  Sn  Sn12  1  0.000000  0.000000  0.851648  1
  Sn  Sn13  1  0.000000  0.000000  0.351876  1
  Mo  Mo14  1  0.333333  0.666667  0.480070  1
  W  W15  1  0.666667  0.333333  0.979950  1
  S  S16  1  0.000000  0.000000  0.047173  1
  S  S17  1  0.348736  0.174368  0.288060  1
  S  S18  1  0.825632  0.174368  0.288060  1
  S  S19  1  0.011162  0.505582  0.539408  1
  S  S20  1  0.825632  0.651264  0.288060  1
  S  S21  1  0.666667  0.333333  0.799528  1
  S  S22  1  0.174313  0.348625  0.787620  1
  S  S23  1  0.494418  0.505582  0.539408  1
  S  S24  1  0.000000  0.000000  0.547226  1
  S  S25  1  0.333333  0.666667  0.299653  1
  S  S26  1  0.989031  0.494515  0.039491  1
  S  S27  1  0.494418  0.988838  0.539408  1
  S  S28  1  0.174313  0.825687  0.787620  1
  S  S29  1  0.651375  0.825687  0.787620  1
  S  S30  1  0.505485  0.010969  0.039491  1
  S  S31  1  0.505485  0.494515  0.039491  1
