# generated using pymatgen
data_Tm2Lu2TcB12Ru
_symmetry_space_group_name_H-M   'P 1'
_cell_length_a   3.61355500
_cell_length_b   9.05383990
_cell_length_c   11.42677400
_cell_angle_alpha   89.86161702
_cell_angle_beta   90.00000000
_cell_angle_gamma   90.00000000
_symmetry_Int_Tables_number   1
_chemical_formula_structural   Tm2Lu2TcB12Ru
_chemical_formula_sum   'Tm4 Lu4 Tc2 B24 Ru2'
_cell_volume   373.84351476
_cell_formula_units_Z   2
loop_
 _symmetry_equiv_pos_site_id
 _symmetry_equiv_pos_as_xyz
  1  'x, y, z'
loop_
 _atom_site_type_symbol
 _atom_site_label
 _atom_site_symmetry_multiplicity
 _atom_site_fract_x
 _atom_site_fract_y
 _atom_site_fract_z
 _atom_site_occupancy
  Tm  Tm0  1  0.000000  0.324199  0.415704  1
  Tm  Tm1  1  0.000000  0.675801  0.584296  1
  Tm  Tm2  1  0.000000  0.820096  0.087408  1
  Tm  Tm3  1  0.000000  0.179904  0.912592  1
  Lu  Lu4  1  0.000000  0.942249  0.370973  1
  Lu  Lu5  1  0.000000  0.057751  0.629027  1
  Lu  Lu6  1  0.000000  0.443206  0.129719  1
  Lu  Lu7  1  0.000000  0.556794  0.870281  1
  Tc  Tc8  1  0.000000  0.638435  0.319932  1
  Tc  Tc9  1  0.000000  0.361565  0.680068  1
  B  B10  1  0.500000  0.552984  0.433443  1
  B  B11  1  0.500000  0.447016  0.566557  1
  B  B12  1  0.500000  0.053742  0.066371  1
  B  B13  1  0.500000  0.946258  0.933629  1
  B  B14  1  0.500000  0.749665  0.419366  1
  B  B15  1  0.500000  0.250335  0.580634  1
  B  B16  1  0.500000  0.249701  0.080678  1
  B  B17  1  0.500000  0.750299  0.919322  1
  B  B18  1  0.500000  0.792366  0.264593  1
  B  B19  1  0.500000  0.207634  0.735407  1
  B  B20  1  0.500000  0.291297  0.234910  1
  B  B21  1  0.500000  0.708703  0.765090  1
  B  B22  1  0.500000  0.630439  0.184214  1
  B  B23  1  0.500000  0.369561  0.815786  1
  B  B24  1  0.500000  0.130127  0.315034  1
  B  B25  1  0.500000  0.869873  0.684966  1
  B  B26  1  0.500000  0.981766  0.212044  1
  B  B27  1  0.500000  0.018234  0.787956  1
  B  B28  1  0.500000  0.481020  0.287437  1
  B  B29  1  0.500000  0.518980  0.712563  1
  B  B30  1  0.500000  0.601851  0.027910  1
  B  B31  1  0.500000  0.398149  0.972090  1
  B  B32  1  0.500000  0.101989  0.471576  1
  B  B33  1  0.500000  0.898011  0.528424  1
  Ru  Ru34  1  0.000000  0.137780  0.178758  1
  Ru  Ru35  1  0.000000  0.862220  0.821242  1
