# generated using pymatgen
data_La3Pr(HgPd2)2
_symmetry_space_group_name_H-M   'P 1'
_cell_length_a   7.91256948
_cell_length_b   7.91256913
_cell_length_c   3.97652300
_cell_angle_alpha   90.00000000
_cell_angle_beta   90.00000000
_cell_angle_gamma   89.55243856
_symmetry_Int_Tables_number   1
_chemical_formula_structural   La3Pr(HgPd2)2
_chemical_formula_sum   'La3 Pr1 Hg2 Pd4'
_cell_volume   248.95755047
_cell_formula_units_Z   1
loop_
 _symmetry_equiv_pos_site_id
 _symmetry_equiv_pos_as_xyz
  1  'x, y, z'
loop_
 _atom_site_type_symbol
 _atom_site_label
 _atom_site_symmetry_multiplicity
 _atom_site_fract_x
 _atom_site_fract_y
 _atom_site_fract_z
 _atom_site_occupancy
  La  La0  1  0.325325  0.825325  0.500000  1
  La  La1  1  0.824260  0.674905  0.500000  1
  La  La2  1  0.174905  0.324260  0.500000  1
  Pr  Pr3  1  0.674911  0.174911  0.500000  1
  Hg  Hg4  1  0.998592  0.000824  0.000000  1
  Hg  Hg5  1  0.500824  0.498592  0.000000  1
  Pd  Pd6  1  0.371840  0.127522  0.000000  1
  Pd  Pd7  1  0.873693  0.373693  0.000000  1
  Pd  Pd8  1  0.128129  0.628129  0.000000  1
  Pd  Pd9  1  0.627522  0.871840  0.000000  1
