# generated using pymatgen
data_CaTb6IrBr12
_symmetry_space_group_name_H-M   'P 1'
_cell_length_a   9.33625799
_cell_length_b   9.33625731
_cell_length_c   9.33625735
_cell_angle_alpha   107.08337771
_cell_angle_beta   107.08337779
_cell_angle_gamma   107.08336973
_symmetry_Int_Tables_number   1
_chemical_formula_structural   CaTb6IrBr12
_chemical_formula_sum   'Ca1 Tb6 Ir1 Br12'
_cell_volume   676.19429246
_cell_formula_units_Z   1
loop_
 _symmetry_equiv_pos_site_id
 _symmetry_equiv_pos_as_xyz
  1  'x, y, z'
loop_
 _atom_site_type_symbol
 _atom_site_label
 _atom_site_symmetry_multiplicity
 _atom_site_fract_x
 _atom_site_fract_y
 _atom_site_fract_z
 _atom_site_occupancy
  Ca  Ca0  1  0.500000  0.500000  0.500000  1
  Tb  Tb1  1  0.311486  0.102272  0.021190  1
  Tb  Tb2  1  0.021190  0.311486  0.102272  1
  Tb  Tb3  1  0.102272  0.021190  0.311486  1
  Tb  Tb4  1  0.688514  0.897728  0.978810  1
  Tb  Tb5  1  0.978810  0.688514  0.897728  1
  Tb  Tb6  1  0.897728  0.978810  0.688514  1
  Ir  Ir7  1  0.000000  0.000000  0.000000  1
  Br  Br8  1  0.678615  0.218653  0.071991  1
  Br  Br9  1  0.071991  0.678615  0.218653  1
  Br  Br10  1  0.218653  0.071991  0.678615  1
  Br  Br11  1  0.321385  0.781347  0.928009  1
  Br  Br12  1  0.928009  0.321385  0.781347  1
  Br  Br13  1  0.781347  0.928009  0.321385  1
  Br  Br14  1  0.454964  0.157464  0.374315  1
  Br  Br15  1  0.374315  0.454964  0.157464  1
  Br  Br16  1  0.157464  0.374315  0.454964  1
  Br  Br17  1  0.545036  0.842536  0.625685  1
  Br  Br18  1  0.625685  0.545036  0.842536  1
  Br  Br19  1  0.842536  0.625685  0.545036  1
