# generated using pymatgen
data_Co4(SiMo2)3
_symmetry_space_group_name_H-M   'P 1'
_cell_length_a   9.04955790
_cell_length_b   9.02278745
_cell_length_c   9.04955855
_cell_angle_alpha   30.56884687
_cell_angle_beta   30.11752880
_cell_angle_gamma   30.56885245
_symmetry_Int_Tables_number   1
_chemical_formula_structural   Co4(SiMo2)3
_chemical_formula_sum   'Co4 Si3 Mo6'
_cell_volume   167.86613992
_cell_formula_units_Z   1
loop_
 _symmetry_equiv_pos_site_id
 _symmetry_equiv_pos_as_xyz
  1  'x, y, z'
loop_
 _atom_site_type_symbol
 _atom_site_label
 _atom_site_symmetry_multiplicity
 _atom_site_fract_x
 _atom_site_fract_y
 _atom_site_fract_z
 _atom_site_occupancy
  Co  Co0  1  0.592222  0.096053  0.083121  1
  Co  Co1  1  0.916879  0.903947  0.407778  1
  Co  Co2  1  0.916360  0.401785  0.905770  1
  Co  Co3  1  0.094230  0.598215  0.083640  1
  Si  Si4  1  0.095419  0.102196  0.571772  1
  Si  Si5  1  0.428228  0.897804  0.904581  1
  Si  Si6  1  0.972327  0.000000  0.027673  1
  Mo  Mo7  1  0.838920  0.829359  0.833782  1
  Mo  Mo8  1  0.635889  0.656692  0.656807  1
  Mo  Mo9  1  0.453400  0.451347  0.453283  1
  Mo  Mo10  1  0.546717  0.548653  0.546600  1
  Mo  Mo11  1  0.166218  0.170641  0.161080  1
  Mo  Mo12  1  0.343193  0.343308  0.364111  1
