# generated using pymatgen
data_Lu8Si12NiPd3
_symmetry_space_group_name_H-M   'P 1'
_cell_length_a   8.08732305
_cell_length_b   8.08749596
_cell_length_c   7.98495000
_cell_angle_alpha   90.00627686
_cell_angle_beta   89.99369467
_cell_angle_gamma   120.00141600
_symmetry_Int_Tables_number   1
_chemical_formula_structural   Lu8Si12NiPd3
_chemical_formula_sum   'Lu8 Si12 Ni1 Pd3'
_cell_volume   452.28845305
_cell_formula_units_Z   1
loop_
 _symmetry_equiv_pos_site_id
 _symmetry_equiv_pos_as_xyz
  1  'x, y, z'
loop_
 _atom_site_type_symbol
 _atom_site_label
 _atom_site_symmetry_multiplicity
 _atom_site_fract_x
 _atom_site_fract_y
 _atom_site_fract_z
 _atom_site_occupancy
  Lu  Lu0  1  0.498746  0.997477  0.247923  1
  Lu  Lu1  1  0.497038  0.994084  0.751986  1
  Lu  Lu2  1  0.002539  0.501261  0.247936  1
  Lu  Lu3  1  0.005922  0.502969  0.751971  1
  Lu  Lu4  1  0.498744  0.501256  0.247914  1
  Lu  Lu5  1  0.497047  0.502955  0.751984  1
  Lu  Lu6  1  0.000001  0.000000  0.248872  1
  Lu  Lu7  1  0.999984  0.999992  0.751248  1
  Si  Si8  1  0.171814  0.343653  0.000757  1
  Si  Si9  1  0.835870  0.671645  0.999893  1
  Si  Si10  1  0.656294  0.828151  0.000757  1
  Si  Si11  1  0.834308  0.668528  0.499997  1
  Si  Si12  1  0.328390  0.164182  0.999893  1
  Si  Si13  1  0.164928  0.329906  0.499613  1
  Si  Si14  1  0.171812  0.828171  0.000746  1
  Si  Si15  1  0.331498  0.165736  0.499998  1
  Si  Si16  1  0.835858  0.164209  0.999897  1
  Si  Si17  1  0.670077  0.835045  0.499614  1
  Si  Si18  1  0.834298  0.165765  0.500010  1
  Si  Si19  1  0.164936  0.835025  0.499641  1
  Ni  Ni20  1  0.333027  0.666592  0.000342  1
  Pd  Pd21  1  0.666897  0.333397  0.997777  1
  Pd  Pd22  1  0.666837  0.333387  0.501884  1
  Pd  Pd23  1  0.333132  0.666616  0.499347  1
