# generated using pymatgen
data_Ca4Pr15NdGa12
_symmetry_space_group_name_H-M   'P 1'
_cell_length_a   7.93814171
_cell_length_b   7.94045012
_cell_length_c   14.71298004
_cell_angle_alpha   89.97946628
_cell_angle_beta   89.71139563
_cell_angle_gamma   89.93952719
_symmetry_Int_Tables_number   1
_chemical_formula_structural   Ca4Pr15NdGa12
_chemical_formula_sum   'Ca4 Pr15 Nd1 Ga12'
_cell_volume   927.38237252
_cell_formula_units_Z   1
loop_
 _symmetry_equiv_pos_site_id
 _symmetry_equiv_pos_as_xyz
  1  'x, y, z'
loop_
 _atom_site_type_symbol
 _atom_site_label
 _atom_site_symmetry_multiplicity
 _atom_site_fract_x
 _atom_site_fract_y
 _atom_site_fract_z
 _atom_site_occupancy
  Ca  Ca0  1  0.999520  0.502441  0.744867  1
  Ca  Ca1  1  0.999229  0.499588  0.244664  1
  Ca  Ca2  1  0.499043  0.999120  0.253242  1
  Ca  Ca3  1  0.501647  0.999226  0.756166  1
  Pr  Pr4  1  0.172579  0.830293  0.101488  1
  Pr  Pr5  1  0.168957  0.825271  0.397943  1
  Pr  Pr6  1  0.828816  0.173444  0.397563  1
  Pr  Pr7  1  0.672821  0.669223  0.397767  1
  Pr  Pr8  1  0.671949  0.324378  0.601804  1
  Pr  Pr9  1  0.329996  0.675952  0.601734  1
  Pr  Pr10  1  0.670207  0.674693  0.101205  1
  Pr  Pr11  1  0.675388  0.329756  0.899140  1
  Pr  Pr12  1  0.830713  0.825300  0.898274  1
  Pr  Pr13  1  0.324316  0.328508  0.397755  1
  Pr  Pr14  1  0.176310  0.171524  0.603119  1
  Pr  Pr15  1  0.825871  0.168867  0.101420  1
  Pr  Pr16  1  0.326079  0.669755  0.899135  1
  Pr  Pr17  1  0.328708  0.324701  0.101145  1
  Pr  Pr18  1  0.171848  0.176703  0.898054  1
  Nd  Nd19  1  0.826868  0.832183  0.603493  1
  Ga  Ga20  1  0.615900  0.382365  0.248918  1
  Ga  Ga21  1  0.118663  0.883922  0.751026  1
  Ga  Ga22  1  0.384518  0.384031  0.750119  1
  Ga  Ga23  1  0.382066  0.616211  0.248889  1
  Ga  Ga24  1  0.882037  0.882472  0.249850  1
  Ga  Ga25  1  0.617237  0.616596  0.750201  1
  Ga  Ga26  1  0.998662  0.500943  0.501884  1
  Ga  Ga27  1  0.884135  0.118409  0.751053  1
  Ga  Ga28  1  0.500498  0.998431  0.497370  1
  Ga  Ga29  1  0.499776  0.999217  0.997873  1
  Ga  Ga30  1  0.116210  0.116514  0.249732  1
  Ga  Ga31  1  0.999429  0.499963  0.003107  1
