# generated using pymatgen
data_Sn9Pb3O16
_symmetry_space_group_name_H-M   'P 1'
_cell_length_a   6.40029800
_cell_length_b   8.53635913
_cell_length_c   9.07591917
_cell_angle_alpha   90.18634086
_cell_angle_beta   90.00000000
_cell_angle_gamma   90.00000000
_symmetry_Int_Tables_number   1
_chemical_formula_structural   Sn9Pb3O16
_chemical_formula_sum   'Sn9 Pb3 O16'
_cell_volume   495.86242006
_cell_formula_units_Z   1
loop_
 _symmetry_equiv_pos_site_id
 _symmetry_equiv_pos_as_xyz
  1  'x, y, z'
loop_
 _atom_site_type_symbol
 _atom_site_label
 _atom_site_symmetry_multiplicity
 _atom_site_fract_x
 _atom_site_fract_y
 _atom_site_fract_z
 _atom_site_occupancy
  Sn  Sn0  1  0.500000  0.360693  0.326425  1
  Sn  Sn1  1  0.500000  0.635373  0.676281  1
  Sn  Sn2  1  0.500000  0.861348  0.173946  1
  Sn  Sn3  1  0.500000  0.140154  0.826162  1
  Sn  Sn4  1  0.000000  0.663255  0.342216  1
  Sn  Sn5  1  0.750069  0.999135  0.500324  1
  Sn  Sn6  1  0.250016  0.500157  0.002077  1
  Sn  Sn7  1  0.249931  0.999135  0.500324  1
  Sn  Sn8  1  0.749984  0.500157  0.002077  1
  Pb  Pb9  1  0.000000  0.349815  0.646704  1
  Pb  Pb10  1  0.000000  0.152784  0.149646  1
  Pb  Pb11  1  0.000000  0.849229  0.848897  1
  O  O12  1  0.500000  0.101197  0.379218  1
  O  O13  1  0.500000  0.890330  0.615867  1
  O  O14  1  0.500000  0.606057  0.121161  1
  O  O15  1  0.500000  0.394807  0.881153  1
  O  O16  1  0.000000  0.130633  0.410072  1
  O  O17  1  0.000000  0.868687  0.590385  1
  O  O18  1  0.000000  0.632520  0.098124  1
  O  O19  1  0.000000  0.371313  0.911306  1
  O  O20  1  0.742919  0.333340  0.168379  1
  O  O21  1  0.745643  0.665183  0.833449  1
  O  O22  1  0.246299  0.833353  0.327596  1
  O  O23  1  0.255420  0.164734  0.669394  1
  O  O24  1  0.753701  0.833353  0.327596  1
  O  O25  1  0.744580  0.164734  0.669394  1
  O  O26  1  0.257081  0.333340  0.168379  1
  O  O27  1  0.254357  0.665183  0.833449  1
