# generated using pymatgen
data_Hf4BeGeH2
_symmetry_space_group_name_H-M   'P 1'
_cell_length_a   5.36938706
_cell_length_b   5.36938565
_cell_length_c   5.36938589
_cell_angle_alpha   104.39578384
_cell_angle_beta   104.39577503
_cell_angle_gamma   120.18295333
_symmetry_Int_Tables_number   1
_chemical_formula_structural   Hf4BeGeH2
_chemical_formula_sum   'Hf4 Be1 Ge1 H2'
_cell_volume   115.99284826
_cell_formula_units_Z   1
loop_
 _symmetry_equiv_pos_site_id
 _symmetry_equiv_pos_as_xyz
  1  'x, y, z'
loop_
 _atom_site_type_symbol
 _atom_site_label
 _atom_site_symmetry_multiplicity
 _atom_site_fract_x
 _atom_site_fract_y
 _atom_site_fract_z
 _atom_site_occupancy
  Hf  Hf0  1  0.163682  0.663682  0.827367  1
  Hf  Hf1  1  0.836318  0.336318  0.172633  1
  Hf  Hf2  1  0.336318  0.163682  0.500000  1
  Hf  Hf3  1  0.663682  0.836318  0.500000  1
  Be  Be4  1  0.250000  0.250000  0.000000  1
  Ge  Ge5  1  0.750000  0.750000  0.000000  1
  H  H6  1  0.750000  0.250000  0.500000  1
  H  H7  1  0.250000  0.750000  0.500000  1
