# generated using pymatgen
data_TmSc4Nb3Ru8
_symmetry_space_group_name_H-M   'P 1'
_cell_length_a   6.40738600
_cell_length_b   4.54998700
_cell_length_c   9.12103300
_cell_angle_alpha   90.00000000
_cell_angle_beta   89.99874322
_cell_angle_gamma   90.00000000
_symmetry_Int_Tables_number   1
_chemical_formula_structural   TmSc4Nb3Ru8
_chemical_formula_sum   'Tm1 Sc4 Nb3 Ru8'
_cell_volume   265.91024535
_cell_formula_units_Z   1
loop_
 _symmetry_equiv_pos_site_id
 _symmetry_equiv_pos_as_xyz
  1  'x, y, z'
loop_
 _atom_site_type_symbol
 _atom_site_label
 _atom_site_symmetry_multiplicity
 _atom_site_fract_x
 _atom_site_fract_y
 _atom_site_fract_z
 _atom_site_occupancy
  Tm  Tm0  1  0.250025  0.250001  0.124996  1
  Sc  Sc1  1  0.750008  0.250001  0.124985  1
  Sc  Sc2  1  0.250041  0.750000  0.376303  1
  Sc  Sc3  1  0.749964  0.250001  0.624959  1
  Sc  Sc4  1  0.249987  0.750000  0.873729  1
  Nb  Nb5  1  0.750033  0.750000  0.374118  1
  Nb  Nb6  1  0.249959  0.250001  0.625012  1
  Nb  Nb7  1  0.749987  0.750000  0.875890  1
  Ru  Ru8  1  0.512474  0.750000  0.124964  1
  Ru  Ru9  1  0.987565  0.750000  0.124975  1
  Ru  Ru10  1  0.505675  0.250001  0.383465  1
  Ru  Ru11  1  0.994349  0.250001  0.383473  1
  Ru  Ru12  1  0.000533  0.750000  0.625046  1
  Ru  Ru13  1  0.499441  0.750000  0.625040  1
  Ru  Ru14  1  0.994245  0.250001  0.866522  1
  Ru  Ru15  1  0.505715  0.250001  0.866526  1
