# generated using pymatgen
data_Y5Pt2Rh13C4
_symmetry_space_group_name_H-M   'P 1'
_cell_length_a   4.17214900
_cell_length_b   4.17214900
_cell_length_c   20.82225700
_cell_angle_alpha   90.00000000
_cell_angle_beta   90.00000000
_cell_angle_gamma   90.00000000
_symmetry_Int_Tables_number   1
_chemical_formula_structural   Y5Pt2Rh13C4
_chemical_formula_sum   'Y5 Pt2 Rh13 C4'
_cell_volume   362.44943114
_cell_formula_units_Z   1
loop_
 _symmetry_equiv_pos_site_id
 _symmetry_equiv_pos_as_xyz
  1  'x, y, z'
loop_
 _atom_site_type_symbol
 _atom_site_label
 _atom_site_symmetry_multiplicity
 _atom_site_fract_x
 _atom_site_fract_y
 _atom_site_fract_z
 _atom_site_occupancy
  Y  Y0  1  0.000000  0.000000  0.903285  1
  Y  Y1  1  0.000000  0.000000  0.096715  1
  Y  Y2  1  0.000000  0.000000  0.298983  1
  Y  Y3  1  0.000000  0.000000  0.500000  1
  Y  Y4  1  0.000000  0.000000  0.701017  1
  Pt  Pt5  1  0.500000  0.000000  0.000000  1
  Pt  Pt6  1  0.000000  0.500000  0.000000  1
  Rh  Rh7  1  0.500000  0.500000  0.904246  1
  Rh  Rh8  1  0.500000  0.500000  0.095754  1
  Rh  Rh9  1  0.500000  0.500000  0.299062  1
  Rh  Rh10  1  0.500000  0.500000  0.500000  1
  Rh  Rh11  1  0.500000  0.500000  0.700938  1
  Rh  Rh12  1  0.500000  0.000000  0.200467  1
  Rh  Rh13  1  0.500000  0.000000  0.400141  1
  Rh  Rh14  1  0.500000  0.000000  0.599859  1
  Rh  Rh15  1  0.500000  0.000000  0.799533  1
  Rh  Rh16  1  0.000000  0.500000  0.200467  1
  Rh  Rh17  1  0.000000  0.500000  0.400141  1
  Rh  Rh18  1  0.000000  0.500000  0.599859  1
  Rh  Rh19  1  0.000000  0.500000  0.799533  1
  C  C20  1  0.500000  0.500000  0.189887  1
  C  C21  1  0.500000  0.500000  0.397331  1
  C  C22  1  0.500000  0.500000  0.602669  1
  C  C23  1  0.500000  0.500000  0.810113  1
