# generated using pymatgen
data_CsPrZr6CBr18
_symmetry_space_group_name_H-M   'P 1'
_cell_length_a   10.20946100
_cell_length_b   10.20946074
_cell_length_c   19.24588900
_cell_angle_alpha   90.00000000
_cell_angle_beta   90.00000000
_cell_angle_gamma   120.00000407
_symmetry_Int_Tables_number   1
_chemical_formula_structural   CsPrZr6CBr18
_chemical_formula_sum   'Cs2 Pr2 Zr12 C2 Br36'
_cell_volume   1737.29755563
_cell_formula_units_Z   2
loop_
 _symmetry_equiv_pos_site_id
 _symmetry_equiv_pos_as_xyz
  1  'x, y, z'
loop_
 _atom_site_type_symbol
 _atom_site_label
 _atom_site_symmetry_multiplicity
 _atom_site_fract_x
 _atom_site_fract_y
 _atom_site_fract_z
 _atom_site_occupancy
  Cs  Cs0  1  0.333333  0.666667  0.750000  1
  Cs  Cs1  1  0.666667  0.333333  0.250000  1
  Pr  Pr2  1  0.666667  0.333333  0.750000  1
  Pr  Pr3  1  0.333333  0.666667  0.250000  1
  Zr  Zr4  1  0.836422  0.037457  0.569429  1
  Zr  Zr5  1  0.163578  0.962543  0.430571  1
  Zr  Zr6  1  0.962543  0.798965  0.569429  1
  Zr  Zr7  1  0.836422  0.798965  0.930571  1
  Zr  Zr8  1  0.037457  0.201035  0.430571  1
  Zr  Zr9  1  0.163578  0.201035  0.069429  1
  Zr  Zr10  1  0.201035  0.163578  0.569429  1
  Zr  Zr11  1  0.962543  0.163578  0.930571  1
  Zr  Zr12  1  0.798965  0.836422  0.430571  1
  Zr  Zr13  1  0.037457  0.836422  0.069429  1
  Zr  Zr14  1  0.201035  0.037457  0.930571  1
  Zr  Zr15  1  0.798965  0.962543  0.069429  1
  C  C16  1  0.000000  0.000000  0.500000  1
  C  C17  1  0.000000  0.000000  0.000000  1
  Br  Br18  1  0.272796  0.419890  0.500659  1
  Br  Br19  1  0.727204  0.580110  0.499341  1
  Br  Br20  1  0.580110  0.852905  0.500659  1
  Br  Br21  1  0.272796  0.852905  0.999341  1
  Br  Br22  1  0.419890  0.147095  0.499341  1
  Br  Br23  1  0.727204  0.147095  0.000659  1
  Br  Br24  1  0.147095  0.727204  0.500659  1
  Br  Br25  1  0.580110  0.727204  0.999341  1
  Br  Br26  1  0.852905  0.272796  0.499341  1
  Br  Br27  1  0.419890  0.272796  0.000659  1
  Br  Br28  1  0.147095  0.419890  0.999341  1
  Br  Br29  1  0.852905  0.580110  0.000659  1
  Br  Br30  1  0.042584  0.231544  0.659899  1
  Br  Br31  1  0.957416  0.768456  0.340101  1
  Br  Br32  1  0.768456  0.811041  0.659899  1
  Br  Br33  1  0.042584  0.811041  0.840101  1
  Br  Br34  1  0.231544  0.188959  0.340101  1
  Br  Br35  1  0.957416  0.188959  0.159899  1
  Br  Br36  1  0.188959  0.957416  0.659899  1
  Br  Br37  1  0.768456  0.957416  0.840101  1
  Br  Br38  1  0.811041  0.042584  0.340101  1
  Br  Br39  1  0.231544  0.042584  0.159899  1
  Br  Br40  1  0.188959  0.231544  0.840101  1
  Br  Br41  1  0.811041  0.768456  0.159899  1
  Br  Br42  1  0.627425  0.078517  0.661547  1
  Br  Br43  1  0.372575  0.921483  0.338453  1
  Br  Br44  1  0.921483  0.548908  0.661547  1
  Br  Br45  1  0.627425  0.548908  0.838453  1
  Br  Br46  1  0.078517  0.451092  0.338453  1
  Br  Br47  1  0.372575  0.451092  0.161547  1
  Br  Br48  1  0.451092  0.372575  0.661547  1
  Br  Br49  1  0.921483  0.372575  0.838453  1
  Br  Br50  1  0.548908  0.627425  0.338453  1
  Br  Br51  1  0.078517  0.627425  0.161547  1
  Br  Br52  1  0.451092  0.078517  0.838453  1
  Br  Br53  1  0.548908  0.921483  0.161547  1
