# generated using pymatgen
data_Rb3VRhBr9
_symmetry_space_group_name_H-M   'P 1'
_cell_length_a   7.58771200
_cell_length_b   7.58771293
_cell_length_c   19.04932600
_cell_angle_alpha   90.00000000
_cell_angle_beta   90.00000000
_cell_angle_gamma   119.99998723
_symmetry_Int_Tables_number   1
_chemical_formula_structural   Rb3VRhBr9
_chemical_formula_sum   'Rb6 V2 Rh2 Br18'
_cell_volume   949.79970814
_cell_formula_units_Z   2
loop_
 _symmetry_equiv_pos_site_id
 _symmetry_equiv_pos_as_xyz
  1  'x, y, z'
loop_
 _atom_site_type_symbol
 _atom_site_label
 _atom_site_symmetry_multiplicity
 _atom_site_fract_x
 _atom_site_fract_y
 _atom_site_fract_z
 _atom_site_occupancy
  Rb  Rb0  1  0.666667  0.333333  0.566000  1
  Rb  Rb1  1  0.333333  0.666667  0.061443  1
  Rb  Rb2  1  0.333333  0.666667  0.434000  1
  Rb  Rb3  1  0.666667  0.333333  0.938557  1
  Rb  Rb4  1  0.000000  0.000000  0.248555  1
  Rb  Rb5  1  0.000000  0.000000  0.751445  1
  V  V6  1  0.333333  0.666667  0.833506  1
  V  V7  1  0.666667  0.333333  0.166494  1
  Rh  Rh8  1  0.333333  0.666667  0.667770  1
  Rh  Rh9  1  0.666667  0.333333  0.332230  1
  Br  Br10  1  0.822189  0.644378  0.406984  1
  Br  Br11  1  0.177811  0.822189  0.593016  1
  Br  Br12  1  0.644378  0.822189  0.593016  1
  Br  Br13  1  0.822189  0.177811  0.406984  1
  Br  Br14  1  0.355622  0.177811  0.406984  1
  Br  Br15  1  0.174240  0.348480  0.905496  1
  Br  Br16  1  0.021306  0.510653  0.747254  1
  Br  Br17  1  0.651520  0.825760  0.905496  1
  Br  Br18  1  0.825760  0.651520  0.094504  1
  Br  Br19  1  0.177811  0.355622  0.593016  1
  Br  Br20  1  0.489347  0.978694  0.747254  1
  Br  Br21  1  0.510653  0.489347  0.252746  1
  Br  Br22  1  0.489347  0.510653  0.747254  1
  Br  Br23  1  0.174240  0.825760  0.905496  1
  Br  Br24  1  0.348480  0.174240  0.094504  1
  Br  Br25  1  0.978694  0.489347  0.252746  1
  Br  Br26  1  0.510653  0.021306  0.252746  1
  Br  Br27  1  0.825760  0.174240  0.094504  1
