# generated using pymatgen
data_Dy2FeSi4Ru
_symmetry_space_group_name_H-M   'P 1'
_cell_length_a   4.35530409
_cell_length_b   3.97419900
_cell_length_c   8.07096965
_cell_angle_alpha   90.00000000
_cell_angle_beta   102.44536592
_cell_angle_gamma   90.00000000
_symmetry_Int_Tables_number   1
_chemical_formula_structural   Dy2FeSi4Ru
_chemical_formula_sum   'Dy2 Fe1 Si4 Ru1'
_cell_volume   136.41650586
_cell_formula_units_Z   1
loop_
 _symmetry_equiv_pos_site_id
 _symmetry_equiv_pos_as_xyz
  1  'x, y, z'
loop_
 _atom_site_type_symbol
 _atom_site_label
 _atom_site_symmetry_multiplicity
 _atom_site_fract_x
 _atom_site_fract_y
 _atom_site_fract_z
 _atom_site_occupancy
  Dy  Dy0  1  0.092976  0.750001  0.202314  1
  Dy  Dy1  1  0.917618  0.250000  0.797781  1
  Fe  Fe2  1  0.614980  0.250000  0.388574  1
  Si  Si3  1  0.540935  0.250000  0.100634  1
  Si  Si4  1  0.157682  0.250000  0.482325  1
  Si  Si5  1  0.823856  0.750001  0.499908  1
  Si  Si6  1  0.469246  0.750001  0.914039  1
  Ru  Ru7  1  0.382710  0.750001  0.614427  1
