# generated using pymatgen
data_Ta4Cd2HgPbO14
_symmetry_space_group_name_H-M   'P 1'
_cell_length_a   7.56397668
_cell_length_b   7.45046023
_cell_length_c   7.51842900
_cell_angle_alpha   59.69776431
_cell_angle_beta   60.19900011
_cell_angle_gamma   59.83608542
_symmetry_Int_Tables_number   1
_chemical_formula_structural   Ta4Cd2HgPbO14
_chemical_formula_sum   'Ta4 Cd2 Hg1 Pb1 O14'
_cell_volume   298.98497144
_cell_formula_units_Z   1
loop_
 _symmetry_equiv_pos_site_id
 _symmetry_equiv_pos_as_xyz
  1  'x, y, z'
loop_
 _atom_site_type_symbol
 _atom_site_label
 _atom_site_symmetry_multiplicity
 _atom_site_fract_x
 _atom_site_fract_y
 _atom_site_fract_z
 _atom_site_occupancy
  Ta  Ta0  1  0.125000  0.625000  0.125000  1
  Ta  Ta1  1  0.125000  0.125000  0.625000  1
  Ta  Ta2  1  0.625000  0.125000  0.125000  1
  Ta  Ta3  1  0.125000  0.125000  0.125000  1
  Cd  Cd4  1  0.625000  0.625000  0.625000  1
  Cd  Cd5  1  0.625000  0.625000  0.125000  1
  Hg  Hg6  1  0.625000  0.125000  0.625000  1
  Pb  Pb7  1  0.125000  0.625000  0.625000  1
  O  O8  1  0.713854  0.764311  0.760918  1
  O  O9  1  0.190422  0.807390  0.810058  1
  O  O10  1  0.190422  0.807390  0.192130  1
  O  O11  1  0.814184  0.190960  0.812836  1
  O  O12  1  0.183040  0.192670  0.812145  1
  O  O13  1  0.812482  0.808526  0.189497  1
  O  O14  1  0.435816  0.059040  0.067980  1
  O  O15  1  0.814184  0.190960  0.182020  1
  O  O16  1  0.059578  0.442610  0.057870  1
  O  O17  1  0.066960  0.057330  0.437855  1
  O  O18  1  0.437518  0.441474  0.060503  1
  O  O19  1  0.435816  0.059040  0.437164  1
  O  O20  1  0.059578  0.442610  0.439942  1
  O  O21  1  0.536146  0.485689  0.489082  1
