# generated using pymatgen
data_Ca5Tb3(Al4Au3)4
_symmetry_space_group_name_H-M   'P 1'
_cell_length_a   13.85815900
_cell_length_b   13.85815947
_cell_length_c   4.32607600
_cell_angle_alpha   90.00000000
_cell_angle_beta   90.00000000
_cell_angle_gamma   120.00000126
_symmetry_Int_Tables_number   1
_chemical_formula_structural   Ca5Tb3(Al4Au3)4
_chemical_formula_sum   'Ca5 Tb3 Al16 Au12'
_cell_volume   719.50839495
_cell_formula_units_Z   1
loop_
 _symmetry_equiv_pos_site_id
 _symmetry_equiv_pos_as_xyz
  1  'x, y, z'
loop_
 _atom_site_type_symbol
 _atom_site_label
 _atom_site_symmetry_multiplicity
 _atom_site_fract_x
 _atom_site_fract_y
 _atom_site_fract_z
 _atom_site_occupancy
  Ca  Ca0  1  0.333333  0.666667  0.000000  1
  Ca  Ca1  1  0.666667  0.333333  0.000000  1
  Ca  Ca2  1  0.818508  0.000000  0.500000  1
  Ca  Ca3  1  0.000000  0.818508  0.500000  1
  Ca  Ca4  1  0.181492  0.181492  0.500000  1
  Tb  Tb5  1  0.445145  0.000000  0.000000  1
  Tb  Tb6  1  0.000000  0.445145  0.000000  1
  Tb  Tb7  1  0.554855  0.554855  0.000000  1
  Al  Al8  1  0.186941  0.382761  0.000000  1
  Al  Al9  1  0.617239  0.804181  0.000000  1
  Al  Al10  1  0.382761  0.186941  0.000000  1
  Al  Al11  1  0.195819  0.813059  0.000000  1
  Al  Al12  1  0.804181  0.617239  0.000000  1
  Al  Al13  1  0.813059  0.195819  0.000000  1
  Al  Al14  1  0.280493  0.000000  0.500000  1
  Al  Al15  1  0.000000  0.280493  0.500000  1
  Al  Al16  1  0.719507  0.719507  0.500000  1
  Al  Al17  1  0.355518  0.473158  0.500000  1
  Al  Al18  1  0.526842  0.882360  0.500000  1
  Al  Al19  1  0.473158  0.355518  0.500000  1
  Al  Al20  1  0.117640  0.644482  0.500000  1
  Al  Al21  1  0.882360  0.526842  0.500000  1
  Al  Al22  1  0.644482  0.117640  0.500000  1
  Al  Al23  1  0.000000  0.000000  0.000000  1
  Au  Au24  1  0.175749  0.487299  0.500000  1
  Au  Au25  1  0.512701  0.688450  0.500000  1
  Au  Au26  1  0.487299  0.175749  0.500000  1
  Au  Au27  1  0.311550  0.824251  0.500000  1
  Au  Au28  1  0.688450  0.512701  0.500000  1
  Au  Au29  1  0.824251  0.311550  0.500000  1
  Au  Au30  1  0.181692  0.000000  0.000000  1
  Au  Au31  1  0.000000  0.181692  0.000000  1
  Au  Au32  1  0.818308  0.818308  0.000000  1
  Au  Au33  1  0.651592  0.000000  0.000000  1
  Au  Au34  1  0.000000  0.651592  0.000000  1
  Au  Au35  1  0.348408  0.348408  0.000000  1
