# generated using pymatgen
data_EuZrTl3Cr3O12
_symmetry_space_group_name_H-M   'P 1'
_cell_length_a   5.43093811
_cell_length_b   5.52765375
_cell_length_c   7.78831049
_cell_angle_alpha   90.07657787
_cell_angle_beta   90.01492433
_cell_angle_gamma   90.20698492
_symmetry_Int_Tables_number   1
_chemical_formula_structural   EuZrTl3Cr3O12
_chemical_formula_sum   'Eu1 Zr1 Tl3 Cr3 O12'
_cell_volume   233.80602864
_cell_formula_units_Z   1
loop_
 _symmetry_equiv_pos_site_id
 _symmetry_equiv_pos_as_xyz
  1  'x, y, z'
loop_
 _atom_site_type_symbol
 _atom_site_label
 _atom_site_symmetry_multiplicity
 _atom_site_fract_x
 _atom_site_fract_y
 _atom_site_fract_z
 _atom_site_occupancy
  Eu  Eu0  1  0.987567  0.449209  0.740217  1
  Zr  Zr1  1  0.502686  0.501450  0.001292  1
  Tl  Tl2  1  0.011012  0.549443  0.260944  1
  Tl  Tl3  1  0.509140  0.958854  0.737981  1
  Tl  Tl4  1  0.491539  0.040321  0.262590  1
  Cr  Cr5  1  0.998560  0.998594  0.000768  1
  Cr  Cr6  1  0.501341  0.501931  0.499138  1
  Cr  Cr7  1  0.997657  0.997428  0.498870  1
  O  O8  1  0.596809  0.466985  0.259927  1
  O  O9  1  0.898387  0.965933  0.249426  1
  O  O10  1  0.406589  0.527640  0.742147  1
  O  O11  1  0.099018  0.030414  0.749605  1
  O  O12  1  0.183634  0.296775  0.049951  1
  O  O13  1  0.298138  0.797484  0.451547  1
  O  O14  1  0.797696  0.705283  0.547329  1
  O  O15  1  0.708297  0.193431  0.942483  1
  O  O16  1  0.812371  0.705010  0.947422  1
  O  O17  1  0.704678  0.205346  0.548610  1
  O  O18  1  0.200119  0.296023  0.453172  1
  O  O19  1  0.294760  0.812448  0.056582  1
