# generated using pymatgen
data_Cs2Ga3AgF12
_symmetry_space_group_name_H-M   'P 1'
_cell_length_a   7.77366018
_cell_length_b   7.77366027
_cell_length_c   7.77366100
_cell_angle_alpha   56.23134940
_cell_angle_beta   56.23134895
_cell_angle_gamma   56.23134691
_symmetry_Int_Tables_number   1
_chemical_formula_structural   Cs2Ga3AgF12
_chemical_formula_sum   'Cs2 Ga3 Ag1 F12'
_cell_volume   303.20023226
_cell_formula_units_Z   1
loop_
 _symmetry_equiv_pos_site_id
 _symmetry_equiv_pos_as_xyz
  1  'x, y, z'
loop_
 _atom_site_type_symbol
 _atom_site_label
 _atom_site_symmetry_multiplicity
 _atom_site_fract_x
 _atom_site_fract_y
 _atom_site_fract_z
 _atom_site_occupancy
  Cs  Cs0  1  0.622610  0.622610  0.622610  1
  Cs  Cs1  1  0.377390  0.377390  0.377390  1
  Ga  Ga2  1  0.500000  0.000000  0.000000  1
  Ga  Ga3  1  0.000000  0.000000  0.500000  1
  Ga  Ga4  1  0.000000  0.500000  0.000000  1
  Ag  Ag5  1  0.000000  0.000000  0.000000  1
  F  F6  1  0.095332  0.095332  0.597404  1
  F  F7  1  0.597404  0.095332  0.095332  1
  F  F8  1  0.095332  0.597404  0.095332  1
  F  F9  1  0.904668  0.402596  0.904668  1
  F  F10  1  0.904668  0.904668  0.402596  1
  F  F11  1  0.402596  0.904668  0.904668  1
  F  F12  1  0.905625  0.298060  0.298060  1
  F  F13  1  0.298060  0.298060  0.905625  1
  F  F14  1  0.298060  0.905625  0.298060  1
  F  F15  1  0.701940  0.094375  0.701940  1
  F  F16  1  0.094375  0.701940  0.701940  1
  F  F17  1  0.701940  0.701940  0.094375  1
