# generated using pymatgen
data_K2LiTmSb2
_symmetry_space_group_name_H-M   'P 1'
_cell_length_a   10.87761181
_cell_length_b   10.87761283
_cell_length_c   7.08797900
_cell_angle_alpha   90.00000000
_cell_angle_beta   90.00000000
_cell_angle_gamma   98.78146932
_symmetry_Int_Tables_number   1
_chemical_formula_structural   K2LiTmSb2
_chemical_formula_sum   'K8 Li4 Tm4 Sb8'
_cell_volume   828.83602372
_cell_formula_units_Z   4
loop_
 _symmetry_equiv_pos_site_id
 _symmetry_equiv_pos_as_xyz
  1  'x, y, z'
loop_
 _atom_site_type_symbol
 _atom_site_label
 _atom_site_symmetry_multiplicity
 _atom_site_fract_x
 _atom_site_fract_y
 _atom_site_fract_z
 _atom_site_occupancy
  K  K0  1  0.569853  0.930147  0.750000  1
  K  K1  1  0.930147  0.569853  0.250000  1
  K  K2  1  0.430147  0.069853  0.250000  1
  K  K3  1  0.069853  0.430147  0.750000  1
  K  K4  1  0.676605  0.323395  0.783300  1
  K  K5  1  0.823395  0.176605  0.283300  1
  K  K6  1  0.323395  0.676605  0.216700  1
  K  K7  1  0.176605  0.823395  0.716700  1
  Li  Li8  1  0.619620  0.619620  0.000000  1
  Li  Li9  1  0.880380  0.880380  0.500000  1
  Li  Li10  1  0.380380  0.380380  0.000000  1
  Li  Li11  1  0.119620  0.119620  0.500000  1
  Tm  Tm12  1  0.869807  0.869807  0.000000  1
  Tm  Tm13  1  0.630193  0.630193  0.500000  1
  Tm  Tm14  1  0.130193  0.130193  0.000000  1
  Tm  Tm15  1  0.369807  0.369807  0.500000  1
  Sb  Sb16  1  0.350964  0.149036  0.750000  1
  Sb  Sb17  1  0.149036  0.350964  0.250000  1
  Sb  Sb18  1  0.649036  0.850964  0.250000  1
  Sb  Sb19  1  0.850964  0.649036  0.750000  1
  Sb  Sb20  1  0.901078  0.098922  0.759867  1
  Sb  Sb21  1  0.598922  0.401078  0.259867  1
  Sb  Sb22  1  0.098922  0.901078  0.240133  1
  Sb  Sb23  1  0.401078  0.598922  0.740133  1
