# generated using pymatgen
data_Sc4TiGa3
_symmetry_space_group_name_H-M   'P 1'
_cell_length_a   5.24942116
_cell_length_b   8.13874162
_cell_length_c   8.13874182
_cell_angle_alpha   84.03023786
_cell_angle_beta   71.18607923
_cell_angle_gamma   71.18607381
_symmetry_Int_Tables_number   1
_chemical_formula_structural   Sc4TiGa3
_chemical_formula_sum   'Sc8 Ti2 Ga6'
_cell_volume   311.55323498
_cell_formula_units_Z   2
loop_
 _symmetry_equiv_pos_site_id
 _symmetry_equiv_pos_as_xyz
  1  'x, y, z'
loop_
 _atom_site_type_symbol
 _atom_site_label
 _atom_site_symmetry_multiplicity
 _atom_site_fract_x
 _atom_site_fract_y
 _atom_site_fract_z
 _atom_site_occupancy
  Sc  Sc0  1  0.720099  0.862069  0.697735  1
  Sc  Sc1  1  0.279901  0.137931  0.302265  1
  Sc  Sc2  1  0.779901  0.302265  0.137931  1
  Sc  Sc3  1  0.220099  0.697735  0.862069  1
  Sc  Sc4  1  0.582166  0.697735  0.137931  1
  Sc  Sc5  1  0.417834  0.302265  0.862069  1
  Sc  Sc6  1  0.082166  0.137931  0.697735  1
  Sc  Sc7  1  0.917834  0.862069  0.302265  1
  Ti  Ti8  1  0.750000  0.500000  0.500000  1
  Ti  Ti9  1  0.250000  0.500000  0.500000  1
  Ga  Ga10  1  0.157668  0.500000  0.184663  1
  Ga  Ga11  1  0.842332  0.500000  0.815337  1
  Ga  Ga12  1  0.342332  0.815337  0.500000  1
  Ga  Ga13  1  0.657668  0.184663  0.500000  1
  Ga  Ga14  1  0.250000  0.000000  0.000000  1
  Ga  Ga15  1  0.750000  0.000000  0.000000  1
