# generated using pymatgen
data_TbHo3Cu2(Si2Ru)2
_symmetry_space_group_name_H-M   'P 1'
_cell_length_a   4.22436200
_cell_length_b   6.96016745
_cell_length_c   7.35443120
_cell_angle_alpha   91.45063727
_cell_angle_beta   90.00000000
_cell_angle_gamma   90.00000000
_symmetry_Int_Tables_number   1
_chemical_formula_structural   TbHo3Cu2(Si2Ru)2
_chemical_formula_sum   'Tb1 Ho3 Cu2 Si4 Ru2'
_cell_volume   216.16764636
_cell_formula_units_Z   1
loop_
 _symmetry_equiv_pos_site_id
 _symmetry_equiv_pos_as_xyz
  1  'x, y, z'
loop_
 _atom_site_type_symbol
 _atom_site_label
 _atom_site_symmetry_multiplicity
 _atom_site_fract_x
 _atom_site_fract_y
 _atom_site_fract_z
 _atom_site_occupancy
  Tb  Tb0  1  0.250000  0.992983  0.797047  1
  Ho  Ho1  1  0.750000  0.006879  0.203377  1
  Ho  Ho2  1  0.250000  0.492927  0.688923  1
  Ho  Ho3  1  0.750000  0.507330  0.311585  1
  Cu  Cu4  1  0.750000  0.831977  0.571533  1
  Cu  Cu5  1  0.250000  0.169446  0.425896  1
  Si  Si6  1  0.250000  0.298779  0.090439  1
  Si  Si7  1  0.750000  0.700032  0.911796  1
  Si  Si8  1  0.250000  0.795654  0.388633  1
  Si  Si9  1  0.750000  0.205510  0.609727  1
  Ru  Ru10  1  0.750000  0.346537  0.934346  1
  Ru  Ru11  1  0.250000  0.651945  0.066698  1
