# generated using pymatgen
data_Er3In3CuHg2
_symmetry_space_group_name_H-M   'P 1'
_cell_length_a   7.56591300
_cell_length_b   7.56591287
_cell_length_c   4.22810600
_cell_angle_alpha   90.00000000
_cell_angle_beta   90.00000000
_cell_angle_gamma   119.99999619
_symmetry_Int_Tables_number   1
_chemical_formula_structural   Er3In3CuHg2
_chemical_formula_sum   'Er3 In3 Cu1 Hg2'
_cell_volume   209.60382018
_cell_formula_units_Z   1
loop_
 _symmetry_equiv_pos_site_id
 _symmetry_equiv_pos_as_xyz
  1  'x, y, z'
loop_
 _atom_site_type_symbol
 _atom_site_label
 _atom_site_symmetry_multiplicity
 _atom_site_fract_x
 _atom_site_fract_y
 _atom_site_fract_z
 _atom_site_occupancy
  Er  Er0  1  0.000000  0.598175  0.500000  1
  Er  Er1  1  0.401825  0.401825  0.500000  1
  Er  Er2  1  0.598175  0.000000  0.500000  1
  In  In3  1  0.759723  0.759723  0.000000  1
  In  In4  1  0.000000  0.240277  0.000000  1
  In  In5  1  0.240277  0.000000  0.000000  1
  Cu  Cu6  1  0.000000  0.000000  0.500000  1
  Hg  Hg7  1  0.333333  0.666667  0.000000  1
  Hg  Hg8  1  0.666667  0.333333  0.000000  1
