# generated using pymatgen
data_Er4Al17Si(Pd2Ru)2
_symmetry_space_group_name_H-M   'P 1'
_cell_length_a   7.58418638
_cell_length_b   7.58418599
_cell_length_c   9.40012300
_cell_angle_alpha   90.00000000
_cell_angle_beta   90.00000000
_cell_angle_gamma   119.52827154
_symmetry_Int_Tables_number   1
_chemical_formula_structural   Er4Al17Si(Pd2Ru)2
_chemical_formula_sum   'Er4 Al17 Si1 Pd4 Ru2'
_cell_volume   470.46462351
_cell_formula_units_Z   1
loop_
 _symmetry_equiv_pos_site_id
 _symmetry_equiv_pos_as_xyz
  1  'x, y, z'
loop_
 _atom_site_type_symbol
 _atom_site_label
 _atom_site_symmetry_multiplicity
 _atom_site_fract_x
 _atom_site_fract_y
 _atom_site_fract_z
 _atom_site_occupancy
  Er  Er0  1  0.993428  0.675305  0.250000  1
  Er  Er1  1  0.003301  0.332028  0.750000  1
  Er  Er2  1  0.675305  0.993428  0.250000  1
  Er  Er3  1  0.332028  0.003301  0.750000  1
  Al  Al4  1  0.879882  0.879882  0.750000  1
  Al  Al5  1  0.000406  0.332129  0.077985  1
  Al  Al6  1  0.000050  0.671343  0.924003  1
  Al  Al7  1  0.000050  0.671343  0.575997  1
  Al  Al8  1  0.332129  0.000406  0.422015  1
  Al  Al9  1  0.000406  0.332129  0.422015  1
  Al  Al10  1  0.671343  0.000050  0.575997  1
  Al  Al11  1  0.671343  0.000050  0.924003  1
  Al  Al12  1  0.332129  0.000406  0.077985  1
  Al  Al13  1  0.326409  0.326409  0.558540  1
  Al  Al14  1  0.668410  0.668410  0.446987  1
  Al  Al15  1  0.668410  0.668410  0.053013  1
  Al  Al16  1  0.326409  0.326409  0.941460  1
  Al  Al17  1  0.338140  0.546077  0.250000  1
  Al  Al18  1  0.659912  0.453503  0.750000  1
  Al  Al19  1  0.546077  0.338140  0.250000  1
  Al  Al20  1  0.453503  0.659912  0.750000  1
  Si  Si21  1  0.124487  0.124487  0.250000  1
  Pd  Pd22  1  0.671549  0.326606  0.000441  1
  Pd  Pd23  1  0.326606  0.671549  0.000441  1
  Pd  Pd24  1  0.326606  0.671549  0.499559  1
  Pd  Pd25  1  0.671549  0.326606  0.499559  1
  Ru  Ru26  1  0.000065  0.000065  0.008981  1
  Ru  Ru27  1  0.000065  0.000065  0.491019  1
