# generated using pymatgen
data_Ho3Er5Ti11Si16Ag
_symmetry_space_group_name_H-M   'P 1'
_cell_length_a   7.04719320
_cell_length_b   7.04746818
_cell_length_c   12.86852604
_cell_angle_alpha   90.07308054
_cell_angle_beta   89.91937267
_cell_angle_gamma   89.66629352
_symmetry_Int_Tables_number   1
_chemical_formula_structural   Ho3Er5Ti11Si16Ag
_chemical_formula_sum   'Ho3 Er5 Ti11 Si16 Ag1'
_cell_volume   639.10167153
_cell_formula_units_Z   1
loop_
 _symmetry_equiv_pos_site_id
 _symmetry_equiv_pos_as_xyz
  1  'x, y, z'
loop_
 _atom_site_type_symbol
 _atom_site_label
 _atom_site_symmetry_multiplicity
 _atom_site_fract_x
 _atom_site_fract_y
 _atom_site_fract_z
 _atom_site_occupancy
  Ho  Ho0  1  0.340809  0.002074  0.466645  1
  Ho  Ho1  1  0.497607  0.840677  0.716752  1
  Ho  Ho2  1  0.501517  0.157889  0.214624  1
  Er  Er3  1  0.840796  0.498003  0.283304  1
  Er  Er4  1  0.157639  0.501161  0.785334  1
  Er  Er5  1  0.656558  0.001006  0.968326  1
  Er  Er6  1  0.001644  0.341110  0.533436  1
  Er  Er7  1  0.001072  0.656388  0.031683  1
  Ti  Ti8  1  0.173909  0.826232  0.249986  1
  Ti  Ti9  1  0.826421  0.174156  0.750001  1
  Ti  Ti10  1  0.672901  0.672596  0.499953  1
  Ti  Ti11  1  0.147433  0.007799  0.876723  1
  Ti  Ti12  1  0.495521  0.650581  0.123200  1
  Ti  Ti13  1  0.507644  0.350388  0.625072  1
  Ti  Ti14  1  0.650612  0.495490  0.876818  1
  Ti  Ti15  1  0.350349  0.507562  0.374939  1
  Ti  Ti16  1  0.850058  0.992202  0.374258  1
  Ti  Ti17  1  0.007729  0.147560  0.123321  1
  Ti  Ti18  1  0.992172  0.849986  0.625763  1
  Si  Si19  1  0.202057  0.133230  0.683951  1
  Si  Si20  1  0.373299  0.719090  0.928831  1
  Si  Si21  1  0.631888  0.294363  0.432249  1
  Si  Si22  1  0.719489  0.373514  0.071167  1
  Si  Si23  1  0.293953  0.631207  0.567724  1
  Si  Si24  1  0.797561  0.866746  0.182304  1
  Si  Si25  1  0.132521  0.202521  0.316027  1
  Si  Si26  1  0.867222  0.797276  0.817763  1
  Si  Si27  1  0.286550  0.938326  0.066055  1
  Si  Si28  1  0.546881  0.790977  0.314382  1
  Si  Si29  1  0.455248  0.207965  0.809031  1
  Si  Si30  1  0.791572  0.546452  0.685577  1
  Si  Si31  1  0.207396  0.455406  0.191062  1
  Si  Si32  1  0.708906  0.047540  0.564134  1
  Si  Si33  1  0.938541  0.286756  0.933871  1
  Si  Si34  1  0.047106  0.708266  0.435812  1
  Ag  Ag35  1  0.327419  0.327509  0.999924  1
