# generated using pymatgen
data_Ho2SeS2
_symmetry_space_group_name_H-M   'P 1'
_cell_length_a   7.21465984
_cell_length_b   7.21465853
_cell_length_c   7.21465865
_cell_angle_alpha   147.56718905
_cell_angle_beta   136.47262977
_cell_angle_gamma   55.31485643
_symmetry_Int_Tables_number   1
_chemical_formula_structural   Ho2SeS2
_chemical_formula_sum   'Ho2 Se1 S2'
_cell_volume   137.76746651
_cell_formula_units_Z   1
loop_
 _symmetry_equiv_pos_site_id
 _symmetry_equiv_pos_as_xyz
  1  'x, y, z'
loop_
 _atom_site_type_symbol
 _atom_site_label
 _atom_site_symmetry_multiplicity
 _atom_site_fract_x
 _atom_site_fract_y
 _atom_site_fract_z
 _atom_site_occupancy
  Ho  Ho0  1  0.839980  0.339980  0.500000  1
  Ho  Ho1  1  0.160020  0.660020  0.500000  1
  Se  Se2  1  0.000000  0.000000  0.000000  1
  S  S3  1  0.698310  0.698310  0.000000  1
  S  S4  1  0.301690  0.301690  0.000000  1
