# generated using pymatgen
data_V9CrSe16
_symmetry_space_group_name_H-M   'P 1'
_cell_length_a   6.74179600
_cell_length_b   6.74184289
_cell_length_c   12.67396800
_cell_angle_alpha   89.99868273
_cell_angle_beta   90.00020397
_cell_angle_gamma   120.00170318
_symmetry_Int_Tables_number   1
_chemical_formula_structural   V9CrSe16
_chemical_formula_sum   'V9 Cr1 Se16'
_cell_volume   498.87302167
_cell_formula_units_Z   1
loop_
 _symmetry_equiv_pos_site_id
 _symmetry_equiv_pos_as_xyz
  1  'x, y, z'
loop_
 _atom_site_type_symbol
 _atom_site_label
 _atom_site_symmetry_multiplicity
 _atom_site_fract_x
 _atom_site_fract_y
 _atom_site_fract_z
 _atom_site_occupancy
  V  V0  1  0.999976  0.999965  0.248953  1
  V  V1  1  0.000024  0.000035  0.751047  1
  V  V2  1  0.508732  0.491318  0.249635  1
  V  V3  1  0.508781  0.017539  0.249677  1
  V  V4  1  0.982529  0.491300  0.249648  1
  V  V5  1  0.491268  0.508682  0.750365  1
  V  V6  1  0.491219  0.982461  0.750323  1
  V  V7  1  0.017471  0.508700  0.750352  1
  V  V8  1  0.000000  0.000000  0.000000  1
  Cr  Cr9  1  0.000000  0.000000  0.500000  1
  Se  Se10  1  0.333091  0.666377  0.879197  1
  Se  Se11  1  0.666909  0.333623  0.120803  1
  Se  Se12  1  0.666902  0.333696  0.378140  1
  Se  Se13  1  0.333098  0.666304  0.621860  1
  Se  Se14  1  0.167200  0.832435  0.373037  1
  Se  Se15  1  0.167396  0.334899  0.372907  1
  Se  Se16  1  0.665272  0.832485  0.373057  1
  Se  Se17  1  0.832800  0.167565  0.626963  1
  Se  Se18  1  0.832604  0.665101  0.627093  1
  Se  Se19  1  0.334728  0.167515  0.626943  1
  Se  Se20  1  0.832308  0.168011  0.873074  1
  Se  Se21  1  0.832190  0.664235  0.872988  1
  Se  Se22  1  0.335636  0.167918  0.873113  1
  Se  Se23  1  0.167692  0.831989  0.126926  1
  Se  Se24  1  0.167810  0.335765  0.127012  1
  Se  Se25  1  0.664364  0.832082  0.126887  1
