# generated using pymatgen
data_Tb7Yb5(PrSn2)8
_symmetry_space_group_name_H-M   'P 1'
_cell_length_a   8.03945709
_cell_length_b   8.41880809
_cell_length_c   15.84628850
_cell_angle_alpha   90.03348980
_cell_angle_beta   89.83340344
_cell_angle_gamma   90.07333362
_symmetry_Int_Tables_number   1
_chemical_formula_structural   Tb7Yb5(PrSn2)8
_chemical_formula_sum   'Tb7 Yb5 Pr8 Sn16'
_cell_volume   1072.51314807
_cell_formula_units_Z   1
loop_
 _symmetry_equiv_pos_site_id
 _symmetry_equiv_pos_as_xyz
  1  'x, y, z'
loop_
 _atom_site_type_symbol
 _atom_site_label
 _atom_site_symmetry_multiplicity
 _atom_site_fract_x
 _atom_site_fract_y
 _atom_site_fract_z
 _atom_site_occupancy
  Tb  Tb0  1  0.334530  0.827971  0.875055  1
  Tb  Tb1  1  0.834872  0.672970  0.624145  1
  Tb  Tb2  1  0.664916  0.172094  0.375003  1
  Tb  Tb3  1  0.165224  0.328820  0.125104  1
  Tb  Tb4  1  0.666461  0.172209  0.125121  1
  Tb  Tb5  1  0.165526  0.328048  0.375174  1
  Tb  Tb6  1  0.334843  0.827284  0.624351  1
  Yb  Yb7  1  0.833209  0.670197  0.876316  1
  Yb  Yb8  1  0.163631  0.500390  0.750820  1
  Yb  Yb9  1  0.665253  0.998897  0.750614  1
  Yb  Yb10  1  0.835579  0.500761  0.250079  1
  Yb  Yb11  1  0.335768  0.999273  0.250105  1
  Pr  Pr12  1  0.493798  0.317859  0.903597  1
  Pr  Pr13  1  0.993125  0.182374  0.595618  1
  Pr  Pr14  1  0.506912  0.681088  0.403568  1
  Pr  Pr15  1  0.006453  0.818385  0.096330  1
  Pr  Pr16  1  0.506785  0.681316  0.096234  1
  Pr  Pr17  1  0.007037  0.819058  0.403937  1
  Pr  Pr18  1  0.493920  0.317889  0.595514  1
  Pr  Pr19  1  0.992552  0.182379  0.903664  1
  Sn  Sn20  1  0.326644  0.038711  0.038249  1
  Sn  Sn21  1  0.825862  0.461844  0.462059  1
  Sn  Sn22  1  0.674183  0.961512  0.537532  1
  Sn  Sn23  1  0.176020  0.537847  0.962842  1
  Sn  Sn24  1  0.670064  0.963565  0.961884  1
  Sn  Sn25  1  0.174185  0.537991  0.538060  1
  Sn  Sn26  1  0.325868  0.038612  0.462314  1
  Sn  Sn27  1  0.828662  0.461354  0.039481  1
  Sn  Sn28  1  0.532525  0.611852  0.748671  1
  Sn  Sn29  1  0.033842  0.890427  0.749949  1
  Sn  Sn30  1  0.467599  0.387325  0.250106  1
  Sn  Sn31  1  0.967607  0.111966  0.249858  1
  Sn  Sn32  1  0.293613  0.136954  0.749353  1
  Sn  Sn33  1  0.792774  0.360615  0.749023  1
  Sn  Sn34  1  0.705052  0.861871  0.250203  1
  Sn  Sn35  1  0.205105  0.638292  0.250066  1
