# generated using pymatgen
data_Ta12Re3Tc4B12Ru5
_symmetry_space_group_name_H-M   'P 1'
_cell_length_a   3.15516800
_cell_length_b   9.06291690
_cell_length_c   15.66205698
_cell_angle_alpha   90.09155407
_cell_angle_beta   90.00000000
_cell_angle_gamma   90.00000000
_symmetry_Int_Tables_number   1
_chemical_formula_structural   Ta12Re3Tc4B12Ru5
_chemical_formula_sum   'Ta12 Re3 Tc4 B12 Ru5'
_cell_volume   447.85634540
_cell_formula_units_Z   1
loop_
 _symmetry_equiv_pos_site_id
 _symmetry_equiv_pos_as_xyz
  1  'x, y, z'
loop_
 _atom_site_type_symbol
 _atom_site_label
 _atom_site_symmetry_multiplicity
 _atom_site_fract_x
 _atom_site_fract_y
 _atom_site_fract_z
 _atom_site_occupancy
  Ta  Ta0  1  0.000000  0.802487  0.493644  1
  Ta  Ta1  1  0.000000  0.199346  0.506018  1
  Ta  Ta2  1  0.000000  0.302618  0.006827  1
  Ta  Ta3  1  0.000000  0.697564  0.993025  1
  Ta  Ta4  1  0.000000  0.514886  0.595082  1
  Ta  Ta5  1  0.000000  0.485195  0.404708  1
  Ta  Ta6  1  0.000000  0.015823  0.904780  1
  Ta  Ta7  1  0.000000  0.984358  0.095254  1
  Ta  Ta8  1  0.000000  0.683325  0.205721  1
  Ta  Ta9  1  0.000000  0.316758  0.794296  1
  Ta  Ta10  1  0.000000  0.182896  0.294369  1
  Ta  Ta11  1  0.000000  0.815627  0.706575  1
  Re  Re12  1  0.500000  0.519166  0.095724  1
  Re  Re13  1  0.500000  0.480944  0.903658  1
  Re  Re14  1  0.500000  0.019480  0.405291  1
  Tc  Tc15  1  0.500000  0.717440  0.357760  1
  Tc  Tc16  1  0.500000  0.280793  0.642410  1
  Tc  Tc17  1  0.500000  0.216988  0.143113  1
  Tc  Tc18  1  0.500000  0.782964  0.856114  1
  B  B19  1  0.500000  0.605326  0.495809  1
  B  B20  1  0.500000  0.396215  0.504292  1
  B  B21  1  0.500000  0.104076  0.004568  1
  B  B22  1  0.500000  0.896173  0.995047  1
  B  B23  1  0.000000  0.610864  0.834144  1
  B  B24  1  0.000000  0.389067  0.165668  1
  B  B25  1  0.000000  0.112339  0.666891  1
  B  B26  1  0.000000  0.889394  0.334414  1
  B  B27  1  0.500000  0.715242  0.600725  1
  B  B28  1  0.500000  0.284413  0.399319  1
  B  B29  1  0.500000  0.216133  0.899263  1
  B  B30  1  0.500000  0.783497  0.100816  1
  Ru  Ru31  1  0.500000  0.980608  0.596174  1
  Ru  Ru32  1  0.500000  0.567749  0.731699  1
  Ru  Ru33  1  0.500000  0.431630  0.267933  1
  Ru  Ru34  1  0.500000  0.066662  0.766089  1
  Ru  Ru35  1  0.500000  0.931951  0.232780  1
