# generated using pymatgen
data_NdSmCo12GeP6
_symmetry_space_group_name_H-M   'P 1'
_cell_length_a   9.14613500
_cell_length_b   9.14613316
_cell_length_c   3.60678300
_cell_angle_alpha   90.00000000
_cell_angle_beta   90.00000000
_cell_angle_gamma   119.99999580
_symmetry_Int_Tables_number   1
_chemical_formula_structural   NdSmCo12GeP6
_chemical_formula_sum   'Nd1 Sm1 Co12 Ge1 P6'
_cell_volume   261.29180662
_cell_formula_units_Z   1
loop_
 _symmetry_equiv_pos_site_id
 _symmetry_equiv_pos_as_xyz
  1  'x, y, z'
loop_
 _atom_site_type_symbol
 _atom_site_label
 _atom_site_symmetry_multiplicity
 _atom_site_fract_x
 _atom_site_fract_y
 _atom_site_fract_z
 _atom_site_occupancy
  Nd  Nd0  1  0.333333  0.666667  0.500000  1
  Sm  Sm1  1  0.000000  0.000000  0.000000  1
  Co  Co2  1  0.100539  0.391870  0.000000  1
  Co  Co3  1  0.608130  0.708668  0.000000  1
  Co  Co4  1  0.291332  0.899461  0.000000  1
  Co  Co5  1  0.051753  0.769785  0.500000  1
  Co  Co6  1  0.230215  0.281967  0.500000  1
  Co  Co7  1  0.718033  0.948247  0.500000  1
  Co  Co8  1  0.825199  0.618585  0.000000  1
  Co  Co9  1  0.381415  0.206615  0.000000  1
  Co  Co10  1  0.793385  0.174801  0.000000  1
  Co  Co11  1  0.912012  0.443133  0.500000  1
  Co  Co12  1  0.556867  0.468879  0.500000  1
  Co  Co13  1  0.531121  0.087988  0.500000  1
  Ge  Ge14  1  0.666667  0.333333  0.000000  1
  P  P15  1  0.774133  0.733086  0.500000  1
  P  P16  1  0.266914  0.041047  0.500000  1
  P  P17  1  0.958953  0.225867  0.500000  1
  P  P18  1  0.067996  0.626845  0.000000  1
  P  P19  1  0.373155  0.441150  0.000000  1
  P  P20  1  0.558850  0.932004  0.000000  1
