# generated using pymatgen
data_Hf8Cd4Co3Cu5
_symmetry_space_group_name_H-M   'P 1'
_cell_length_a   7.25037241
_cell_length_b   7.25037210
_cell_length_c   6.58600388
_cell_angle_alpha   90.04590183
_cell_angle_beta   90.04590114
_cell_angle_gamma   91.36307535
_symmetry_Int_Tables_number   1
_chemical_formula_structural   Hf8Cd4Co3Cu5
_chemical_formula_sum   'Hf8 Cd4 Co3 Cu5'
_cell_volume   346.11418311
_cell_formula_units_Z   1
loop_
 _symmetry_equiv_pos_site_id
 _symmetry_equiv_pos_as_xyz
  1  'x, y, z'
loop_
 _atom_site_type_symbol
 _atom_site_label
 _atom_site_symmetry_multiplicity
 _atom_site_fract_x
 _atom_site_fract_y
 _atom_site_fract_z
 _atom_site_occupancy
  Hf  Hf0  1  0.156838  0.156838  0.007258  1
  Hf  Hf1  1  0.828577  0.828577  0.997098  1
  Hf  Hf2  1  0.652018  0.354366  0.494109  1
  Hf  Hf3  1  0.354366  0.652018  0.494109  1
  Hf  Hf4  1  0.673806  0.341653  0.004946  1
  Hf  Hf5  1  0.341653  0.673806  0.004946  1
  Hf  Hf6  1  0.806694  0.806694  0.502049  1
  Hf  Hf7  1  0.189893  0.189893  0.490615  1
  Cd  Cd8  1  0.500835  0.004291  0.251036  1
  Cd  Cd9  1  0.499935  0.002216  0.747216  1
  Cd  Cd10  1  0.004291  0.500835  0.251036  1
  Cd  Cd11  1  0.002216  0.499935  0.747216  1
  Co  Co12  1  0.371363  0.371363  0.226926  1
  Co  Co13  1  0.621580  0.621580  0.766425  1
  Co  Co14  1  0.629532  0.629532  0.230863  1
  Cu  Cu15  1  0.874245  0.125918  0.718136  1
  Cu  Cu16  1  0.872809  0.122870  0.281690  1
  Cu  Cu17  1  0.370563  0.370563  0.784501  1
  Cu  Cu18  1  0.122870  0.872809  0.281690  1
  Cu  Cu19  1  0.125918  0.874245  0.718136  1
