# generated using pymatgen
data_Tb7YbB24OsRu3
_symmetry_space_group_name_H-M   'P 1'
_cell_length_a   3.67978600
_cell_length_b   9.18095223
_cell_length_c   11.56411052
_cell_angle_alpha   89.93111578
_cell_angle_beta   90.00000000
_cell_angle_gamma   90.00000000
_symmetry_Int_Tables_number   1
_chemical_formula_structural   Tb7YbB24OsRu3
_chemical_formula_sum   'Tb7 Yb1 B24 Os1 Ru3'
_cell_volume   390.68092782
_cell_formula_units_Z   1
loop_
 _symmetry_equiv_pos_site_id
 _symmetry_equiv_pos_as_xyz
  1  'x, y, z'
loop_
 _atom_site_type_symbol
 _atom_site_label
 _atom_site_symmetry_multiplicity
 _atom_site_fract_x
 _atom_site_fract_y
 _atom_site_fract_z
 _atom_site_occupancy
  Tb  Tb0  1  0.000000  0.675178  0.585222  1
  Tb  Tb1  1  0.000000  0.823330  0.086641  1
  Tb  Tb2  1  0.000000  0.176868  0.914352  1
  Tb  Tb3  1  0.000000  0.944091  0.370896  1
  Tb  Tb4  1  0.000000  0.058502  0.627408  1
  Tb  Tb5  1  0.000000  0.442746  0.130098  1
  Tb  Tb6  1  0.000000  0.555291  0.872375  1
  Yb  Yb7  1  0.000000  0.324816  0.413371  1
  B  B8  1  0.500000  0.553722  0.432373  1
  B  B9  1  0.500000  0.445640  0.567289  1
  B  B10  1  0.500000  0.053448  0.067112  1
  B  B11  1  0.500000  0.946027  0.932281  1
  B  B12  1  0.500000  0.747175  0.419218  1
  B  B13  1  0.500000  0.253501  0.580326  1
  B  B14  1  0.500000  0.246775  0.080793  1
  B  B15  1  0.500000  0.752404  0.919514  1
  B  B16  1  0.500000  0.790780  0.266911  1
  B  B17  1  0.500000  0.210251  0.732970  1
  B  B18  1  0.500000  0.289366  0.233435  1
  B  B19  1  0.500000  0.709693  0.766834  1
  B  B20  1  0.500000  0.632312  0.186769  1
  B  B21  1  0.500000  0.367705  0.814422  1
  B  B22  1  0.500000  0.132290  0.313585  1
  B  B23  1  0.500000  0.868142  0.685857  1
  B  B24  1  0.500000  0.984564  0.212077  1
  B  B25  1  0.500000  0.015899  0.787021  1
  B  B26  1  0.500000  0.484628  0.288227  1
  B  B27  1  0.500000  0.515204  0.712541  1
  B  B28  1  0.500000  0.609654  0.031063  1
  B  B29  1  0.500000  0.389617  0.970067  1
  B  B30  1  0.500000  0.107543  0.469767  1
  B  B31  1  0.500000  0.892405  0.529741  1
  Os  Os32  1  0.000000  0.862431  0.821288  1
  Ru  Ru33  1  0.000000  0.639255  0.321148  1
  Ru  Ru34  1  0.000000  0.362214  0.679580  1
  Ru  Ru35  1  0.000000  0.136536  0.177427  1
