# generated using pymatgen
data_Dy4Sc4Pt3Rh
_symmetry_space_group_name_H-M   'P 1'
_cell_length_a   4.56244000
_cell_length_b   7.00115924
_cell_length_c   8.46472515
_cell_angle_alpha   89.52974290
_cell_angle_beta   90.00000000
_cell_angle_gamma   90.00000000
_symmetry_Int_Tables_number   1
_chemical_formula_structural   Dy4Sc4Pt3Rh
_chemical_formula_sum   'Dy4 Sc4 Pt3 Rh1'
_cell_volume   270.37426688
_cell_formula_units_Z   1
loop_
 _symmetry_equiv_pos_site_id
 _symmetry_equiv_pos_as_xyz
  1  'x, y, z'
loop_
 _atom_site_type_symbol
 _atom_site_label
 _atom_site_symmetry_multiplicity
 _atom_site_fract_x
 _atom_site_fract_y
 _atom_site_fract_z
 _atom_site_occupancy
  Dy  Dy0  1  0.250000  0.482258  0.177688  1
  Dy  Dy1  1  0.750000  0.518789  0.823592  1
  Dy  Dy2  1  0.750000  0.014485  0.675003  1
  Dy  Dy3  1  0.250000  0.981828  0.326106  1
  Sc  Sc4  1  0.250000  0.860695  0.928519  1
  Sc  Sc5  1  0.750000  0.141290  0.072073  1
  Sc  Sc6  1  0.750000  0.640757  0.427985  1
  Sc  Sc7  1  0.250000  0.358808  0.574406  1
  Pt  Pt8  1  0.750000  0.255640  0.399843  1
  Pt  Pt9  1  0.750000  0.755254  0.098387  1
  Pt  Pt10  1  0.250000  0.246815  0.902142  1
  Rh  Rh11  1  0.250000  0.743379  0.594255  1
