# generated using pymatgen
data_KCdAsO4
_symmetry_space_group_name_H-M   'P 1'
_cell_length_a   5.45779600
_cell_length_b   9.17040300
_cell_length_c   10.26795200
_cell_angle_alpha   90.00000000
_cell_angle_beta   90.00000000
_cell_angle_gamma   90.00000000
_symmetry_Int_Tables_number   1
_chemical_formula_structural   KCdAsO4
_chemical_formula_sum   'K4 Cd4 As4 O16'
_cell_volume   513.91293631
_cell_formula_units_Z   4
loop_
 _symmetry_equiv_pos_site_id
 _symmetry_equiv_pos_as_xyz
  1  'x, y, z'
loop_
 _atom_site_type_symbol
 _atom_site_label
 _atom_site_symmetry_multiplicity
 _atom_site_fract_x
 _atom_site_fract_y
 _atom_site_fract_z
 _atom_site_occupancy
  K  K0  1  0.496518  0.488554  0.183628  1
  K  K1  1  0.996518  0.511446  0.816372  1
  K  K2  1  0.996518  0.011446  0.683628  1
  K  K3  1  0.496518  0.988554  0.316372  1
  Cd  Cd4  1  0.005895  0.665679  0.459607  1
  Cd  Cd5  1  0.505895  0.334321  0.540393  1
  Cd  Cd6  1  0.505895  0.834321  0.959607  1
  Cd  Cd7  1  0.005895  0.165679  0.040393  1
  As  As8  1  0.062432  0.780324  0.128559  1
  As  As9  1  0.562432  0.219676  0.871441  1
  As  As10  1  0.562432  0.719676  0.628559  1
  As  As11  1  0.062432  0.280324  0.371441  1
  O  O12  1  0.175072  0.752687  0.283284  1
  O  O13  1  0.675072  0.247313  0.716716  1
  O  O14  1  0.675072  0.747313  0.783284  1
  O  O15  1  0.175072  0.252687  0.216716  1
  O  O16  1  0.186249  0.447219  0.421970  1
  O  O17  1  0.686249  0.552781  0.578030  1
  O  O18  1  0.686249  0.052781  0.921970  1
  O  O19  1  0.186249  0.947219  0.078030  1
  O  O20  1  0.748092  0.274480  0.369158  1
  O  O21  1  0.248092  0.725520  0.630842  1
  O  O22  1  0.248092  0.225520  0.869158  1
  O  O23  1  0.748092  0.774480  0.130842  1
  O  O24  1  0.202342  0.661781  0.020856  1
  O  O25  1  0.702342  0.338219  0.979144  1
  O  O26  1  0.702342  0.838219  0.520856  1
  O  O27  1  0.202342  0.161781  0.479144  1
