# generated using pymatgen
data_Sr6Ho2CrRhO12
_symmetry_space_group_name_H-M   'P 1'
_cell_length_a   6.85412443
_cell_length_b   6.85412372
_cell_length_c   6.85412322
_cell_angle_alpha   92.24774894
_cell_angle_beta   92.24774728
_cell_angle_gamma   92.24774108
_symmetry_Int_Tables_number   1
_chemical_formula_structural   Sr6Ho2CrRhO12
_chemical_formula_sum   'Sr6 Ho2 Cr1 Rh1 O12'
_cell_volume   321.23666554
_cell_formula_units_Z   1
loop_
 _symmetry_equiv_pos_site_id
 _symmetry_equiv_pos_as_xyz
  1  'x, y, z'
loop_
 _atom_site_type_symbol
 _atom_site_label
 _atom_site_symmetry_multiplicity
 _atom_site_fract_x
 _atom_site_fract_y
 _atom_site_fract_z
 _atom_site_occupancy
  Sr  Sr0  1  0.382798  0.750676  0.118829  1
  Sr  Sr1  1  0.881172  0.617201  0.249324  1
  Sr  Sr2  1  0.750676  0.118829  0.382798  1
  Sr  Sr3  1  0.249324  0.881171  0.617202  1
  Sr  Sr4  1  0.118828  0.382799  0.750676  1
  Sr  Sr5  1  0.617202  0.249324  0.881171  1
  Ho  Ho6  1  0.250526  0.250526  0.250526  1
  Ho  Ho7  1  0.749474  0.749474  0.749474  1
  Cr  Cr8  1  0.000000  0.000000  0.000000  1
  Rh  Rh9  1  0.500000  0.500000  0.500000  1
  O  O10  1  0.714591  0.910446  0.042192  1
  O  O11  1  0.957808  0.285408  0.089554  1
  O  O12  1  0.543046  0.409083  0.207564  1
  O  O13  1  0.089554  0.957807  0.285409  1
  O  O14  1  0.207564  0.543045  0.409084  1
  O  O15  1  0.590916  0.792436  0.456954  1
  O  O16  1  0.409084  0.207564  0.543046  1
  O  O17  1  0.792436  0.456955  0.590916  1
  O  O18  1  0.910446  0.042193  0.714591  1
  O  O19  1  0.456954  0.590917  0.792436  1
  O  O20  1  0.042192  0.714592  0.910446  1
  O  O21  1  0.285409  0.089554  0.957808  1
