# generated using pymatgen
data_TbEr15(Ga3Ir)2
_symmetry_space_group_name_H-M   'P 1'
_cell_length_a   9.98323100
_cell_length_b   9.98323291
_cell_length_c   6.98307600
_cell_angle_alpha   90.00000000
_cell_angle_beta   90.00000000
_cell_angle_gamma   120.00000360
_symmetry_Int_Tables_number   1
_chemical_formula_structural   TbEr15(Ga3Ir)2
_chemical_formula_sum   'Tb1 Er15 Ga6 Ir2'
_cell_volume   602.72569772
_cell_formula_units_Z   1
loop_
 _symmetry_equiv_pos_site_id
 _symmetry_equiv_pos_as_xyz
  1  'x, y, z'
loop_
 _atom_site_type_symbol
 _atom_site_label
 _atom_site_symmetry_multiplicity
 _atom_site_fract_x
 _atom_site_fract_y
 _atom_site_fract_z
 _atom_site_occupancy
  Tb  Tb0  1  0.000000  0.000000  0.268496  1
  Er  Er1  1  0.000000  0.000000  0.767445  1
  Er  Er2  1  0.171532  0.828468  0.989865  1
  Er  Er3  1  0.828544  0.171456  0.491393  1
  Er  Er4  1  0.171532  0.343065  0.989865  1
  Er  Er5  1  0.656935  0.828468  0.989865  1
  Er  Er6  1  0.342913  0.171456  0.491393  1
  Er  Er7  1  0.828544  0.657087  0.491393  1
  Er  Er8  1  0.333333  0.666667  0.664186  1
  Er  Er9  1  0.666667  0.333333  0.163315  1
  Er  Er10  1  0.465376  0.534624  0.295321  1
  Er  Er11  1  0.534617  0.465383  0.795425  1
  Er  Er12  1  0.465376  0.930752  0.295321  1
  Er  Er13  1  0.069248  0.534624  0.295321  1
  Er  Er14  1  0.930769  0.465383  0.795425  1
  Er  Er15  1  0.534617  0.069231  0.795425  1
  Ga  Ga16  1  0.163575  0.836425  0.543031  1
  Ga  Ga17  1  0.836317  0.163683  0.040853  1
  Ga  Ga18  1  0.163575  0.327150  0.543031  1
  Ga  Ga19  1  0.672850  0.836425  0.543031  1
  Ga  Ga20  1  0.327368  0.163683  0.040853  1
  Ga  Ga21  1  0.836317  0.672632  0.040853  1
  Ir  Ir22  1  0.333333  0.666667  0.058033  1
  Ir  Ir23  1  0.666667  0.333333  0.556984  1
