# generated using pymatgen
data_K6Ba6Ga2BiSb7
_symmetry_space_group_name_H-M   'P 1'
_cell_length_a   11.09519300
_cell_length_b   11.09519239
_cell_length_c   8.49168900
_cell_angle_alpha   90.00000000
_cell_angle_beta   90.00000000
_cell_angle_gamma   120.00000481
_symmetry_Int_Tables_number   1
_chemical_formula_structural   K6Ba6Ga2BiSb7
_chemical_formula_sum   'K6 Ba6 Ga2 Bi1 Sb7'
_cell_volume   905.30389535
_cell_formula_units_Z   1
loop_
 _symmetry_equiv_pos_site_id
 _symmetry_equiv_pos_as_xyz
  1  'x, y, z'
loop_
 _atom_site_type_symbol
 _atom_site_label
 _atom_site_symmetry_multiplicity
 _atom_site_fract_x
 _atom_site_fract_y
 _atom_site_fract_z
 _atom_site_occupancy
  K  K0  1  0.861599  0.723199  0.961037  1
  K  K1  1  0.861599  0.138401  0.961037  1
  K  K2  1  0.139027  0.278052  0.460847  1
  K  K3  1  0.276801  0.138401  0.961037  1
  K  K4  1  0.139027  0.860973  0.460847  1
  K  K5  1  0.721948  0.860973  0.460847  1
  Ba  Ba6  1  0.479925  0.959850  0.776201  1
  Ba  Ba7  1  0.479925  0.520075  0.776201  1
  Ba  Ba8  1  0.518724  0.037449  0.277958  1
  Ba  Ba9  1  0.040150  0.520075  0.776201  1
  Ba  Ba10  1  0.518724  0.481276  0.277958  1
  Ba  Ba11  1  0.962551  0.481276  0.277958  1
  Ga  Ga12  1  0.666667  0.333333  0.649266  1
  Ga  Ga13  1  0.333333  0.666667  0.154924  1
  Bi  Bi14  1  0.666667  0.333333  0.996166  1
  Sb  Sb15  1  0.333333  0.666667  0.492743  1
  Sb  Sb16  1  0.803233  0.606467  0.555083  1
  Sb  Sb17  1  0.803233  0.196767  0.555083  1
  Sb  Sb18  1  0.197147  0.394292  0.055443  1
  Sb  Sb19  1  0.393533  0.196767  0.555083  1
  Sb  Sb20  1  0.197147  0.802853  0.055443  1
  Sb  Sb21  1  0.605708  0.802853  0.055443  1
