# generated using pymatgen
data_Li3Ac3ZnPb4
_symmetry_space_group_name_H-M   'P 1'
_cell_length_a   4.91016109
_cell_length_b   7.56214548
_cell_length_c   9.21705500
_cell_angle_alpha   114.93380079
_cell_angle_beta   105.44794324
_cell_angle_gamma   89.99999531
_symmetry_Int_Tables_number   1
_chemical_formula_structural   Li3Ac3ZnPb4
_chemical_formula_sum   'Li3 Ac3 Zn1 Pb4'
_cell_volume   296.65249427
_cell_formula_units_Z   1
loop_
 _symmetry_equiv_pos_site_id
 _symmetry_equiv_pos_as_xyz
  1  'x, y, z'
loop_
 _atom_site_type_symbol
 _atom_site_label
 _atom_site_symmetry_multiplicity
 _atom_site_fract_x
 _atom_site_fract_y
 _atom_site_fract_z
 _atom_site_occupancy
  Li  Li0  1  0.331317  0.015194  0.662633  1
  Li  Li1  1  0.327111  0.645091  0.654222  1
  Li  Li2  1  0.670208  0.353298  0.340416  1
  Ac  Ac3  1  0.001805  0.004388  0.003611  1
  Ac  Ac4  1  0.130222  0.636672  0.260444  1
  Ac  Ac5  1  0.869808  0.359320  0.739616  1
  Zn  Zn6  1  0.669668  0.980596  0.339337  1
  Pb  Pb7  1  0.496529  0.698308  0.993060  1
  Pb  Pb8  1  0.501307  0.300974  0.002614  1
  Pb  Pb9  1  0.785646  0.790322  0.571293  1
  Pb  Pb10  1  0.216377  0.215836  0.432755  1
