# generated using pymatgen
data_Ta4Cu3RuPt8
_symmetry_space_group_name_H-M   'P 1'
_cell_length_a   4.54528200
_cell_length_b   4.85180800
_cell_length_c   11.04934400
_cell_angle_alpha   90.00000000
_cell_angle_beta   90.00000000
_cell_angle_gamma   90.00000000
_symmetry_Int_Tables_number   1
_chemical_formula_structural   Ta4Cu3RuPt8
_chemical_formula_sum   'Ta4 Cu3 Ru1 Pt8'
_cell_volume   243.66936639
_cell_formula_units_Z   1
loop_
 _symmetry_equiv_pos_site_id
 _symmetry_equiv_pos_as_xyz
  1  'x, y, z'
loop_
 _atom_site_type_symbol
 _atom_site_label
 _atom_site_symmetry_multiplicity
 _atom_site_fract_x
 _atom_site_fract_y
 _atom_site_fract_z
 _atom_site_occupancy
  Ta  Ta0  1  0.500000  0.660959  0.254006  1
  Ta  Ta1  1  0.500000  0.660959  0.745994  1
  Ta  Ta2  1  0.000000  0.339552  0.000000  1
  Ta  Ta3  1  0.000000  0.343932  0.500000  1
  Cu  Cu4  1  0.000000  0.324728  0.249353  1
  Cu  Cu5  1  0.000000  0.324728  0.750647  1
  Cu  Cu6  1  0.500000  0.673629  0.000000  1
  Ru  Ru7  1  0.500000  0.671379  0.500000  1
  Pt  Pt8  1  0.500000  0.174033  0.372642  1
  Pt  Pt9  1  0.500000  0.180779  0.876279  1
  Pt  Pt10  1  0.500000  0.180779  0.123721  1
  Pt  Pt11  1  0.500000  0.174033  0.627358  1
  Pt  Pt12  1  0.000000  0.828227  0.374882  1
  Pt  Pt13  1  0.000000  0.817029  0.875140  1
  Pt  Pt14  1  0.000000  0.817029  0.124860  1
  Pt  Pt15  1  0.000000  0.828227  0.625118  1
