# generated using pymatgen
data_Nd5NiSn15Ir2Rh5
_symmetry_space_group_name_H-M   'P 1'
_cell_length_a   4.52858500
_cell_length_b   7.28663158
_cell_length_c   18.72402935
_cell_angle_alpha   89.80981764
_cell_angle_beta   90.00000000
_cell_angle_gamma   90.00000000
_symmetry_Int_Tables_number   1
_chemical_formula_structural   Nd5NiSn15Ir2Rh5
_chemical_formula_sum   'Nd5 Ni1 Sn15 Ir2 Rh5'
_cell_volume   617.85455965
_cell_formula_units_Z   1
loop_
 _symmetry_equiv_pos_site_id
 _symmetry_equiv_pos_as_xyz
  1  'x, y, z'
loop_
 _atom_site_type_symbol
 _atom_site_label
 _atom_site_symmetry_multiplicity
 _atom_site_fract_x
 _atom_site_fract_y
 _atom_site_fract_z
 _atom_site_occupancy
  Nd  Nd0  1  0.500000  0.004491  0.856821  1
  Nd  Nd1  1  0.500000  0.501000  0.357532  1
  Nd  Nd2  1  0.000000  0.998087  0.142992  1
  Nd  Nd3  1  0.000000  0.499628  0.641363  1
  Nd  Nd4  1  0.500000  0.496904  0.931437  1
  Ni  Ni5  1  0.500000  0.766946  0.044624  1
  Sn  Sn6  1  0.000000  0.719501  0.806496  1
  Sn  Sn7  1  0.000000  0.780257  0.305590  1
  Sn  Sn8  1  0.500000  0.277758  0.194465  1
  Sn  Sn9  1  0.500000  0.218891  0.693243  1
  Sn  Sn10  1  0.000000  0.848032  0.971037  1
  Sn  Sn11  1  0.000000  0.633780  0.467391  1
  Sn  Sn12  1  0.500000  0.128883  0.032745  1
  Sn  Sn13  1  0.500000  0.367602  0.531291  1
  Sn  Sn14  1  0.000000  0.304197  0.819707  1
  Sn  Sn15  1  0.000000  0.200620  0.317310  1
  Sn  Sn16  1  0.500000  0.699445  0.182540  1
  Sn  Sn17  1  0.500000  0.805068  0.679013  1
  Sn  Sn18  1  0.500000  0.019117  0.432723  1
  Sn  Sn19  1  0.000000  0.509381  0.067342  1
  Sn  Sn20  1  0.000000  0.979968  0.568559  1
  Ir  Ir21  1  0.000000  0.229460  0.966482  1
  Ir  Ir22  1  0.000000  0.248254  0.464065  1
  Rh  Rh23  1  0.500000  0.750348  0.533005  1
  Rh  Rh24  1  0.000000  0.018713  0.715561  1
  Rh  Rh25  1  0.000000  0.486907  0.212020  1
  Rh  Rh26  1  0.500000  0.986835  0.288837  1
  Rh  Rh27  1  0.500000  0.519925  0.775808  1
