# generated using pymatgen
data_La5Pr5(Ir2Rh)2
_symmetry_space_group_name_H-M   'P 1'
_cell_length_a   11.35823490
_cell_length_b   11.37022900
_cell_length_c   6.70117420
_cell_angle_alpha   90.00000000
_cell_angle_beta   89.82073317
_cell_angle_gamma   90.00000000
_symmetry_Int_Tables_number   1
_chemical_formula_structural   La5Pr5(Ir2Rh)2
_chemical_formula_sum   'La10 Pr10 Ir8 Rh4'
_cell_volume   865.42381022
_cell_formula_units_Z   2
loop_
 _symmetry_equiv_pos_site_id
 _symmetry_equiv_pos_as_xyz
  1  'x, y, z'
loop_
 _atom_site_type_symbol
 _atom_site_label
 _atom_site_symmetry_multiplicity
 _atom_site_fract_x
 _atom_site_fract_y
 _atom_site_fract_z
 _atom_site_occupancy
  La  La0  1  0.290137  0.092024  0.386014  1
  La  La1  1  0.290137  0.907976  0.886014  1
  La  La2  1  0.710153  0.092324  0.887004  1
  La  La3  1  0.710153  0.907676  0.387004  1
  La  La4  1  0.592962  0.789855  0.886956  1
  La  La5  1  0.592962  0.210145  0.386956  1
  La  La6  1  0.407896  0.790229  0.386814  1
  La  La7  1  0.407896  0.209771  0.886814  1
  La  La8  1  0.207787  0.408494  0.612692  1
  La  La9  1  0.207787  0.591506  0.112692  1
  Pr  Pr10  1  0.791991  0.409926  0.113973  1
  Pr  Pr11  1  0.791991  0.590074  0.613973  1
  Pr  Pr12  1  0.908766  0.708303  0.114144  1
  Pr  Pr13  1  0.908766  0.291697  0.614144  1
  Pr  Pr14  1  0.089300  0.709340  0.614267  1
  Pr  Pr15  1  0.089300  0.290660  0.114267  1
  Pr  Pr16  1  0.999802  0.000060  0.499785  1
  Pr  Pr17  1  0.999802  0.999940  0.999785  1
  Pr  Pr18  1  0.500643  0.499453  0.000575  1
  Pr  Pr19  1  0.500643  0.500547  0.500575  1
  Ir  Ir20  1  0.844598  0.153425  0.248898  1
  Ir  Ir21  1  0.844598  0.846575  0.748898  1
  Ir  Ir22  1  0.155440  0.154063  0.747967  1
  Ir  Ir23  1  0.155440  0.845937  0.247967  1
  Ir  Ir24  1  0.653679  0.344760  0.748754  1
  Ir  Ir25  1  0.653679  0.655240  0.248754  1
  Ir  Ir26  1  0.345523  0.344738  0.250346  1
  Ir  Ir27  1  0.345523  0.655262  0.750346  1
  Rh  Rh28  1  0.499935  0.000365  0.116899  1
  Rh  Rh29  1  0.499935  0.999635  0.616899  1
  Rh  Rh30  1  0.001387  0.499630  0.884911  1
  Rh  Rh31  1  0.001387  0.500370  0.384911  1
