# generated using pymatgen
data_ErInSb2(SeO3)8
_symmetry_space_group_name_H-M   'P 1'
_cell_length_a   8.44874951
_cell_length_b   8.58764677
_cell_length_c   8.46344297
_cell_angle_alpha   89.97665649
_cell_angle_beta   89.70990259
_cell_angle_gamma   90.12207604
_symmetry_Int_Tables_number   1
_chemical_formula_structural   ErInSb2(SeO3)8
_chemical_formula_sum   'Er1 In1 Sb2 Se8 O24'
_cell_volume   614.05474088
_cell_formula_units_Z   1
loop_
 _symmetry_equiv_pos_site_id
 _symmetry_equiv_pos_as_xyz
  1  'x, y, z'
loop_
 _atom_site_type_symbol
 _atom_site_label
 _atom_site_symmetry_multiplicity
 _atom_site_fract_x
 _atom_site_fract_y
 _atom_site_fract_z
 _atom_site_occupancy
  Er  Er0  1  0.000000  0.500000  0.000000  1
  In  In1  1  0.500000  0.500000  0.500000  1
  Sb  Sb2  1  0.000000  0.000000  0.500000  1
  Sb  Sb3  1  0.500000  0.000000  0.000000  1
  Se  Se4  1  0.353133  0.678197  0.177280  1
  Se  Se5  1  0.828596  0.318341  0.351937  1
  Se  Se6  1  0.679009  0.833714  0.677435  1
  Se  Se7  1  0.188304  0.151034  0.816416  1
  Se  Se8  1  0.646867  0.321803  0.822720  1
  Se  Se9  1  0.171404  0.681659  0.648063  1
  Se  Se10  1  0.320991  0.166286  0.322565  1
  Se  Se11  1  0.811696  0.848966  0.183584  1
  O  O12  1  0.248224  0.565222  0.053037  1
  O  O13  1  0.749419  0.445373  0.486365  1
  O  O14  1  0.765501  0.974011  0.548216  1
  O  O15  1  0.265247  0.010153  0.950675  1
  O  O16  1  0.547618  0.969505  0.766399  1
  O  O17  1  0.490082  0.551210  0.250675  1
  O  O18  1  0.956178  0.430688  0.248904  1
  O  O19  1  0.047539  0.018842  0.734376  1
  O  O20  1  0.972673  0.229748  0.484903  1
  O  O21  1  0.553468  0.749480  0.550102  1
  O  O22  1  0.487504  0.770437  0.033561  1
  O  O23  1  0.072749  0.253539  0.938494  1
  O  O24  1  0.751776  0.434778  0.946963  1
  O  O25  1  0.250581  0.554627  0.513635  1
  O  O26  1  0.234499  0.025989  0.451784  1
  O  O27  1  0.734753  0.989847  0.049325  1
  O  O28  1  0.452382  0.030495  0.233601  1
  O  O29  1  0.509918  0.448790  0.749325  1
  O  O30  1  0.043822  0.569312  0.751096  1
  O  O31  1  0.952461  0.981158  0.265624  1
  O  O32  1  0.027327  0.770252  0.515097  1
  O  O33  1  0.446532  0.250520  0.449898  1
  O  O34  1  0.512496  0.229563  0.966439  1
  O  O35  1  0.927251  0.746461  0.061506  1
