# generated using pymatgen
data_K3Rb3TbDyF12
_symmetry_space_group_name_H-M   'P 1'
_cell_length_a   6.76427069
_cell_length_b   6.53706008
_cell_length_c   11.33392323
_cell_angle_alpha   55.30344153
_cell_angle_beta   90.02563271
_cell_angle_gamma   89.92288154
_symmetry_Int_Tables_number   1
_chemical_formula_structural   K3Rb3TbDyF12
_chemical_formula_sum   'K3 Rb3 Tb1 Dy1 F12'
_cell_volume   412.04896753
_cell_formula_units_Z   1
loop_
 _symmetry_equiv_pos_site_id
 _symmetry_equiv_pos_as_xyz
  1  'x, y, z'
loop_
 _atom_site_type_symbol
 _atom_site_label
 _atom_site_symmetry_multiplicity
 _atom_site_fract_x
 _atom_site_fract_y
 _atom_site_fract_z
 _atom_site_occupancy
  K  K0  1  0.499631  0.498645  0.001494  1
  K  K1  1  0.999333  0.500480  0.499071  1
  K  K2  1  0.449871  0.733533  0.254571  1
  Rb  Rb3  1  0.050405  0.731423  0.753103  1
  Rb  Rb4  1  0.950696  0.265134  0.247305  1
  Rb  Rb5  1  0.548064  0.267421  0.747409  1
  Tb  Tb6  1  0.499335  0.002420  0.497439  1
  Dy  Dy7  1  0.999938  0.997864  0.002180  1
  F  F8  1  0.768406  0.769613  0.558718  1
  F  F9  1  0.233477  0.239419  0.437487  1
  F  F10  1  0.264614  0.233817  0.940333  1
  F  F11  1  0.729837  0.768032  0.065778  1
  F  F12  1  0.456637  0.873199  0.723292  1
  F  F13  1  0.543680  0.113048  0.275122  1
  F  F14  1  0.954701  0.124474  0.777654  1
  F  F15  1  0.057684  0.870815  0.225028  1
  F  F16  1  0.318133  0.685141  0.542267  1
  F  F17  1  0.674406  0.327007  0.449387  1
  F  F18  1  0.820960  0.315116  0.958651  1
  F  F19  1  0.180191  0.683399  0.043709  1
