# generated using pymatgen
data_LuSiTc3(PRh)3
_symmetry_space_group_name_H-M   'P 1'
_cell_length_a   7.03883100
_cell_length_b   7.03883122
_cell_length_c   3.71554800
_cell_angle_alpha   90.00000000
_cell_angle_beta   90.00000000
_cell_angle_gamma   119.99999427
_symmetry_Int_Tables_number   1
_chemical_formula_structural   LuSiTc3(PRh)3
_chemical_formula_sum   'Lu1 Si1 Tc3 P3 Rh3'
_cell_volume   159.42433810
_cell_formula_units_Z   1
loop_
 _symmetry_equiv_pos_site_id
 _symmetry_equiv_pos_as_xyz
  1  'x, y, z'
loop_
 _atom_site_type_symbol
 _atom_site_label
 _atom_site_symmetry_multiplicity
 _atom_site_fract_x
 _atom_site_fract_y
 _atom_site_fract_z
 _atom_site_occupancy
  Lu  Lu0  1  0.333333  0.666667  0.000000  1
  Si  Si1  1  0.666667  0.333333  0.000000  1
  Tc  Tc2  1  0.257162  0.128581  0.000000  1
  Tc  Tc3  1  0.871419  0.742838  0.000000  1
  Tc  Tc4  1  0.871419  0.128581  0.000000  1
  P  P5  1  0.715351  0.857676  0.500000  1
  P  P6  1  0.142324  0.284649  0.500000  1
  P  P7  1  0.142324  0.857676  0.500000  1
  Rh  Rh8  1  0.945158  0.472579  0.500000  1
  Rh  Rh9  1  0.527421  0.054842  0.500000  1
  Rh  Rh10  1  0.527421  0.472579  0.500000  1
