# generated using pymatgen
data_CeY7(ReB6)4
_symmetry_space_group_name_H-M   'P 1'
_cell_length_a   3.69514900
_cell_length_b   9.19550069
_cell_length_c   11.58153601
_cell_angle_alpha   90.05354755
_cell_angle_beta   90.00000000
_cell_angle_gamma   90.00000000
_symmetry_Int_Tables_number   1
_chemical_formula_structural   CeY7(ReB6)4
_chemical_formula_sum   'Ce1 Y7 Re4 B24'
_cell_volume   393.52588915
_cell_formula_units_Z   1
loop_
 _symmetry_equiv_pos_site_id
 _symmetry_equiv_pos_as_xyz
  1  'x, y, z'
loop_
 _atom_site_type_symbol
 _atom_site_label
 _atom_site_symmetry_multiplicity
 _atom_site_fract_x
 _atom_site_fract_y
 _atom_site_fract_z
 _atom_site_occupancy
  Ce  Ce0  1  0.000000  0.323307  0.414038  1
  Y  Y1  1  0.000000  0.677361  0.586517  1
  Y  Y2  1  0.000000  0.823323  0.085487  1
  Y  Y3  1  0.000000  0.176202  0.914023  1
  Y  Y4  1  0.000000  0.942077  0.370018  1
  Y  Y5  1  0.000000  0.056747  0.630418  1
  Y  Y6  1  0.000000  0.442866  0.128834  1
  Y  Y7  1  0.000000  0.557352  0.870313  1
  Re  Re8  1  0.000000  0.637499  0.321224  1
  Re  Re9  1  0.000000  0.362371  0.678494  1
  Re  Re10  1  0.000000  0.138462  0.179582  1
  Re  Re11  1  0.000000  0.862263  0.821138  1
  B  B12  1  0.500000  0.553354  0.432173  1
  B  B13  1  0.500000  0.446363  0.567720  1
  B  B14  1  0.500000  0.053048  0.067168  1
  B  B15  1  0.500000  0.947146  0.932879  1
  B  B16  1  0.500000  0.748473  0.418190  1
  B  B17  1  0.500000  0.251864  0.582480  1
  B  B18  1  0.500000  0.248019  0.081260  1
  B  B19  1  0.500000  0.751673  0.918262  1
  B  B20  1  0.500000  0.791149  0.265577  1
  B  B21  1  0.500000  0.209021  0.734933  1
  B  B22  1  0.500000  0.290566  0.234097  1
  B  B23  1  0.500000  0.708824  0.765437  1
  B  B24  1  0.500000  0.630938  0.185397  1
  B  B25  1  0.500000  0.369840  0.814202  1
  B  B26  1  0.500000  0.130524  0.313750  1
  B  B27  1  0.500000  0.869415  0.686153  1
  B  B28  1  0.500000  0.982217  0.211595  1
  B  B29  1  0.500000  0.017673  0.788421  1
  B  B30  1  0.500000  0.483212  0.287809  1
  B  B31  1  0.500000  0.518029  0.712352  1
  B  B32  1  0.500000  0.601221  0.028070  1
  B  B33  1  0.500000  0.399096  0.971333  1
  B  B34  1  0.500000  0.100344  0.471916  1
  B  B35  1  0.500000  0.898161  0.528741  1
