# generated using pymatgen
data_LaNi3BIr
_symmetry_space_group_name_H-M   'P 1'
_cell_length_a   5.25736844
_cell_length_b   5.25736815
_cell_length_c   7.13149800
_cell_angle_alpha   90.00000000
_cell_angle_beta   90.00000000
_cell_angle_gamma   121.40904404
_symmetry_Int_Tables_number   1
_chemical_formula_structural   LaNi3BIr
_chemical_formula_sum   'La2 Ni6 B2 Ir2'
_cell_volume   168.23063671
_cell_formula_units_Z   2
loop_
 _symmetry_equiv_pos_site_id
 _symmetry_equiv_pos_as_xyz
  1  'x, y, z'
loop_
 _atom_site_type_symbol
 _atom_site_label
 _atom_site_symmetry_multiplicity
 _atom_site_fract_x
 _atom_site_fract_y
 _atom_site_fract_z
 _atom_site_occupancy
  La  La0  1  0.000000  0.000000  0.500000  1
  La  La1  1  0.000000  0.000000  0.000000  1
  Ni  Ni2  1  0.334197  0.665803  0.000000  1
  Ni  Ni3  1  0.665803  0.334197  0.000000  1
  Ni  Ni4  1  0.500000  0.000000  0.294530  1
  Ni  Ni5  1  0.000000  0.500000  0.294530  1
  Ni  Ni6  1  0.500000  0.000000  0.705470  1
  Ni  Ni7  1  0.000000  0.500000  0.705470  1
  B  B8  1  0.672329  0.327671  0.500000  1
  B  B9  1  0.327671  0.672329  0.500000  1
  Ir  Ir10  1  0.500000  0.500000  0.291183  1
  Ir  Ir11  1  0.500000  0.500000  0.708817  1
