# generated using pymatgen
data_MgZr(TcSn4)2
_symmetry_space_group_name_H-M   'P 1'
_cell_length_a   7.49581962
_cell_length_b   7.49581969
_cell_length_c   7.49581946
_cell_angle_alpha   125.24928961
_cell_angle_beta   125.24930388
_cell_angle_gamma   81.12552258
_symmetry_Int_Tables_number   1
_chemical_formula_structural   MgZr(TcSn4)2
_chemical_formula_sum   'Mg1 Zr1 Tc2 Sn8'
_cell_volume   270.59994258
_cell_formula_units_Z   1
loop_
 _symmetry_equiv_pos_site_id
 _symmetry_equiv_pos_as_xyz
  1  'x, y, z'
loop_
 _atom_site_type_symbol
 _atom_site_label
 _atom_site_symmetry_multiplicity
 _atom_site_fract_x
 _atom_site_fract_y
 _atom_site_fract_z
 _atom_site_occupancy
  Mg  Mg0  1  0.500000  0.500000  0.000000  1
  Zr  Zr1  1  0.000000  0.000000  0.000000  1
  Tc  Tc2  1  0.748219  0.748219  0.000000  1
  Tc  Tc3  1  0.251781  0.251781  0.000000  1
  Sn  Sn4  1  0.705175  0.513733  0.500158  1
  Sn  Sn5  1  0.513733  0.013575  0.808558  1
  Sn  Sn6  1  0.205017  0.705175  0.191442  1
  Sn  Sn7  1  0.794983  0.294825  0.808558  1
  Sn  Sn8  1  0.486267  0.986425  0.191442  1
  Sn  Sn9  1  0.294825  0.486267  0.499842  1
  Sn  Sn10  1  0.986425  0.794983  0.500158  1
  Sn  Sn11  1  0.013575  0.205017  0.499842  1
