# generated using pymatgen
data_Ta16CoCu4Ni3N4
_symmetry_space_group_name_H-M   'P 1'
_cell_length_a   8.24091630
_cell_length_b   8.24051316
_cell_length_c   8.24051300
_cell_angle_alpha   59.99999662
_cell_angle_beta   60.00161487
_cell_angle_gamma   60.00162683
_symmetry_Int_Tables_number   1
_chemical_formula_structural   Ta16CoCu4Ni3N4
_chemical_formula_sum   'Ta16 Co1 Cu4 Ni3 N4'
_cell_volume   395.71238215
_cell_formula_units_Z   1
loop_
 _symmetry_equiv_pos_site_id
 _symmetry_equiv_pos_as_xyz
  1  'x, y, z'
loop_
 _atom_site_type_symbol
 _atom_site_label
 _atom_site_symmetry_multiplicity
 _atom_site_fract_x
 _atom_site_fract_y
 _atom_site_fract_z
 _atom_site_occupancy
  Ta  Ta0  1  0.119776  0.626741  0.626741  1
  Ta  Ta1  1  0.624740  0.117674  0.628793  1
  Ta  Ta2  1  0.624740  0.628793  0.117674  1
  Ta  Ta3  1  0.624740  0.628793  0.628793  1
  Ta  Ta4  1  0.815797  0.816088  0.184057  1
  Ta  Ta5  1  0.184463  0.183352  0.816093  1
  Ta  Ta6  1  0.815797  0.184057  0.816088  1
  Ta  Ta7  1  0.184463  0.816093  0.183352  1
  Ta  Ta8  1  0.184463  0.816093  0.816093  1
  Ta  Ta9  1  0.815797  0.184057  0.184057  1
  Ta  Ta10  1  0.435758  0.436232  0.064005  1
  Ta  Ta11  1  0.063769  0.064872  0.435679  1
  Ta  Ta12  1  0.435758  0.064005  0.436232  1
  Ta  Ta13  1  0.063769  0.435679  0.064872  1
  Ta  Ta14  1  0.063769  0.435679  0.435679  1
  Ta  Ta15  1  0.435758  0.064005  0.064005  1
  Co  Co16  1  0.516813  0.827729  0.827729  1
  Cu  Cu17  1  0.749782  0.416739  0.416739  1
  Cu  Cu18  1  0.415962  0.750826  0.416606  1
  Cu  Cu19  1  0.415962  0.416606  0.750826  1
  Cu  Cu20  1  0.415962  0.416606  0.416606  1
  Ni  Ni21  1  0.831268  0.509170  0.829781  1
  Ni  Ni22  1  0.831268  0.829781  0.509170  1
  Ni  Ni23  1  0.831268  0.829781  0.829781  1
  N  N24  1  0.621765  0.126078  0.126078  1
  N  N25  1  0.125531  0.622776  0.125847  1
  N  N26  1  0.125531  0.125847  0.622776  1
  N  N27  1  0.125531  0.125847  0.125847  1
