# generated using pymatgen
data_Ta8CrSnO25
_symmetry_space_group_name_H-M   'P 1'
_cell_length_a   3.86479510
_cell_length_b   11.47374166
_cell_length_c   11.45642172
_cell_angle_alpha   88.48626097
_cell_angle_beta   80.24477311
_cell_angle_gamma   80.32693817
_symmetry_Int_Tables_number   1
_chemical_formula_structural   Ta8CrSnO25
_chemical_formula_sum   'Ta8 Cr1 Sn1 O25'
_cell_volume   493.55462264
_cell_formula_units_Z   1
loop_
 _symmetry_equiv_pos_site_id
 _symmetry_equiv_pos_as_xyz
  1  'x, y, z'
loop_
 _atom_site_type_symbol
 _atom_site_label
 _atom_site_symmetry_multiplicity
 _atom_site_fract_x
 _atom_site_fract_y
 _atom_site_fract_z
 _atom_site_occupancy
  Ta  Ta0  1  0.878998  0.803407  0.441738  1
  Ta  Ta1  1  0.124554  0.195103  0.559045  1
  Ta  Ta2  1  0.679248  0.442833  0.195728  1
  Ta  Ta3  1  0.318841  0.558168  0.803324  1
  Ta  Ta4  1  0.898450  0.319893  0.877093  1
  Ta  Ta5  1  0.095172  0.680682  0.122960  1
  Ta  Ta6  1  0.224044  0.877194  0.680931  1
  Ta  Ta7  1  0.996125  0.002381  0.005678  1
  Cr  Cr8  1  0.251304  0.499993  0.500449  1
  Sn  Sn9  1  0.779240  0.125203  0.323380  1
  O  O10  1  0.946258  0.621944  0.512456  1
  O  O11  1  0.538588  0.512249  0.375531  1
  O  O12  1  0.428757  0.488514  0.624629  1
  O  O13  1  0.082574  0.377215  0.489984  1
  O  O14  1  0.507043  0.996339  0.989525  1
  O  O15  1  0.242138  0.147032  0.375709  1
  O  O16  1  0.384462  0.365782  0.858227  1
  O  O17  1  0.608548  0.635868  0.140024  1
  O  O18  1  0.757663  0.857351  0.634436  1
  O  O19  1  0.831639  0.956884  0.391487  1
  O  O20  1  0.986518  0.731480  0.291811  1
  O  O21  1  0.723075  0.296410  0.262010  1
  O  O22  1  0.281799  0.706657  0.734691  1
  O  O23  1  0.009627  0.268527  0.708088  1
  O  O24  1  0.948955  0.167985  0.932405  1
  O  O25  1  0.119197  0.932273  0.831206  1
  O  O26  1  0.888855  0.062709  0.159897  1
  O  O27  1  0.778727  0.393434  0.035810  1
  O  O28  1  0.358688  0.801711  0.489846  1
  O  O29  1  0.152913  0.490707  0.193578  1
  O  O30  1  0.837640  0.511256  0.804812  1
  O  O31  1  0.648534  0.196268  0.515778  1
  O  O32  1  0.181635  0.037712  0.611384  1
  O  O33  1  0.208925  0.607603  0.962115  1
  O  O34  1  0.051278  0.831232  0.064227  1
