# generated using pymatgen
data_Pr6Al24Ir2Os5Pt
_symmetry_space_group_name_H-M   'P 1'
_cell_length_a   8.92073056
_cell_length_b   8.89911181
_cell_length_c   9.71674349
_cell_angle_alpha   90.12360583
_cell_angle_beta   89.94779038
_cell_angle_gamma   119.55639534
_symmetry_Int_Tables_number   1
_chemical_formula_structural   Pr6Al24Ir2Os5Pt
_chemical_formula_sum   'Pr6 Al24 Ir2 Os5 Pt1'
_cell_volume   670.99835206
_cell_formula_units_Z   1
loop_
 _symmetry_equiv_pos_site_id
 _symmetry_equiv_pos_as_xyz
  1  'x, y, z'
loop_
 _atom_site_type_symbol
 _atom_site_label
 _atom_site_symmetry_multiplicity
 _atom_site_fract_x
 _atom_site_fract_y
 _atom_site_fract_z
 _atom_site_occupancy
  Pr  Pr0  1  0.187555  0.382860  0.251970  1
  Pr  Pr1  1  0.812445  0.617140  0.748030  1
  Pr  Pr2  1  0.620067  0.811990  0.249782  1
  Pr  Pr3  1  0.379933  0.188010  0.750218  1
  Pr  Pr4  1  0.188776  0.808658  0.249660  1
  Pr  Pr5  1  0.811224  0.191342  0.750340  1
  Al  Al6  1  0.329845  0.662353  0.018656  1
  Al  Al7  1  0.670155  0.337647  0.981344  1
  Al  Al8  1  0.667118  0.331592  0.519480  1
  Al  Al9  1  0.332882  0.668408  0.480520  1
  Al  Al10  1  0.162998  0.328068  0.574402  1
  Al  Al11  1  0.837002  0.671932  0.425598  1
  Al  Al12  1  0.672352  0.837805  0.572991  1
  Al  Al13  1  0.837213  0.672793  0.075118  1
  Al  Al14  1  0.327648  0.162195  0.427009  1
  Al  Al15  1  0.162787  0.327207  0.924882  1
  Al  Al16  1  0.165255  0.836479  0.573595  1
  Al  Al17  1  0.325743  0.167637  0.075697  1
  Al  Al18  1  0.834745  0.163521  0.426405  1
  Al  Al19  1  0.674257  0.832363  0.924303  1
  Al  Al20  1  0.842201  0.168934  0.076094  1
  Al  Al21  1  0.157799  0.831066  0.923906  1
  Al  Al22  1  0.562264  0.127723  0.252776  1
  Al  Al23  1  0.437736  0.872277  0.747224  1
  Al  Al24  1  0.873609  0.439352  0.249685  1
  Al  Al25  1  0.126391  0.560648  0.750315  1
  Al  Al26  1  0.562946  0.437980  0.249678  1
  Al  Al27  1  0.437054  0.562020  0.750322  1
  Al  Al28  1  0.997842  0.000955  0.250232  1
  Al  Al29  1  0.002158  0.999045  0.749768  1
  Ir  Ir30  1  0.500000  0.500000  0.000000  1
  Ir  Ir31  1  0.500000  0.500000  0.500000  1
  Os  Os32  1  0.000000  0.500000  0.000000  1
  Os  Os33  1  0.500000  0.000000  0.500000  1
  Os  Os34  1  0.000000  0.500000  0.500000  1
  Os  Os35  1  0.000000  0.000000  0.000000  1
  Os  Os36  1  0.000000  0.000000  0.500000  1
  Pt  Pt37  1  0.500000  0.000000  0.000000  1
