# generated using pymatgen
data_Ho10Sn6PH
_symmetry_space_group_name_H-M   'P 1'
_cell_length_a   6.54675900
_cell_length_b   8.98155456
_cell_length_c   8.98155400
_cell_angle_alpha   120.00000530
_cell_angle_beta   90.00000000
_cell_angle_gamma   90.00000000
_symmetry_Int_Tables_number   1
_chemical_formula_structural   Ho10Sn6PH
_chemical_formula_sum   'Ho10 Sn6 P1 H1'
_cell_volume   457.36187566
_cell_formula_units_Z   1
loop_
 _symmetry_equiv_pos_site_id
 _symmetry_equiv_pos_as_xyz
  1  'x, y, z'
loop_
 _atom_site_type_symbol
 _atom_site_label
 _atom_site_symmetry_multiplicity
 _atom_site_fract_x
 _atom_site_fract_y
 _atom_site_fract_z
 _atom_site_occupancy
  Ho  Ho0  1  0.748058  0.757484  0.757484  1
  Ho  Ho1  1  0.251942  0.242516  0.242516  1
  Ho  Ho2  1  0.748058  0.000000  0.242516  1
  Ho  Ho3  1  0.251942  0.000000  0.757484  1
  Ho  Ho4  1  0.748058  0.242516  0.000000  1
  Ho  Ho5  1  0.251942  0.757484  0.000000  1
  Ho  Ho6  1  0.000000  0.666667  0.333333  1
  Ho  Ho7  1  0.000000  0.333333  0.666667  1
  Ho  Ho8  1  0.500000  0.333333  0.666667  1
  Ho  Ho9  1  0.500000  0.666667  0.333333  1
  Sn  Sn10  1  0.749263  0.395225  0.395225  1
  Sn  Sn11  1  0.250737  0.604775  0.604775  1
  Sn  Sn12  1  0.749263  0.000000  0.604775  1
  Sn  Sn13  1  0.250737  0.000000  0.395225  1
  Sn  Sn14  1  0.749263  0.604775  0.000000  1
  Sn  Sn15  1  0.250737  0.395225  0.000000  1
  P  P16  1  0.000000  0.000000  0.000000  1
  H  H17  1  0.500000  0.000000  0.000000  1
