# generated using pymatgen
data_Th7U(AlRu)8
_symmetry_space_group_name_H-M   'P 1'
_cell_length_a   4.17850800
_cell_length_b   7.18164143
_cell_length_c   16.19851269
_cell_angle_alpha   91.04255285
_cell_angle_beta   90.00000000
_cell_angle_gamma   90.00000000
_symmetry_Int_Tables_number   1
_chemical_formula_structural   Th7U(AlRu)8
_chemical_formula_sum   'Th7 U1 Al8 Ru8'
_cell_volume   486.01334671
_cell_formula_units_Z   1
loop_
 _symmetry_equiv_pos_site_id
 _symmetry_equiv_pos_as_xyz
  1  'x, y, z'
loop_
 _atom_site_type_symbol
 _atom_site_label
 _atom_site_symmetry_multiplicity
 _atom_site_fract_x
 _atom_site_fract_y
 _atom_site_fract_z
 _atom_site_occupancy
  Th  Th0  1  0.750000  0.961552  0.218118  1
  Th  Th1  1  0.250000  0.173645  0.564595  1
  Th  Th2  1  0.750000  0.840207  0.439557  1
  Th  Th3  1  0.750000  0.461821  0.282269  1
  Th  Th4  1  0.750000  0.332337  0.060588  1
  Th  Th5  1  0.250000  0.658877  0.935754  1
  Th  Th6  1  0.250000  0.040675  0.780259  1
  U  U7  1  0.250000  0.545667  0.716326  1
  Al  Al8  1  0.750000  0.509833  0.562704  1
  Al  Al9  1  0.750000  0.358647  0.850284  1
  Al  Al10  1  0.750000  0.994307  0.934591  1
  Al  Al11  1  0.750000  0.863469  0.650911  1
  Al  Al12  1  0.250000  0.500175  0.439738  1
  Al  Al13  1  0.250000  0.993156  0.061866  1
  Al  Al14  1  0.250000  0.636635  0.148208  1
  Al  Al15  1  0.250000  0.135860  0.351796  1
  Ru  Ru16  1  0.750000  0.715216  0.804370  1
  Ru  Ru17  1  0.250000  0.229248  0.934440  1
  Ru  Ru18  1  0.750000  0.261831  0.434955  1
  Ru  Ru19  1  0.250000  0.750360  0.316899  1
  Ru  Ru20  1  0.750000  0.760232  0.063482  1
  Ru  Ru21  1  0.750000  0.286707  0.688735  1
  Ru  Ru22  1  0.250000  0.256809  0.183860  1
  Ru  Ru23  1  0.250000  0.732736  0.575698  1
