# generated using pymatgen
data_Nd2LuCoSn6
_symmetry_space_group_name_H-M   'P 1'
_cell_length_a   8.49514794
_cell_length_b   8.49514861
_cell_length_c   13.39005500
_cell_angle_alpha   90.00000000
_cell_angle_beta   90.00000000
_cell_angle_gamma   148.65200712
_symmetry_Int_Tables_number   1
_chemical_formula_structural   Nd2LuCoSn6
_chemical_formula_sum   'Nd4 Lu2 Co2 Sn12'
_cell_volume   502.71699210
_cell_formula_units_Z   2
loop_
 _symmetry_equiv_pos_site_id
 _symmetry_equiv_pos_as_xyz
  1  'x, y, z'
loop_
 _atom_site_type_symbol
 _atom_site_label
 _atom_site_symmetry_multiplicity
 _atom_site_fract_x
 _atom_site_fract_y
 _atom_site_fract_z
 _atom_site_occupancy
  Nd  Nd0  1  0.900762  0.099238  0.091869  1
  Nd  Nd1  1  0.099238  0.900762  0.591869  1
  Nd  Nd2  1  0.099238  0.900762  0.908131  1
  Nd  Nd3  1  0.900762  0.099238  0.408131  1
  Lu  Lu4  1  0.897702  0.102298  0.750000  1
  Lu  Lu5  1  0.102298  0.897702  0.250000  1
  Co  Co6  1  0.297417  0.702583  0.250000  1
  Co  Co7  1  0.702583  0.297417  0.750000  1
  Sn  Sn8  1  0.754569  0.245431  0.572225  1
  Sn  Sn9  1  0.427692  0.572308  0.580696  1
  Sn  Sn10  1  0.572308  0.427692  0.419304  1
  Sn  Sn11  1  0.732703  0.267297  0.250000  1
  Sn  Sn12  1  0.267297  0.732703  0.750000  1
  Sn  Sn13  1  0.245431  0.754569  0.072225  1
  Sn  Sn14  1  0.245431  0.754569  0.427775  1
  Sn  Sn15  1  0.572308  0.427692  0.080696  1
  Sn  Sn16  1  0.454057  0.545943  0.250000  1
  Sn  Sn17  1  0.545943  0.454057  0.750000  1
  Sn  Sn18  1  0.754569  0.245431  0.927775  1
  Sn  Sn19  1  0.427692  0.572308  0.919304  1
