# generated using pymatgen
data_Cs4PaVTe6
_symmetry_space_group_name_H-M   'P 1'
_cell_length_a   15.13544300
_cell_length_b   7.11642354
_cell_length_c   10.22845098
_cell_angle_alpha   72.27508997
_cell_angle_beta   90.00000000
_cell_angle_gamma   90.00000000
_symmetry_Int_Tables_number   1
_chemical_formula_structural   Cs4PaVTe6
_chemical_formula_sum   'Cs8 Pa2 V2 Te12'
_cell_volume   1049.40974925
_cell_formula_units_Z   2
loop_
 _symmetry_equiv_pos_site_id
 _symmetry_equiv_pos_as_xyz
  1  'x, y, z'
loop_
 _atom_site_type_symbol
 _atom_site_label
 _atom_site_symmetry_multiplicity
 _atom_site_fract_x
 _atom_site_fract_y
 _atom_site_fract_z
 _atom_site_occupancy
  Cs  Cs0  1  0.953475  0.673281  0.655493  1
  Cs  Cs1  1  0.453475  0.826719  0.344507  1
  Cs  Cs2  1  0.046940  0.328029  0.344873  1
  Cs  Cs3  1  0.546940  0.171971  0.655127  1
  Cs  Cs4  1  0.867699  0.084175  0.901971  1
  Cs  Cs5  1  0.367699  0.415825  0.098029  1
  Cs  Cs6  1  0.131890  0.921191  0.099665  1
  Cs  Cs7  1  0.631890  0.578809  0.900335  1
  Pa  Pa8  1  0.748980  0.653918  0.296146  1
  Pa  Pa9  1  0.248980  0.846082  0.703854  1
  V  V10  1  0.251880  0.345682  0.701440  1
  V  V11  1  0.751880  0.154318  0.298560  1
  Te  Te12  1  0.902760  0.931409  0.280316  1
  Te  Te13  1  0.402760  0.568591  0.719684  1
  Te  Te14  1  0.096416  0.111869  0.720536  1
  Te  Te15  1  0.596416  0.388131  0.279464  1
  Te  Te16  1  0.813324  0.288854  0.512495  1
  Te  Te17  1  0.313324  0.211146  0.487505  1
  Te  Te18  1  0.186786  0.675223  0.486924  1
  Te  Te19  1  0.686786  0.824777  0.513076  1
  Te  Te20  1  0.841456  0.479665  0.098350  1
  Te  Te21  1  0.341456  0.020335  0.901650  1
  Te  Te22  1  0.158392  0.492000  0.899057  1
  Te  Te23  1  0.658392  0.008000  0.100943  1
