# generated using pymatgen
data_AcGaSiAg2
_symmetry_space_group_name_H-M   'P 1'
_cell_length_a   6.29835302
_cell_length_b   6.29835349
_cell_length_c   6.29835380
_cell_angle_alpha   138.24475210
_cell_angle_beta   138.24477679
_cell_angle_gamma   60.52833798
_symmetry_Int_Tables_number   1
_chemical_formula_structural   AcGaSiAg2
_chemical_formula_sum   'Ac1 Ga1 Si1 Ag2'
_cell_volume   109.62740538
_cell_formula_units_Z   1
loop_
 _symmetry_equiv_pos_site_id
 _symmetry_equiv_pos_as_xyz
  1  'x, y, z'
loop_
 _atom_site_type_symbol
 _atom_site_label
 _atom_site_symmetry_multiplicity
 _atom_site_fract_x
 _atom_site_fract_y
 _atom_site_fract_z
 _atom_site_occupancy
  Ac  Ac0  1  0.997394  0.997394  0.000000  1
  Ga  Ga1  1  0.612590  0.612590  0.000000  1
  Si  Si2  1  0.384579  0.384579  0.000000  1
  Ag  Ag3  1  0.252719  0.752719  0.500000  1
  Ag  Ag4  1  0.752719  0.252719  0.500000  1
