# generated using pymatgen
data_Ta4Nb2B4Os9Ru
_symmetry_space_group_name_H-M   'P 1'
_cell_length_a   9.56126243
_cell_length_b   9.56126253
_cell_length_c   3.01307700
_cell_angle_alpha   90.00000000
_cell_angle_beta   90.00000000
_cell_angle_gamma   89.91248565
_symmetry_Int_Tables_number   1
_chemical_formula_structural   Ta4Nb2B4Os9Ru
_chemical_formula_sum   'Ta4 Nb2 B4 Os9 Ru1'
_cell_volume   275.44836894
_cell_formula_units_Z   1
loop_
 _symmetry_equiv_pos_site_id
 _symmetry_equiv_pos_as_xyz
  1  'x, y, z'
loop_
 _atom_site_type_symbol
 _atom_site_label
 _atom_site_symmetry_multiplicity
 _atom_site_fract_x
 _atom_site_fract_y
 _atom_site_fract_z
 _atom_site_occupancy
  Ta  Ta0  1  0.823384  0.676616  0.000000  1
  Ta  Ta1  1  0.176616  0.323384  0.000000  1
  Ta  Ta2  1  0.500000  0.500000  0.000000  1
  Ta  Ta3  1  0.000000  0.000000  0.000000  1
  Nb  Nb4  1  0.322684  0.822684  0.000000  1
  Nb  Nb5  1  0.677316  0.177316  0.000000  1
  B  B6  1  0.620884  0.879116  0.000000  1
  B  B7  1  0.379116  0.120884  0.000000  1
  B  B8  1  0.120495  0.620495  0.000000  1
  B  B9  1  0.879505  0.379505  0.000000  1
  Os  Os10  1  0.571858  0.718440  0.500000  1
  Os  Os11  1  0.428142  0.281560  0.500000  1
  Os  Os12  1  0.070649  0.780164  0.500000  1
  Os  Os13  1  0.929351  0.219836  0.500000  1
  Os  Os14  1  0.280164  0.570649  0.500000  1
  Os  Os15  1  0.719836  0.429351  0.500000  1
  Os  Os16  1  0.218440  0.071858  0.500000  1
  Os  Os17  1  0.781560  0.928142  0.500000  1
  Os  Os18  1  0.500000  0.000000  0.500000  1
  Ru  Ru19  1  0.000000  0.500000  0.500000  1
