# generated using pymatgen
data_Hf7Nb3(Si3C)2
_symmetry_space_group_name_H-M   'P 1'
_cell_length_a   7.79824600
_cell_length_b   7.79824724
_cell_length_c   5.47329300
_cell_angle_alpha   90.00000000
_cell_angle_beta   90.00000000
_cell_angle_gamma   120.00000321
_symmetry_Int_Tables_number   1
_chemical_formula_structural   Hf7Nb3(Si3C)2
_chemical_formula_sum   'Hf7 Nb3 Si6 C2'
_cell_volume   288.25260905
_cell_formula_units_Z   1
loop_
 _symmetry_equiv_pos_site_id
 _symmetry_equiv_pos_as_xyz
  1  'x, y, z'
loop_
 _atom_site_type_symbol
 _atom_site_label
 _atom_site_symmetry_multiplicity
 _atom_site_fract_x
 _atom_site_fract_y
 _atom_site_fract_z
 _atom_site_occupancy
  Hf  Hf0  1  0.333333  0.666667  0.000000  1
  Hf  Hf1  1  0.235961  0.000079  0.249412  1
  Hf  Hf2  1  0.764117  0.000079  0.750588  1
  Hf  Hf3  1  0.999921  0.235883  0.249412  1
  Hf  Hf4  1  0.999921  0.764039  0.750588  1
  Hf  Hf5  1  0.764117  0.764039  0.249412  1
  Hf  Hf6  1  0.235961  0.235883  0.750588  1
  Nb  Nb7  1  0.666667  0.333333  0.000000  1
  Nb  Nb8  1  0.666667  0.333333  0.500000  1
  Nb  Nb9  1  0.333333  0.666667  0.500000  1
  Si  Si10  1  0.594931  0.002621  0.255467  1
  Si  Si11  1  0.407691  0.002621  0.744533  1
  Si  Si12  1  0.997379  0.592309  0.255467  1
  Si  Si13  1  0.997379  0.405069  0.744533  1
  Si  Si14  1  0.407691  0.405069  0.255467  1
  Si  Si15  1  0.594931  0.592309  0.744533  1
  C  C16  1  0.000000  0.000000  0.000000  1
  C  C17  1  0.000000  0.000000  0.500000  1
