# generated using pymatgen
data_Nd16Tm4Ir11Ru
_symmetry_space_group_name_H-M   'P 1'
_cell_length_a   11.17312800
_cell_length_b   11.17312800
_cell_length_c   6.51945900
_cell_angle_alpha   90.00000000
_cell_angle_beta   90.00000000
_cell_angle_gamma   90.00000000
_symmetry_Int_Tables_number   1
_chemical_formula_structural   Nd16Tm4Ir11Ru
_chemical_formula_sum   'Nd16 Tm4 Ir11 Ru1'
_cell_volume   813.88136848
_cell_formula_units_Z   1
loop_
 _symmetry_equiv_pos_site_id
 _symmetry_equiv_pos_as_xyz
  1  'x, y, z'
loop_
 _atom_site_type_symbol
 _atom_site_label
 _atom_site_symmetry_multiplicity
 _atom_site_fract_x
 _atom_site_fract_y
 _atom_site_fract_z
 _atom_site_occupancy
  Nd  Nd0  1  0.289473  0.086481  0.380534  1
  Nd  Nd1  1  0.289682  0.913532  0.882959  1
  Nd  Nd2  1  0.710318  0.086468  0.882959  1
  Nd  Nd3  1  0.710527  0.913519  0.380534  1
  Nd  Nd4  1  0.586468  0.789682  0.882959  1
  Nd  Nd5  1  0.586481  0.210527  0.380534  1
  Nd  Nd6  1  0.413519  0.789473  0.380534  1
  Nd  Nd7  1  0.413532  0.210318  0.882959  1
  Nd  Nd8  1  0.211815  0.412875  0.619008  1
  Nd  Nd9  1  0.211633  0.586974  0.118741  1
  Nd  Nd10  1  0.788367  0.413026  0.118741  1
  Nd  Nd11  1  0.788185  0.587125  0.619008  1
  Nd  Nd12  1  0.913026  0.711633  0.118741  1
  Nd  Nd13  1  0.912875  0.288185  0.619008  1
  Nd  Nd14  1  0.087125  0.711815  0.619008  1
  Nd  Nd15  1  0.086974  0.288367  0.118741  1
  Tm  Tm16  1  0.000000  0.000000  0.499321  1
  Tm  Tm17  1  0.000000  0.000000  0.999270  1
  Tm  Tm18  1  0.500000  0.500000  0.999270  1
  Tm  Tm19  1  0.500000  0.500000  0.499321  1
  Ir  Ir20  1  0.852783  0.147826  0.249911  1
  Ir  Ir21  1  0.852839  0.852365  0.749726  1
  Ir  Ir22  1  0.147161  0.147635  0.749726  1
  Ir  Ir23  1  0.147217  0.852174  0.249911  1
  Ir  Ir24  1  0.647635  0.352839  0.749726  1
  Ir  Ir25  1  0.647826  0.647217  0.249911  1
  Ir  Ir26  1  0.352174  0.352783  0.249911  1
  Ir  Ir27  1  0.352365  0.647161  0.749726  1
  Ir  Ir28  1  0.500000  0.000000  0.619070  1
  Ir  Ir29  1  0.000000  0.500000  0.880762  1
  Ir  Ir30  1  0.000000  0.500000  0.381012  1
  Ru  Ru31  1  0.500000  0.000000  0.118462  1
