# generated using pymatgen
data_Dy6HoTm13(Cd3Ru)2
_symmetry_space_group_name_H-M   'P 1'
_cell_length_a   9.50933033
_cell_length_b   9.50932986
_cell_length_c   9.73467402
_cell_angle_alpha   89.98183283
_cell_angle_beta   90.01816618
_cell_angle_gamma   120.01757360
_symmetry_Int_Tables_number   1
_chemical_formula_structural   Dy6HoTm13(Cd3Ru)2
_chemical_formula_sum   'Dy6 Ho1 Tm13 Cd6 Ru2'
_cell_volume   762.21050257
_cell_formula_units_Z   1
loop_
 _symmetry_equiv_pos_site_id
 _symmetry_equiv_pos_as_xyz
  1  'x, y, z'
loop_
 _atom_site_type_symbol
 _atom_site_label
 _atom_site_symmetry_multiplicity
 _atom_site_fract_x
 _atom_site_fract_y
 _atom_site_fract_z
 _atom_site_occupancy
  Dy  Dy0  1  0.540353  0.459647  0.250020  1
  Dy  Dy1  1  0.540650  0.081027  0.249818  1
  Dy  Dy2  1  0.918973  0.459350  0.249818  1
  Dy  Dy3  1  0.459615  0.540385  0.750039  1
  Dy  Dy4  1  0.459813  0.919342  0.750209  1
  Dy  Dy5  1  0.080658  0.540187  0.750209  1
  Ho  Ho6  1  0.209874  0.790126  0.440022  1
  Tm  Tm7  1  0.999850  0.000150  0.500049  1
  Tm  Tm8  1  0.999984  0.000016  0.000065  1
  Tm  Tm9  1  0.210015  0.419684  0.440064  1
  Tm  Tm10  1  0.580316  0.789985  0.440064  1
  Tm  Tm11  1  0.789944  0.210056  0.559983  1
  Tm  Tm12  1  0.789785  0.579858  0.560053  1
  Tm  Tm13  1  0.420142  0.210215  0.560053  1
  Tm  Tm14  1  0.789967  0.210033  0.940009  1
  Tm  Tm15  1  0.789982  0.579935  0.940038  1
  Tm  Tm16  1  0.420065  0.210018  0.940038  1
  Tm  Tm17  1  0.209958  0.790042  0.059722  1
  Tm  Tm18  1  0.210133  0.420053  0.059949  1
  Tm  Tm19  1  0.579947  0.789867  0.059949  1
  Cd  Cd20  1  0.885986  0.114014  0.250013  1
  Cd  Cd21  1  0.885920  0.771944  0.249940  1
  Cd  Cd22  1  0.228056  0.114080  0.249940  1
  Cd  Cd23  1  0.113963  0.886037  0.750146  1
  Cd  Cd24  1  0.113986  0.228056  0.750049  1
  Cd  Cd25  1  0.771944  0.886014  0.750049  1
  Ru  Ru26  1  0.333462  0.666538  0.249710  1
  Ru  Ru27  1  0.666660  0.333340  0.749976  1
