# generated using pymatgen
data_Sc5(Sn3Ru)6
_symmetry_space_group_name_H-M   'P 1'
_cell_length_a   9.74836188
_cell_length_b   9.74836160
_cell_length_c   9.74836200
_cell_angle_alpha   59.99999863
_cell_angle_beta   59.99999960
_cell_angle_gamma   60.00000268
_symmetry_Int_Tables_number   1
_chemical_formula_structural   Sc5(Sn3Ru)6
_chemical_formula_sum   'Sc5 Sn18 Ru6'
_cell_volume   655.05825831
_cell_formula_units_Z   1
loop_
 _symmetry_equiv_pos_site_id
 _symmetry_equiv_pos_as_xyz
  1  'x, y, z'
loop_
 _atom_site_type_symbol
 _atom_site_label
 _atom_site_symmetry_multiplicity
 _atom_site_fract_x
 _atom_site_fract_y
 _atom_site_fract_z
 _atom_site_occupancy
  Sc  Sc0  1  0.000000  0.000000  0.000000  1
  Sc  Sc1  1  0.373650  0.373651  0.879049  1
  Sc  Sc2  1  0.373651  0.879048  0.373650  1
  Sc  Sc3  1  0.879048  0.373651  0.373650  1
  Sc  Sc4  1  0.373651  0.373650  0.373650  1
  Sn  Sn5  1  0.591960  0.591960  0.224121  1
  Sn  Sn6  1  0.591960  0.224121  0.591960  1
  Sn  Sn7  1  0.224121  0.591960  0.591960  1
  Sn  Sn8  1  0.591960  0.591960  0.591960  1
  Sn  Sn9  1  0.750000  0.750000  0.750000  1
  Sn  Sn10  1  0.999048  0.349976  0.651930  1
  Sn  Sn11  1  0.999048  0.999048  0.651930  1
  Sn  Sn12  1  0.349976  0.999048  0.651930  1
  Sn  Sn13  1  0.999048  0.651930  0.349976  1
  Sn  Sn14  1  0.349976  0.651930  0.999048  1
  Sn  Sn15  1  0.999048  0.651930  0.999048  1
  Sn  Sn16  1  0.651930  0.999048  0.999048  1
  Sn  Sn17  1  0.651930  0.349976  0.999048  1
  Sn  Sn18  1  0.651930  0.999048  0.349976  1
  Sn  Sn19  1  0.349976  0.999048  0.999048  1
  Sn  Sn20  1  0.999048  0.999048  0.349976  1
  Sn  Sn21  1  0.999048  0.349976  0.999048  1
  Sn  Sn22  1  0.250000  0.250000  0.250000  1
  Ru  Ru23  1  0.257751  0.257751  0.742249  1
  Ru  Ru24  1  0.742249  0.257751  0.742249  1
  Ru  Ru25  1  0.257751  0.742249  0.742249  1
  Ru  Ru26  1  0.742249  0.742249  0.257751  1
  Ru  Ru27  1  0.257751  0.742249  0.257751  1
  Ru  Ru28  1  0.742249  0.257751  0.257751  1
