# generated using pymatgen
data_Ta9Nb4AlCo12
_symmetry_space_group_name_H-M   'P 1'
_cell_length_a   4.96347347
_cell_length_b   4.96347243
_cell_length_c   17.67218862
_cell_angle_alpha   98.07284146
_cell_angle_beta   98.07283943
_cell_angle_gamma   59.99999935
_symmetry_Int_Tables_number   1
_chemical_formula_structural   Ta9Nb4AlCo12
_chemical_formula_sum   'Ta9 Nb4 Al1 Co12'
_cell_volume   372.05403821
_cell_formula_units_Z   1
loop_
 _symmetry_equiv_pos_site_id
 _symmetry_equiv_pos_as_xyz
  1  'x, y, z'
loop_
 _atom_site_type_symbol
 _atom_site_label
 _atom_site_symmetry_multiplicity
 _atom_site_fract_x
 _atom_site_fract_y
 _atom_site_fract_z
 _atom_site_occupancy
  Ta  Ta0  1  0.415278  0.415278  0.245836  1
  Ta  Ta1  1  0.916799  0.916799  0.750396  1
  Ta  Ta2  1  0.083201  0.083201  0.249604  1
  Ta  Ta3  1  0.584722  0.584722  0.754164  1
  Ta  Ta4  1  0.774077  0.774077  0.322233  1
  Ta  Ta5  1  0.275946  0.275946  0.827837  1
  Ta  Ta6  1  0.724054  0.724054  0.172163  1
  Ta  Ta7  1  0.225923  0.225923  0.677767  1
  Ta  Ta8  1  0.500000  0.500000  0.500000  1
  Nb  Nb9  1  0.826831  0.826831  0.480490  1
  Nb  Nb10  1  0.327813  0.327813  0.983439  1
  Nb  Nb11  1  0.672187  0.672187  0.016561  1
  Nb  Nb12  1  0.173169  0.173169  0.519510  1
  Al  Al13  1  0.000000  0.000000  0.000000  1
  Co  Co14  1  0.703976  0.205826  0.115628  1
  Co  Co15  1  0.198519  0.710330  0.619180  1
  Co  Co16  1  0.205826  0.205826  0.115628  1
  Co  Co17  1  0.710330  0.710330  0.619180  1
  Co  Co18  1  0.205826  0.703976  0.115628  1
  Co  Co19  1  0.710330  0.198519  0.619180  1
  Co  Co20  1  0.801481  0.289670  0.380820  1
  Co  Co21  1  0.296024  0.794174  0.884372  1
  Co  Co22  1  0.289670  0.289670  0.380820  1
  Co  Co23  1  0.794174  0.794174  0.884372  1
  Co  Co24  1  0.289670  0.801481  0.380820  1
  Co  Co25  1  0.794174  0.296024  0.884372  1
