# generated using pymatgen
data_Tb5YCo16(TcP6)2
_symmetry_space_group_name_H-M   'P 1'
_cell_length_a   3.71639900
_cell_length_b   10.53298924
_cell_length_c   12.24113128
_cell_angle_alpha   90.02446417
_cell_angle_beta   90.00000000
_cell_angle_gamma   90.00000000
_symmetry_Int_Tables_number   1
_chemical_formula_structural   Tb5YCo16(TcP6)2
_chemical_formula_sum   'Tb5 Y1 Co16 Tc2 P12'
_cell_volume   479.17647791
_cell_formula_units_Z   1
loop_
 _symmetry_equiv_pos_site_id
 _symmetry_equiv_pos_as_xyz
  1  'x, y, z'
loop_
 _atom_site_type_symbol
 _atom_site_label
 _atom_site_symmetry_multiplicity
 _atom_site_fract_x
 _atom_site_fract_y
 _atom_site_fract_z
 _atom_site_occupancy
  Tb  Tb0  1  0.000000  0.500025  0.523570  1
  Tb  Tb1  1  0.500000  0.999960  0.476456  1
  Tb  Tb2  1  0.500000  0.817605  0.206143  1
  Tb  Tb3  1  0.500000  0.182433  0.206068  1
  Tb  Tb4  1  0.000000  0.682316  0.793817  1
  Y  Y5  1  0.000000  0.317528  0.793999  1
  Co  Co6  1  0.500000  0.499977  0.702877  1
  Co  Co7  1  0.000000  0.000010  0.297155  1
  Co  Co8  1  0.000000  0.499895  0.987228  1
  Co  Co9  1  0.500000  0.000079  0.012689  1
  Co  Co10  1  0.500000  0.332203  0.990053  1
  Co  Co11  1  0.500000  0.667725  0.990206  1
  Co  Co12  1  0.000000  0.167847  0.009747  1
  Co  Co13  1  0.000000  0.832237  0.009770  1
  Co  Co14  1  0.500000  0.296464  0.430933  1
  Co  Co15  1  0.500000  0.703505  0.430880  1
  Co  Co16  1  0.000000  0.203495  0.569212  1
  Co  Co17  1  0.000000  0.796472  0.569115  1
  Co  Co18  1  0.500000  0.879401  0.707970  1
  Co  Co19  1  0.500000  0.120754  0.708021  1
  Co  Co20  1  0.000000  0.620629  0.292023  1
  Co  Co21  1  0.000000  0.379391  0.292049  1
  Tc  Tc22  1  0.500000  0.499957  0.156318  1
  Tc  Tc23  1  0.000000  0.000035  0.843713  1
  P  P24  1  0.500000  0.499900  0.881429  1
  P  P25  1  0.000000  0.000038  0.118372  1
  P  P26  1  0.500000  0.500003  0.348091  1
  P  P27  1  0.000000  0.999930  0.651953  1
  P  P28  1  0.500000  0.311259  0.615882  1
  P  P29  1  0.500000  0.688862  0.615714  1
  P  P30  1  0.000000  0.188943  0.384347  1
  P  P31  1  0.000000  0.811102  0.384317  1
  P  P32  1  0.500000  0.846302  0.893001  1
  P  P33  1  0.500000  0.153728  0.892928  1
  P  P34  1  0.000000  0.653619  0.106967  1
  P  P35  1  0.000000  0.346373  0.106985  1
