# generated using pymatgen
data_Dy16Ho4Si13As3
_symmetry_space_group_name_H-M   'P 1'
_cell_length_a   7.56543411
_cell_length_b   7.63338655
_cell_length_c   14.56368631
_cell_angle_alpha   89.87704189
_cell_angle_beta   89.13635190
_cell_angle_gamma   90.01539424
_symmetry_Int_Tables_number   1
_chemical_formula_structural   Dy16Ho4Si13As3
_chemical_formula_sum   'Dy16 Ho4 Si13 As3'
_cell_volume   840.95366014
_cell_formula_units_Z   1
loop_
 _symmetry_equiv_pos_site_id
 _symmetry_equiv_pos_as_xyz
  1  'x, y, z'
loop_
 _atom_site_type_symbol
 _atom_site_label
 _atom_site_symmetry_multiplicity
 _atom_site_fract_x
 _atom_site_fract_y
 _atom_site_fract_z
 _atom_site_occupancy
  Dy  Dy0  1  0.037799  0.824913  0.106420  1
  Dy  Dy1  1  0.524167  0.673841  0.397537  1
  Dy  Dy2  1  0.461395  0.325627  0.893565  1
  Dy  Dy3  1  0.975549  0.180231  0.601924  1
  Dy  Dy4  1  0.970533  0.177549  0.894080  1
  Dy  Dy5  1  0.479516  0.322903  0.600874  1
  Dy  Dy6  1  0.528898  0.677912  0.105549  1
  Dy  Dy7  1  0.018913  0.816508  0.398155  1
  Dy  Dy8  1  0.614154  0.837301  0.882447  1
  Dy  Dy9  1  0.121825  0.664056  0.618990  1
  Dy  Dy10  1  0.886869  0.336773  0.116925  1
  Dy  Dy11  1  0.377611  0.164204  0.382170  1
  Dy  Dy12  1  0.382912  0.164821  0.116913  1
  Dy  Dy13  1  0.877475  0.334656  0.380730  1
  Dy  Dy14  1  0.116891  0.665115  0.882763  1
  Dy  Dy15  1  0.624297  0.835154  0.618335  1
  Ho  Ho16  1  0.711236  0.998209  0.254201  1
  Ho  Ho17  1  0.212436  0.500577  0.250810  1
  Ho  Ho18  1  0.787148  0.498269  0.746440  1
  Ho  Ho19  1  0.288921  0.001833  0.751890  1
  Si  Si20  1  0.823268  0.628114  0.249553  1
  Si  Si21  1  0.323967  0.871439  0.250707  1
  Si  Si22  1  0.675702  0.129398  0.749666  1
  Si  Si23  1  0.174654  0.371646  0.749189  1
  Si  Si24  1  0.087985  0.110461  0.249346  1
  Si  Si25  1  0.587990  0.388028  0.248020  1
  Si  Si26  1  0.412860  0.612370  0.750322  1
  Si  Si27  1  0.912390  0.889692  0.750709  1
  Si  Si28  1  0.214745  0.465896  0.457423  1
  Si  Si29  1  0.224906  0.474860  0.045610  1
  Si  Si30  1  0.718419  0.032191  0.456436  1
  Si  Si31  1  0.275432  0.974730  0.954215  1
  Si  Si32  1  0.787146  0.533408  0.543387  1
  As  As33  1  0.772431  0.524158  0.953815  1
  As  As34  1  0.282185  0.969001  0.545059  1
  As  As35  1  0.727377  0.024156  0.045829  1
