# generated using pymatgen
data_Sr2Ni2Cl
_symmetry_space_group_name_H-M   'P 1'
_cell_length_a   4.11222300
_cell_length_b   4.11222224
_cell_length_c   16.92647900
_cell_angle_alpha   90.00000000
_cell_angle_beta   90.00000000
_cell_angle_gamma   119.99999804
_symmetry_Int_Tables_number   1
_chemical_formula_structural   Sr2Ni2Cl
_chemical_formula_sum   'Sr4 Ni4 Cl2'
_cell_volume   247.88514569
_cell_formula_units_Z   2
loop_
 _symmetry_equiv_pos_site_id
 _symmetry_equiv_pos_as_xyz
  1  'x, y, z'
loop_
 _atom_site_type_symbol
 _atom_site_label
 _atom_site_symmetry_multiplicity
 _atom_site_fract_x
 _atom_site_fract_y
 _atom_site_fract_z
 _atom_site_occupancy
  Sr  Sr0  1  0.000000  0.000000  0.617866  1
  Sr  Sr1  1  0.000000  0.000000  0.382134  1
  Sr  Sr2  1  0.000000  0.000000  0.117866  1
  Sr  Sr3  1  0.000000  0.000000  0.882134  1
  Ni  Ni4  1  0.666667  0.333333  0.501312  1
  Ni  Ni5  1  0.333333  0.666667  0.001312  1
  Ni  Ni6  1  0.666667  0.333333  0.998688  1
  Ni  Ni7  1  0.333333  0.666667  0.498688  1
  Cl  Cl8  1  0.666667  0.333333  0.250000  1
  Cl  Cl9  1  0.333333  0.666667  0.750000  1
