# generated using pymatgen
data_Tb3Y6HoSi6
_symmetry_space_group_name_H-M   'P 1'
_cell_length_a   8.45998200
_cell_length_b   8.45998122
_cell_length_c   6.38308400
_cell_angle_alpha   90.00000000
_cell_angle_beta   90.00000000
_cell_angle_gamma   119.99999524
_symmetry_Int_Tables_number   1
_chemical_formula_structural   Tb3Y6HoSi6
_chemical_formula_sum   'Tb3 Y6 Ho1 Si6'
_cell_volume   395.63986954
_cell_formula_units_Z   1
loop_
 _symmetry_equiv_pos_site_id
 _symmetry_equiv_pos_as_xyz
  1  'x, y, z'
loop_
 _atom_site_type_symbol
 _atom_site_label
 _atom_site_symmetry_multiplicity
 _atom_site_fract_x
 _atom_site_fract_y
 _atom_site_fract_z
 _atom_site_occupancy
  Tb  Tb0  1  0.333333  0.666667  0.500000  1
  Tb  Tb1  1  0.666667  0.333333  0.000000  1
  Tb  Tb2  1  0.666667  0.333333  0.500000  1
  Y  Y3  1  0.000118  0.757031  0.750166  1
  Y  Y4  1  0.000118  0.243087  0.249834  1
  Y  Y5  1  0.756913  0.757031  0.249834  1
  Y  Y6  1  0.756913  0.999882  0.750166  1
  Y  Y7  1  0.242969  0.243087  0.750166  1
  Y  Y8  1  0.242969  0.999882  0.249834  1
  Ho  Ho9  1  0.333333  0.666667  0.000000  1
  Si  Si10  1  0.394140  0.999533  0.750437  1
  Si  Si11  1  0.394140  0.394607  0.249563  1
  Si  Si12  1  0.000467  0.605860  0.249563  1
  Si  Si13  1  0.000467  0.394607  0.750437  1
  Si  Si14  1  0.605393  0.605860  0.750437  1
  Si  Si15  1  0.605393  0.999533  0.249563  1
