# generated using pymatgen
data_TiInSbPt8
_symmetry_space_group_name_H-M   'P 1'
_cell_length_a   4.03820000
_cell_length_b   4.03820000
_cell_length_c   11.51656400
_cell_angle_alpha   90.00000000
_cell_angle_beta   90.00000000
_cell_angle_gamma   90.00000000
_symmetry_Int_Tables_number   1
_chemical_formula_structural   TiInSbPt8
_chemical_formula_sum   'Ti1 In1 Sb1 Pt8'
_cell_volume   187.80129139
_cell_formula_units_Z   1
loop_
 _symmetry_equiv_pos_site_id
 _symmetry_equiv_pos_as_xyz
  1  'x, y, z'
loop_
 _atom_site_type_symbol
 _atom_site_label
 _atom_site_symmetry_multiplicity
 _atom_site_fract_x
 _atom_site_fract_y
 _atom_site_fract_z
 _atom_site_occupancy
  Ti  Ti0  1  0.500000  0.500000  0.828304  1
  In  In1  1  0.500000  0.500000  0.172257  1
  Sb  Sb2  1  0.000000  0.000000  0.503093  1
  Pt  Pt3  1  0.500000  0.000000  0.989769  1
  Pt  Pt4  1  0.000000  0.500000  0.989769  1
  Pt  Pt5  1  0.500000  0.000000  0.662315  1
  Pt  Pt6  1  0.000000  0.500000  0.662315  1
  Pt  Pt7  1  0.500000  0.000000  0.347732  1
  Pt  Pt8  1  0.000000  0.500000  0.347732  1
  Pt  Pt9  1  0.000000  0.000000  0.827697  1
  Pt  Pt10  1  0.000000  0.000000  0.169018  1
