# generated using pymatgen
data_Nd8Cd2CoPt
_symmetry_space_group_name_H-M   'P 1'
_cell_length_a   9.91513055
_cell_length_b   9.91513073
_cell_length_c   9.91904100
_cell_angle_alpha   59.98695002
_cell_angle_beta   59.98694941
_cell_angle_gamma   60.23226717
_symmetry_Int_Tables_number   1
_chemical_formula_structural   Nd8Cd2CoPt
_chemical_formula_sum   'Nd16 Cd4 Co2 Pt2'
_cell_volume   690.59291692
_cell_formula_units_Z   2
loop_
 _symmetry_equiv_pos_site_id
 _symmetry_equiv_pos_as_xyz
  1  'x, y, z'
loop_
 _atom_site_type_symbol
 _atom_site_label
 _atom_site_symmetry_multiplicity
 _atom_site_fract_x
 _atom_site_fract_y
 _atom_site_fract_z
 _atom_site_occupancy
  Nd  Nd0  1  0.345279  0.345279  0.357901  1
  Nd  Nd1  1  0.345279  0.345279  0.951541  1
  Nd  Nd2  1  0.341351  0.956012  0.351318  1
  Nd  Nd3  1  0.956012  0.341351  0.351318  1
  Nd  Nd4  1  0.818841  0.189818  0.189936  1
  Nd  Nd5  1  0.189818  0.818841  0.801405  1
  Nd  Nd6  1  0.189818  0.818841  0.189936  1
  Nd  Nd7  1  0.818841  0.189818  0.801405  1
  Nd  Nd8  1  0.189102  0.189102  0.810898  1
  Nd  Nd9  1  0.808118  0.808118  0.191882  1
  Nd  Nd10  1  0.937724  0.561820  0.563345  1
  Nd  Nd11  1  0.561820  0.937724  0.937111  1
  Nd  Nd12  1  0.561820  0.937724  0.563345  1
  Nd  Nd13  1  0.937724  0.561820  0.937111  1
  Nd  Nd14  1  0.560315  0.560315  0.939685  1
  Nd  Nd15  1  0.935496  0.935496  0.564504  1
  Cd  Cd16  1  0.580075  0.580075  0.579356  1
  Cd  Cd17  1  0.580075  0.580075  0.260496  1
  Cd  Cd18  1  0.581517  0.258174  0.580155  1
  Cd  Cd19  1  0.258174  0.581517  0.580155  1
  Co  Co20  1  0.142571  0.142571  0.141480  1
  Co  Co21  1  0.142571  0.142571  0.573379  1
  Pt  Pt22  1  0.144854  0.572808  0.141169  1
  Pt  Pt23  1  0.572808  0.144854  0.141169  1
