# generated using pymatgen
data_Pa4Fe3NiB16
_symmetry_space_group_name_H-M   'P 1'
_cell_length_a   6.80905793
_cell_length_b   6.80898254
_cell_length_c   6.80905934
_cell_angle_alpha   112.70141870
_cell_angle_beta   112.10170726
_cell_angle_gamma   103.75734711
_symmetry_Int_Tables_number   1
_chemical_formula_structural   Pa4Fe3NiB16
_chemical_formula_sum   'Pa4 Fe3 Ni1 B16'
_cell_volume   241.22195059
_cell_formula_units_Z   1
loop_
 _symmetry_equiv_pos_site_id
 _symmetry_equiv_pos_as_xyz
  1  'x, y, z'
loop_
 _atom_site_type_symbol
 _atom_site_label
 _atom_site_symmetry_multiplicity
 _atom_site_fract_x
 _atom_site_fract_y
 _atom_site_fract_z
 _atom_site_occupancy
  Pa  Pa0  1  0.211656  0.208953  0.002751  1
  Pa  Pa1  1  0.793810  0.791082  0.002795  1
  Pa  Pa2  1  0.740752  0.245142  0.495590  1
  Pa  Pa3  1  0.250437  0.754819  0.495582  1
  Fe  Fe4  1  0.500585  0.272592  0.773158  1
  Fe  Fe5  1  0.500581  0.727466  0.228036  1
  Fe  Fe6  1  0.731478  0.500027  0.231449  1
  Ni  Ni7  1  0.267927  0.500017  0.767907  1
  B  B8  1  0.109249  0.272375  0.381602  1
  B  B9  1  0.890817  0.726554  0.617357  1
  B  B10  1  0.890809  0.273468  0.164271  1
  B  B11  1  0.109234  0.727619  0.836835  1
  B  B12  1  0.725173  0.889396  0.614584  1
  B  B13  1  0.273034  0.110165  0.383219  1
  B  B14  1  0.725166  0.110569  0.835766  1
  B  B15  1  0.273066  0.889813  0.162900  1
  B  B16  1  0.422174  0.420286  0.539109  1
  B  B17  1  0.883213  0.881902  0.460726  1
  B  B18  1  0.578855  0.118055  0.001335  1
  B  B19  1  0.118891  0.579751  0.001943  1
  B  B20  1  0.578824  0.577516  0.460728  1
  B  B21  1  0.118828  0.116912  0.539100  1
  B  B22  1  0.883270  0.422505  0.001353  1
  B  B23  1  0.422172  0.883014  0.001903  1
