# generated using pymatgen
data_MnCr2Ir3Ru2
_symmetry_space_group_name_H-M   'P 1'
_cell_length_a   5.40502515
_cell_length_b   5.37032455
_cell_length_c   4.26561200
_cell_angle_alpha   90.00000000
_cell_angle_beta   90.00000000
_cell_angle_gamma   120.04031351
_symmetry_Int_Tables_number   1
_chemical_formula_structural   MnCr2Ir3Ru2
_chemical_formula_sum   'Mn1 Cr2 Ir3 Ru2'
_cell_volume   107.18491515
_cell_formula_units_Z   1
loop_
 _symmetry_equiv_pos_site_id
 _symmetry_equiv_pos_as_xyz
  1  'x, y, z'
loop_
 _atom_site_type_symbol
 _atom_site_label
 _atom_site_symmetry_multiplicity
 _atom_site_fract_x
 _atom_site_fract_y
 _atom_site_fract_z
 _atom_site_occupancy
  Mn  Mn0  1  0.168669  0.335131  0.250000  1
  Cr  Cr1  1  0.333768  0.661902  0.750000  1
  Cr  Cr2  1  0.666953  0.337004  0.250000  1
  Ir  Ir3  1  0.167108  0.825932  0.250000  1
  Ir  Ir4  1  0.336825  0.176918  0.750000  1
  Ir  Ir5  1  0.838215  0.175260  0.750000  1
  Ru  Ru6  1  0.658843  0.824406  0.250000  1
  Ru  Ru7  1  0.829620  0.663447  0.750000  1
