# generated using pymatgen
data_Cs4Na2SmGaAs4
_symmetry_space_group_name_H-M   'P 1'
_cell_length_a   9.83130631
_cell_length_b   9.83130638
_cell_length_c   9.83130558
_cell_angle_alpha   137.08507900
_cell_angle_beta   61.05704703
_cell_angle_gamma   138.72682544
_symmetry_Int_Tables_number   1
_chemical_formula_structural   Cs4Na2SmGaAs4
_chemical_formula_sum   'Cs4 Na2 Sm1 Ga1 As4'
_cell_volume   422.11124666
_cell_formula_units_Z   1
loop_
 _symmetry_equiv_pos_site_id
 _symmetry_equiv_pos_as_xyz
  1  'x, y, z'
loop_
 _atom_site_type_symbol
 _atom_site_label
 _atom_site_symmetry_multiplicity
 _atom_site_fract_x
 _atom_site_fract_y
 _atom_site_fract_z
 _atom_site_occupancy
  Cs  Cs0  1  0.818929  0.266053  0.096177  1
  Cs  Cs1  1  0.681071  0.777248  0.447124  1
  Cs  Cs2  1  0.330124  0.233947  0.552876  1
  Cs  Cs3  1  0.169876  0.722753  0.903824  1
  Na  Na4  1  0.749999  0.249999  0.500000  1
  Na  Na5  1  0.249999  0.749999  0.499999  1
  Sm  Sm6  1  0.249999  0.249999  0.000000  1
  Ga  Ga7  1  0.750000  0.750000  0.000000  1
  As  As8  1  0.433409  0.736178  0.124283  1
  As  As9  1  0.066592  0.190874  0.302770  1
  As  As10  1  0.888105  0.763821  0.697230  1
  As  As11  1  0.611896  0.309125  0.875717  1
