# generated using pymatgen
data_Th2Pa2CuTe12
_symmetry_space_group_name_H-M   'P 1'
_cell_length_a   7.52575162
_cell_length_b   7.52575197
_cell_length_c   11.29386497
_cell_angle_alpha   70.88867467
_cell_angle_beta   70.88867060
_cell_angle_gamma   69.79358185
_symmetry_Int_Tables_number   1
_chemical_formula_structural   Th2Pa2CuTe12
_chemical_formula_sum   'Th2 Pa2 Cu1 Te12'
_cell_volume   550.38118045
_cell_formula_units_Z   1
loop_
 _symmetry_equiv_pos_site_id
 _symmetry_equiv_pos_as_xyz
  1  'x, y, z'
loop_
 _atom_site_type_symbol
 _atom_site_label
 _atom_site_symmetry_multiplicity
 _atom_site_fract_x
 _atom_site_fract_y
 _atom_site_fract_z
 _atom_site_occupancy
  Th  Th0  1  0.809960  0.809960  0.835467  1
  Th  Th1  1  0.311205  0.311205  0.836720  1
  Pa  Pa2  1  0.688418  0.189304  0.168866  1
  Pa  Pa3  1  0.189304  0.688418  0.168866  1
  Cu  Cu4  1  0.815103  0.815103  0.528961  1
  Te  Te5  1  0.013336  0.013336  0.323300  1
  Te  Te6  1  0.503549  0.503549  0.326577  1
  Te  Te7  1  0.492365  0.994464  0.664800  1
  Te  Te8  1  0.994464  0.492365  0.664800  1
  Te  Te9  1  0.258807  0.258807  0.328796  1
  Te  Te10  1  0.753175  0.753175  0.327156  1
  Te  Te11  1  0.246008  0.744364  0.664708  1
  Te  Te12  1  0.744364  0.246008  0.664708  1
  Te  Te13  1  0.019237  0.019237  0.950111  1
  Te  Te14  1  0.517799  0.517799  0.951412  1
  Te  Te15  1  0.477035  0.977169  0.064578  1
  Te  Te16  1  0.977169  0.477035  0.064578  1
