# generated using pymatgen
data_RbYbBe3F9
_symmetry_space_group_name_H-M   'P 1'
_cell_length_a   6.95599300
_cell_length_b   6.95599356
_cell_length_c   10.20870800
_cell_angle_alpha   90.00000000
_cell_angle_beta   90.00000000
_cell_angle_gamma   120.00000211
_symmetry_Int_Tables_number   1
_chemical_formula_structural   RbYbBe3F9
_chemical_formula_sum   'Rb2 Yb2 Be6 F18'
_cell_volume   427.77924694
_cell_formula_units_Z   2
loop_
 _symmetry_equiv_pos_site_id
 _symmetry_equiv_pos_as_xyz
  1  'x, y, z'
loop_
 _atom_site_type_symbol
 _atom_site_label
 _atom_site_symmetry_multiplicity
 _atom_site_fract_x
 _atom_site_fract_y
 _atom_site_fract_z
 _atom_site_occupancy
  Rb  Rb0  1  0.333333  0.666667  0.500000  1
  Rb  Rb1  1  0.333333  0.666667  0.000000  1
  Yb  Yb2  1  0.000000  0.000000  0.500000  1
  Yb  Yb3  1  0.000000  0.000000  0.000000  1
  Be  Be4  1  0.878387  0.278955  0.250000  1
  Be  Be5  1  0.878387  0.599431  0.750000  1
  Be  Be6  1  0.400569  0.278955  0.750000  1
  Be  Be7  1  0.721045  0.121613  0.750000  1
  Be  Be8  1  0.721045  0.599431  0.250000  1
  Be  Be9  1  0.400569  0.121613  0.250000  1
  F  F10  1  0.743250  0.010181  0.624691  1
  F  F11  1  0.266930  0.256750  0.624691  1
  F  F12  1  0.989819  0.733070  0.624691  1
  F  F13  1  0.989819  0.256750  0.375309  1
  F  F14  1  0.898736  0.518325  0.250000  1
  F  F15  1  0.619589  0.101264  0.250000  1
  F  F16  1  0.481675  0.380411  0.250000  1
  F  F17  1  0.481675  0.101264  0.750000  1
  F  F18  1  0.619589  0.518325  0.750000  1
  F  F19  1  0.898736  0.380411  0.750000  1
  F  F20  1  0.989819  0.256750  0.124691  1
  F  F21  1  0.266930  0.010181  0.375309  1
  F  F22  1  0.743250  0.733070  0.375309  1
  F  F23  1  0.743250  0.733070  0.124691  1
  F  F24  1  0.266930  0.010181  0.124691  1
  F  F25  1  0.743250  0.010181  0.875309  1
  F  F26  1  0.266930  0.256750  0.875309  1
  F  F27  1  0.989819  0.733070  0.875309  1
