# generated using pymatgen
data_Pr8Dy9Ho3Pt16
_symmetry_space_group_name_H-M   'P 1'
_cell_length_a   7.70479300
_cell_length_b   7.76437510
_cell_length_c   14.70819700
_cell_angle_alpha   90.00000000
_cell_angle_beta   90.00000000
_cell_angle_gamma   90.00911346
_symmetry_Int_Tables_number   1
_chemical_formula_structural   Pr8Dy9Ho3Pt16
_chemical_formula_sum   'Pr8 Dy9 Ho3 Pt16'
_cell_volume   879.88702992
_cell_formula_units_Z   1
loop_
 _symmetry_equiv_pos_site_id
 _symmetry_equiv_pos_as_xyz
  1  'x, y, z'
loop_
 _atom_site_type_symbol
 _atom_site_label
 _atom_site_symmetry_multiplicity
 _atom_site_fract_x
 _atom_site_fract_y
 _atom_site_fract_z
 _atom_site_occupancy
  Pr  Pr0  1  0.502075  0.675744  0.597245  1
  Pr  Pr1  1  0.002788  0.824720  0.902598  1
  Pr  Pr2  1  0.497632  0.324450  0.097580  1
  Pr  Pr3  1  0.997461  0.175584  0.402533  1
  Pr  Pr4  1  0.497632  0.324450  0.402420  1
  Pr  Pr5  1  0.997461  0.175584  0.097467  1
  Pr  Pr6  1  0.502075  0.675744  0.902755  1
  Pr  Pr7  1  0.002788  0.824720  0.597402  1
  Dy  Dy8  1  0.656078  0.167522  0.621794  1
  Dy  Dy9  1  0.156106  0.332150  0.878148  1
  Dy  Dy10  1  0.344009  0.832359  0.121980  1
  Dy  Dy11  1  0.844059  0.667572  0.378043  1
  Dy  Dy12  1  0.344009  0.832359  0.378020  1
  Dy  Dy13  1  0.844059  0.667572  0.121957  1
  Dy  Dy14  1  0.656078  0.167522  0.878206  1
  Dy  Dy15  1  0.156106  0.332150  0.621852  1
  Dy  Dy16  1  0.820150  0.506929  0.750000  1
  Ho  Ho17  1  0.320915  0.993551  0.750000  1
  Ho  Ho18  1  0.179388  0.493317  0.250000  1
  Ho  Ho19  1  0.679437  0.006589  0.250000  1
  Pt  Pt20  1  0.675797  0.966350  0.454547  1
  Pt  Pt21  1  0.175877  0.533530  0.045331  1
  Pt  Pt22  1  0.324222  0.033721  0.954813  1
  Pt  Pt23  1  0.823992  0.466426  0.545061  1
  Pt  Pt24  1  0.324222  0.033721  0.545187  1
  Pt  Pt25  1  0.823992  0.466426  0.954939  1
  Pt  Pt26  1  0.675797  0.966350  0.045453  1
  Pt  Pt27  1  0.175877  0.533530  0.454669  1
  Pt  Pt28  1  0.449558  0.372557  0.750000  1
  Pt  Pt29  1  0.950183  0.126331  0.750000  1
  Pt  Pt30  1  0.550055  0.626875  0.250000  1
  Pt  Pt31  1  0.050050  0.872921  0.250000  1
  Pt  Pt32  1  0.686578  0.865150  0.750000  1
  Pt  Pt33  1  0.187526  0.635683  0.750000  1
  Pt  Pt34  1  0.312918  0.135391  0.250000  1
  Pt  Pt35  1  0.813052  0.364449  0.250000  1
