# generated using pymatgen
data_LiDy3Al2Ge2Pt
_symmetry_space_group_name_H-M   'P 1'
_cell_length_a   7.05403500
_cell_length_b   6.93828888
_cell_length_c   4.28715400
_cell_angle_alpha   90.00000000
_cell_angle_beta   90.00000000
_cell_angle_gamma   120.55339046
_symmetry_Int_Tables_number   1
_chemical_formula_structural   LiDy3Al2Ge2Pt
_chemical_formula_sum   'Li1 Dy3 Al2 Ge2 Pt1'
_cell_volume   180.69279027
_cell_formula_units_Z   1
loop_
 _symmetry_equiv_pos_site_id
 _symmetry_equiv_pos_as_xyz
  1  'x, y, z'
loop_
 _atom_site_type_symbol
 _atom_site_label
 _atom_site_symmetry_multiplicity
 _atom_site_fract_x
 _atom_site_fract_y
 _atom_site_fract_z
 _atom_site_occupancy
  Li  Li0  1  0.763560  0.000000  0.500000  1
  Dy  Dy1  1  0.420623  0.000000  0.000000  1
  Dy  Dy2  1  0.996171  0.411266  0.000000  1
  Dy  Dy3  1  0.584904  0.588734  0.000000  1
  Al  Al4  1  0.226114  0.230862  0.500000  1
  Al  Al5  1  0.995252  0.769138  0.500000  1
  Ge  Ge6  1  0.665373  0.336115  0.500000  1
  Ge  Ge7  1  0.329259  0.663884  0.500000  1
  Pt  Pt8  1  0.018742  0.000000  0.000000  1
