# generated using pymatgen
data_Dy5ErCo16(ReP6)2
_symmetry_space_group_name_H-M   'P 1'
_cell_length_a   3.71437300
_cell_length_b   10.50982873
_cell_length_c   12.20683236
_cell_angle_alpha   90.09665755
_cell_angle_beta   90.00000000
_cell_angle_gamma   90.00000000
_symmetry_Int_Tables_number   1
_chemical_formula_structural   Dy5ErCo16(ReP6)2
_chemical_formula_sum   'Dy5 Er1 Co16 Re2 P12'
_cell_volume   476.52261302
_cell_formula_units_Z   1
loop_
 _symmetry_equiv_pos_site_id
 _symmetry_equiv_pos_as_xyz
  1  'x, y, z'
loop_
 _atom_site_type_symbol
 _atom_site_label
 _atom_site_symmetry_multiplicity
 _atom_site_fract_x
 _atom_site_fract_y
 _atom_site_fract_z
 _atom_site_occupancy
  Dy  Dy0  1  0.000000  0.499821  0.524553  1
  Dy  Dy1  1  0.500000  0.999861  0.475228  1
  Dy  Dy2  1  0.500000  0.181613  0.205871  1
  Dy  Dy3  1  0.000000  0.681885  0.793951  1
  Dy  Dy4  1  0.000000  0.318178  0.794374  1
  Er  Er5  1  0.500000  0.818278  0.205821  1
  Co  Co6  1  0.500000  0.500028  0.702066  1
  Co  Co7  1  0.000000  0.999496  0.297697  1
  Co  Co8  1  0.000000  0.500513  0.988213  1
  Co  Co9  1  0.500000  0.999486  0.012395  1
  Co  Co10  1  0.500000  0.332627  0.990193  1
  Co  Co11  1  0.500000  0.667983  0.990069  1
  Co  Co12  1  0.000000  0.167240  0.010236  1
  Co  Co13  1  0.000000  0.832397  0.010851  1
  Co  Co14  1  0.500000  0.296380  0.430938  1
  Co  Co15  1  0.500000  0.703327  0.430271  1
  Co  Co16  1  0.000000  0.203254  0.569060  1
  Co  Co17  1  0.000000  0.796456  0.568531  1
  Co  Co18  1  0.500000  0.879173  0.708186  1
  Co  Co19  1  0.500000  0.120714  0.708680  1
  Co  Co20  1  0.000000  0.621540  0.291136  1
  Co  Co21  1  0.000000  0.379500  0.291443  1
  Re  Re22  1  0.500000  0.500616  0.156690  1
  Re  Re23  1  0.000000  0.999707  0.843681  1
  P  P24  1  0.500000  0.500186  0.880360  1
  P  P25  1  0.000000  0.999505  0.120198  1
  P  P26  1  0.500000  0.499810  0.349231  1
  P  P27  1  0.000000  0.999968  0.650697  1
  P  P28  1  0.500000  0.311443  0.615989  1
  P  P29  1  0.500000  0.688448  0.615577  1
  P  P30  1  0.000000  0.188304  0.383983  1
  P  P31  1  0.000000  0.811680  0.383171  1
  P  P32  1  0.500000  0.845920  0.892209  1
  P  P33  1  0.500000  0.154019  0.892727  1
  P  P34  1  0.000000  0.654778  0.108147  1
  P  P35  1  0.000000  0.345864  0.107580  1
