# generated using pymatgen
data_La2CeNd(AlRh)4
_symmetry_space_group_name_H-M   'P 1'
_cell_length_a   4.24670000
_cell_length_b   7.24459788
_cell_length_c   16.13431304
_cell_angle_alpha   91.29345086
_cell_angle_beta   90.00000000
_cell_angle_gamma   90.00000000
_symmetry_Int_Tables_number   1
_chemical_formula_structural   La2CeNd(AlRh)4
_chemical_formula_sum   'La4 Ce2 Nd2 Al8 Rh8'
_cell_volume   496.25588671
_cell_formula_units_Z   2
loop_
 _symmetry_equiv_pos_site_id
 _symmetry_equiv_pos_as_xyz
  1  'x, y, z'
loop_
 _atom_site_type_symbol
 _atom_site_label
 _atom_site_symmetry_multiplicity
 _atom_site_fract_x
 _atom_site_fract_y
 _atom_site_fract_z
 _atom_site_occupancy
  La  La0  1  0.250000  0.158901  0.561594  1
  La  La1  1  0.750000  0.841099  0.438406  1
  La  La2  1  0.250000  0.658596  0.938506  1
  La  La3  1  0.750000  0.341404  0.061494  1
  Ce  Ce4  1  0.250000  0.527625  0.719071  1
  Ce  Ce5  1  0.750000  0.472375  0.280929  1
  Nd  Nd6  1  0.250000  0.027594  0.779180  1
  Nd  Nd7  1  0.750000  0.972406  0.220820  1
  Al  Al8  1  0.250000  0.151062  0.348089  1
  Al  Al9  1  0.750000  0.848938  0.651911  1
  Al  Al10  1  0.250000  0.652904  0.150323  1
  Al  Al11  1  0.750000  0.347096  0.849677  1
  Al  Al12  1  0.250000  0.004099  0.063807  1
  Al  Al13  1  0.750000  0.995901  0.936193  1
  Al  Al14  1  0.250000  0.502081  0.440104  1
  Al  Al15  1  0.750000  0.497919  0.559896  1
  Rh  Rh16  1  0.750000  0.280248  0.423136  1
  Rh  Rh17  1  0.250000  0.719752  0.576864  1
  Rh  Rh18  1  0.750000  0.784179  0.068672  1
  Rh  Rh19  1  0.250000  0.215821  0.931328  1
  Rh  Rh20  1  0.750000  0.713952  0.811566  1
  Rh  Rh21  1  0.250000  0.286048  0.188434  1
  Rh  Rh22  1  0.750000  0.258952  0.681667  1
  Rh  Rh23  1  0.250000  0.741048  0.318333  1
