# generated using pymatgen
data_Tb5Y5(In3Br)2
_symmetry_space_group_name_H-M   'P 1'
_cell_length_a   9.20467200
_cell_length_b   9.20256869
_cell_length_c   6.74912900
_cell_angle_alpha   90.00000000
_cell_angle_beta   90.00000000
_cell_angle_gamma   120.00756089
_symmetry_Int_Tables_number   1
_chemical_formula_structural   Tb5Y5(In3Br)2
_chemical_formula_sum   'Tb5 Y5 In6 Br2'
_cell_volume   495.06548906
_cell_formula_units_Z   1
loop_
 _symmetry_equiv_pos_site_id
 _symmetry_equiv_pos_as_xyz
  1  'x, y, z'
loop_
 _atom_site_type_symbol
 _atom_site_label
 _atom_site_symmetry_multiplicity
 _atom_site_fract_x
 _atom_site_fract_y
 _atom_site_fract_z
 _atom_site_occupancy
  Tb  Tb0  1  0.734261  0.734319  0.250000  1
  Tb  Tb1  1  0.000078  0.734253  0.750000  1
  Tb  Tb2  1  0.734483  0.000000  0.750000  1
  Tb  Tb3  1  0.265825  0.265747  0.750000  1
  Tb  Tb4  1  0.999942  0.265681  0.250000  1
  Y  Y5  1  0.333295  0.666850  0.500001  1
  Y  Y6  1  0.666447  0.333150  0.500001  1
  Y  Y7  1  0.265686  0.000000  0.250000  1
  Y  Y8  1  0.333295  0.666850  0.999999  1
  Y  Y9  1  0.666447  0.333150  0.999999  1
  In  In10  1  0.393459  0.000000  0.750000  1
  In  In11  1  0.000444  0.606839  0.250000  1
  In  In12  1  0.606181  0.000000  0.250000  1
  In  In13  1  0.999831  0.393512  0.750000  1
  In  In14  1  0.393605  0.393161  0.250000  1
  In  In15  1  0.606319  0.606488  0.750000  1
  Br  Br16  1  0.000201  0.000000  0.499762  1
  Br  Br17  1  0.000201  0.000000  0.000238  1
