# generated using pymatgen
data_Sm2B4Ru2Rh3
_symmetry_space_group_name_H-M   'P 1'
_cell_length_a   7.52736496
_cell_length_b   6.37800270
_cell_length_c   5.60312541
_cell_angle_alpha   77.54680396
_cell_angle_beta   55.82989425
_cell_angle_gamma   46.62331945
_symmetry_Int_Tables_number   1
_chemical_formula_structural   Sm2B4Ru2Rh3
_chemical_formula_sum   'Sm2 B4 Ru2 Rh3'
_cell_volume   155.16759917
_cell_formula_units_Z   1
loop_
 _symmetry_equiv_pos_site_id
 _symmetry_equiv_pos_as_xyz
  1  'x, y, z'
loop_
 _atom_site_type_symbol
 _atom_site_label
 _atom_site_symmetry_multiplicity
 _atom_site_fract_x
 _atom_site_fract_y
 _atom_site_fract_z
 _atom_site_occupancy
  Sm  Sm0  1  0.856099  0.856099  0.143901  1
  Sm  Sm1  1  0.143901  0.143901  0.856099  1
  B  B2  1  0.795768  0.471303  0.528697  1
  B  B3  1  0.204232  0.528697  0.471303  1
  B  B4  1  0.528697  0.204232  0.795768  1
  B  B5  1  0.471303  0.795768  0.204232  1
  Ru  Ru6  1  0.750000  0.750000  0.750000  1
  Ru  Ru7  1  0.250000  0.250000  0.250000  1
  Rh  Rh8  1  0.500000  0.500000  0.000000  1
  Rh  Rh9  1  0.500000  0.500000  0.500000  1
  Rh  Rh10  1  0.000000  0.000000  0.500000  1
