# generated using pymatgen
data_DyTmCoNi3B4
_symmetry_space_group_name_H-M   'P 1'
_cell_length_a   4.89527846
_cell_length_b   4.93060408
_cell_length_c   6.92080752
_cell_angle_alpha   58.94201675
_cell_angle_beta   59.37290065
_cell_angle_gamma   63.26206440
_symmetry_Int_Tables_number   1
_chemical_formula_structural   DyTmCoNi3B4
_chemical_formula_sum   'Dy1 Tm1 Co1 Ni3 B4'
_cell_volume   119.10483105
_cell_formula_units_Z   1
loop_
 _symmetry_equiv_pos_site_id
 _symmetry_equiv_pos_as_xyz
  1  'x, y, z'
loop_
 _atom_site_type_symbol
 _atom_site_label
 _atom_site_symmetry_multiplicity
 _atom_site_fract_x
 _atom_site_fract_y
 _atom_site_fract_z
 _atom_site_occupancy
  Dy  Dy0  1  0.872416  0.118875  0.758297  1
  Tm  Tm1  1  0.119847  0.876591  0.255188  1
  Co  Co2  1  0.466255  0.280649  0.201341  1
  Ni  Ni3  1  0.729033  0.533403  0.297320  1
  Ni  Ni4  1  0.534510  0.728681  0.793958  1
  Ni  Ni5  1  0.274551  0.469610  0.699398  1
  B  B6  1  0.166109  0.494569  0.022417  1
  B  B7  1  0.495675  0.848280  0.472768  1
  B  B8  1  0.842261  0.484784  0.981623  1
  B  B9  1  0.499343  0.164559  0.517690  1
