# generated using pymatgen
data_Tb12Co4SnPd
_symmetry_space_group_name_H-M   'P 1'
_cell_length_a   8.34831130
_cell_length_b   8.34831163
_cell_length_c   8.34831141
_cell_angle_alpha   111.44582237
_cell_angle_beta   109.68805501
_cell_angle_gamma   107.30629523
_symmetry_Int_Tables_number   1
_chemical_formula_structural   Tb12Co4SnPd
_chemical_formula_sum   'Tb12 Co4 Sn1 Pd1'
_cell_volume   447.30576471
_cell_formula_units_Z   1
loop_
 _symmetry_equiv_pos_site_id
 _symmetry_equiv_pos_as_xyz
  1  'x, y, z'
loop_
 _atom_site_type_symbol
 _atom_site_label
 _atom_site_symmetry_multiplicity
 _atom_site_fract_x
 _atom_site_fract_y
 _atom_site_fract_z
 _atom_site_occupancy
  Tb  Tb0  1  0.415766  0.219445  0.196321  1
  Tb  Tb1  1  0.584234  0.780555  0.803679  1
  Tb  Tb2  1  0.023124  0.219445  0.803679  1
  Tb  Tb3  1  0.976876  0.780555  0.196321  1
  Tb  Tb4  1  0.182977  0.289424  0.472401  1
  Tb  Tb5  1  0.817023  0.710576  0.527599  1
  Tb  Tb6  1  0.182977  0.710576  0.893552  1
  Tb  Tb7  1  0.817023  0.289424  0.106448  1
  Tb  Tb8  1  0.322641  0.633921  0.311280  1
  Tb  Tb9  1  0.677359  0.366079  0.688720  1
  Tb  Tb10  1  0.322641  0.011361  0.688720  1
  Tb  Tb11  1  0.677359  0.988639  0.311280  1
  Co  Co12  1  0.355643  0.000000  0.355643  1
  Co  Co13  1  0.644357  0.000000  0.644357  1
  Co  Co14  1  0.113273  0.613273  0.500000  1
  Co  Co15  1  0.886727  0.386727  0.500000  1
  Sn  Sn16  1  0.500000  0.500000  0.000000  1
  Pd  Pd17  1  0.000000  0.000000  0.000000  1
