# generated using pymatgen
data_Ho3Tm(InAu2)2
_symmetry_space_group_name_H-M   'P 1'
_cell_length_a   7.99840407
_cell_length_b   7.99840407
_cell_length_c   7.30384700
_cell_angle_alpha   90.00000000
_cell_angle_beta   90.00000000
_cell_angle_gamma   90.23672193
_symmetry_Int_Tables_number   1
_chemical_formula_structural   Ho3Tm(InAu2)2
_chemical_formula_sum   'Ho6 Tm2 In4 Au8'
_cell_volume   467.25573530
_cell_formula_units_Z   2
loop_
 _symmetry_equiv_pos_site_id
 _symmetry_equiv_pos_as_xyz
  1  'x, y, z'
loop_
 _atom_site_type_symbol
 _atom_site_label
 _atom_site_symmetry_multiplicity
 _atom_site_fract_x
 _atom_site_fract_y
 _atom_site_fract_z
 _atom_site_occupancy
  Ho  Ho0  1  0.841830  0.158170  0.500000  1
  Ho  Ho1  1  0.158170  0.841830  0.500000  1
  Ho  Ho2  1  0.681728  0.681728  0.500000  1
  Ho  Ho3  1  0.318272  0.318272  0.500000  1
  Ho  Ho4  1  0.181870  0.818130  0.000000  1
  Ho  Ho5  1  0.818130  0.181870  0.000000  1
  Tm  Tm6  1  0.342255  0.342255  0.000000  1
  Tm  Tm7  1  0.657745  0.657745  0.000000  1
  In  In8  1  0.500000  0.000000  0.249882  1
  In  In9  1  0.000000  0.500000  0.750118  1
  In  In10  1  0.500000  0.000000  0.750118  1
  In  In11  1  0.000000  0.500000  0.249882  1
  Au  Au12  1  0.628202  0.371798  0.272353  1
  Au  Au13  1  0.371798  0.628202  0.272353  1
  Au  Au14  1  0.129354  0.129354  0.775101  1
  Au  Au15  1  0.870646  0.870646  0.775101  1
  Au  Au16  1  0.371798  0.628202  0.727647  1
  Au  Au17  1  0.628202  0.371798  0.727647  1
  Au  Au18  1  0.870646  0.870646  0.224899  1
  Au  Au19  1  0.129354  0.129354  0.224899  1
