# generated using pymatgen
data_Tb3Sm5(Si3Pt)4
_symmetry_space_group_name_H-M   'P 1'
_cell_length_a   8.17748900
_cell_length_b   8.17748943
_cell_length_c   8.31235000
_cell_angle_alpha   90.00000000
_cell_angle_beta   90.00000000
_cell_angle_gamma   119.99999421
_symmetry_Int_Tables_number   1
_chemical_formula_structural   Tb3Sm5(Si3Pt)4
_chemical_formula_sum   'Tb3 Sm5 Si12 Pt4'
_cell_volume   481.38708940
_cell_formula_units_Z   1
loop_
 _symmetry_equiv_pos_site_id
 _symmetry_equiv_pos_as_xyz
  1  'x, y, z'
loop_
 _atom_site_type_symbol
 _atom_site_label
 _atom_site_symmetry_multiplicity
 _atom_site_fract_x
 _atom_site_fract_y
 _atom_site_fract_z
 _atom_site_occupancy
  Tb  Tb0  1  0.500422  0.499578  0.750000  1
  Tb  Tb1  1  0.500422  0.000843  0.750000  1
  Tb  Tb2  1  0.999157  0.499578  0.750000  1
  Sm  Sm3  1  0.000000  0.000000  0.250000  1
  Sm  Sm4  1  0.000000  0.000000  0.750000  1
  Sm  Sm5  1  0.499682  0.500318  0.250000  1
  Sm  Sm6  1  0.499682  0.999364  0.250000  1
  Sm  Sm7  1  0.000636  0.500318  0.250000  1
  Si  Si8  1  0.165749  0.834251  0.501733  1
  Si  Si9  1  0.165749  0.331498  0.501733  1
  Si  Si10  1  0.668502  0.834251  0.501733  1
  Si  Si11  1  0.834274  0.165726  0.501546  1
  Si  Si12  1  0.834274  0.668546  0.501546  1
  Si  Si13  1  0.331454  0.165726  0.501546  1
  Si  Si14  1  0.834274  0.165726  0.998454  1
  Si  Si15  1  0.834274  0.668546  0.998454  1
  Si  Si16  1  0.331454  0.165726  0.998454  1
  Si  Si17  1  0.165749  0.834251  0.998267  1
  Si  Si18  1  0.165749  0.331498  0.998267  1
  Si  Si19  1  0.668502  0.834251  0.998267  1
  Pt  Pt20  1  0.333333  0.666667  0.507984  1
  Pt  Pt21  1  0.666667  0.333333  0.506252  1
  Pt  Pt22  1  0.666667  0.333333  0.993748  1
  Pt  Pt23  1  0.333333  0.666667  0.992016  1
