# generated using pymatgen
data_Hf2CrRe2W
_symmetry_space_group_name_H-M   'P 1'
_cell_length_a   5.20833080
_cell_length_b   5.29371031
_cell_length_c   8.63645300
_cell_angle_alpha   90.00000000
_cell_angle_beta   90.00000000
_cell_angle_gamma   120.54375455
_symmetry_Int_Tables_number   1
_chemical_formula_structural   Hf2CrRe2W
_chemical_formula_sum   'Hf4 Cr2 Re4 W2'
_cell_volume   205.07796718
_cell_formula_units_Z   2
loop_
 _symmetry_equiv_pos_site_id
 _symmetry_equiv_pos_as_xyz
  1  'x, y, z'
loop_
 _atom_site_type_symbol
 _atom_site_label
 _atom_site_symmetry_multiplicity
 _atom_site_fract_x
 _atom_site_fract_y
 _atom_site_fract_z
 _atom_site_occupancy
  Hf  Hf0  1  0.334648  0.667673  0.060272  1
  Hf  Hf1  1  0.665352  0.333025  0.560272  1
  Hf  Hf2  1  0.665352  0.333025  0.939728  1
  Hf  Hf3  1  0.334648  0.667673  0.439728  1
  Cr  Cr4  1  0.660636  0.828557  0.750000  1
  Cr  Cr5  1  0.339364  0.167922  0.250000  1
  Re  Re6  1  0.000000  0.001814  0.000000  1
  Re  Re7  1  0.000000  0.001814  0.500000  1
  Re  Re8  1  0.825205  0.168637  0.250000  1
  Re  Re9  1  0.174795  0.343431  0.750000  1
  W  W10  1  0.826666  0.656549  0.250000  1
  W  W11  1  0.173334  0.829882  0.750000  1
