# generated using pymatgen
data_Dy6Zn17Pt6S
_symmetry_space_group_name_H-M   'P 1'
_cell_length_a   9.04975412
_cell_length_b   9.04975385
_cell_length_c   9.04975500
_cell_angle_alpha   59.99999945
_cell_angle_beta   60.00000044
_cell_angle_gamma   59.99999931
_symmetry_Int_Tables_number   1
_chemical_formula_structural   Dy6Zn17Pt6S
_chemical_formula_sum   'Dy6 Zn17 Pt6 S1'
_cell_volume   524.07732275
_cell_formula_units_Z   1
loop_
 _symmetry_equiv_pos_site_id
 _symmetry_equiv_pos_as_xyz
  1  'x, y, z'
loop_
 _atom_site_type_symbol
 _atom_site_label
 _atom_site_symmetry_multiplicity
 _atom_site_fract_x
 _atom_site_fract_y
 _atom_site_fract_z
 _atom_site_occupancy
  Dy  Dy0  1  0.717203  0.282797  0.282797  1
  Dy  Dy1  1  0.282797  0.717203  0.717203  1
  Dy  Dy2  1  0.282797  0.717203  0.282797  1
  Dy  Dy3  1  0.717203  0.282797  0.717203  1
  Dy  Dy4  1  0.282797  0.282797  0.717203  1
  Dy  Dy5  1  0.717203  0.717203  0.282797  1
  Zn  Zn6  1  0.124428  0.124428  0.124428  1
  Zn  Zn7  1  0.875572  0.875572  0.875572  1
  Zn  Zn8  1  0.124428  0.124428  0.626718  1
  Zn  Zn9  1  0.124428  0.626718  0.124428  1
  Zn  Zn10  1  0.875572  0.875572  0.373282  1
  Zn  Zn11  1  0.875572  0.373282  0.875572  1
  Zn  Zn12  1  0.626718  0.124428  0.124428  1
  Zn  Zn13  1  0.373282  0.875572  0.875572  1
  Zn  Zn14  1  0.331658  0.331658  0.331658  1
  Zn  Zn15  1  0.668342  0.668342  0.668342  1
  Zn  Zn16  1  0.331658  0.331658  0.005027  1
  Zn  Zn17  1  0.331658  0.005027  0.331658  1
  Zn  Zn18  1  0.668342  0.668342  0.994973  1
  Zn  Zn19  1  0.668342  0.994973  0.668342  1
  Zn  Zn20  1  0.005027  0.331658  0.331658  1
  Zn  Zn21  1  0.994973  0.668342  0.668342  1
  Zn  Zn22  1  0.000000  0.000000  0.000000  1
  Pt  Pt23  1  0.500000  0.000000  0.000000  1
  Pt  Pt24  1  0.000000  0.500000  0.500000  1
  Pt  Pt25  1  0.000000  0.500000  0.000000  1
  Pt  Pt26  1  0.500000  0.000000  0.500000  1
  Pt  Pt27  1  0.000000  0.000000  0.500000  1
  Pt  Pt28  1  0.500000  0.500000  0.000000  1
  S  S29  1  0.500000  0.500000  0.500000  1
