# generated using pymatgen
data_Pu2Ga3Pd
_symmetry_space_group_name_H-M   'P 1'
_cell_length_a   5.57330413
_cell_length_b   5.38748880
_cell_length_c   5.57330400
_cell_angle_alpha   58.85236326
_cell_angle_beta   60.00000079
_cell_angle_gamma   58.85235581
_symmetry_Int_Tables_number   1
_chemical_formula_structural   Pu2Ga3Pd
_chemical_formula_sum   'Pu2 Ga3 Pd1'
_cell_volume   116.23619426
_cell_formula_units_Z   1
loop_
 _symmetry_equiv_pos_site_id
 _symmetry_equiv_pos_as_xyz
  1  'x, y, z'
loop_
 _atom_site_type_symbol
 _atom_site_label
 _atom_site_symmetry_multiplicity
 _atom_site_fract_x
 _atom_site_fract_y
 _atom_site_fract_z
 _atom_site_occupancy
  Pu  Pu0  1  0.244691  0.265928  0.244691  1
  Pu  Pu1  1  0.005309  0.984072  0.005309  1
  Ga  Ga2  1  0.625000  0.625000  0.125000  1
  Ga  Ga3  1  0.125000  0.625000  0.625000  1
  Ga  Ga4  1  0.625000  0.625000  0.625000  1
  Pd  Pd5  1  0.625000  0.125000  0.625000  1
