# generated using pymatgen
data_CaLa6IrI12
_symmetry_space_group_name_H-M   'P 1'
_cell_length_a   10.19969577
_cell_length_b   10.19969587
_cell_length_c   10.19969559
_cell_angle_alpha   107.13030061
_cell_angle_beta   107.13029321
_cell_angle_gamma   107.13029449
_symmetry_Int_Tables_number   1
_chemical_formula_structural   CaLa6IrI12
_chemical_formula_sum   'Ca1 La6 Ir1 I12'
_cell_volume   880.54523322
_cell_formula_units_Z   1
loop_
 _symmetry_equiv_pos_site_id
 _symmetry_equiv_pos_as_xyz
  1  'x, y, z'
loop_
 _atom_site_type_symbol
 _atom_site_label
 _atom_site_symmetry_multiplicity
 _atom_site_fract_x
 _atom_site_fract_y
 _atom_site_fract_z
 _atom_site_occupancy
  Ca  Ca0  1  0.500000  0.500000  0.500000  1
  La  La1  1  0.308185  0.096745  0.031549  1
  La  La2  1  0.031549  0.308185  0.096745  1
  La  La3  1  0.096745  0.031548  0.308185  1
  La  La4  1  0.903255  0.968452  0.691816  1
  La  La5  1  0.968451  0.691816  0.903256  1
  La  La6  1  0.691816  0.903255  0.968452  1
  Ir  Ir7  1  0.000000  0.000000  0.000000  1
  I  I8  1  0.685787  0.232292  0.075213  1
  I  I9  1  0.391877  0.460012  0.162348  1
  I  I10  1  0.075213  0.685786  0.232293  1
  I  I11  1  0.767708  0.924788  0.314213  1
  I  I12  1  0.460012  0.162348  0.391877  1
  I  I13  1  0.162348  0.391877  0.460012  1
  I  I14  1  0.837652  0.608124  0.539988  1
  I  I15  1  0.539988  0.837653  0.608123  1
  I  I16  1  0.232293  0.075213  0.685787  1
  I  I17  1  0.924787  0.314214  0.767708  1
  I  I18  1  0.608124  0.539988  0.837652  1
  I  I19  1  0.314214  0.767708  0.924787  1
