# generated using pymatgen
data_Cs2Lu2MgMnTe6
_symmetry_space_group_name_H-M   'P 1'
_cell_length_a   8.87938295
_cell_length_b   8.87938263
_cell_length_c   11.63916900
_cell_angle_alpha   90.00000000
_cell_angle_beta   90.00000000
_cell_angle_gamma   150.52323733
_symmetry_Int_Tables_number   1
_chemical_formula_structural   Cs2Lu2MgMnTe6
_chemical_formula_sum   'Cs2 Lu2 Mg1 Mn1 Te6'
_cell_volume   451.55940157
_cell_formula_units_Z   1
loop_
 _symmetry_equiv_pos_site_id
 _symmetry_equiv_pos_as_xyz
  1  'x, y, z'
loop_
 _atom_site_type_symbol
 _atom_site_label
 _atom_site_symmetry_multiplicity
 _atom_site_fract_x
 _atom_site_fract_y
 _atom_site_fract_z
 _atom_site_occupancy
  Cs  Cs0  1  0.247750  0.752249  0.250000  1
  Cs  Cs1  1  0.752256  0.247743  0.750000  1
  Lu  Lu2  1  0.500313  0.499687  0.001957  1
  Lu  Lu3  1  0.500313  0.499687  0.498043  1
  Mg  Mg4  1  0.035410  0.964589  0.750000  1
  Mn  Mn5  1  0.964663  0.035336  0.250000  1
  Te  Te6  1  0.883440  0.116559  0.052556  1
  Te  Te7  1  0.558915  0.441084  0.250000  1
  Te  Te8  1  0.883440  0.116559  0.447443  1
  Te  Te9  1  0.118253  0.881746  0.546733  1
  Te  Te10  1  0.436987  0.563012  0.750000  1
  Te  Te11  1  0.118253  0.881746  0.953267  1
