# generated using pymatgen
data_KAlSiS4
_symmetry_space_group_name_H-M   'P 1'
_cell_length_a   15.95534800
_cell_length_b   6.86269359
_cell_length_c   7.28643760
_cell_angle_alpha   70.68728274
_cell_angle_beta   90.00000000
_cell_angle_gamma   90.00000000
_symmetry_Int_Tables_number   1
_chemical_formula_structural   KAlSiS4
_chemical_formula_sum   'K4 Al4 Si4 S16'
_cell_volume   752.94418101
_cell_formula_units_Z   4
loop_
 _symmetry_equiv_pos_site_id
 _symmetry_equiv_pos_as_xyz
  1  'x, y, z'
loop_
 _atom_site_type_symbol
 _atom_site_label
 _atom_site_symmetry_multiplicity
 _atom_site_fract_x
 _atom_site_fract_y
 _atom_site_fract_z
 _atom_site_occupancy
  K  K0  1  0.391128  0.953805  0.184800  1
  K  K1  1  0.891128  0.046195  0.815200  1
  K  K2  1  0.605488  0.522216  0.821159  1
  K  K3  1  0.105488  0.477784  0.178841  1
  Al  Al4  1  0.583307  0.160387  0.482255  1
  Al  Al5  1  0.083307  0.839613  0.517745  1
  Al  Al6  1  0.273730  0.589486  0.703606  1
  Al  Al7  1  0.773730  0.410514  0.296394  1
  Si  Si8  1  0.421441  0.318435  0.536158  1
  Si  Si9  1  0.921441  0.681565  0.463842  1
  Si  Si10  1  0.725813  0.911242  0.274317  1
  Si  Si11  1  0.225813  0.088758  0.725683  1
  S  S12  1  0.600408  0.882282  0.383168  1
  S  S13  1  0.100408  0.117718  0.616832  1
  S  S14  1  0.411100  0.588929  0.617882  1
  S  S15  1  0.911100  0.411071  0.382118  1
  S  S16  1  0.802336  0.790644  0.534884  1
  S  S17  1  0.302336  0.209356  0.465116  1
  S  S18  1  0.200175  0.718975  0.431357  1
  S  S19  1  0.700175  0.281025  0.568643  1
  S  S20  1  0.759832  0.217518  0.095203  1
  S  S21  1  0.259832  0.782482  0.904797  1
  S  S22  1  0.239266  0.269302  0.913113  1
  S  S23  1  0.739266  0.730698  0.086887  1
  S  S24  1  0.994519  0.911149  0.255042  1
  S  S25  1  0.494519  0.088851  0.744958  1
  S  S26  1  0.991457  0.618759  0.728271  1
  S  S27  1  0.491457  0.381241  0.271729  1
