# generated using pymatgen
data_Nd3Sn3Ir2Au
_symmetry_space_group_name_H-M   'P 1'
_cell_length_a   7.65262300
_cell_length_b   7.65262232
_cell_length_c   4.15562400
_cell_angle_alpha   90.00000000
_cell_angle_beta   90.00000000
_cell_angle_gamma   119.99998999
_symmetry_Int_Tables_number   1
_chemical_formula_structural   Nd3Sn3Ir2Au
_chemical_formula_sum   'Nd3 Sn3 Ir2 Au1'
_cell_volume   210.75967486
_cell_formula_units_Z   1
loop_
 _symmetry_equiv_pos_site_id
 _symmetry_equiv_pos_as_xyz
  1  'x, y, z'
loop_
 _atom_site_type_symbol
 _atom_site_label
 _atom_site_symmetry_multiplicity
 _atom_site_fract_x
 _atom_site_fract_y
 _atom_site_fract_z
 _atom_site_occupancy
  Nd  Nd0  1  0.597625  0.013140  0.000000  1
  Nd  Nd1  1  0.986860  0.584484  0.000000  1
  Nd  Nd2  1  0.415516  0.402375  0.000000  1
  Sn  Sn3  1  0.251813  0.007239  0.500000  1
  Sn  Sn4  1  0.992761  0.244574  0.500000  1
  Sn  Sn5  1  0.755426  0.748187  0.500000  1
  Ir  Ir6  1  0.666667  0.333333  0.500000  1
  Ir  Ir7  1  0.000000  0.000000  0.000000  1
  Au  Au8  1  0.333333  0.666667  0.500000  1
