# generated using pymatgen
data_La3Dy3FeCl10
_symmetry_space_group_name_H-M   'P 1'
_cell_length_a   7.25068806
_cell_length_b   8.98451588
_cell_length_c   8.83063300
_cell_angle_alpha   107.08566902
_cell_angle_beta   95.93363978
_cell_angle_gamma   107.20902620
_symmetry_Int_Tables_number   1
_chemical_formula_structural   La3Dy3FeCl10
_chemical_formula_sum   'La3 Dy3 Fe1 Cl10'
_cell_volume   513.72227070
_cell_formula_units_Z   1
loop_
 _symmetry_equiv_pos_site_id
 _symmetry_equiv_pos_as_xyz
  1  'x, y, z'
loop_
 _atom_site_type_symbol
 _atom_site_label
 _atom_site_symmetry_multiplicity
 _atom_site_fract_x
 _atom_site_fract_y
 _atom_site_fract_z
 _atom_site_occupancy
  La  La0  1  0.113377  0.841939  0.300166  1
  La  La1  1  0.377685  0.951710  0.733921  1
  La  La2  1  0.629316  0.054424  0.266613  1
  Dy  Dy3  1  0.474596  0.309156  0.599893  1
  Dy  Dy4  1  0.532363  0.694281  0.407495  1
  Dy  Dy5  1  0.872163  0.146412  0.685902  1
  Fe  Fe6  1  0.499427  0.000399  0.500178  1
  Cl  Cl7  1  0.422982  0.624412  0.668604  1
  Cl  Cl8  1  0.582289  0.379726  0.337854  1
  Cl  Cl9  1  0.286317  0.262682  0.838003  1
  Cl  Cl10  1  0.683791  0.729896  0.150483  1
  Cl  Cl11  1  0.847907  0.449714  0.771211  1
  Cl  Cl12  1  0.165048  0.535366  0.233976  1
  Cl  Cl13  1  0.053963  0.181947  0.429240  1
  Cl  Cl14  1  0.248022  0.920452  0.040467  1
  Cl  Cl15  1  0.768198  0.089307  0.949441  1
  Cl  Cl16  1  0.942558  0.828179  0.586555  1
