# generated using pymatgen
data_Cs12Rb5Na(GaBi4)2
_symmetry_space_group_name_H-M   'P 1'
_cell_length_a   11.52987700
_cell_length_b   11.41072664
_cell_length_c   12.05979600
_cell_angle_alpha   90.00000000
_cell_angle_beta   90.00000000
_cell_angle_gamma   120.34601390
_symmetry_Int_Tables_number   1
_chemical_formula_structural   Cs12Rb5Na(GaBi4)2
_chemical_formula_sum   'Cs12 Rb5 Na1 Ga2 Bi8'
_cell_volume   1369.25313918
_cell_formula_units_Z   1
loop_
 _symmetry_equiv_pos_site_id
 _symmetry_equiv_pos_as_xyz
  1  'x, y, z'
loop_
 _atom_site_type_symbol
 _atom_site_label
 _atom_site_symmetry_multiplicity
 _atom_site_fract_x
 _atom_site_fract_y
 _atom_site_fract_z
 _atom_site_occupancy
  Cs  Cs0  1  0.207532  0.415063  0.533722  1
  Cs  Cs1  1  0.794346  0.210358  0.044062  1
  Cs  Cs2  1  0.416011  0.210358  0.044062  1
  Cs  Cs3  1  0.579763  0.789885  0.540219  1
  Cs  Cs4  1  0.210124  0.789885  0.540219  1
  Cs  Cs5  1  0.790217  0.580436  0.459399  1
  Cs  Cs6  1  0.794346  0.210358  0.455938  1
  Cs  Cs7  1  0.790217  0.580436  0.040601  1
  Cs  Cs8  1  0.416011  0.210358  0.455938  1
  Cs  Cs9  1  0.579763  0.789885  0.959781  1
  Cs  Cs10  1  0.207532  0.415063  0.966278  1
  Cs  Cs11  1  0.210124  0.789885  0.959781  1
  Rb  Rb12  1  0.880896  0.120762  0.750000  1
  Rb  Rb13  1  0.239865  0.120762  0.750000  1
  Rb  Rb14  1  0.763564  0.883442  0.250000  1
  Rb  Rb15  1  0.119880  0.883442  0.250000  1
  Rb  Rb16  1  0.882606  0.765214  0.750000  1
  Na  Na17  1  0.120423  0.240844  0.250000  1
  Ga  Ga18  1  0.333779  0.667560  0.250000  1
  Ga  Ga19  1  0.666374  0.332748  0.750000  1
  Bi  Bi20  1  0.457636  0.511499  0.250000  1
  Bi  Bi21  1  0.948568  0.476950  0.750000  1
  Bi  Bi22  1  0.524509  0.049019  0.750000  1
  Bi  Bi23  1  0.474992  0.949985  0.250000  1
  Bi  Bi24  1  0.053863  0.511499  0.250000  1
  Bi  Bi25  1  0.528382  0.476950  0.750000  1
  Bi  Bi26  1  0.004338  0.008676  0.007097  1
  Bi  Bi27  1  0.004338  0.008676  0.492903  1
