# generated using pymatgen
data_Hf8Tc3Os4Pd
_symmetry_space_group_name_H-M   'P 1'
_cell_length_a   6.53620801
_cell_length_b   6.53796301
_cell_length_c   6.50802300
_cell_angle_alpha   89.99733864
_cell_angle_beta   90.00333808
_cell_angle_gamma   89.99437309
_symmetry_Int_Tables_number   1
_chemical_formula_structural   Hf8Tc3Os4Pd
_chemical_formula_sum   'Hf8 Tc3 Os4 Pd1'
_cell_volume   278.11050912
_cell_formula_units_Z   1
loop_
 _symmetry_equiv_pos_site_id
 _symmetry_equiv_pos_as_xyz
  1  'x, y, z'
loop_
 _atom_site_type_symbol
 _atom_site_label
 _atom_site_symmetry_multiplicity
 _atom_site_fract_x
 _atom_site_fract_y
 _atom_site_fract_z
 _atom_site_occupancy
  Hf  Hf0  1  0.502987  0.003134  0.252715  1
  Hf  Hf1  1  0.502994  0.496854  0.252714  1
  Hf  Hf2  1  0.996632  0.003167  0.252663  1
  Hf  Hf3  1  0.996658  0.496888  0.252664  1
  Hf  Hf4  1  0.997010  0.003093  0.747297  1
  Hf  Hf5  1  0.997008  0.496841  0.747302  1
  Hf  Hf6  1  0.503349  0.003148  0.747312  1
  Hf  Hf7  1  0.503368  0.496872  0.747313  1
  Tc  Tc8  1  0.750026  0.250000  0.499941  1
  Tc  Tc9  1  0.249970  0.750000  0.500059  1
  Tc  Tc10  1  0.749966  0.250001  0.999942  1
  Os  Os11  1  0.249987  0.250000  0.000099  1
  Os  Os12  1  0.749988  0.750000  0.499908  1
  Os  Os13  1  0.250008  0.250000  0.500086  1
  Os  Os14  1  0.749993  0.750001  0.999896  1
  Pd  Pd15  1  0.250059  0.750001  0.000091  1
