# generated using pymatgen
data_Y2Hf2PtRh
_symmetry_space_group_name_H-M   'P 1'
_cell_length_a   4.66818500
_cell_length_b   7.06917200
_cell_length_c   8.21063200
_cell_angle_alpha   90.00000000
_cell_angle_beta   90.00000000
_cell_angle_gamma   90.00000000
_symmetry_Int_Tables_number   1
_chemical_formula_structural   Y2Hf2PtRh
_chemical_formula_sum   'Y4 Hf4 Pt2 Rh2'
_cell_volume   270.95252024
_cell_formula_units_Z   2
loop_
 _symmetry_equiv_pos_site_id
 _symmetry_equiv_pos_as_xyz
  1  'x, y, z'
loop_
 _atom_site_type_symbol
 _atom_site_label
 _atom_site_symmetry_multiplicity
 _atom_site_fract_x
 _atom_site_fract_y
 _atom_site_fract_z
 _atom_site_occupancy
  Y  Y0  1  0.250000  0.982350  0.322262  1
  Y  Y1  1  0.250000  0.482350  0.177738  1
  Y  Y2  1  0.750000  0.017138  0.676810  1
  Y  Y3  1  0.750000  0.517138  0.823190  1
  Hf  Hf4  1  0.250000  0.355628  0.574331  1
  Hf  Hf5  1  0.250000  0.855628  0.925669  1
  Hf  Hf6  1  0.750000  0.639448  0.422988  1
  Hf  Hf7  1  0.750000  0.139448  0.077012  1
  Pt  Pt8  1  0.250000  0.229862  0.904039  1
  Pt  Pt9  1  0.250000  0.729862  0.595961  1
  Rh  Rh10  1  0.750000  0.775574  0.091264  1
  Rh  Rh11  1  0.750000  0.275574  0.408736  1
