# generated using pymatgen
data_TbYEr2(Al3Rh)6
_symmetry_space_group_name_H-M   'P 1'
_cell_length_a   7.54539130
_cell_length_b   7.54659964
_cell_length_c   9.45989400
_cell_angle_alpha   90.00000000
_cell_angle_beta   90.00000000
_cell_angle_gamma   119.32235180
_symmetry_Int_Tables_number   1
_chemical_formula_structural   TbYEr2(Al3Rh)6
_chemical_formula_sum   'Tb1 Y1 Er2 Al18 Rh6'
_cell_volume   469.65095766
_cell_formula_units_Z   1
loop_
 _symmetry_equiv_pos_site_id
 _symmetry_equiv_pos_as_xyz
  1  'x, y, z'
loop_
 _atom_site_type_symbol
 _atom_site_label
 _atom_site_symmetry_multiplicity
 _atom_site_fract_x
 _atom_site_fract_y
 _atom_site_fract_z
 _atom_site_occupancy
  Tb  Tb0  1  0.671538  0.994452  0.750000  1
  Y  Y1  1  0.994455  0.671452  0.750000  1
  Er  Er2  1  0.005470  0.328265  0.250000  1
  Er  Er3  1  0.328383  0.005654  0.250000  1
  Al  Al4  1  0.128331  0.128551  0.750000  1
  Al  Al5  1  0.872136  0.872321  0.250000  1
  Al  Al6  1  0.001192  0.335503  0.574064  1
  Al  Al7  1  0.999347  0.664327  0.424122  1
  Al  Al8  1  0.999347  0.664327  0.075878  1
  Al  Al9  1  0.335494  0.001169  0.925938  1
  Al  Al10  1  0.001192  0.335503  0.925936  1
  Al  Al11  1  0.664301  0.999333  0.075642  1
  Al  Al12  1  0.664301  0.999333  0.424358  1
  Al  Al13  1  0.335494  0.001169  0.574062  1
  Al  Al14  1  0.332750  0.332776  0.051104  1
  Al  Al15  1  0.666897  0.666867  0.950978  1
  Al  Al16  1  0.666897  0.666867  0.549022  1
  Al  Al17  1  0.332750  0.332776  0.448896  1
  Al  Al18  1  0.339679  0.549851  0.750000  1
  Al  Al19  1  0.660329  0.449660  0.250000  1
  Al  Al20  1  0.549702  0.338960  0.750000  1
  Al  Al21  1  0.449658  0.660538  0.250000  1
  Rh  Rh22  1  0.671924  0.327788  0.499413  1
  Rh  Rh23  1  0.327648  0.671871  0.499448  1
  Rh  Rh24  1  0.327648  0.671871  0.000552  1
  Rh  Rh25  1  0.671924  0.327788  0.000587  1
  Rh  Rh26  1  0.000607  0.000515  0.499159  1
  Rh  Rh27  1  0.000607  0.000515  0.000841  1
