# generated using pymatgen
data_La7Ni2Ir
_symmetry_space_group_name_H-M   'P 1'
_cell_length_a   10.15273242
_cell_length_b   10.12813782
_cell_length_c   6.49648018
_cell_angle_alpha   89.69711549
_cell_angle_beta   90.60431557
_cell_angle_gamma   120.08036479
_symmetry_Int_Tables_number   1
_chemical_formula_structural   La7Ni2Ir
_chemical_formula_sum   'La14 Ni4 Ir2'
_cell_volume   578.02266743
_cell_formula_units_Z   2
loop_
 _symmetry_equiv_pos_site_id
 _symmetry_equiv_pos_as_xyz
  1  'x, y, z'
loop_
 _atom_site_type_symbol
 _atom_site_label
 _atom_site_symmetry_multiplicity
 _atom_site_fract_x
 _atom_site_fract_y
 _atom_site_fract_z
 _atom_site_occupancy
  La  La0  1  0.461742  0.537878  0.316797  1
  La  La1  1  0.333490  0.665632  0.780656  1
  La  La2  1  0.872894  0.127037  0.494488  1
  La  La3  1  0.745857  0.872963  0.994488  1
  La  La4  1  0.873015  0.748107  0.496693  1
  La  La5  1  0.076706  0.536235  0.316339  1
  La  La6  1  0.125440  0.873496  0.998078  1
  La  La7  1  0.539733  0.076640  0.814374  1
  La  La8  1  0.923865  0.462122  0.816797  1
  La  La9  1  0.667858  0.334368  0.280656  1
  La  La10  1  0.463092  0.923360  0.314374  1
  La  La11  1  0.251943  0.126504  0.498078  1
  La  La12  1  0.540471  0.463765  0.816339  1
  La  La13  1  0.124907  0.251893  0.996693  1
  Ni  Ni14  1  0.811869  0.624262  0.050187  1
  Ni  Ni15  1  0.187607  0.375738  0.550187  1
  Ni  Ni16  1  0.814219  0.189588  0.051588  1
  Ni  Ni17  1  0.624631  0.810412  0.551588  1
  Ir  Ir18  1  0.374783  0.188904  0.051800  1
  Ir  Ir19  1  0.185879  0.811096  0.551800  1
