# generated using pymatgen
data_Ag2Bi4AuO12
_symmetry_space_group_name_H-M   'P 1'
_cell_length_a   7.23904948
_cell_length_b   7.23904937
_cell_length_c   7.23904959
_cell_angle_alpha   109.75011766
_cell_angle_beta   109.89116143
_cell_angle_gamma   108.77465431
_symmetry_Int_Tables_number   1
_chemical_formula_structural   Ag2Bi4AuO12
_chemical_formula_sum   'Ag2 Bi4 Au1 O12'
_cell_volume   291.99404095
_cell_formula_units_Z   1
loop_
 _symmetry_equiv_pos_site_id
 _symmetry_equiv_pos_as_xyz
  1  'x, y, z'
loop_
 _atom_site_type_symbol
 _atom_site_label
 _atom_site_symmetry_multiplicity
 _atom_site_fract_x
 _atom_site_fract_y
 _atom_site_fract_z
 _atom_site_occupancy
  Ag  Ag0  1  0.500000  0.500000  0.000000  1
  Ag  Ag1  1  0.000000  0.500000  0.500000  1
  Bi  Bi2  1  0.500000  0.500000  0.500000  1
  Bi  Bi3  1  0.000000  0.500000  0.000000  1
  Bi  Bi4  1  0.000000  0.000000  0.500000  1
  Bi  Bi5  1  0.500000  0.000000  0.000000  1
  Au  Au6  1  0.500000  0.000000  0.500000  1
  O  O7  1  0.328538  0.826831  0.155371  1
  O  O8  1  0.671462  0.173169  0.844629  1
  O  O9  1  0.671462  0.826831  0.498294  1
  O  O10  1  0.849744  0.673138  0.176607  1
  O  O11  1  0.828045  0.151019  0.322974  1
  O  O12  1  0.171955  0.494928  0.322974  1
  O  O13  1  0.503468  0.326862  0.176607  1
  O  O14  1  0.171955  0.848981  0.677026  1
  O  O15  1  0.328538  0.173169  0.501706  1
  O  O16  1  0.150256  0.326862  0.823393  1
  O  O17  1  0.828045  0.505072  0.677026  1
  O  O18  1  0.496532  0.673138  0.823393  1
