# generated using pymatgen
data_Ca2Dy3Lu(GaNi2)6
_symmetry_space_group_name_H-M   'P 1'
_cell_length_a   5.20378000
_cell_length_b   5.20377978
_cell_length_c   15.79503600
_cell_angle_alpha   90.00000000
_cell_angle_beta   90.00000000
_cell_angle_gamma   119.99998868
_symmetry_Int_Tables_number   1
_chemical_formula_structural   Ca2Dy3Lu(GaNi2)6
_chemical_formula_sum   'Ca2 Dy3 Lu1 Ga6 Ni12'
_cell_volume   370.41548882
_cell_formula_units_Z   1
loop_
 _symmetry_equiv_pos_site_id
 _symmetry_equiv_pos_as_xyz
  1  'x, y, z'
loop_
 _atom_site_type_symbol
 _atom_site_label
 _atom_site_symmetry_multiplicity
 _atom_site_fract_x
 _atom_site_fract_y
 _atom_site_fract_z
 _atom_site_occupancy
  Ca  Ca0  1  0.333333  0.666667  0.751211  1
  Ca  Ca1  1  0.666667  0.333333  0.249525  1
  Dy  Dy2  1  0.333333  0.666667  0.544751  1
  Dy  Dy3  1  0.666667  0.333333  0.455266  1
  Dy  Dy4  1  0.666667  0.333333  0.043297  1
  Lu  Lu5  1  0.333333  0.666667  0.955741  1
  Ga  Ga6  1  0.000000  0.000000  0.249383  1
  Ga  Ga7  1  0.000000  0.000000  0.750554  1
  Ga  Ga8  1  0.333333  0.666667  0.249709  1
  Ga  Ga9  1  0.666667  0.333333  0.750502  1
  Ga  Ga10  1  0.000000  0.000000  0.999594  1
  Ga  Ga11  1  0.000000  0.000000  0.499948  1
  Ni  Ni12  1  0.169247  0.338491  0.124259  1
  Ni  Ni13  1  0.831456  0.662914  0.875834  1
  Ni  Ni14  1  0.661509  0.830753  0.124259  1
  Ni  Ni15  1  0.831347  0.662697  0.625525  1
  Ni  Ni16  1  0.337086  0.168544  0.875834  1
  Ni  Ni17  1  0.168692  0.337382  0.374554  1
  Ni  Ni18  1  0.169247  0.830753  0.124259  1
  Ni  Ni19  1  0.337303  0.168653  0.625525  1
  Ni  Ni20  1  0.831456  0.168544  0.875834  1
  Ni  Ni21  1  0.662618  0.831308  0.374554  1
  Ni  Ni22  1  0.831347  0.168653  0.625525  1
  Ni  Ni23  1  0.168692  0.831308  0.374554  1
