# generated using pymatgen
data_Ta6ZnGa5Os12
_symmetry_space_group_name_H-M   'P 1'
_cell_length_a   4.41334600
_cell_length_b   6.25323000
_cell_length_c   13.24451400
_cell_angle_alpha   89.99996438
_cell_angle_beta   90.00098217
_cell_angle_gamma   89.99846438
_symmetry_Int_Tables_number   1
_chemical_formula_structural   Ta6ZnGa5Os12
_chemical_formula_sum   'Ta6 Zn1 Ga5 Os12'
_cell_volume   365.51769490
_cell_formula_units_Z   1
loop_
 _symmetry_equiv_pos_site_id
 _symmetry_equiv_pos_as_xyz
  1  'x, y, z'
loop_
 _atom_site_type_symbol
 _atom_site_label
 _atom_site_symmetry_multiplicity
 _atom_site_fract_x
 _atom_site_fract_y
 _atom_site_fract_z
 _atom_site_occupancy
  Ta  Ta0  1  0.000000  0.500001  0.000000  1
  Ta  Ta1  1  0.499749  0.000000  0.164567  1
  Ta  Ta2  1  0.999764  0.500001  0.332534  1
  Ta  Ta3  1  0.499999  0.000000  0.500000  1
  Ta  Ta4  1  0.000235  0.500001  0.667466  1
  Ta  Ta5  1  0.500251  0.000000  0.835433  1
  Zn  Zn6  1  0.000000  0.000000  0.000000  1
  Ga  Ga7  1  0.499687  0.500001  0.166238  1
  Ga  Ga8  1  0.999686  0.000000  0.333042  1
  Ga  Ga9  1  0.499999  0.500001  0.500000  1
  Ga  Ga10  1  0.000312  0.000000  0.666958  1
  Ga  Ga11  1  0.500314  0.500001  0.833762  1
  Os  Os12  1  0.500105  0.251295  0.000000  1
  Os  Os13  1  0.499893  0.748705  0.000000  1
  Os  Os14  1  0.999725  0.250223  0.167598  1
  Os  Os15  1  0.999789  0.749777  0.167598  1
  Os  Os16  1  0.499786  0.250261  0.333790  1
  Os  Os17  1  0.499744  0.749739  0.333791  1
  Os  Os18  1  0.999985  0.249647  0.500000  1
  Os  Os19  1  0.000015  0.750353  0.500000  1
  Os  Os20  1  0.500254  0.250261  0.666209  1
  Os  Os21  1  0.500212  0.749739  0.666210  1
  Os  Os22  1  0.000212  0.250223  0.832402  1
  Os  Os23  1  0.000276  0.749777  0.832402  1
