# generated using pymatgen
data_Rb8Y2Er4BBr20
_symmetry_space_group_name_H-M   'P 1'
_cell_length_a   12.30982770
_cell_length_b   12.31939521
_cell_length_c   12.31939571
_cell_angle_alpha   59.94861917
_cell_angle_beta   60.02569327
_cell_angle_gamma   60.02569006
_symmetry_Int_Tables_number   1
_chemical_formula_structural   Rb8Y2Er4BBr20
_chemical_formula_sum   'Rb8 Y2 Er4 B1 Br20'
_cell_volume   1321.03782944
_cell_formula_units_Z   1
loop_
 _symmetry_equiv_pos_site_id
 _symmetry_equiv_pos_as_xyz
  1  'x, y, z'
loop_
 _atom_site_type_symbol
 _atom_site_label
 _atom_site_symmetry_multiplicity
 _atom_site_fract_x
 _atom_site_fract_y
 _atom_site_fract_z
 _atom_site_occupancy
  Rb  Rb0  1  0.360079  0.359462  0.359462  1
  Rb  Rb1  1  0.639921  0.640538  0.640538  1
  Rb  Rb2  1  0.359462  0.360079  0.920998  1
  Rb  Rb3  1  0.359462  0.920998  0.360079  1
  Rb  Rb4  1  0.640538  0.639921  0.079002  1
  Rb  Rb5  1  0.640538  0.079002  0.639921  1
  Rb  Rb6  1  0.920998  0.359462  0.359462  1
  Rb  Rb7  1  0.079002  0.640538  0.640538  1
  Y  Y8  1  0.850159  0.149841  0.149841  1
  Y  Y9  1  0.149841  0.850159  0.850159  1
  Er  Er10  1  0.149690  0.850310  0.149690  1
  Er  Er11  1  0.850310  0.149690  0.850310  1
  Er  Er12  1  0.149690  0.149690  0.850310  1
  Er  Er13  1  0.850310  0.850310  0.149690  1
  B  B14  1  0.000000  0.000000  0.000000  1
  Br  Br15  1  0.326048  0.000000  0.000000  1
  Br  Br16  1  0.673952  0.000000  0.000000  1
  Br  Br17  1  0.000000  0.326048  0.673952  1
  Br  Br18  1  0.000000  0.673952  0.326048  1
  Br  Br19  1  0.001877  0.327953  0.998123  1
  Br  Br20  1  0.672047  0.998123  0.327953  1
  Br  Br21  1  0.998123  0.672047  0.001877  1
  Br  Br22  1  0.327953  0.001877  0.672047  1
  Br  Br23  1  0.001877  0.998123  0.327953  1
  Br  Br24  1  0.998123  0.001877  0.672047  1
  Br  Br25  1  0.672047  0.327953  0.998123  1
  Br  Br26  1  0.327953  0.672047  0.001877  1
  Br  Br27  1  0.682478  0.317522  0.317522  1
  Br  Br28  1  0.317522  0.682478  0.682478  1
  Br  Br29  1  0.315834  0.684166  0.315834  1
  Br  Br30  1  0.684166  0.315834  0.684166  1
  Br  Br31  1  0.315834  0.315834  0.684166  1
  Br  Br32  1  0.684166  0.684166  0.315834  1
  Br  Br33  1  0.250000  0.250000  0.250000  1
  Br  Br34  1  0.750000  0.750000  0.750000  1
