# generated using pymatgen
data_Si6Ag6Sn3GeP12
_symmetry_space_group_name_H-M   'P 1'
_cell_length_a   9.02880068
_cell_length_b   9.01729453
_cell_length_c   9.01729492
_cell_angle_alpha   109.44536117
_cell_angle_beta   109.49706712
_cell_angle_gamma   109.49706929
_symmetry_Int_Tables_number   1
_chemical_formula_structural   Si6Ag6Sn3GeP12
_chemical_formula_sum   'Si6 Ag6 Sn3 Ge1 P12'
_cell_volume   564.96567779
_cell_formula_units_Z   1
loop_
 _symmetry_equiv_pos_site_id
 _symmetry_equiv_pos_as_xyz
  1  'x, y, z'
loop_
 _atom_site_type_symbol
 _atom_site_label
 _atom_site_symmetry_multiplicity
 _atom_site_fract_x
 _atom_site_fract_y
 _atom_site_fract_z
 _atom_site_occupancy
  Si  Si0  1  0.748916  0.498108  0.248964  1
  Si  Si1  1  0.499952  0.751036  0.249144  1
  Si  Si2  1  0.748916  0.248964  0.498108  1
  Si  Si3  1  0.250808  0.750856  0.501892  1
  Si  Si4  1  0.499952  0.249144  0.751036  1
  Si  Si5  1  0.250808  0.501892  0.750856  1
  Ag  Ag6  1  0.199778  0.197522  0.000000  1
  Ag  Ag7  1  0.800041  0.800483  0.000000  1
  Ag  Ag8  1  0.199778  0.000000  0.197522  1
  Ag  Ag9  1  0.999558  0.199517  0.199517  1
  Ag  Ag10  1  0.800041  0.000000  0.800483  1
  Ag  Ag11  1  0.002256  0.802478  0.802478  1
  Sn  Sn12  1  0.000289  0.407925  0.000000  1
  Sn  Sn13  1  0.000289  0.000000  0.407925  1
  Sn  Sn14  1  0.592364  0.592075  0.592075  1
  Ge  Ge15  1  0.419933  0.000000  0.000000  1
  P  P16  1  0.752978  0.501123  0.000000  1
  P  P17  1  0.499693  0.761347  0.000000  1
  P  P18  1  0.738346  0.238653  0.238653  1
  P  P19  1  0.247592  0.749430  0.247959  1
  P  P20  1  0.498163  0.498529  0.250570  1
  P  P21  1  0.498163  0.250570  0.498529  1
  P  P22  1  0.251855  0.498877  0.498877  1
  P  P23  1  0.752978  0.000000  0.501123  1
  P  P24  1  0.999634  0.752041  0.501471  1
  P  P25  1  0.247592  0.247959  0.749430  1
  P  P26  1  0.499693  0.000000  0.761347  1
  P  P27  1  0.999634  0.501471  0.752041  1
