# generated using pymatgen
data_Rb2Ho4Cu4Se9
_symmetry_space_group_name_H-M   'P 1'
_cell_length_a   7.54345055
_cell_length_b   7.54345015
_cell_length_c   16.60755153
_cell_angle_alpha   71.69339286
_cell_angle_beta   71.69339389
_cell_angle_gamma   31.84209518
_symmetry_Int_Tables_number   1
_chemical_formula_structural   Rb2Ho4Cu4Se9
_chemical_formula_sum   'Rb2 Ho4 Cu4 Se9'
_cell_volume   471.23294175
_cell_formula_units_Z   1
loop_
 _symmetry_equiv_pos_site_id
 _symmetry_equiv_pos_as_xyz
  1  'x, y, z'
loop_
 _atom_site_type_symbol
 _atom_site_label
 _atom_site_symmetry_multiplicity
 _atom_site_fract_x
 _atom_site_fract_y
 _atom_site_fract_z
 _atom_site_occupancy
  Rb  Rb0  1  0.032967  0.032967  0.730332  1
  Rb  Rb1  1  0.967033  0.967033  0.269668  1
  Ho  Ho2  1  0.231779  0.231779  0.897074  1
  Ho  Ho3  1  0.345692  0.345692  0.556086  1
  Ho  Ho4  1  0.654308  0.654308  0.443914  1
  Ho  Ho5  1  0.768221  0.768221  0.102926  1
  Cu  Cu6  1  0.425665  0.425665  0.970195  1
  Cu  Cu7  1  0.759117  0.759117  0.729351  1
  Cu  Cu8  1  0.240883  0.240883  0.270649  1
  Cu  Cu9  1  0.574335  0.574335  0.029805  1
  Se  Se10  1  0.861598  0.861598  0.924320  1
  Se  Se11  1  0.608374  0.608374  0.872503  1
  Se  Se12  1  0.350875  0.350875  0.723287  1
  Se  Se13  1  0.704135  0.704135  0.601074  1
  Se  Se14  1  0.000000  0.000000  0.500000  1
  Se  Se15  1  0.295865  0.295865  0.398926  1
  Se  Se16  1  0.649125  0.649125  0.276713  1
  Se  Se17  1  0.391626  0.391626  0.127497  1
  Se  Se18  1  0.138402  0.138402  0.075680  1
