# generated using pymatgen
data_Sr2Ca2As7Ir8
_symmetry_space_group_name_H-M   'P 1'
_cell_length_a   4.13229900
_cell_length_b   13.28311274
_cell_length_c   13.66505337
_cell_angle_alpha   81.56031457
_cell_angle_beta   90.00000000
_cell_angle_gamma   90.00000000
_symmetry_Int_Tables_number   1
_chemical_formula_structural   Sr2Ca2As7Ir8
_chemical_formula_sum   'Sr4 Ca4 As14 Ir16'
_cell_volume   741.94936294
_cell_formula_units_Z   2
loop_
 _symmetry_equiv_pos_site_id
 _symmetry_equiv_pos_as_xyz
  1  'x, y, z'
loop_
 _atom_site_type_symbol
 _atom_site_label
 _atom_site_symmetry_multiplicity
 _atom_site_fract_x
 _atom_site_fract_y
 _atom_site_fract_z
 _atom_site_occupancy
  Sr  Sr0  1  0.250000  0.102961  0.793225  1
  Sr  Sr1  1  0.750000  0.897039  0.206775  1
  Sr  Sr2  1  0.250000  0.286604  0.105403  1
  Sr  Sr3  1  0.750000  0.713396  0.894597  1
  Ca  Ca4  1  0.250000  0.513869  0.291735  1
  Ca  Ca5  1  0.750000  0.486131  0.708265  1
  Ca  Ca6  1  0.250000  0.213687  0.433756  1
  Ca  Ca7  1  0.750000  0.786313  0.566244  1
  As  As8  1  0.250000  0.057062  0.100972  1
  As  As9  1  0.750000  0.942938  0.899028  1
  As  As10  1  0.250000  0.312710  0.686493  1
  As  As11  1  0.750000  0.687290  0.313507  1
  As  As12  1  0.250000  0.607733  0.565388  1
  As  As13  1  0.750000  0.392267  0.434612  1
  As  As14  1  0.250000  0.846596  0.719475  1
  As  As15  1  0.750000  0.153404  0.280525  1
  As  As16  1  0.750000  0.256261  0.915306  1
  As  As17  1  0.250000  0.743739  0.084694  1
  As  As18  1  0.750000  0.095562  0.584987  1
  As  As19  1  0.250000  0.904438  0.415013  1
  As  As20  1  0.750000  0.471037  0.128865  1
  As  As21  1  0.250000  0.528963  0.871135  1
  Ir  Ir22  1  0.250000  0.983433  0.571858  1
  Ir  Ir23  1  0.750000  0.016567  0.428142  1
  Ir  Ir24  1  0.250000  0.664332  0.727141  1
  Ir  Ir25  1  0.750000  0.335668  0.272859  1
  Ir  Ir26  1  0.250000  0.554513  0.048597  1
  Ir  Ir27  1  0.750000  0.445487  0.951403  1
  Ir  Ir28  1  0.250000  0.057001  0.281930  1
  Ir  Ir29  1  0.750000  0.942999  0.718070  1
  Ir  Ir30  1  0.250000  0.425895  0.526200  1
  Ir  Ir31  1  0.750000  0.574105  0.473800  1
  Ir  Ir32  1  0.250000  0.918935  0.999061  1
  Ir  Ir33  1  0.750000  0.081065  0.000939  1
  Ir  Ir34  1  0.250000  0.721534  0.401484  1
  Ir  Ir35  1  0.750000  0.278466  0.598516  1
  Ir  Ir36  1  0.250000  0.345858  0.857484  1
  Ir  Ir37  1  0.750000  0.654142  0.142516  1
