# generated using pymatgen
data_Nb12Ga7PdN4
_symmetry_space_group_name_H-M   'P 1'
_cell_length_a   7.06487114
_cell_length_b   7.06487151
_cell_length_c   7.06487237
_cell_angle_alpha   89.73264132
_cell_angle_beta   90.26735629
_cell_angle_gamma   90.26735867
_symmetry_Int_Tables_number   1
_chemical_formula_structural   Nb12Ga7PdN4
_chemical_formula_sum   'Nb12 Ga7 Pd1 N4'
_cell_volume   352.61330312
_cell_formula_units_Z   1
loop_
 _symmetry_equiv_pos_site_id
 _symmetry_equiv_pos_as_xyz
  1  'x, y, z'
loop_
 _atom_site_type_symbol
 _atom_site_label
 _atom_site_symmetry_multiplicity
 _atom_site_fract_x
 _atom_site_fract_y
 _atom_site_fract_z
 _atom_site_occupancy
  Nb  Nb0  1  0.791311  0.957545  0.374825  1
  Nb  Nb1  1  0.708055  0.044205  0.877089  1
  Nb  Nb2  1  0.206913  0.453244  0.120573  1
  Nb  Nb3  1  0.294504  0.543547  0.629619  1
  Nb  Nb4  1  0.955795  0.377089  0.791945  1
  Nb  Nb5  1  0.042455  0.874825  0.708689  1
  Nb  Nb6  1  0.456453  0.129619  0.205496  1
  Nb  Nb7  1  0.546756  0.620573  0.293087  1
  Nb  Nb8  1  0.379427  0.793087  0.953244  1
  Nb  Nb9  1  0.870381  0.705496  0.043547  1
  Nb  Nb10  1  0.125175  0.208689  0.457545  1
  Nb  Nb11  1  0.622911  0.291945  0.544205  1
  Ga  Ga12  1  0.319563  0.175876  0.820138  1
  Ga  Ga13  1  0.824124  0.320138  0.180437  1
  Ga  Ga14  1  0.679862  0.680437  0.675876  1
  Ga  Ga15  1  0.569757  0.430243  0.930243  1
  Ga  Ga16  1  0.422943  0.927950  0.562362  1
  Ga  Ga17  1  0.937638  0.577057  0.427950  1
  Ga  Ga18  1  0.072050  0.062362  0.077057  1
  Pd  Pd19  1  0.183365  0.816635  0.316635  1
  N  N20  1  0.874786  0.125214  0.625214  1
  N  N21  1  0.621472  0.876553  0.129141  1
  N  N22  1  0.123447  0.629141  0.878528  1
  N  N23  1  0.370859  0.378528  0.376553  1
