# generated using pymatgen
data_CeY(B4Ru)2
_symmetry_space_group_name_H-M   'P 1'
_cell_length_a   3.59080300
_cell_length_b   5.99038064
_cell_length_c   11.61060241
_cell_angle_alpha   90.15806958
_cell_angle_beta   90.00000000
_cell_angle_gamma   90.00000000
_symmetry_Int_Tables_number   1
_chemical_formula_structural   CeY(B4Ru)2
_chemical_formula_sum   'Ce2 Y2 B16 Ru4'
_cell_volume   249.74632063
_cell_formula_units_Z   2
loop_
 _symmetry_equiv_pos_site_id
 _symmetry_equiv_pos_as_xyz
  1  'x, y, z'
loop_
 _atom_site_type_symbol
 _atom_site_label
 _atom_site_symmetry_multiplicity
 _atom_site_fract_x
 _atom_site_fract_y
 _atom_site_fract_z
 _atom_site_occupancy
  Ce  Ce0  1  0.500000  0.629065  0.151149  1
  Ce  Ce1  1  0.500000  0.370935  0.848851  1
  Y  Y2  1  0.500000  0.128234  0.351833  1
  Y  Y3  1  0.500000  0.871766  0.648167  1
  B  B4  1  0.000000  0.976492  0.192271  1
  B  B5  1  0.000000  0.023508  0.807729  1
  B  B6  1  0.000000  0.473616  0.310005  1
  B  B7  1  0.000000  0.526384  0.689995  1
  B  B8  1  0.000000  0.788883  0.315648  1
  B  B9  1  0.000000  0.211117  0.684352  1
  B  B10  1  0.000000  0.285724  0.187060  1
  B  B11  1  0.000000  0.714276  0.812940  1
  B  B12  1  0.000000  0.863485  0.469114  1
  B  B13  1  0.000000  0.136515  0.530886  1
  B  B14  1  0.000000  0.362579  0.030919  1
  B  B15  1  0.000000  0.637421  0.969081  1
  B  B16  1  0.000000  0.889137  0.046576  1
  B  B17  1  0.000000  0.110863  0.953424  1
  B  B18  1  0.000000  0.387227  0.454292  1
  B  B19  1  0.000000  0.612773  0.545708  1
  Ru  Ru20  1  0.500000  0.638600  0.407349  1
  Ru  Ru21  1  0.500000  0.361400  0.592651  1
  Ru  Ru22  1  0.500000  0.139654  0.093341  1
  Ru  Ru23  1  0.500000  0.860346  0.906659  1
