# generated using pymatgen
data_Ca2CeZn9Co5Ni
_symmetry_space_group_name_H-M   'P 1'
_cell_length_a   8.81206200
_cell_length_b   8.86666009
_cell_length_c   4.18612600
_cell_angle_alpha   90.00000000
_cell_angle_beta   90.00000000
_cell_angle_gamma   119.79650620
_symmetry_Int_Tables_number   1
_chemical_formula_structural   Ca2CeZn9Co5Ni
_chemical_formula_sum   'Ca2 Ce1 Zn9 Co5 Ni1'
_cell_volume   283.83596363
_cell_formula_units_Z   1
loop_
 _symmetry_equiv_pos_site_id
 _symmetry_equiv_pos_as_xyz
  1  'x, y, z'
loop_
 _atom_site_type_symbol
 _atom_site_label
 _atom_site_symmetry_multiplicity
 _atom_site_fract_x
 _atom_site_fract_y
 _atom_site_fract_z
 _atom_site_occupancy
  Ca  Ca0  1  0.333514  0.667030  0.000000  1
  Ca  Ca1  1  0.665509  0.331018  0.000000  1
  Ce  Ce2  1  0.004592  0.009184  0.500000  1
  Zn  Zn3  1  0.499600  0.999200  0.500000  1
  Zn  Zn4  1  0.498319  0.500133  0.500000  1
  Zn  Zn5  1  0.001814  0.500133  0.500000  1
  Zn  Zn6  1  0.294389  0.999700  0.000000  1
  Zn  Zn7  1  0.297417  0.297118  0.000000  1
  Zn  Zn8  1  0.000519  0.705449  0.000000  1
  Zn  Zn9  1  0.999701  0.297118  0.000000  1
  Zn  Zn10  1  0.704930  0.705449  0.000000  1
  Zn  Zn11  1  0.705311  0.999700  0.000000  1
  Co  Co12  1  0.172216  0.344432  0.500000  1
  Co  Co13  1  0.828528  0.170656  0.500000  1
  Co  Co14  1  0.342128  0.170656  0.500000  1
  Co  Co15  1  0.659640  0.829034  0.500000  1
  Co  Co16  1  0.169394  0.829034  0.500000  1
  Ni  Ni17  1  0.822477  0.644954  0.500000  1
