# generated using pymatgen
data_YbTh3(Zn5Sn)2
_symmetry_space_group_name_H-M   'P 1'
_cell_length_a   8.53751415
_cell_length_b   8.53752111
_cell_length_c   9.11703048
_cell_angle_alpha   89.52304092
_cell_angle_beta   90.47690597
_cell_angle_gamma   149.60283168
_symmetry_Int_Tables_number   1
_chemical_formula_structural   YbTh3(Zn5Sn)2
_chemical_formula_sum   'Yb1 Th3 Zn10 Sn2'
_cell_volume   336.23536198
_cell_formula_units_Z   1
loop_
 _symmetry_equiv_pos_site_id
 _symmetry_equiv_pos_as_xyz
  1  'x, y, z'
loop_
 _atom_site_type_symbol
 _atom_site_label
 _atom_site_symmetry_multiplicity
 _atom_site_fract_x
 _atom_site_fract_y
 _atom_site_fract_z
 _atom_site_occupancy
  Yb  Yb0  1  0.000000  0.000000  0.000000  1
  Th  Th1  1  0.203748  0.796257  0.246628  1
  Th  Th2  1  0.796252  0.203743  0.753372  1
  Th  Th3  1  0.000000  0.000000  0.500000  1
  Zn  Zn4  1  0.814635  0.185364  0.391443  1
  Zn  Zn5  1  0.185365  0.814636  0.608557  1
  Zn  Zn6  1  0.817126  0.182872  0.109904  1
  Zn  Zn7  1  0.182874  0.817128  0.890096  1
  Zn  Zn8  1  0.659160  0.340838  0.480532  1
  Zn  Zn9  1  0.340840  0.659162  0.519468  1
  Zn  Zn10  1  0.656638  0.343360  0.014467  1
  Zn  Zn11  1  0.343362  0.656640  0.985533  1
  Zn  Zn12  1  0.394266  0.605735  0.255835  1
  Zn  Zn13  1  0.605734  0.394265  0.744165  1
  Sn  Sn14  1  0.555061  0.444942  0.250026  1
  Sn  Sn15  1  0.444939  0.555058  0.749974  1
