# generated using pymatgen
data_Yb8Be3Si12Pd
_symmetry_space_group_name_H-M   'P 1'
_cell_length_a   7.97081600
_cell_length_b   7.97081537
_cell_length_c   8.58343100
_cell_angle_alpha   90.00000000
_cell_angle_beta   90.00000000
_cell_angle_gamma   119.99999430
_symmetry_Int_Tables_number   1
_chemical_formula_structural   Yb8Be3Si12Pd
_chemical_formula_sum   'Yb8 Be3 Si12 Pd1'
_cell_volume   472.27734238
_cell_formula_units_Z   1
loop_
 _symmetry_equiv_pos_site_id
 _symmetry_equiv_pos_as_xyz
  1  'x, y, z'
loop_
 _atom_site_type_symbol
 _atom_site_label
 _atom_site_symmetry_multiplicity
 _atom_site_fract_x
 _atom_site_fract_y
 _atom_site_fract_z
 _atom_site_occupancy
  Yb  Yb0  1  0.501305  0.498695  0.746655  1
  Yb  Yb1  1  0.501465  0.498535  0.253328  1
  Yb  Yb2  1  0.997389  0.498695  0.746655  1
  Yb  Yb3  1  0.997070  0.498535  0.253328  1
  Yb  Yb4  1  0.501305  0.002611  0.746655  1
  Yb  Yb5  1  0.501465  0.002930  0.253328  1
  Yb  Yb6  1  0.000000  0.000000  0.750361  1
  Yb  Yb7  1  0.000000  0.000000  0.249665  1
  Be  Be8  1  0.666667  0.333333  0.999503  1
  Be  Be9  1  0.333333  0.666667  0.000561  1
  Be  Be10  1  0.333333  0.666667  0.499697  1
  Si  Si11  1  0.827350  0.172650  0.000056  1
  Si  Si12  1  0.172761  0.827239  0.000066  1
  Si  Si13  1  0.345299  0.172650  0.000056  1
  Si  Si14  1  0.170527  0.829473  0.499899  1
  Si  Si15  1  0.654480  0.827239  0.000066  1
  Si  Si16  1  0.834396  0.165604  0.500060  1
  Si  Si17  1  0.827350  0.654701  0.000056  1
  Si  Si18  1  0.658946  0.829473  0.499899  1
  Si  Si19  1  0.172761  0.345520  0.000066  1
  Si  Si20  1  0.331210  0.165604  0.500060  1
  Si  Si21  1  0.170527  0.341054  0.499899  1
  Si  Si22  1  0.834396  0.668790  0.500060  1
  Pd  Pd23  1  0.666667  0.333333  0.500020  1
