# generated using pymatgen
data_Dy12Tc3Au
_symmetry_space_group_name_H-M   'P 1'
_cell_length_a   6.33715558
_cell_length_b   7.40569563
_cell_length_c   9.24113500
_cell_angle_alpha   90.00000000
_cell_angle_beta   90.00000000
_cell_angle_gamma   89.87677487
_symmetry_Int_Tables_number   1
_chemical_formula_structural   Dy12Tc3Au
_chemical_formula_sum   'Dy12 Tc3 Au1'
_cell_volume   433.69512315
_cell_formula_units_Z   1
loop_
 _symmetry_equiv_pos_site_id
 _symmetry_equiv_pos_as_xyz
  1  'x, y, z'
loop_
 _atom_site_type_symbol
 _atom_site_label
 _atom_site_symmetry_multiplicity
 _atom_site_fract_x
 _atom_site_fract_y
 _atom_site_fract_z
 _atom_site_occupancy
  Dy  Dy0  1  0.326302  0.675520  0.069383  1
  Dy  Dy1  1  0.167401  0.179314  0.434917  1
  Dy  Dy2  1  0.669531  0.312455  0.555248  1
  Dy  Dy3  1  0.842212  0.830791  0.942290  1
  Dy  Dy4  1  0.669531  0.312455  0.944752  1
  Dy  Dy5  1  0.842212  0.830791  0.557710  1
  Dy  Dy6  1  0.326302  0.675520  0.430617  1
  Dy  Dy7  1  0.167401  0.179314  0.065083  1
  Dy  Dy8  1  0.868252  0.543094  0.250000  1
  Dy  Dy9  1  0.625881  0.038167  0.250000  1
  Dy  Dy10  1  0.120209  0.453196  0.750000  1
  Dy  Dy11  1  0.370027  0.973480  0.750000  1
  Tc  Tc12  1  0.036675  0.886402  0.250000  1
  Tc  Tc13  1  0.465663  0.386546  0.250000  1
  Tc  Tc14  1  0.952939  0.112773  0.750000  1
  Au  Au15  1  0.549459  0.610182  0.750000  1
