# generated using pymatgen
data_Dy5MoRhO12
_symmetry_space_group_name_H-M   'P 1'
_cell_length_a   6.84992871
_cell_length_b   6.84992910
_cell_length_c   7.47876422
_cell_angle_alpha   73.91271364
_cell_angle_beta   73.91271516
_cell_angle_gamma   49.84056178
_symmetry_Int_Tables_number   1
_chemical_formula_structural   Dy5MoRhO12
_chemical_formula_sum   'Dy5 Mo1 Rh1 O12'
_cell_volume   255.36201207
_cell_formula_units_Z   1
loop_
 _symmetry_equiv_pos_site_id
 _symmetry_equiv_pos_as_xyz
  1  'x, y, z'
loop_
 _atom_site_type_symbol
 _atom_site_label
 _atom_site_symmetry_multiplicity
 _atom_site_fract_x
 _atom_site_fract_y
 _atom_site_fract_z
 _atom_site_occupancy
  Dy  Dy0  1  0.316907  0.288106  0.358798  1
  Dy  Dy1  1  0.711894  0.683093  0.641202  1
  Dy  Dy2  1  0.317700  0.306057  0.827519  1
  Dy  Dy3  1  0.693943  0.682300  0.172481  1
  Dy  Dy4  1  0.006688  0.993312  0.500000  1
  Mo  Mo5  1  0.204886  0.795114  0.000000  1
  Rh  Rh6  1  0.755607  0.244393  0.000000  1
  O  O7  1  0.911636  0.436012  0.913708  1
  O  O8  1  0.413630  0.904012  0.916038  1
  O  O9  1  0.095988  0.586370  0.083962  1
  O  O10  1  0.563988  0.088364  0.086292  1
  O  O11  1  0.107484  0.592306  0.569274  1
  O  O12  1  0.599824  0.088408  0.576724  1
  O  O13  1  0.911592  0.400176  0.423276  1
  O  O14  1  0.407694  0.892516  0.430726  1
  O  O15  1  0.999504  0.997329  0.800898  1
  O  O16  1  0.002671  0.000496  0.199102  1
  O  O17  1  0.489609  0.511245  0.821045  1
  O  O18  1  0.488755  0.510391  0.178955  1
