# generated using pymatgen
data_Sm2Gd8Si5Pt
_symmetry_space_group_name_H-M   'P 1'
_cell_length_a   7.51179239
_cell_length_b   7.51179218
_cell_length_c   8.87738400
_cell_angle_alpha   115.02956415
_cell_angle_beta   115.02956338
_cell_angle_gamma   90.00000236
_symmetry_Int_Tables_number   1
_chemical_formula_structural   Sm2Gd8Si5Pt
_chemical_formula_sum   'Sm2 Gd8 Si5 Pt1'
_cell_volume   401.36412453
_cell_formula_units_Z   1
loop_
 _symmetry_equiv_pos_site_id
 _symmetry_equiv_pos_as_xyz
  1  'x, y, z'
loop_
 _atom_site_type_symbol
 _atom_site_label
 _atom_site_symmetry_multiplicity
 _atom_site_fract_x
 _atom_site_fract_y
 _atom_site_fract_z
 _atom_site_occupancy
  Sm  Sm0  1  0.473467  0.473467  0.946934  1
  Sm  Sm1  1  0.026533  0.026533  0.053066  1
  Gd  Gd2  1  0.955101  0.805675  0.285993  1
  Gd  Gd3  1  0.330893  0.480318  0.285993  1
  Gd  Gd4  1  0.805675  0.330893  0.285993  1
  Gd  Gd5  1  0.480318  0.955101  0.285993  1
  Gd  Gd6  1  0.019682  0.169107  0.714007  1
  Gd  Gd7  1  0.694325  0.544899  0.714007  1
  Gd  Gd8  1  0.169107  0.694325  0.714007  1
  Gd  Gd9  1  0.544899  0.019682  0.714007  1
  Si  Si10  1  0.250000  0.250000  0.500000  1
  Si  Si11  1  0.618709  0.881291  0.000000  1
  Si  Si12  1  0.381291  0.118709  0.000000  1
  Si  Si13  1  0.881291  0.381291  0.000000  1
  Si  Si14  1  0.118709  0.618709  0.000000  1
  Pt  Pt15  1  0.750000  0.750000  0.500000  1
