# generated using pymatgen
data_Ba3SrYb6
_symmetry_space_group_name_H-M   'P 1'
_cell_length_a   16.45210123
_cell_length_b   16.45210177
_cell_length_c   6.52234900
_cell_angle_alpha   90.00000000
_cell_angle_beta   90.00000000
_cell_angle_gamma   164.97042279
_symmetry_Int_Tables_number   1
_chemical_formula_structural   Ba3SrYb6
_chemical_formula_sum   'Ba3 Sr1 Yb6'
_cell_volume   457.80323285
_cell_formula_units_Z   1
loop_
 _symmetry_equiv_pos_site_id
 _symmetry_equiv_pos_as_xyz
  1  'x, y, z'
loop_
 _atom_site_type_symbol
 _atom_site_label
 _atom_site_symmetry_multiplicity
 _atom_site_fract_x
 _atom_site_fract_y
 _atom_site_fract_z
 _atom_site_occupancy
  Ba  Ba0  1  0.803680  0.196320  0.000000  1
  Ba  Ba1  1  0.198751  0.801249  0.000000  1
  Ba  Ba2  1  0.499419  0.500581  0.499999  1
  Sr  Sr3  1  0.596017  0.403983  0.000000  1
  Yb  Yb4  1  0.998001  0.001999  0.000000  1
  Yb  Yb5  1  0.403974  0.596026  0.000000  1
  Yb  Yb6  1  0.898020  0.101981  0.499999  1
  Yb  Yb7  1  0.700001  0.300000  0.499999  1
  Yb  Yb8  1  0.300109  0.699892  0.499999  1
  Yb  Yb9  1  0.102030  0.897971  0.499999  1
