# generated using pymatgen
data_Tb13Lu3InAg3Pd4
_symmetry_space_group_name_H-M   'P 1'
_cell_length_a   9.53206497
_cell_length_b   9.57458333
_cell_length_c   9.57022500
_cell_angle_alpha   60.30570619
_cell_angle_beta   60.06109766
_cell_angle_gamma   59.96150104
_symmetry_Int_Tables_number   1
_chemical_formula_structural   Tb13Lu3InAg3Pd4
_chemical_formula_sum   'Tb13 Lu3 In1 Ag3 Pd4'
_cell_volume   619.12910470
_cell_formula_units_Z   1
loop_
 _symmetry_equiv_pos_site_id
 _symmetry_equiv_pos_as_xyz
  1  'x, y, z'
loop_
 _atom_site_type_symbol
 _atom_site_label
 _atom_site_symmetry_multiplicity
 _atom_site_fract_x
 _atom_site_fract_y
 _atom_site_fract_z
 _atom_site_occupancy
  Tb  Tb0  1  0.638974  0.074504  0.641966  1
  Tb  Tb1  1  0.068358  0.061053  0.437130  1
  Tb  Tb2  1  0.437145  0.433260  0.062974  1
  Tb  Tb3  1  0.645405  0.644877  0.645722  1
  Tb  Tb4  1  0.813165  0.187458  0.187184  1
  Tb  Tb5  1  0.183199  0.814454  0.814015  1
  Tb  Tb6  1  0.072719  0.639724  0.643315  1
  Tb  Tb7  1  0.438049  0.064640  0.064561  1
  Tb  Tb8  1  0.436512  0.063458  0.434590  1
  Tb  Tb9  1  0.069369  0.436133  0.060834  1
  Tb  Tb10  1  0.642698  0.641295  0.069740  1
  Tb  Tb11  1  0.187740  0.812498  0.187890  1
  Tb  Tb12  1  0.070370  0.432304  0.434285  1
  Lu  Lu13  1  0.810287  0.808044  0.189652  1
  Lu  Lu14  1  0.811832  0.189130  0.808009  1
  Lu  Lu15  1  0.188843  0.188247  0.811728  1
  In  In16  1  0.742361  0.421176  0.420418  1
  Ag  Ag17  1  0.415696  0.417861  0.417361  1
  Ag  Ag18  1  0.414807  0.415478  0.752748  1
  Ag  Ag19  1  0.416132  0.752326  0.415231  1
  Pd  Pd20  1  0.857805  0.430437  0.853831  1
  Pd  Pd21  1  0.850459  0.856976  0.856503  1
  Pd  Pd22  1  0.853412  0.854621  0.435052  1
  Pd  Pd23  1  0.434663  0.860045  0.855261  1
