# generated using pymatgen
data_HoThReC2
_symmetry_space_group_name_H-M   'P 1'
_cell_length_a   5.26667100
_cell_length_b   6.65339000
_cell_length_c   9.85398300
_cell_angle_alpha   90.00000000
_cell_angle_beta   90.00000000
_cell_angle_gamma   90.00000000
_symmetry_Int_Tables_number   1
_chemical_formula_structural   HoThReC2
_chemical_formula_sum   'Ho4 Th4 Re4 C8'
_cell_volume   345.29554839
_cell_formula_units_Z   4
loop_
 _symmetry_equiv_pos_site_id
 _symmetry_equiv_pos_as_xyz
  1  'x, y, z'
loop_
 _atom_site_type_symbol
 _atom_site_label
 _atom_site_symmetry_multiplicity
 _atom_site_fract_x
 _atom_site_fract_y
 _atom_site_fract_z
 _atom_site_occupancy
  Ho  Ho0  1  0.250000  0.825044  0.051726  1
  Ho  Ho1  1  0.750000  0.674956  0.551726  1
  Ho  Ho2  1  0.250000  0.325044  0.448274  1
  Ho  Ho3  1  0.750000  0.174956  0.948274  1
  Th  Th4  1  0.250000  0.470449  0.785407  1
  Th  Th5  1  0.750000  0.029551  0.285407  1
  Th  Th6  1  0.250000  0.970449  0.714593  1
  Th  Th7  1  0.750000  0.529551  0.214593  1
  Re  Re8  1  0.250000  0.272892  0.136027  1
  Re  Re9  1  0.750000  0.227108  0.636027  1
  Re  Re10  1  0.250000  0.772892  0.363973  1
  Re  Re11  1  0.750000  0.727108  0.863973  1
  C  C12  1  0.250000  0.169684  0.947659  1
  C  C13  1  0.750000  0.830316  0.052341  1
  C  C14  1  0.250000  0.669684  0.552341  1
  C  C15  1  0.750000  0.330316  0.447659  1
  C  C16  1  0.250000  0.041744  0.261408  1
  C  C17  1  0.750000  0.458256  0.761408  1
  C  C18  1  0.250000  0.541744  0.238592  1
  C  C19  1  0.750000  0.958256  0.738592  1
