# generated using pymatgen
data_Tm19Mg(Ir2Au)4
_symmetry_space_group_name_H-M   'P 1'
_cell_length_a   10.90879600
_cell_length_b   10.90879600
_cell_length_c   6.28836200
_cell_angle_alpha   90.00000000
_cell_angle_beta   90.00000000
_cell_angle_gamma   90.00000000
_symmetry_Int_Tables_number   1
_chemical_formula_structural   Tm19Mg(Ir2Au)4
_chemical_formula_sum   'Tm19 Mg1 Ir8 Au4'
_cell_volume   748.32658677
_cell_formula_units_Z   1
loop_
 _symmetry_equiv_pos_site_id
 _symmetry_equiv_pos_as_xyz
  1  'x, y, z'
loop_
 _atom_site_type_symbol
 _atom_site_label
 _atom_site_symmetry_multiplicity
 _atom_site_fract_x
 _atom_site_fract_y
 _atom_site_fract_z
 _atom_site_occupancy
  Tm  Tm0  1  0.297123  0.087565  0.366585  1
  Tm  Tm1  1  0.300851  0.907186  0.867219  1
  Tm  Tm2  1  0.699149  0.092814  0.867219  1
  Tm  Tm3  1  0.702877  0.912435  0.366585  1
  Tm  Tm4  1  0.584012  0.789446  0.879677  1
  Tm  Tm5  1  0.578643  0.210621  0.378093  1
  Tm  Tm6  1  0.421357  0.789379  0.378093  1
  Tm  Tm7  1  0.415988  0.210554  0.879677  1
  Tm  Tm8  1  0.210621  0.421357  0.621907  1
  Tm  Tm9  1  0.210554  0.584012  0.120323  1
  Tm  Tm10  1  0.789446  0.415988  0.120323  1
  Tm  Tm11  1  0.789379  0.578643  0.621907  1
  Tm  Tm12  1  0.907186  0.699149  0.132781  1
  Tm  Tm13  1  0.912435  0.297123  0.633415  1
  Tm  Tm14  1  0.087565  0.702877  0.633415  1
  Tm  Tm15  1  0.092814  0.300851  0.132781  1
  Tm  Tm16  1  0.000000  0.000000  0.000000  1
  Tm  Tm17  1  0.500000  0.500000  0.000000  1
  Tm  Tm18  1  0.500000  0.500000  0.500000  1
  Mg  Mg19  1  0.000000  0.000000  0.500000  1
  Ir  Ir20  1  0.654693  0.345717  0.747257  1
  Ir  Ir21  1  0.654283  0.654693  0.252743  1
  Ir  Ir22  1  0.345717  0.345307  0.252743  1
  Ir  Ir23  1  0.345307  0.654283  0.747257  1
  Ir  Ir24  1  0.500000  0.000000  0.119202  1
  Ir  Ir25  1  0.500000  0.000000  0.619718  1
  Ir  Ir26  1  0.000000  0.500000  0.880798  1
  Ir  Ir27  1  0.000000  0.500000  0.380282  1
  Au  Au28  1  0.845953  0.154174  0.254146  1
  Au  Au29  1  0.845826  0.845953  0.745854  1
  Au  Au30  1  0.154174  0.154047  0.745854  1
  Au  Au31  1  0.154047  0.845826  0.254146  1
