# generated using pymatgen
data_TbTm2Co7(NiP3)2
_symmetry_space_group_name_H-M   'P 1'
_cell_length_a   3.69785900
_cell_length_b   10.47231400
_cell_length_c   12.17509000
_cell_angle_alpha   90.00000000
_cell_angle_beta   90.00000000
_cell_angle_gamma   90.00000000
_symmetry_Int_Tables_number   1
_chemical_formula_structural   TbTm2Co7(NiP3)2
_chemical_formula_sum   'Tb2 Tm4 Co14 Ni4 P12'
_cell_volume   471.48207177
_cell_formula_units_Z   2
loop_
 _symmetry_equiv_pos_site_id
 _symmetry_equiv_pos_as_xyz
  1  'x, y, z'
loop_
 _atom_site_type_symbol
 _atom_site_label
 _atom_site_symmetry_multiplicity
 _atom_site_fract_x
 _atom_site_fract_y
 _atom_site_fract_z
 _atom_site_occupancy
  Tb  Tb0  1  0.000000  0.500000  0.521512  1
  Tb  Tb1  1  0.500000  0.000000  0.478488  1
  Tm  Tm2  1  0.500000  0.815758  0.205540  1
  Tm  Tm3  1  0.500000  0.184242  0.205540  1
  Tm  Tm4  1  0.000000  0.684242  0.794460  1
  Tm  Tm5  1  0.000000  0.315758  0.794460  1
  Co  Co6  1  0.000000  0.500000  0.984652  1
  Co  Co7  1  0.500000  0.000000  0.015348  1
  Co  Co8  1  0.500000  0.333978  0.995932  1
  Co  Co9  1  0.500000  0.666022  0.995932  1
  Co  Co10  1  0.000000  0.166022  0.004068  1
  Co  Co11  1  0.000000  0.833978  0.004068  1
  Co  Co12  1  0.500000  0.298363  0.429966  1
  Co  Co13  1  0.500000  0.701637  0.429966  1
  Co  Co14  1  0.000000  0.201637  0.570034  1
  Co  Co15  1  0.000000  0.798363  0.570034  1
  Co  Co16  1  0.500000  0.878459  0.711276  1
  Co  Co17  1  0.500000  0.121541  0.711276  1
  Co  Co18  1  0.000000  0.621541  0.288724  1
  Co  Co19  1  0.000000  0.378459  0.288724  1
  Ni  Ni20  1  0.500000  0.500000  0.161893  1
  Ni  Ni21  1  0.000000  0.000000  0.838107  1
  Ni  Ni22  1  0.500000  0.500000  0.704255  1
  Ni  Ni23  1  0.000000  0.000000  0.295745  1
  P  P24  1  0.500000  0.500000  0.882540  1
  P  P25  1  0.000000  0.000000  0.117460  1
  P  P26  1  0.500000  0.500000  0.345725  1
  P  P27  1  0.000000  0.000000  0.654275  1
  P  P28  1  0.500000  0.309930  0.616417  1
  P  P29  1  0.500000  0.690070  0.616417  1
  P  P30  1  0.000000  0.190070  0.383583  1
  P  P31  1  0.000000  0.809930  0.383583  1
  P  P32  1  0.500000  0.845743  0.894230  1
  P  P33  1  0.500000  0.154257  0.894230  1
  P  P34  1  0.000000  0.654257  0.105770  1
  P  P35  1  0.000000  0.345743  0.105770  1
