# generated using pymatgen
data_TmH2Br
_symmetry_space_group_name_H-M   'P 1'
_cell_length_a   11.07078767
_cell_length_b   11.07078796
_cell_length_c   11.07078688
_cell_angle_alpha   19.23104972
_cell_angle_beta   19.23104365
_cell_angle_gamma   19.23105044
_symmetry_Int_Tables_number   1
_chemical_formula_structural   TmH2Br
_chemical_formula_sum   'Tm2 H4 Br2'
_cell_volume   128.68072688
_cell_formula_units_Z   2
loop_
 _symmetry_equiv_pos_site_id
 _symmetry_equiv_pos_as_xyz
  1  'x, y, z'
loop_
 _atom_site_type_symbol
 _atom_site_label
 _atom_site_symmetry_multiplicity
 _atom_site_fract_x
 _atom_site_fract_y
 _atom_site_fract_z
 _atom_site_occupancy
  Tm  Tm0  1  0.881360  0.881360  0.881360  1
  Tm  Tm1  1  0.118640  0.118640  0.118640  1
  H  H2  1  0.814777  0.814777  0.814777  1
  H  H3  1  0.185223  0.185223  0.185223  1
  H  H4  1  0.541691  0.541691  0.541691  1
  H  H5  1  0.458309  0.458309  0.458309  1
  Br  Br6  1  0.726152  0.726152  0.726152  1
  Br  Br7  1  0.273848  0.273848  0.273848  1
