# generated using pymatgen
data_Ca4As2Se
_symmetry_space_group_name_H-M   'P 1'
_cell_length_a   7.77103731
_cell_length_b   7.77104788
_cell_length_c   7.77103766
_cell_angle_alpha   109.54290345
_cell_angle_beta   109.54283369
_cell_angle_gamma   109.32795364
_symmetry_Int_Tables_number   1
_chemical_formula_structural   Ca4As2Se
_chemical_formula_sum   'Ca8 As4 Se2'
_cell_volume   361.25512747
_cell_formula_units_Z   2
loop_
 _symmetry_equiv_pos_site_id
 _symmetry_equiv_pos_as_xyz
  1  'x, y, z'
loop_
 _atom_site_type_symbol
 _atom_site_label
 _atom_site_symmetry_multiplicity
 _atom_site_fract_x
 _atom_site_fract_y
 _atom_site_fract_z
 _atom_site_occupancy
  Ca  Ca0  1  0.632805  0.883589  0.889459  1
  Ca  Ca1  1  0.256654  0.367195  0.250784  1
  Ca  Ca2  1  0.116412  0.005871  0.749217  1
  Ca  Ca3  1  0.493346  0.244129  0.610541  1
  Ca  Ca4  1  0.117194  0.506654  0.750784  1
  Ca  Ca5  1  0.755870  0.366411  0.249216  1
  Ca  Ca6  1  0.994130  0.743346  0.110540  1
  Ca  Ca7  1  0.633589  0.882805  0.389459  1
  As  As8  1  0.375000  0.993836  0.118836  1
  As  As9  1  0.006164  0.125000  0.381164  1
  As  As10  1  0.875000  0.256164  0.881164  1
  As  As11  1  0.743836  0.625000  0.618836  1
  Se  Se12  1  0.500000  0.500000  0.000000  1
  Se  Se13  1  0.250000  0.750000  0.500000  1
