# generated using pymatgen
data_Cs4ZnW3N8
_symmetry_space_group_name_H-M   'P 1'
_cell_length_a   6.16704900
_cell_length_b   8.79350800
_cell_length_c   12.48764200
_cell_angle_alpha   90.00000000
_cell_angle_beta   90.00000000
_cell_angle_gamma   90.00000000
_symmetry_Int_Tables_number   1
_chemical_formula_structural   Cs4ZnW3N8
_chemical_formula_sum   'Cs8 Zn2 W6 N16'
_cell_volume   677.20475970
_cell_formula_units_Z   2
loop_
 _symmetry_equiv_pos_site_id
 _symmetry_equiv_pos_as_xyz
  1  'x, y, z'
loop_
 _atom_site_type_symbol
 _atom_site_label
 _atom_site_symmetry_multiplicity
 _atom_site_fract_x
 _atom_site_fract_y
 _atom_site_fract_z
 _atom_site_occupancy
  Cs  Cs0  1  0.750000  0.182742  0.500000  1
  Cs  Cs1  1  0.250000  0.817258  0.000000  1
  Cs  Cs2  1  0.250000  0.900753  0.500000  1
  Cs  Cs3  1  0.750000  0.099247  0.000000  1
  Cs  Cs4  1  0.781226  0.392522  0.780589  1
  Cs  Cs5  1  0.281226  0.607478  0.719411  1
  Cs  Cs6  1  0.218774  0.607478  0.280589  1
  Cs  Cs7  1  0.718774  0.392522  0.219411  1
  Zn  Zn8  1  0.250000  0.368341  0.500000  1
  Zn  Zn9  1  0.750000  0.631659  0.000000  1
  W  W10  1  0.750000  0.625724  0.500000  1
  W  W11  1  0.250000  0.374276  0.000000  1
  W  W12  1  0.280848  0.122309  0.750934  1
  W  W13  1  0.780848  0.877691  0.749066  1
  W  W14  1  0.719152  0.877691  0.250934  1
  W  W15  1  0.219152  0.122309  0.249066  1
  N  N16  1  0.564858  0.033121  0.745462  1
  N  N17  1  0.064858  0.966879  0.754538  1
  N  N18  1  0.435142  0.966879  0.245462  1
  N  N19  1  0.935142  0.033121  0.254538  1
  N  N20  1  0.257234  0.247968  0.872263  1
  N  N21  1  0.757234  0.752032  0.627737  1
  N  N22  1  0.742766  0.752032  0.372263  1
  N  N23  1  0.242766  0.247968  0.127737  1
  N  N24  1  0.751680  0.762792  0.132535  1
  N  N25  1  0.251680  0.237208  0.367465  1
  N  N26  1  0.248320  0.237208  0.632535  1
  N  N27  1  0.748320  0.762792  0.867465  1
  N  N28  1  0.008444  0.492219  0.997602  1
  N  N29  1  0.508444  0.507781  0.502398  1
  N  N30  1  0.991556  0.507781  0.497602  1
  N  N31  1  0.491556  0.492219  0.002398  1
