# generated using pymatgen
data_Li2TbTmSi4
_symmetry_space_group_name_H-M   'P 1'
_cell_length_a   3.78837600
_cell_length_b   7.59316641
_cell_length_c   10.13363912
_cell_angle_alpha   89.95426910
_cell_angle_beta   90.00000000
_cell_angle_gamma   90.00000000
_symmetry_Int_Tables_number   1
_chemical_formula_structural   Li2TbTmSi4
_chemical_formula_sum   'Li4 Tb2 Tm2 Si8'
_cell_volume   291.50183313
_cell_formula_units_Z   2
loop_
 _symmetry_equiv_pos_site_id
 _symmetry_equiv_pos_as_xyz
  1  'x, y, z'
loop_
 _atom_site_type_symbol
 _atom_site_label
 _atom_site_symmetry_multiplicity
 _atom_site_fract_x
 _atom_site_fract_y
 _atom_site_fract_z
 _atom_site_occupancy
  Li  Li0  1  0.250000  0.991340  0.390663  1
  Li  Li1  1  0.750000  0.008660  0.609337  1
  Li  Li2  1  0.250000  0.488833  0.107071  1
  Li  Li3  1  0.750000  0.511167  0.892929  1
  Tb  Tb4  1  0.250000  0.639733  0.636483  1
  Tb  Tb5  1  0.750000  0.360267  0.363517  1
  Tm  Tm6  1  0.250000  0.136580  0.863550  1
  Tm  Tm7  1  0.750000  0.863420  0.136450  1
  Si  Si8  1  0.750000  0.264672  0.064310  1
  Si  Si9  1  0.250000  0.735328  0.935690  1
  Si  Si10  1  0.750000  0.770311  0.430144  1
  Si  Si11  1  0.250000  0.229689  0.569856  1
  Si  Si12  1  0.750000  0.845058  0.822138  1
  Si  Si13  1  0.250000  0.154942  0.177862  1
  Si  Si14  1  0.750000  0.341386  0.682203  1
  Si  Si15  1  0.250000  0.658614  0.317797  1
