# generated using pymatgen
data_Nd4Y12Cd4IrRu3
_symmetry_space_group_name_H-M   'P 1'
_cell_length_a   9.75736565
_cell_length_b   9.76368642
_cell_length_c   9.76368783
_cell_angle_alpha   59.62401374
_cell_angle_beta   59.66181319
_cell_angle_gamma   59.66181336
_symmetry_Int_Tables_number   1
_chemical_formula_structural   Nd4Y12Cd4IrRu3
_chemical_formula_sum   'Nd4 Y12 Cd4 Ir1 Ru3'
_cell_volume   652.48378009
_cell_formula_units_Z   1
loop_
 _symmetry_equiv_pos_site_id
 _symmetry_equiv_pos_as_xyz
  1  'x, y, z'
loop_
 _atom_site_type_symbol
 _atom_site_label
 _atom_site_symmetry_multiplicity
 _atom_site_fract_x
 _atom_site_fract_y
 _atom_site_fract_z
 _atom_site_occupancy
  Nd  Nd0  1  0.560099  0.937752  0.564295  1
  Nd  Nd1  1  0.938570  0.560788  0.938776  1
  Nd  Nd2  1  0.560099  0.564295  0.937752  1
  Nd  Nd3  1  0.938570  0.938776  0.560788  1
  Y  Y4  1  0.347641  0.347125  0.347125  1
  Y  Y5  1  0.345389  0.348970  0.959101  1
  Y  Y6  1  0.345389  0.959101  0.348970  1
  Y  Y7  1  0.964135  0.344819  0.344819  1
  Y  Y8  1  0.812953  0.187625  0.187625  1
  Y  Y9  1  0.185673  0.812801  0.812801  1
  Y  Y10  1  0.188733  0.810718  0.188650  1
  Y  Y11  1  0.812185  0.189596  0.809563  1
  Y  Y12  1  0.188733  0.188650  0.810718  1
  Y  Y13  1  0.812185  0.809563  0.189596  1
  Y  Y14  1  0.942233  0.556995  0.556995  1
  Y  Y15  1  0.554906  0.944312  0.944312  1
  Cd  Cd16  1  0.581471  0.578225  0.578225  1
  Cd  Cd17  1  0.578478  0.581600  0.260817  1
  Cd  Cd18  1  0.578478  0.260817  0.581600  1
  Cd  Cd19  1  0.259693  0.578679  0.578679  1
  Ir  Ir20  1  0.578274  0.139240  0.139240  1
  Ru  Ru21  1  0.145566  0.136512  0.136512  1
  Ru  Ru22  1  0.140270  0.142853  0.580182  1
  Ru  Ru23  1  0.140270  0.580182  0.142853  1
