# generated using pymatgen
data_Ba14SrSb11
_symmetry_space_group_name_H-M   'P 1'
_cell_length_a   18.37052556
_cell_length_b   18.37052666
_cell_length_c   18.37052600
_cell_angle_alpha   94.37919847
_cell_angle_beta   117.50162905
_cell_angle_gamma   117.50778364
_symmetry_Int_Tables_number   1
_chemical_formula_structural   Ba14SrSb11
_chemical_formula_sum   'Ba56 Sr4 Sb44'
_cell_volume   4534.80070894
_cell_formula_units_Z   4
loop_
 _symmetry_equiv_pos_site_id
 _symmetry_equiv_pos_as_xyz
  1  'x, y, z'
loop_
 _atom_site_type_symbol
 _atom_site_label
 _atom_site_symmetry_multiplicity
 _atom_site_fract_x
 _atom_site_fract_y
 _atom_site_fract_z
 _atom_site_occupancy
  Ba  Ba0  1  0.147117  0.748393  0.894264  1
  Ba  Ba1  1  0.036254  0.748459  0.629927  1
  Ba  Ba2  1  0.026740  0.781861  0.398733  1
  Ba  Ba3  1  0.088867  0.519940  0.754012  1
  Ba  Ba4  1  0.351632  0.965557  0.871331  1
  Ba  Ba5  1  0.117968  0.369195  0.905470  1
  Ba  Ba6  1  0.094041  0.129425  0.979975  1
  Ba  Ba7  1  0.145941  0.895942  0.250000  1
  Ba  Ba8  1  0.149451  0.629425  0.535384  1
  Ba  Ba9  1  0.415116  0.748766  0.978598  1
  Ba  Ba10  1  0.463725  0.869195  0.751227  1
  Ba  Ba11  1  0.354420  0.884610  0.478883  1
  Ba  Ba12  1  0.353344  0.603344  0.750000  1
  Ba  Ba13  1  0.228191  0.978701  0.060581  1
  Ba  Ba14  1  0.265927  0.334853  0.745988  1
  Ba  Ba15  1  0.232339  0.752036  0.166560  1
  Ba  Ba16  1  0.094226  0.465557  0.113924  1
  Ba  Ba17  1  0.270168  0.436518  0.521402  1
  Ba  Ba18  1  0.146749  0.021375  0.615451  1
  Ba  Ba19  1  0.594041  0.614066  0.964616  1
  Ba  Ba20  1  0.085475  0.065779  0.333440  1
  Ba  Ba21  1  0.118532  0.248459  0.212205  1
  Ba  Ba22  1  0.588867  0.834853  0.568927  1
  Ba  Ba23  1  0.617968  0.712497  0.748773  1
  Ba  Ba24  1  0.354129  0.252853  0.605736  1
  Ba  Ba25  1  0.405923  0.521375  0.374626  1
  Ba  Ba26  1  0.536254  0.906327  0.287795  1
  Ba  Ba27  1  0.618532  0.406327  0.870073  1
  Ba  Ba28  1  0.383905  0.602261  0.129029  1
  Ba  Ba29  1  0.473232  0.102261  0.718356  1
  Ba  Ba30  1  0.594226  0.480302  0.628669  1
  Ba  Ba31  1  0.647117  0.752853  0.398724  1
  Ba  Ba32  1  0.383128  0.281861  0.255121  1
  Ba  Ba33  1  0.418120  0.167611  0.439419  1
  Ba  Ba34  1  0.883905  0.754875  0.781644  1
  Ba  Ba35  1  0.915116  0.936518  0.666351  1
  Ba  Ba36  1  0.405727  0.384610  0.030190  1
  Ba  Ba37  1  0.851632  0.980302  0.386076  1
  Ba  Ba38  1  0.732339  0.565779  0.480303  1
  Ba  Ba39  1  0.905923  0.531297  0.884549  1
  Ba  Ba40  1  0.770168  0.248766  0.833649  1
  Ba  Ba41  1  0.728191  0.667611  0.249491  1
  Ba  Ba42  1  0.765927  0.019940  0.931073  1
  Ba  Ba43  1  0.645942  0.395942  0.250000  1
  Ba  Ba44  1  0.649451  0.114066  0.520025  1
  Ba  Ba45  1  0.526740  0.128006  0.244879  1
  Ba  Ba46  1  0.585475  0.252036  0.019697  1
  Ba  Ba47  1  0.854420  0.375537  0.469810  1
  Ba  Ba48  1  0.853344  0.103344  0.750000  1
  Ba  Ba49  1  0.905727  0.875537  0.021117  1
  Ba  Ba50  1  0.883128  0.628006  0.101267  1
  Ba  Ba51  1  0.646749  0.031297  0.125374  1
  Ba  Ba52  1  0.918120  0.478701  0.250509  1
  Ba  Ba53  1  0.963725  0.212497  0.594530  1
  Ba  Ba54  1  0.973232  0.254875  0.370971  1
  Ba  Ba55  1  0.854129  0.248393  0.101276  1
  Sr  Sr56  1  0.250390  0.125378  0.874939  1
  Sr  Sr57  1  0.250439  0.625378  0.374988  1
  Sr  Sr58  1  0.750390  0.875451  0.125012  1
  Sr  Sr59  1  0.750439  0.375451  0.625061  1
  Sb  Sb60  1  0.113515  0.913408  0.813874  1
  Sb  Sb61  1  0.157121  0.584817  0.981227  1
  Sb  Sb62  1  0.250294  0.738356  0.761860  1
  Sb  Sb63  1  0.250390  0.887212  0.613109  1
  Sb  Sb64  1  0.104909  0.427090  0.584830  1
  Sb  Sb65  1  0.098684  0.186065  0.797308  1
  Sb  Sb66  1  0.007989  0.754271  0.003892  1
  Sb  Sb67  1  0.112172  0.698525  0.297465  1
  Sb  Sb68  1  0.342260  0.520079  0.915170  1
  Sb  Sb69  1  0.099535  0.413408  0.299893  1
  Sb  Sb70  1  0.103590  0.175894  0.518773  1
  Sb  Sb71  1  0.394653  0.980759  0.322685  1
  Sb  Sb72  1  0.388757  0.686065  0.587381  1
  Sb  Sb73  1  0.598684  0.801376  0.912619  1
  Sb  Sb74  1  0.390301  0.204894  0.802942  1
  Sb  Sb75  1  0.476496  0.488434  0.738140  1
  Sb  Sb76  1  0.401953  0.704894  0.314593  1
  Sb  Sb77  1  0.393621  0.913967  0.072638  1
  Sb  Sb78  1  0.341327  0.320983  0.427362  1
  Sb  Sb79  1  0.250380  0.004097  0.496108  1
  Sb  Sb80  1  0.274102  0.387212  0.136822  1
  Sb  Sb81  1  0.842260  0.927090  0.822181  1
  Sb  Sb82  1  0.158073  0.071967  0.177315  1
  Sb  Sb83  1  0.750294  0.988434  0.511938  1
  Sb  Sb84  1  0.774102  0.637282  0.886891  1
  Sb  Sb85  1  0.657121  0.675894  0.572304  1
  Sb  Sb86  1  0.603590  0.084817  0.927696  1
  Sb  Sb87  1  0.599535  0.299641  0.686126  1
  Sb  Sb88  1  0.507989  0.504097  0.253717  1
  Sb  Sb89  1  0.613515  0.799641  0.200107  1
  Sb  Sb90  1  0.401061  0.198525  0.086353  1
  Sb  Sb91  1  0.612172  0.314706  0.413647  1
  Sb  Sb92  1  0.604909  0.020079  0.677819  1
  Sb  Sb93  1  0.893621  0.820983  0.479655  1
  Sb  Sb94  1  0.901953  0.587360  0.697058  1
  Sb  Sb95  1  0.658073  0.480759  0.086106  1
  Sb  Sb96  1  0.888757  0.301376  0.702692  1
  Sb  Sb97  1  0.976496  0.238356  0.988062  1
  Sb  Sb98  1  0.901061  0.814706  0.202535  1
  Sb  Sb99  1  0.894653  0.571968  0.413894  1
  Sb  Sb100  1  0.750390  0.137282  0.363178  1
  Sb  Sb101  1  0.750380  0.254271  0.246283  1
  Sb  Sb102  1  0.841327  0.413967  0.020345  1
  Sb  Sb103  1  0.890301  0.087360  0.185407  1
