# generated using pymatgen
data_Zr6Sc8Al8Ir3Ru4
_symmetry_space_group_name_H-M   'P 1'
_cell_length_a   9.08683945
_cell_length_b   9.09646634
_cell_length_c   9.08683910
_cell_angle_alpha   59.96495216
_cell_angle_beta   60.07010491
_cell_angle_gamma   59.96495611
_symmetry_Int_Tables_number   1
_chemical_formula_structural   Zr6Sc8Al8Ir3Ru4
_chemical_formula_sum   'Zr6 Sc8 Al8 Ir3 Ru4'
_cell_volume   531.10755530
_cell_formula_units_Z   1
loop_
 _symmetry_equiv_pos_site_id
 _symmetry_equiv_pos_as_xyz
  1  'x, y, z'
loop_
 _atom_site_type_symbol
 _atom_site_label
 _atom_site_symmetry_multiplicity
 _atom_site_fract_x
 _atom_site_fract_y
 _atom_site_fract_z
 _atom_site_occupancy
  Zr  Zr0  1  0.676753  0.676753  0.323247  1
  Zr  Zr1  1  0.326952  0.673048  0.326952  1
  Zr  Zr2  1  0.676753  0.323247  0.323247  1
  Zr  Zr3  1  0.323247  0.323247  0.676753  1
  Zr  Zr4  1  0.673048  0.326952  0.673048  1
  Zr  Zr5  1  0.323247  0.676753  0.676753  1
  Sc  Sc6  1  0.879472  0.874588  0.371353  1
  Sc  Sc7  1  0.874588  0.371353  0.874588  1
  Sc  Sc8  1  0.371353  0.874588  0.879472  1
  Sc  Sc9  1  0.874588  0.879472  0.874588  1
  Sc  Sc10  1  0.120528  0.125412  0.628647  1
  Sc  Sc11  1  0.125412  0.628647  0.125412  1
  Sc  Sc12  1  0.628647  0.125412  0.120528  1
  Sc  Sc13  1  0.125412  0.120528  0.125412  1
  Al  Al14  1  0.662178  0.661394  0.015033  1
  Al  Al15  1  0.661394  0.015033  0.661394  1
  Al  Al16  1  0.015033  0.661394  0.662178  1
  Al  Al17  1  0.661394  0.662178  0.661394  1
  Al  Al18  1  0.337822  0.338606  0.984967  1
  Al  Al19  1  0.338606  0.984967  0.338606  1
  Al  Al20  1  0.984967  0.338606  0.337822  1
  Al  Al21  1  0.338606  0.337822  0.338606  1
  Ir  Ir22  1  0.000000  0.000000  0.000000  1
  Ir  Ir23  1  0.500000  0.000000  0.500000  1
  Ir  Ir24  1  0.000000  0.500000  0.000000  1
  Ru  Ru25  1  0.000000  0.000000  0.500000  1
  Ru  Ru26  1  0.000000  0.500000  0.500000  1
  Ru  Ru27  1  0.500000  0.500000  0.000000  1
  Ru  Ru28  1  0.500000  0.000000  0.000000  1
