# generated using pymatgen
data_Yb2MnRuO6
_symmetry_space_group_name_H-M   'P 1'
_cell_length_a   5.64454600
_cell_length_b   5.41069895
_cell_length_c   9.16708620
_cell_angle_alpha   54.40395004
_cell_angle_beta   90.00000000
_cell_angle_gamma   90.00000000
_symmetry_Int_Tables_number   1
_chemical_formula_structural   Yb2MnRuO6
_chemical_formula_sum   'Yb4 Mn2 Ru2 O12'
_cell_volume   227.65621120
_cell_formula_units_Z   2
loop_
 _symmetry_equiv_pos_site_id
 _symmetry_equiv_pos_as_xyz
  1  'x, y, z'
loop_
 _atom_site_type_symbol
 _atom_site_label
 _atom_site_symmetry_multiplicity
 _atom_site_fract_x
 _atom_site_fract_y
 _atom_site_fract_z
 _atom_site_occupancy
  Yb  Yb0  1  0.435136  0.264883  0.749699  1
  Yb  Yb1  1  0.935136  0.735117  0.750301  1
  Yb  Yb2  1  0.564864  0.735117  0.250301  1
  Yb  Yb3  1  0.064864  0.264883  0.249699  1
  Mn  Mn4  1  0.000000  0.000000  0.000000  1
  Mn  Mn5  1  0.500000  0.000000  0.500000  1
  Ru  Ru6  1  0.000000  0.500000  0.500000  1
  Ru  Ru7  1  0.500000  0.500000  0.000000  1
  O  O8  1  0.708307  0.638138  0.551238  1
  O  O9  1  0.208307  0.361862  0.948762  1
  O  O10  1  0.307927  0.744680  0.050516  1
  O  O11  1  0.807927  0.255320  0.449484  1
  O  O12  1  0.291693  0.361862  0.448762  1
  O  O13  1  0.791693  0.638138  0.051238  1
  O  O14  1  0.692073  0.255320  0.949484  1
  O  O15  1  0.192073  0.744680  0.550516  1
  O  O16  1  0.033126  0.144249  0.753907  1
  O  O17  1  0.533126  0.855751  0.746093  1
  O  O18  1  0.966874  0.855751  0.246093  1
  O  O19  1  0.466874  0.144249  0.253907  1
