# generated using pymatgen
data_Zr4TaTi2CrP4
_symmetry_space_group_name_H-M   'P 1'
_cell_length_a   3.54603700
_cell_length_b   6.76033806
_cell_length_c   8.13400655
_cell_angle_alpha   89.68763370
_cell_angle_beta   90.00000000
_cell_angle_gamma   90.00000000
_symmetry_Int_Tables_number   1
_chemical_formula_structural   Zr4TaTi2CrP4
_chemical_formula_sum   'Zr4 Ta1 Ti2 Cr1 P4'
_cell_volume   194.98883303
_cell_formula_units_Z   1
loop_
 _symmetry_equiv_pos_site_id
 _symmetry_equiv_pos_as_xyz
  1  'x, y, z'
loop_
 _atom_site_type_symbol
 _atom_site_label
 _atom_site_symmetry_multiplicity
 _atom_site_fract_x
 _atom_site_fract_y
 _atom_site_fract_z
 _atom_site_occupancy
  Zr  Zr0  1  0.250000  0.532704  0.166671  1
  Zr  Zr1  1  0.750000  0.456843  0.836078  1
  Zr  Zr2  1  0.750000  0.966718  0.673867  1
  Zr  Zr3  1  0.250000  0.037042  0.325680  1
  Ta  Ta4  1  0.250000  0.637148  0.561773  1
  Ti  Ti5  1  0.750000  0.360067  0.439857  1
  Ti  Ti6  1  0.750000  0.874139  0.057081  1
  Cr  Cr7  1  0.250000  0.133405  0.941661  1
  P  P8  1  0.250000  0.765102  0.865752  1
  P  P9  1  0.750000  0.237934  0.131007  1
  P  P10  1  0.750000  0.738064  0.355635  1
  P  P11  1  0.250000  0.260836  0.644935  1
