# generated using pymatgen
data_Tb16Al4PdRu3
_symmetry_space_group_name_H-M   'P 1'
_cell_length_a   9.56899470
_cell_length_b   9.56899347
_cell_length_c   9.56899357
_cell_angle_alpha   60.19265856
_cell_angle_beta   60.19266188
_cell_angle_gamma   60.19266015
_symmetry_Int_Tables_number   1
_chemical_formula_structural   Tb16Al4PdRu3
_chemical_formula_sum   'Tb16 Al4 Pd1 Ru3'
_cell_volume   622.26365414
_cell_formula_units_Z   1
loop_
 _symmetry_equiv_pos_site_id
 _symmetry_equiv_pos_as_xyz
  1  'x, y, z'
loop_
 _atom_site_type_symbol
 _atom_site_label
 _atom_site_symmetry_multiplicity
 _atom_site_fract_x
 _atom_site_fract_y
 _atom_site_fract_z
 _atom_site_occupancy
  Tb  Tb0  1  0.106477  0.689850  0.106477  1
  Tb  Tb1  1  0.944931  0.944931  0.548525  1
  Tb  Tb2  1  0.944931  0.548525  0.944931  1
  Tb  Tb3  1  0.311816  0.689327  0.311816  1
  Tb  Tb4  1  0.942730  0.555620  0.555620  1
  Tb  Tb5  1  0.311816  0.311816  0.689327  1
  Tb  Tb6  1  0.099422  0.099422  0.099422  1
  Tb  Tb7  1  0.555620  0.555620  0.942730  1
  Tb  Tb8  1  0.106477  0.106477  0.689850  1
  Tb  Tb9  1  0.689413  0.314642  0.689413  1
  Tb  Tb10  1  0.689413  0.689413  0.314642  1
  Tb  Tb11  1  0.689327  0.311816  0.311816  1
  Tb  Tb12  1  0.314642  0.689413  0.689413  1
  Tb  Tb13  1  0.555620  0.942730  0.555620  1
  Tb  Tb14  1  0.689850  0.106477  0.106477  1
  Tb  Tb15  1  0.548525  0.944931  0.944931  1
  Al  Al16  1  0.327180  0.327180  0.327180  1
  Al  Al17  1  0.019987  0.325681  0.325681  1
  Al  Al18  1  0.325681  0.019987  0.325681  1
  Al  Al19  1  0.325681  0.325681  0.019987  1
  Pd  Pd20  1  0.892752  0.892752  0.892752  1
  Ru  Ru21  1  0.889902  0.889902  0.327905  1
  Ru  Ru22  1  0.327905  0.889902  0.889902  1
  Ru  Ru23  1  0.889902  0.327905  0.889902  1
