# generated using pymatgen
data_Ba10Si6F
_symmetry_space_group_name_H-M   'P 1'
_cell_length_a   10.28334907
_cell_length_b   10.28334874
_cell_length_c   10.28334987
_cell_angle_alpha   131.15452435
_cell_angle_beta   131.15452374
_cell_angle_gamma   71.56768685
_symmetry_Int_Tables_number   1
_chemical_formula_structural   Ba10Si6F
_chemical_formula_sum   'Ba10 Si6 F1'
_cell_volume   603.23463224
_cell_formula_units_Z   1
loop_
 _symmetry_equiv_pos_site_id
 _symmetry_equiv_pos_as_xyz
  1  'x, y, z'
loop_
 _atom_site_type_symbol
 _atom_site_label
 _atom_site_symmetry_multiplicity
 _atom_site_fract_x
 _atom_site_fract_y
 _atom_site_fract_z
 _atom_site_occupancy
  Ba  Ba0  1  0.773432  0.428718  0.000000  1
  Ba  Ba1  1  0.428718  0.773433  0.000000  1
  Ba  Ba2  1  0.926664  0.926664  0.638462  1
  Ba  Ba3  1  0.288202  0.288202  0.361538  1
  Ba  Ba4  1  0.711798  0.073336  0.000000  1
  Ba  Ba5  1  0.073336  0.711798  0.000000  1
  Ba  Ba6  1  0.571282  0.571282  0.344714  1
  Ba  Ba7  1  0.226567  0.226567  0.655286  1
  Ba  Ba8  1  0.250000  0.750000  0.500000  1
  Ba  Ba9  1  0.750000  0.250000  0.500000  1
  Si  Si10  1  0.000000  0.500000  0.500000  1
  Si  Si11  1  0.500000  0.000000  0.500000  1
  Si  Si12  1  0.147539  0.350231  0.000000  1
  Si  Si13  1  0.350231  0.147539  0.000000  1
  Si  Si14  1  0.852461  0.852461  0.202692  1
  Si  Si15  1  0.649769  0.649769  0.797308  1
  F  F16  1  0.500000  0.500000  0.000000  1
