# generated using pymatgen
data_DyY19(Ag3Ir)2
_symmetry_space_group_name_H-M   'P 1'
_cell_length_a   9.54684200
_cell_length_b   9.54684226
_cell_length_c   9.71201400
_cell_angle_alpha   90.00000000
_cell_angle_beta   90.00000000
_cell_angle_gamma   119.99999909
_symmetry_Int_Tables_number   1
_chemical_formula_structural   DyY19(Ag3Ir)2
_chemical_formula_sum   'Dy1 Y19 Ag6 Ir2'
_cell_volume   766.58341215
_cell_formula_units_Z   1
loop_
 _symmetry_equiv_pos_site_id
 _symmetry_equiv_pos_as_xyz
  1  'x, y, z'
loop_
 _atom_site_type_symbol
 _atom_site_label
 _atom_site_symmetry_multiplicity
 _atom_site_fract_x
 _atom_site_fract_y
 _atom_site_fract_z
 _atom_site_occupancy
  Dy  Dy0  1  0.000000  0.000000  0.500000  1
  Y  Y1  1  0.000000  0.000000  0.000000  1
  Y  Y2  1  0.208004  0.791996  0.442188  1
  Y  Y3  1  0.208004  0.416008  0.442188  1
  Y  Y4  1  0.583992  0.791996  0.442188  1
  Y  Y5  1  0.791996  0.208004  0.557812  1
  Y  Y6  1  0.791996  0.583992  0.557812  1
  Y  Y7  1  0.416008  0.208004  0.557812  1
  Y  Y8  1  0.791901  0.208099  0.942148  1
  Y  Y9  1  0.791901  0.583802  0.942148  1
  Y  Y10  1  0.416198  0.208099  0.942148  1
  Y  Y11  1  0.208099  0.791901  0.057852  1
  Y  Y12  1  0.208099  0.416198  0.057852  1
  Y  Y13  1  0.583802  0.791901  0.057852  1
  Y  Y14  1  0.541732  0.458268  0.250052  1
  Y  Y15  1  0.541732  0.083464  0.250052  1
  Y  Y16  1  0.916536  0.458268  0.250052  1
  Y  Y17  1  0.458268  0.541732  0.749948  1
  Y  Y18  1  0.458268  0.916536  0.749948  1
  Y  Y19  1  0.083464  0.541732  0.749948  1
  Ag  Ag20  1  0.884070  0.115930  0.250177  1
  Ag  Ag21  1  0.884070  0.768142  0.250177  1
  Ag  Ag22  1  0.231858  0.115930  0.250177  1
  Ag  Ag23  1  0.115930  0.884070  0.749823  1
  Ag  Ag24  1  0.115930  0.231858  0.749823  1
  Ag  Ag25  1  0.768142  0.884070  0.749823  1
  Ir  Ir26  1  0.333333  0.666667  0.249986  1
  Ir  Ir27  1  0.666667  0.333333  0.750014  1
