# generated using pymatgen
data_Be8Mo3Os
_symmetry_space_group_name_H-M   'P 1'
_cell_length_a   4.41365900
_cell_length_b   4.41365941
_cell_length_c   7.25121100
_cell_angle_alpha   90.00000000
_cell_angle_beta   90.00000000
_cell_angle_gamma   120.00000444
_symmetry_Int_Tables_number   1
_chemical_formula_structural   Be8Mo3Os
_chemical_formula_sum   'Be8 Mo3 Os1'
_cell_volume   122.33162592
_cell_formula_units_Z   1
loop_
 _symmetry_equiv_pos_site_id
 _symmetry_equiv_pos_as_xyz
  1  'x, y, z'
loop_
 _atom_site_type_symbol
 _atom_site_label
 _atom_site_symmetry_multiplicity
 _atom_site_fract_x
 _atom_site_fract_y
 _atom_site_fract_z
 _atom_site_occupancy
  Be  Be0  1  0.000000  0.000000  0.499824  1
  Be  Be1  1  0.000000  0.000000  0.003489  1
  Be  Be2  1  0.830779  0.169221  0.252132  1
  Be  Be3  1  0.830779  0.661557  0.252132  1
  Be  Be4  1  0.338443  0.169221  0.252132  1
  Be  Be5  1  0.169407  0.830593  0.747912  1
  Be  Be6  1  0.169407  0.338814  0.747912  1
  Be  Be7  1  0.661186  0.830593  0.747912  1
  Mo  Mo8  1  0.666667  0.333333  0.559994  1
  Mo  Mo9  1  0.666667  0.333333  0.936951  1
  Mo  Mo10  1  0.333333  0.666667  0.061724  1
  Os  Os11  1  0.333333  0.666667  0.437887  1
