# generated using pymatgen
data_Nd6Dy7TmLu2(CdIr)4
_symmetry_space_group_name_H-M   'P 1'
_cell_length_a   9.71845264
_cell_length_b   9.72794685
_cell_length_c   9.70547027
_cell_angle_alpha   59.98264147
_cell_angle_beta   59.88352628
_cell_angle_gamma   59.91575960
_symmetry_Int_Tables_number   1
_chemical_formula_structural   Nd6Dy7TmLu2(CdIr)4
_chemical_formula_sum   'Nd6 Dy7 Tm1 Lu2 Cd4 Ir4'
_cell_volume   647.74273045
_cell_formula_units_Z   1
loop_
 _symmetry_equiv_pos_site_id
 _symmetry_equiv_pos_as_xyz
  1  'x, y, z'
loop_
 _atom_site_type_symbol
 _atom_site_label
 _atom_site_symmetry_multiplicity
 _atom_site_fract_x
 _atom_site_fract_y
 _atom_site_fract_z
 _atom_site_occupancy
  Nd  Nd0  1  0.939926  0.558729  0.559800  1
  Nd  Nd1  1  0.559034  0.941838  0.940193  1
  Nd  Nd2  1  0.559354  0.940574  0.559660  1
  Nd  Nd3  1  0.941335  0.558606  0.941077  1
  Nd  Nd4  1  0.559288  0.558559  0.940552  1
  Nd  Nd5  1  0.940354  0.941719  0.559436  1
  Dy  Dy6  1  0.347634  0.346624  0.348854  1
  Dy  Dy7  1  0.349484  0.347164  0.955629  1
  Dy  Dy8  1  0.349075  0.956407  0.347985  1
  Dy  Dy9  1  0.955795  0.348062  0.349351  1
  Dy  Dy10  1  0.813012  0.187746  0.184830  1
  Dy  Dy11  1  0.184632  0.814303  0.813306  1
  Dy  Dy12  1  0.187226  0.812640  0.186791  1
  Tm  Tm13  1  0.812202  0.813050  0.185618  1
  Lu  Lu14  1  0.813390  0.186379  0.813262  1
  Lu  Lu15  1  0.186148  0.188452  0.811875  1
  Cd  Cd16  1  0.579518  0.579174  0.579110  1
  Cd  Cd17  1  0.579860  0.579653  0.261233  1
  Cd  Cd18  1  0.579366  0.261728  0.579651  1
  Cd  Cd19  1  0.261126  0.579275  0.579816  1
  Ir  Ir20  1  0.142503  0.141166  0.139886  1
  Ir  Ir21  1  0.140720  0.142227  0.578632  1
  Ir  Ir22  1  0.140698  0.576014  0.142881  1
  Ir  Ir23  1  0.578319  0.139908  0.140572  1
