# generated using pymatgen
data_Gd5Ho(SnIr)6
_symmetry_space_group_name_H-M   'P 1'
_cell_length_a   7.45041500
_cell_length_b   7.49569171
_cell_length_c   7.87495600
_cell_angle_alpha   90.00000000
_cell_angle_beta   90.00000000
_cell_angle_gamma   120.24471374
_symmetry_Int_Tables_number   1
_chemical_formula_structural   Gd5Ho(SnIr)6
_chemical_formula_sum   'Gd5 Ho1 Sn6 Ir6'
_cell_volume   379.92225271
_cell_formula_units_Z   1
loop_
 _symmetry_equiv_pos_site_id
 _symmetry_equiv_pos_as_xyz
  1  'x, y, z'
loop_
 _atom_site_type_symbol
 _atom_site_label
 _atom_site_symmetry_multiplicity
 _atom_site_fract_x
 _atom_site_fract_y
 _atom_site_fract_z
 _atom_site_occupancy
  Gd  Gd0  1  0.408018  0.002840  0.250000  1
  Gd  Gd1  1  0.593933  0.593181  0.750000  1
  Gd  Gd2  1  0.592605  0.593810  0.250000  1
  Gd  Gd3  1  0.000851  0.407441  0.750000  1
  Gd  Gd4  1  0.405695  0.998186  0.750000  1
  Ho  Ho5  1  0.999415  0.403797  0.250000  1
  Sn  Sn6  1  0.258890  0.258862  0.500618  1
  Sn  Sn7  1  0.258890  0.258862  0.999382  1
  Sn  Sn8  1  0.741158  0.999490  0.999266  1
  Sn  Sn9  1  0.999753  0.742278  0.497094  1
  Sn  Sn10  1  0.741158  0.999490  0.500734  1
  Sn  Sn11  1  0.999753  0.742278  0.002906  1
  Ir  Ir12  1  0.670112  0.334315  0.499366  1
  Ir  Ir13  1  0.670112  0.334315  0.000634  1
  Ir  Ir14  1  0.330113  0.663899  0.002648  1
  Ir  Ir15  1  0.330113  0.663899  0.497352  1
  Ir  Ir16  1  0.000079  0.999160  0.750000  1
  Ir  Ir17  1  0.999352  0.003896  0.250000  1
