# generated using pymatgen
data_CsPr5Tm(CBr6)2
_symmetry_space_group_name_H-M   'P 1'
_cell_length_a   9.18062350
_cell_length_b   9.23296756
_cell_length_c   9.65212957
_cell_angle_alpha   72.18530127
_cell_angle_beta   70.86964219
_cell_angle_gamma   72.64006922
_symmetry_Int_Tables_number   1
_chemical_formula_structural   CsPr5Tm(CBr6)2
_chemical_formula_sum   'Cs1 Pr5 Tm1 C2 Br12'
_cell_volume   717.83934601
_cell_formula_units_Z   1
loop_
 _symmetry_equiv_pos_site_id
 _symmetry_equiv_pos_as_xyz
  1  'x, y, z'
loop_
 _atom_site_type_symbol
 _atom_site_label
 _atom_site_symmetry_multiplicity
 _atom_site_fract_x
 _atom_site_fract_y
 _atom_site_fract_z
 _atom_site_occupancy
  Cs  Cs0  1  0.002331  0.498292  0.999528  1
  Pr  Pr1  1  0.784264  0.033193  0.402210  1
  Pr  Pr2  1  0.596765  0.719658  0.474166  1
  Pr  Pr3  1  0.404722  0.280658  0.528237  1
  Pr  Pr4  1  0.215838  0.968072  0.593714  1
  Pr  Pr5  1  0.523677  0.882764  0.821657  1
  Tm  Tm6  1  0.472788  0.114647  0.190855  1
  C  C7  1  0.493250  0.027333  0.423480  1
  C  C8  1  0.506527  0.975315  0.573299  1
  Br  Br9  1  0.780748  0.159614  0.079466  1
  Br  Br10  1  0.580553  0.802085  0.143452  1
  Br  Br11  1  0.355500  0.420353  0.218091  1
  Br  Br12  1  0.148060  0.076393  0.282971  1
  Br  Br13  1  0.930731  0.720789  0.350182  1
  Br  Br14  1  0.719499  0.367032  0.425068  1
  Br  Br15  1  0.282357  0.633107  0.571179  1
  Br  Br16  1  0.071441  0.279784  0.649087  1
  Br  Br17  1  0.864987  0.925433  0.706353  1
  Br  Br18  1  0.651333  0.564812  0.776965  1
  Br  Br19  1  0.416685  0.212209  0.870029  1
  Br  Br20  1  0.197950  0.838454  0.920010  1
