# generated using pymatgen
data_Y3P6OsRh8
_symmetry_space_group_name_H-M   'P 1'
_cell_length_a   3.94826000
_cell_length_b   11.30839700
_cell_length_c   12.66614000
_cell_angle_alpha   90.00000000
_cell_angle_beta   90.00000000
_cell_angle_gamma   90.00000000
_symmetry_Int_Tables_number   1
_chemical_formula_structural   Y3P6OsRh8
_chemical_formula_sum   'Y6 P12 Os2 Rh16'
_cell_volume   565.52404462
_cell_formula_units_Z   2
loop_
 _symmetry_equiv_pos_site_id
 _symmetry_equiv_pos_as_xyz
  1  'x, y, z'
loop_
 _atom_site_type_symbol
 _atom_site_label
 _atom_site_symmetry_multiplicity
 _atom_site_fract_x
 _atom_site_fract_y
 _atom_site_fract_z
 _atom_site_occupancy
  Y  Y0  1  0.000000  0.500000  0.519383  1
  Y  Y1  1  0.500000  0.000000  0.480617  1
  Y  Y2  1  0.500000  0.821230  0.205300  1
  Y  Y3  1  0.500000  0.178770  0.205300  1
  Y  Y4  1  0.000000  0.678770  0.794700  1
  Y  Y5  1  0.000000  0.321230  0.794700  1
  P  P6  1  0.500000  0.500000  0.883137  1
  P  P7  1  0.000000  0.000000  0.116863  1
  P  P8  1  0.500000  0.500000  0.348078  1
  P  P9  1  0.000000  0.000000  0.651922  1
  P  P10  1  0.500000  0.314347  0.618951  1
  P  P11  1  0.500000  0.685653  0.618951  1
  P  P12  1  0.000000  0.185653  0.381049  1
  P  P13  1  0.000000  0.814347  0.381049  1
  P  P14  1  0.500000  0.843839  0.891728  1
  P  P15  1  0.500000  0.156161  0.891728  1
  P  P16  1  0.000000  0.656161  0.108272  1
  P  P17  1  0.000000  0.343839  0.108272  1
  Os  Os18  1  0.000000  0.500000  0.991238  1
  Os  Os19  1  0.500000  0.000000  0.008762  1
  Rh  Rh20  1  0.500000  0.500000  0.161628  1
  Rh  Rh21  1  0.000000  0.000000  0.838372  1
  Rh  Rh22  1  0.500000  0.500000  0.701128  1
  Rh  Rh23  1  0.000000  0.000000  0.298872  1
  Rh  Rh24  1  0.500000  0.331447  0.992027  1
  Rh  Rh25  1  0.500000  0.668553  0.992027  1
  Rh  Rh26  1  0.000000  0.168553  0.007973  1
  Rh  Rh27  1  0.000000  0.831447  0.007973  1
  Rh  Rh28  1  0.500000  0.295750  0.431145  1
  Rh  Rh29  1  0.500000  0.704250  0.431145  1
  Rh  Rh30  1  0.000000  0.204250  0.568855  1
  Rh  Rh31  1  0.000000  0.795750  0.568855  1
  Rh  Rh32  1  0.500000  0.871604  0.711497  1
  Rh  Rh33  1  0.500000  0.128396  0.711497  1
  Rh  Rh34  1  0.000000  0.628396  0.288503  1
  Rh  Rh35  1  0.000000  0.371604  0.288503  1
