# generated using pymatgen
data_Eu2VTcO8
_symmetry_space_group_name_H-M   'P 1'
_cell_length_a   6.24871636
_cell_length_b   6.24871600
_cell_length_c   6.24871677
_cell_angle_alpha   106.10806823
_cell_angle_beta   106.10806635
_cell_angle_gamma   116.42974581
_symmetry_Int_Tables_number   1
_chemical_formula_structural   Eu2VTcO8
_chemical_formula_sum   'Eu2 V1 Tc1 O8'
_cell_volume   185.72171799
_cell_formula_units_Z   1
loop_
 _symmetry_equiv_pos_site_id
 _symmetry_equiv_pos_as_xyz
  1  'x, y, z'
loop_
 _atom_site_type_symbol
 _atom_site_label
 _atom_site_symmetry_multiplicity
 _atom_site_fract_x
 _atom_site_fract_y
 _atom_site_fract_z
 _atom_site_occupancy
  Eu  Eu0  1  0.500000  0.500000  0.000000  1
  Eu  Eu1  1  0.750000  0.250000  0.500000  1
  V  V2  1  0.000000  0.000000  0.000000  1
  Tc  Tc3  1  0.250000  0.750000  0.500000  1
  O  O4  1  0.832626  0.013671  0.181045  1
  O  O5  1  0.895916  0.579932  0.315984  1
  O  O6  1  0.263948  0.579932  0.684016  1
  O  O7  1  0.832626  0.651581  0.818955  1
  O  O8  1  0.348419  0.167374  0.181045  1
  O  O9  1  0.420068  0.736052  0.315984  1
  O  O10  1  0.420068  0.104084  0.684016  1
  O  O11  1  0.986329  0.167374  0.818955  1
