# generated using pymatgen
data_Nd3HoIr3RhO14
_symmetry_space_group_name_H-M   'P 1'
_cell_length_a   7.36623418
_cell_length_b   7.36623341
_cell_length_c   7.33994755
_cell_angle_alpha   59.88146296
_cell_angle_beta   59.88146144
_cell_angle_gamma   60.00000312
_symmetry_Int_Tables_number   1
_chemical_formula_structural   Nd3HoIr3RhO14
_chemical_formula_sum   'Nd3 Ho1 Ir3 Rh1 O14'
_cell_volume   281.11790874
_cell_formula_units_Z   1
loop_
 _symmetry_equiv_pos_site_id
 _symmetry_equiv_pos_as_xyz
  1  'x, y, z'
loop_
 _atom_site_type_symbol
 _atom_site_label
 _atom_site_symmetry_multiplicity
 _atom_site_fract_x
 _atom_site_fract_y
 _atom_site_fract_z
 _atom_site_occupancy
  Nd  Nd0  1  0.625000  0.125000  0.125000  1
  Nd  Nd1  1  0.125000  0.625000  0.125000  1
  Nd  Nd2  1  0.125000  0.125000  0.125000  1
  Ho  Ho3  1  0.125000  0.125000  0.625000  1
  Ir  Ir4  1  0.125000  0.625000  0.625000  1
  Ir  Ir5  1  0.625000  0.125000  0.625000  1
  Ir  Ir6  1  0.625000  0.625000  0.625000  1
  Rh  Rh7  1  0.625000  0.625000  0.125000  1
  O  O8  1  0.709604  0.709604  0.293649  1
  O  O9  1  0.292556  0.292556  0.697960  1
  O  O10  1  0.716928  0.292556  0.697960  1
  O  O11  1  0.287144  0.709604  0.293649  1
  O  O12  1  0.292556  0.716928  0.697960  1
  O  O13  1  0.709604  0.287144  0.293649  1
  O  O14  1  0.540396  0.540396  0.956351  1
  O  O15  1  0.957444  0.957444  0.552040  1
  O  O16  1  0.533072  0.957444  0.552040  1
  O  O17  1  0.962856  0.540396  0.956351  1
  O  O18  1  0.957444  0.533072  0.552040  1
  O  O19  1  0.540396  0.962856  0.956351  1
  O  O20  1  0.245437  0.245437  0.263691  1
  O  O21  1  0.004563  0.004563  0.986309  1
