# generated using pymatgen
data_YbSmEu2(Ga2Ag)4
_symmetry_space_group_name_H-M   'P 1'
_cell_length_a   4.45162400
_cell_length_b   7.10722162
_cell_length_c   10.59427510
_cell_angle_alpha   90.26147852
_cell_angle_beta   90.00000000
_cell_angle_gamma   90.00000000
_symmetry_Int_Tables_number   1
_chemical_formula_structural   YbSmEu2(Ga2Ag)4
_chemical_formula_sum   'Yb1 Sm1 Eu2 Ga8 Ag4'
_cell_volume   335.18537168
_cell_formula_units_Z   1
loop_
 _symmetry_equiv_pos_site_id
 _symmetry_equiv_pos_as_xyz
  1  'x, y, z'
loop_
 _atom_site_type_symbol
 _atom_site_label
 _atom_site_symmetry_multiplicity
 _atom_site_fract_x
 _atom_site_fract_y
 _atom_site_fract_z
 _atom_site_occupancy
  Yb  Yb0  1  0.250000  0.278974  0.670822  1
  Sm  Sm1  1  0.250000  0.783492  0.826318  1
  Eu  Eu2  1  0.750000  0.219220  0.171928  1
  Eu  Eu3  1  0.750000  0.719459  0.328794  1
  Ga  Ga4  1  0.250000  0.699307  0.536724  1
  Ga  Ga5  1  0.750000  0.299118  0.468749  1
  Ga  Ga6  1  0.750000  0.794854  0.032984  1
  Ga  Ga7  1  0.250000  0.204566  0.962080  1
  Ga  Ga8  1  0.250000  0.919630  0.146451  1
  Ga  Ga9  1  0.750000  0.079756  0.849490  1
  Ga  Ga10  1  0.750000  0.575414  0.650421  1
  Ga  Ga11  1  0.250000  0.420296  0.351675  1
  Ag  Ag12  1  0.250000  0.539412  0.096281  1
  Ag  Ag13  1  0.750000  0.460766  0.897185  1
  Ag  Ag14  1  0.750000  0.964340  0.602905  1
  Ag  Ag15  1  0.250000  0.041395  0.407191  1
