# generated using pymatgen
data_BaNi9Sb5
_symmetry_space_group_name_H-M   'P 1'
_cell_length_a   7.11984500
_cell_length_b   7.11984469
_cell_length_c   12.03881400
_cell_angle_alpha   90.00000000
_cell_angle_beta   90.00000000
_cell_angle_gamma   120.00000606
_symmetry_Int_Tables_number   1
_chemical_formula_structural   BaNi9Sb5
_chemical_formula_sum   'Ba2 Ni18 Sb10'
_cell_volume   528.51262897
_cell_formula_units_Z   2
loop_
 _symmetry_equiv_pos_site_id
 _symmetry_equiv_pos_as_xyz
  1  'x, y, z'
loop_
 _atom_site_type_symbol
 _atom_site_label
 _atom_site_symmetry_multiplicity
 _atom_site_fract_x
 _atom_site_fract_y
 _atom_site_fract_z
 _atom_site_occupancy
  Ba  Ba0  1  0.000000  0.000000  0.000000  1
  Ba  Ba1  1  0.000000  0.000000  0.500000  1
  Ni  Ni2  1  0.535844  0.464156  0.104923  1
  Ni  Ni3  1  0.071688  0.535844  0.604923  1
  Ni  Ni4  1  0.464156  0.928312  0.604923  1
  Ni  Ni5  1  0.535844  0.071688  0.104923  1
  Ni  Ni6  1  0.928312  0.464156  0.104923  1
  Ni  Ni7  1  0.071688  0.535844  0.895077  1
  Ni  Ni8  1  0.464156  0.928312  0.895077  1
  Ni  Ni9  1  0.464156  0.535844  0.604923  1
  Ni  Ni10  1  0.464156  0.535844  0.895077  1
  Ni  Ni11  1  0.535844  0.464156  0.395077  1
  Ni  Ni12  1  0.928312  0.464156  0.395077  1
  Ni  Ni13  1  0.535844  0.071688  0.395077  1
  Ni  Ni14  1  0.216804  0.783196  0.250000  1
  Ni  Ni15  1  0.433608  0.216804  0.750000  1
  Ni  Ni16  1  0.783196  0.566392  0.750000  1
  Ni  Ni17  1  0.216804  0.433608  0.250000  1
  Ni  Ni18  1  0.566392  0.783196  0.250000  1
  Ni  Ni19  1  0.783196  0.216804  0.750000  1
  Sb  Sb20  1  0.828995  0.171005  0.250000  1
  Sb  Sb21  1  0.657989  0.828995  0.750000  1
  Sb  Sb22  1  0.171005  0.342011  0.750000  1
  Sb  Sb23  1  0.828995  0.657989  0.250000  1
  Sb  Sb24  1  0.342011  0.171005  0.250000  1
  Sb  Sb25  1  0.171005  0.828995  0.750000  1
  Sb  Sb26  1  0.333333  0.666667  0.060233  1
  Sb  Sb27  1  0.666667  0.333333  0.560233  1
  Sb  Sb28  1  0.666667  0.333333  0.939767  1
  Sb  Sb29  1  0.333333  0.666667  0.439767  1
