# generated using pymatgen
data_YbDy4Y3(ReC2)4
_symmetry_space_group_name_H-M   'P 1'
_cell_length_a   5.12325200
_cell_length_b   6.57532972
_cell_length_c   9.94422200
_cell_angle_alpha   89.38291271
_cell_angle_beta   90.00000000
_cell_angle_gamma   90.00000000
_symmetry_Int_Tables_number   1
_chemical_formula_structural   YbDy4Y3(ReC2)4
_chemical_formula_sum   'Yb1 Dy4 Y3 Re4 C8'
_cell_volume   334.97228505
_cell_formula_units_Z   1
loop_
 _symmetry_equiv_pos_site_id
 _symmetry_equiv_pos_as_xyz
  1  'x, y, z'
loop_
 _atom_site_type_symbol
 _atom_site_label
 _atom_site_symmetry_multiplicity
 _atom_site_fract_x
 _atom_site_fract_y
 _atom_site_fract_z
 _atom_site_occupancy
  Yb  Yb0  1  0.250000  0.033004  0.280477  1
  Dy  Dy1  1  0.250000  0.684459  0.554267  1
  Dy  Dy2  1  0.750000  0.315197  0.443897  1
  Dy  Dy3  1  0.750000  0.817719  0.056272  1
  Dy  Dy4  1  0.250000  0.180263  0.945581  1
  Y  Y5  1  0.250000  0.531389  0.220194  1
  Y  Y6  1  0.750000  0.467526  0.781472  1
  Y  Y7  1  0.750000  0.966978  0.718416  1
  Re  Re8  1  0.250000  0.721694  0.862663  1
  Re  Re9  1  0.750000  0.278032  0.135732  1
  Re  Re10  1  0.750000  0.776841  0.364057  1
  Re  Re11  1  0.250000  0.225654  0.636317  1
  C  C12  1  0.250000  0.456086  0.759845  1
  C  C13  1  0.750000  0.544268  0.240916  1
  C  C14  1  0.750000  0.043476  0.259065  1
  C  C15  1  0.250000  0.957524  0.739581  1
  C  C16  1  0.250000  0.813192  0.044222  1
  C  C17  1  0.750000  0.178050  0.953849  1
  C  C18  1  0.750000  0.683258  0.548265  1
  C  C19  1  0.250000  0.325390  0.454916  1
