# generated using pymatgen
data_DyTmBe25Ni
_symmetry_space_group_name_H-M   'P 1'
_cell_length_a   7.21304254
_cell_length_b   7.23447500
_cell_length_c   7.19363020
_cell_angle_alpha   59.99050270
_cell_angle_beta   59.85988349
_cell_angle_gamma   59.72787063
_symmetry_Int_Tables_number   1
_chemical_formula_structural   DyTmBe25Ni
_chemical_formula_sum   'Dy1 Tm1 Be25 Ni1'
_cell_volume   264.58570197
_cell_formula_units_Z   1
loop_
 _symmetry_equiv_pos_site_id
 _symmetry_equiv_pos_as_xyz
  1  'x, y, z'
loop_
 _atom_site_type_symbol
 _atom_site_label
 _atom_site_symmetry_multiplicity
 _atom_site_fract_x
 _atom_site_fract_y
 _atom_site_fract_z
 _atom_site_occupancy
  Dy  Dy0  1  0.249394  0.251972  0.250425  1
  Tm  Tm1  1  0.749596  0.751735  0.750949  1
  Be  Be2  1  0.501086  0.500608  0.498913  1
  Be  Be3  1  0.999535  0.001634  0.000448  1
  Be  Be4  1  0.203379  0.439977  0.796224  1
  Be  Be5  1  0.565580  0.790539  0.434779  1
  Be  Be6  1  0.435603  0.206562  0.564765  1
  Be  Be7  1  0.291611  0.935581  0.708715  1
  Be  Be8  1  0.708012  0.063736  0.292335  1
  Be  Be9  1  0.934974  0.289070  0.064706  1
  Be  Be10  1  0.066474  0.713833  0.933234  1
  Be  Be11  1  0.206655  0.795317  0.561309  1
  Be  Be12  1  0.792481  0.204640  0.439139  1
  Be  Be13  1  0.438977  0.563594  0.793066  1
  Be  Be14  1  0.561210  0.436600  0.207208  1
  Be  Be15  1  0.710355  0.286782  0.935883  1
  Be  Be16  1  0.288806  0.711137  0.064209  1
  Be  Be17  1  0.063830  0.932791  0.289951  1
  Be  Be18  1  0.935500  0.063892  0.711466  1
  Be  Be19  1  0.561278  0.208498  0.792370  1
  Be  Be20  1  0.436655  0.791347  0.207832  1
  Be  Be21  1  0.791791  0.436225  0.563636  1
  Be  Be22  1  0.207305  0.562508  0.439056  1
  Be  Be23  1  0.936995  0.710277  0.290301  1
  Be  Be24  1  0.064460  0.289815  0.709489  1
  Be  Be25  1  0.290872  0.063449  0.935205  1
  Be  Be26  1  0.710050  0.937270  0.062617  1
  Ni  Ni27  1  0.797535  0.560613  0.201771  1
