# generated using pymatgen
data_Zr4Re5TcW2
_symmetry_space_group_name_H-M   'P 1'
_cell_length_a   5.28954952
_cell_length_b   5.37947587
_cell_length_c   8.76454526
_cell_angle_alpha   90.00000092
_cell_angle_beta   89.71081300
_cell_angle_gamma   120.56399209
_symmetry_Int_Tables_number   1
_chemical_formula_structural   Zr4Re5TcW2
_chemical_formula_sum   'Zr4 Re5 Tc1 W2'
_cell_volume   214.74095692
_cell_formula_units_Z   1
loop_
 _symmetry_equiv_pos_site_id
 _symmetry_equiv_pos_as_xyz
  1  'x, y, z'
loop_
 _atom_site_type_symbol
 _atom_site_label
 _atom_site_symmetry_multiplicity
 _atom_site_fract_x
 _atom_site_fract_y
 _atom_site_fract_z
 _atom_site_occupancy
  Zr  Zr0  1  0.336546  0.668274  0.438262  1
  Zr  Zr1  1  0.664259  0.332130  0.937839  1
  Zr  Zr2  1  0.663454  0.331726  0.561738  1
  Zr  Zr3  1  0.335741  0.667870  0.062161  1
  Re  Re4  1  0.830627  0.172472  0.249318  1
  Re  Re5  1  0.169373  0.341846  0.750682  1
  Re  Re6  1  0.169373  0.827528  0.750682  1
  Re  Re7  1  0.830627  0.658154  0.249318  1
  Re  Re8  1  0.000000  0.000000  0.000000  1
  Tc  Tc9  1  0.000000  0.000000  0.500000  1
  W  W10  1  0.662406  0.831203  0.749147  1
  W  W11  1  0.337594  0.168797  0.250853  1
