# generated using pymatgen
data_NaFe(CoSb4)3
_symmetry_space_group_name_H-M   'P 1'
_cell_length_a   7.94168281
_cell_length_b   7.94168368
_cell_length_c   7.94168296
_cell_angle_alpha   109.51142356
_cell_angle_beta   109.51143009
_cell_angle_gamma   109.51143036
_symmetry_Int_Tables_number   1
_chemical_formula_structural   NaFe(CoSb4)3
_chemical_formula_sum   'Na1 Fe1 Co3 Sb12'
_cell_volume   385.00607384
_cell_formula_units_Z   1
loop_
 _symmetry_equiv_pos_site_id
 _symmetry_equiv_pos_as_xyz
  1  'x, y, z'
loop_
 _atom_site_type_symbol
 _atom_site_label
 _atom_site_symmetry_multiplicity
 _atom_site_fract_x
 _atom_site_fract_y
 _atom_site_fract_z
 _atom_site_occupancy
  Na  Na0  1  0.000000  0.000000  0.000000  1
  Fe  Fe1  1  0.500000  0.500000  0.500000  1
  Co  Co2  1  0.000000  0.000000  0.500000  1
  Co  Co3  1  0.000000  0.500000  0.000000  1
  Co  Co4  1  0.500000  0.000000  0.000000  1
  Sb  Sb5  1  0.664325  0.824903  0.160241  1
  Sb  Sb6  1  0.839759  0.335675  0.175097  1
  Sb  Sb7  1  0.504646  0.837741  0.664748  1
  Sb  Sb8  1  0.837741  0.664748  0.504646  1
  Sb  Sb9  1  0.495354  0.162259  0.335252  1
  Sb  Sb10  1  0.160241  0.664325  0.824903  1
  Sb  Sb11  1  0.824903  0.160241  0.664325  1
  Sb  Sb12  1  0.175097  0.839759  0.335675  1
  Sb  Sb13  1  0.162259  0.335252  0.495354  1
  Sb  Sb14  1  0.664748  0.504646  0.837741  1
  Sb  Sb15  1  0.335252  0.495354  0.162259  1
  Sb  Sb16  1  0.335675  0.175097  0.839759  1
