# generated using pymatgen
data_Gd3HgRh2Pb3
_symmetry_space_group_name_H-M   'P 1'
_cell_length_a   7.92226100
_cell_length_b   7.92226174
_cell_length_c   3.92298400
_cell_angle_alpha   90.00000000
_cell_angle_beta   90.00000000
_cell_angle_gamma   119.99998439
_symmetry_Int_Tables_number   1
_chemical_formula_structural   Gd3HgRh2Pb3
_chemical_formula_sum   'Gd3 Hg1 Rh2 Pb3'
_cell_volume   213.22865610
_cell_formula_units_Z   1
loop_
 _symmetry_equiv_pos_site_id
 _symmetry_equiv_pos_as_xyz
  1  'x, y, z'
loop_
 _atom_site_type_symbol
 _atom_site_label
 _atom_site_symmetry_multiplicity
 _atom_site_fract_x
 _atom_site_fract_y
 _atom_site_fract_z
 _atom_site_occupancy
  Gd  Gd0  1  0.025539  0.611718  0.500000  1
  Gd  Gd1  1  0.586178  0.974461  0.500000  1
  Gd  Gd2  1  0.388282  0.413822  0.500000  1
  Hg  Hg3  1  0.666667  0.333333  0.000000  1
  Rh  Rh4  1  0.000000  0.000000  0.500000  1
  Rh  Rh5  1  0.333333  0.666667  0.000000  1
  Pb  Pb6  1  0.003443  0.258283  0.000000  1
  Pb  Pb7  1  0.254839  0.996557  0.000000  1
  Pb  Pb8  1  0.741717  0.745161  0.000000  1
