# generated using pymatgen
data_Tb11In9HgIr3
_symmetry_space_group_name_H-M   'P 1'
_cell_length_a   3.72032600
_cell_length_b   13.25183601
_cell_length_c   13.22656964
_cell_angle_alpha   110.79158796
_cell_angle_beta   90.00000000
_cell_angle_gamma   90.00000000
_symmetry_Int_Tables_number   1
_chemical_formula_structural   Tb11In9HgIr3
_chemical_formula_sum   'Tb11 In9 Hg1 Ir3'
_cell_volume   609.61987999
_cell_formula_units_Z   1
loop_
 _symmetry_equiv_pos_site_id
 _symmetry_equiv_pos_as_xyz
  1  'x, y, z'
loop_
 _atom_site_type_symbol
 _atom_site_label
 _atom_site_symmetry_multiplicity
 _atom_site_fract_x
 _atom_site_fract_y
 _atom_site_fract_z
 _atom_site_occupancy
  Tb  Tb0  1  0.000000  0.940531  0.589019  1
  Tb  Tb1  1  0.000000  0.083647  0.421472  1
  Tb  Tb2  1  0.000000  0.580937  0.924317  1
  Tb  Tb3  1  0.000000  0.415847  0.076094  1
  Tb  Tb4  1  0.000000  0.160108  0.841848  1
  Tb  Tb5  1  0.000000  0.839315  0.156559  1
  Tb  Tb6  1  0.000000  0.372397  0.625597  1
  Tb  Tb7  1  0.000000  0.612669  0.353497  1
  Tb  Tb8  1  0.000000  0.678202  0.700251  1
  Tb  Tb9  1  0.000000  0.311110  0.311804  1
  Tb  Tb10  1  0.000000  0.999788  0.000419  1
  In  In11  1  0.500000  0.163605  0.635934  1
  In  In12  1  0.500000  0.850289  0.366797  1
  In  In13  1  0.500000  0.634405  0.155994  1
  In  In14  1  0.500000  0.366625  0.841965  1
  In  In15  1  0.500000  0.931331  0.785807  1
  In  In16  1  0.500000  0.074206  0.218483  1
  In  In17  1  0.500000  0.782555  0.926790  1
  In  In18  1  0.500000  0.216610  0.074434  1
  In  In19  1  0.500000  0.495119  0.497854  1
  Hg  Hg20  1  0.500000  0.747606  0.545286  1
  Ir  Ir21  1  0.500000  0.247588  0.450061  1
  Ir  Ir22  1  0.500000  0.546841  0.757017  1
  Ir  Ir23  1  0.500000  0.448668  0.242700  1
