# generated using pymatgen
data_NaPrSm5RhBr12
_symmetry_space_group_name_H-M   'P 1'
_cell_length_a   9.54662398
_cell_length_b   9.45492362
_cell_length_c   9.43704606
_cell_angle_alpha   106.66315733
_cell_angle_beta   106.73065898
_cell_angle_gamma   107.45486543
_symmetry_Int_Tables_number   1
_chemical_formula_structural   NaPrSm5RhBr12
_chemical_formula_sum   'Na1 Pr1 Sm5 Rh1 Br12'
_cell_volume   710.33892871
_cell_formula_units_Z   1
loop_
 _symmetry_equiv_pos_site_id
 _symmetry_equiv_pos_as_xyz
  1  'x, y, z'
loop_
 _atom_site_type_symbol
 _atom_site_label
 _atom_site_symmetry_multiplicity
 _atom_site_fract_x
 _atom_site_fract_y
 _atom_site_fract_z
 _atom_site_occupancy
  Na  Na0  1  0.499967  0.500325  0.499436  1
  Pr  Pr1  1  0.889344  0.680492  0.971484  1
  Sm  Sm2  1  0.109367  0.313671  0.028580  1
  Sm  Sm3  1  0.326805  0.030760  0.114871  1
  Sm  Sm4  1  0.028562  0.110451  0.313821  1
  Sm  Sm5  1  0.972275  0.892272  0.687453  1
  Sm  Sm6  1  0.672825  0.967735  0.885320  1
  Rh  Rh7  1  0.000125  0.000029  0.000728  1
  Br  Br8  1  0.222451  0.684071  0.075136  1
  Br  Br9  1  0.449590  0.368713  0.150270  1
  Br  Br10  1  0.684370  0.073885  0.217671  1
  Br  Br11  1  0.929306  0.787924  0.324266  1
  Br  Br12  1  0.152373  0.451711  0.367881  1
  Br  Br13  1  0.366199  0.151098  0.450921  1
  Br  Br14  1  0.634357  0.850365  0.549740  1
  Br  Br15  1  0.846956  0.548739  0.624805  1
  Br  Br16  1  0.073091  0.218239  0.683791  1
  Br  Br17  1  0.316086  0.927778  0.783210  1
  Br  Br18  1  0.543103  0.629975  0.845201  1
  Br  Br19  1  0.782852  0.311767  0.925418  1
