# generated using pymatgen
data_Ti7Nb7As8
_symmetry_space_group_name_H-M   'P 1'
_cell_length_a   7.90147822
_cell_length_b   7.90147903
_cell_length_c   14.16446116
_cell_angle_alpha   75.88005462
_cell_angle_beta   75.88005241
_cell_angle_gamma   25.68296485
_symmetry_Int_Tables_number   1
_chemical_formula_structural   Ti7Nb7As8
_chemical_formula_sum   'Ti7 Nb7 As8'
_cell_volume   371.07189683
_cell_formula_units_Z   1
loop_
 _symmetry_equiv_pos_site_id
 _symmetry_equiv_pos_as_xyz
  1  'x, y, z'
loop_
 _atom_site_type_symbol
 _atom_site_label
 _atom_site_symmetry_multiplicity
 _atom_site_fract_x
 _atom_site_fract_y
 _atom_site_fract_z
 _atom_site_occupancy
  Ti  Ti0  1  0.790860  0.790860  0.795040  1
  Ti  Ti1  1  0.338790  0.338790  0.966606  1
  Ti  Ti2  1  0.660873  0.660873  0.033520  1
  Ti  Ti3  1  0.000551  0.000551  0.339436  1
  Ti  Ti4  1  0.998320  0.998320  0.660194  1
  Ti  Ti5  1  0.180691  0.180691  0.454588  1
  Ti  Ti6  1  0.819356  0.819356  0.545522  1
  Nb  Nb7  1  0.000854  0.000854  0.998632  1
  Nb  Nb8  1  0.499633  0.499633  0.500621  1
  Nb  Nb9  1  0.427220  0.427220  0.172911  1
  Nb  Nb10  1  0.572909  0.572909  0.827851  1
  Nb  Nb11  1  0.197204  0.197204  0.692468  1
  Nb  Nb12  1  0.803054  0.803054  0.308237  1
  Nb  Nb13  1  0.209869  0.209869  0.203788  1
  As  As14  1  0.180932  0.180932  0.893777  1
  As  As15  1  0.823320  0.823320  0.103098  1
  As  As16  1  0.372021  0.372021  0.403319  1
  As  As17  1  0.627801  0.627801  0.598724  1
  As  As18  1  0.371913  0.371913  0.663696  1
  As  As19  1  0.626649  0.626649  0.338580  1
  As  As20  1  0.061381  0.061381  0.154574  1
  As  As21  1  0.935796  0.935796  0.844818  1
