# generated using pymatgen
data_Yb6U2Si12Ni3Pd
_symmetry_space_group_name_H-M   'P 1'
_cell_length_a   8.05557300
_cell_length_b   8.05557101
_cell_length_c   8.12167600
_cell_angle_alpha   90.00000000
_cell_angle_beta   90.00000000
_cell_angle_gamma   119.99998766
_symmetry_Int_Tables_number   1
_chemical_formula_structural   Yb6U2Si12Ni3Pd
_chemical_formula_sum   'Yb6 U2 Si12 Ni3 Pd1'
_cell_volume   456.42467338
_cell_formula_units_Z   1
loop_
 _symmetry_equiv_pos_site_id
 _symmetry_equiv_pos_as_xyz
  1  'x, y, z'
loop_
 _atom_site_type_symbol
 _atom_site_label
 _atom_site_symmetry_multiplicity
 _atom_site_fract_x
 _atom_site_fract_y
 _atom_site_fract_z
 _atom_site_occupancy
  Yb  Yb0  1  0.501249  0.002499  0.249395  1
  Yb  Yb1  1  0.501298  0.002594  0.750650  1
  Yb  Yb2  1  0.997501  0.498751  0.249395  1
  Yb  Yb3  1  0.997406  0.498702  0.750650  1
  Yb  Yb4  1  0.501249  0.498751  0.249395  1
  Yb  Yb5  1  0.501298  0.498702  0.750650  1
  U  U6  1  0.000000  0.000000  0.248926  1
  U  U7  1  0.000000  0.000000  0.751067  1
  Si  Si8  1  0.169094  0.338189  0.999970  1
  Si  Si9  1  0.831389  0.662776  0.000024  1
  Si  Si10  1  0.661811  0.830906  0.999970  1
  Si  Si11  1  0.830456  0.660911  0.500038  1
  Si  Si12  1  0.337224  0.168611  0.000024  1
  Si  Si13  1  0.162872  0.325744  0.499946  1
  Si  Si14  1  0.169094  0.830906  0.999970  1
  Si  Si15  1  0.339089  0.169544  0.500038  1
  Si  Si16  1  0.831389  0.168611  0.000024  1
  Si  Si17  1  0.674256  0.837128  0.499946  1
  Si  Si18  1  0.830456  0.169544  0.500038  1
  Si  Si19  1  0.162872  0.837128  0.499946  1
  Ni  Ni20  1  0.333333  0.666667  0.999692  1
  Ni  Ni21  1  0.666667  0.333333  0.999876  1
  Ni  Ni22  1  0.666667  0.333333  0.500026  1
  Pd  Pd23  1  0.333333  0.666667  0.500341  1
