# generated using pymatgen
data_Tm10ZnSb5
_symmetry_space_group_name_H-M   'P 1'
_cell_length_a   8.78318500
_cell_length_b   8.79528128
_cell_length_c   6.27460100
_cell_angle_alpha   90.00000000
_cell_angle_beta   90.00000000
_cell_angle_gamma   119.95451163
_symmetry_Int_Tables_number   1
_chemical_formula_structural   Tm10ZnSb5
_chemical_formula_sum   'Tm10 Zn1 Sb5'
_cell_volume   419.96915543
_cell_formula_units_Z   1
loop_
 _symmetry_equiv_pos_site_id
 _symmetry_equiv_pos_as_xyz
  1  'x, y, z'
loop_
 _atom_site_type_symbol
 _atom_site_label
 _atom_site_symmetry_multiplicity
 _atom_site_fract_x
 _atom_site_fract_y
 _atom_site_fract_z
 _atom_site_occupancy
  Tm  Tm0  1  0.341578  0.677426  0.001897  1
  Tm  Tm1  1  0.664153  0.322574  0.498103  1
  Tm  Tm2  1  0.664153  0.322574  0.001897  1
  Tm  Tm3  1  0.341578  0.677426  0.498103  1
  Tm  Tm4  1  0.246697  0.000000  0.250000  1
  Tm  Tm5  1  0.758898  0.000000  0.750000  1
  Tm  Tm6  1  0.986574  0.232236  0.250000  1
  Tm  Tm7  1  0.754339  0.767764  0.250000  1
  Tm  Tm8  1  0.243419  0.242821  0.750000  1
  Tm  Tm9  1  0.000598  0.757179  0.750000  1
  Zn  Zn10  1  0.603694  0.000000  0.250000  1
  Sb  Sb11  1  0.393146  0.000000  0.750000  1
  Sb  Sb12  1  0.996556  0.607534  0.250000  1
  Sb  Sb13  1  0.389023  0.392466  0.250000  1
  Sb  Sb14  1  0.609845  0.604097  0.750000  1
  Sb  Sb15  1  0.005748  0.395903  0.750000  1
