# generated using pymatgen
data_Tb5Tl2Te
_symmetry_space_group_name_H-M   'P 1'
_cell_length_a   9.02834619
_cell_length_b   9.05890348
_cell_length_c   6.60321200
_cell_angle_alpha   90.00000000
_cell_angle_beta   90.00000000
_cell_angle_gamma   120.11203478
_symmetry_Int_Tables_number   1
_chemical_formula_structural   Tb5Tl2Te
_chemical_formula_sum   'Tb10 Tl4 Te2'
_cell_volume   467.17361851
_cell_formula_units_Z   2
loop_
 _symmetry_equiv_pos_site_id
 _symmetry_equiv_pos_as_xyz
  1  'x, y, z'
loop_
 _atom_site_type_symbol
 _atom_site_label
 _atom_site_symmetry_multiplicity
 _atom_site_fract_x
 _atom_site_fract_y
 _atom_site_fract_z
 _atom_site_occupancy
  Tb  Tb0  1  0.667479  0.335689  0.002190  1
  Tb  Tb1  1  0.332521  0.668211  0.002190  1
  Tb  Tb2  1  0.332521  0.668211  0.497810  1
  Tb  Tb3  1  0.667479  0.335689  0.497810  1
  Tb  Tb4  1  0.763989  0.757843  0.750000  1
  Tb  Tb5  1  0.236011  0.993854  0.750000  1
  Tb  Tb6  1  0.000000  0.240357  0.750000  1
  Tb  Tb7  1  0.237377  0.239371  0.250000  1
  Tb  Tb8  1  0.762623  0.001993  0.250000  1
  Tb  Tb9  1  0.000000  0.761965  0.250000  1
  Tl  Tl10  1  0.000000  0.602934  0.750000  1
  Tl  Tl11  1  0.605381  0.607727  0.250000  1
  Tl  Tl12  1  0.394619  0.002346  0.250000  1
  Tl  Tl13  1  0.000000  0.393711  0.250000  1
  Te  Te14  1  0.390004  0.390050  0.750000  1
  Te  Te15  1  0.609996  0.000047  0.750000  1
