# generated using pymatgen
data_ThAs3Rh5
_symmetry_space_group_name_H-M   'P 1'
_cell_length_a   4.03575700
_cell_length_b   12.94523700
_cell_length_c   11.37591300
_cell_angle_alpha   90.00000000
_cell_angle_beta   90.00000000
_cell_angle_gamma   90.00000000
_symmetry_Int_Tables_number   1
_chemical_formula_structural   ThAs3Rh5
_chemical_formula_sum   'Th4 As12 Rh20'
_cell_volume   594.32127442
_cell_formula_units_Z   4
loop_
 _symmetry_equiv_pos_site_id
 _symmetry_equiv_pos_as_xyz
  1  'x, y, z'
loop_
 _atom_site_type_symbol
 _atom_site_label
 _atom_site_symmetry_multiplicity
 _atom_site_fract_x
 _atom_site_fract_y
 _atom_site_fract_z
 _atom_site_occupancy
  Th  Th0  1  0.750000  0.700113  0.079934  1
  Th  Th1  1  0.250000  0.299887  0.920066  1
  Th  Th2  1  0.250000  0.799887  0.579934  1
  Th  Th3  1  0.750000  0.200113  0.420066  1
  As  As4  1  0.750000  0.611856  0.587103  1
  As  As5  1  0.250000  0.388144  0.412897  1
  As  As6  1  0.250000  0.888144  0.087103  1
  As  As7  1  0.750000  0.111856  0.912897  1
  As  As8  1  0.750000  0.890391  0.395374  1
  As  As9  1  0.250000  0.109609  0.604626  1
  As  As10  1  0.250000  0.609609  0.895374  1
  As  As11  1  0.750000  0.390391  0.104626  1
  As  As12  1  0.750000  0.870741  0.771962  1
  As  As13  1  0.250000  0.129259  0.228038  1
  As  As14  1  0.250000  0.629259  0.271962  1
  As  As15  1  0.750000  0.370741  0.728038  1
  Rh  Rh16  1  0.750000  0.700514  0.386981  1
  Rh  Rh17  1  0.250000  0.299486  0.613019  1
  Rh  Rh18  1  0.250000  0.799486  0.886981  1
  Rh  Rh19  1  0.750000  0.200514  0.113019  1
  Rh  Rh20  1  0.750000  0.996482  0.220127  1
  Rh  Rh21  1  0.250000  0.003518  0.779873  1
  Rh  Rh22  1  0.250000  0.503518  0.720127  1
  Rh  Rh23  1  0.750000  0.496482  0.279873  1
  Rh  Rh24  1  0.750000  0.677288  0.782280  1
  Rh  Rh25  1  0.250000  0.322712  0.217720  1
  Rh  Rh26  1  0.250000  0.822712  0.282280  1
  Rh  Rh27  1  0.750000  0.177288  0.717720  1
  Rh  Rh28  1  0.750000  0.928355  0.972861  1
  Rh  Rh29  1  0.250000  0.071645  0.027139  1
  Rh  Rh30  1  0.250000  0.571645  0.472861  1
  Rh  Rh31  1  0.750000  0.428355  0.527139  1
  Rh  Rh32  1  0.750000  0.976237  0.588974  1
  Rh  Rh33  1  0.250000  0.023763  0.411026  1
  Rh  Rh34  1  0.250000  0.523763  0.088974  1
  Rh  Rh35  1  0.750000  0.476236  0.911026  1
