# generated using pymatgen
data_Tm9Lu11Ir12
_symmetry_space_group_name_H-M   'P 1'
_cell_length_a   10.70653805
_cell_length_b   10.70846612
_cell_length_c   6.28266807
_cell_angle_alpha   89.98497890
_cell_angle_beta   89.99276244
_cell_angle_gamma   90.00832032
_symmetry_Int_Tables_number   1
_chemical_formula_structural   Tm9Lu11Ir12
_chemical_formula_sum   'Tm9 Lu11 Ir12'
_cell_volume   720.31162513
_cell_formula_units_Z   1
loop_
 _symmetry_equiv_pos_site_id
 _symmetry_equiv_pos_as_xyz
  1  'x, y, z'
loop_
 _atom_site_type_symbol
 _atom_site_label
 _atom_site_symmetry_multiplicity
 _atom_site_fract_x
 _atom_site_fract_y
 _atom_site_fract_z
 _atom_site_occupancy
  Tm  Tm0  1  0.413224  0.208547  0.876983  1
  Tm  Tm1  1  0.208784  0.412891  0.623618  1
  Tm  Tm2  1  0.209416  0.587761  0.123506  1
  Tm  Tm3  1  0.790503  0.412096  0.124182  1
  Tm  Tm4  1  0.790684  0.587778  0.623737  1
  Tm  Tm5  1  0.912122  0.709459  0.123605  1
  Tm  Tm6  1  0.912232  0.290725  0.623866  1
  Tm  Tm7  1  0.087670  0.709376  0.623825  1
  Tm  Tm8  1  0.087849  0.290553  0.124057  1
  Lu  Lu9  1  0.292165  0.085965  0.377593  1
  Lu  Lu10  1  0.292209  0.913096  0.877645  1
  Lu  Lu11  1  0.708182  0.086166  0.877550  1
  Lu  Lu12  1  0.707997  0.913458  0.377353  1
  Lu  Lu13  1  0.586586  0.792020  0.877290  1
  Lu  Lu14  1  0.586682  0.207560  0.377617  1
  Lu  Lu15  1  0.413668  0.791906  0.377457  1
  Lu  Lu16  1  0.999949  0.000001  0.498310  1
  Lu  Lu17  1  0.000126  0.999969  0.998348  1
  Lu  Lu18  1  0.500162  0.500432  0.998642  1
  Lu  Lu19  1  0.500088  0.499933  0.498511  1
  Ir  Ir20  1  0.845750  0.152349  0.248958  1
  Ir  Ir21  1  0.845516  0.847597  0.749181  1
  Ir  Ir22  1  0.153592  0.152410  0.748502  1
  Ir  Ir23  1  0.154360  0.847475  0.249249  1
  Ir  Ir24  1  0.652787  0.346149  0.748928  1
  Ir  Ir25  1  0.652379  0.654673  0.249054  1
  Ir  Ir26  1  0.347446  0.346241  0.250156  1
  Ir  Ir27  1  0.347664  0.654341  0.748946  1
  Ir  Ir28  1  0.500111  0.999517  0.123848  1
  Ir  Ir29  1  0.500388  0.999369  0.623078  1
  Ir  Ir30  1  0.999968  0.499989  0.878231  1
  Ir  Ir31  1  0.999739  0.500201  0.378175  1
