# generated using pymatgen
data_Nd3Tm6LuBi6
_symmetry_space_group_name_H-M   'P 1'
_cell_length_a   8.29664400
_cell_length_b   9.47684300
_cell_length_c   12.21161100
_cell_angle_alpha   90.00000000
_cell_angle_beta   90.00000000
_cell_angle_gamma   90.00000000
_symmetry_Int_Tables_number   1
_chemical_formula_structural   Nd3Tm6LuBi6
_chemical_formula_sum   'Nd6 Tm12 Lu2 Bi12'
_cell_volume   960.15003630
_cell_formula_units_Z   2
loop_
 _symmetry_equiv_pos_site_id
 _symmetry_equiv_pos_as_xyz
  1  'x, y, z'
loop_
 _atom_site_type_symbol
 _atom_site_label
 _atom_site_symmetry_multiplicity
 _atom_site_fract_x
 _atom_site_fract_y
 _atom_site_fract_z
 _atom_site_occupancy
  Nd  Nd0  1  0.184702  0.750000  0.720400  1
  Nd  Nd1  1  0.684702  0.750000  0.779600  1
  Nd  Nd2  1  0.817621  0.250000  0.280133  1
  Nd  Nd3  1  0.317621  0.250000  0.219867  1
  Nd  Nd4  1  0.351610  0.750000  0.216350  1
  Nd  Nd5  1  0.851610  0.750000  0.283650  1
  Tm  Tm6  1  0.023180  0.750000  0.986228  1
  Tm  Tm7  1  0.523180  0.750000  0.513772  1
  Tm  Tm8  1  0.976979  0.250000  0.008493  1
  Tm  Tm9  1  0.476979  0.250000  0.491507  1
  Tm  Tm10  1  0.308898  0.433494  0.937504  1
  Tm  Tm11  1  0.808898  0.066506  0.562496  1
  Tm  Tm12  1  0.690918  0.933740  0.057913  1
  Tm  Tm13  1  0.190918  0.566260  0.442087  1
  Tm  Tm14  1  0.690918  0.566260  0.057913  1
  Tm  Tm15  1  0.190918  0.933740  0.442087  1
  Tm  Tm16  1  0.308898  0.066506  0.937504  1
  Tm  Tm17  1  0.808898  0.433494  0.562496  1
  Lu  Lu18  1  0.647201  0.250000  0.781004  1
  Lu  Lu19  1  0.147201  0.250000  0.718996  1
  Bi  Bi20  1  0.434189  0.010093  0.671803  1
  Bi  Bi21  1  0.934189  0.489907  0.828197  1
  Bi  Bi22  1  0.565345  0.503976  0.333059  1
  Bi  Bi23  1  0.065345  0.996024  0.166941  1
  Bi  Bi24  1  0.565345  0.996024  0.333059  1
  Bi  Bi25  1  0.065345  0.503976  0.166941  1
  Bi  Bi26  1  0.434189  0.489907  0.671803  1
  Bi  Bi27  1  0.934189  0.010093  0.828197  1
  Bi  Bi28  1  0.403664  0.750000  0.957369  1
  Bi  Bi29  1  0.903664  0.750000  0.542631  1
  Bi  Bi30  1  0.596338  0.250000  0.035644  1
  Bi  Bi31  1  0.096338  0.250000  0.464356  1
