# generated using pymatgen
data_Sc4Fe14Ni5P12Rh
_symmetry_space_group_name_H-M   'P 1'
_cell_length_a   3.63132200
_cell_length_b   10.19230259
_cell_length_c   11.66917623
_cell_angle_alpha   89.64839831
_cell_angle_beta   90.00000000
_cell_angle_gamma   90.00000000
_symmetry_Int_Tables_number   1
_chemical_formula_structural   Sc4Fe14Ni5P12Rh
_chemical_formula_sum   'Sc4 Fe14 Ni5 P12 Rh1'
_cell_volume   431.88596456
_cell_formula_units_Z   1
loop_
 _symmetry_equiv_pos_site_id
 _symmetry_equiv_pos_as_xyz
  1  'x, y, z'
loop_
 _atom_site_type_symbol
 _atom_site_label
 _atom_site_symmetry_multiplicity
 _atom_site_fract_x
 _atom_site_fract_y
 _atom_site_fract_z
 _atom_site_occupancy
  Sc  Sc0  1  0.250000  0.577728  0.703905  1
  Sc  Sc1  1  0.250000  0.919423  0.203908  1
  Sc  Sc2  1  0.750000  0.426887  0.296515  1
  Sc  Sc3  1  0.750000  0.078349  0.791961  1
  Fe  Fe4  1  0.250000  0.876154  0.702942  1
  Fe  Fe5  1  0.250000  0.623186  0.204234  1
  Fe  Fe6  1  0.750000  0.370709  0.796830  1
  Fe  Fe7  1  0.250000  0.409084  0.488202  1
  Fe  Fe8  1  0.250000  0.095817  0.987592  1
  Fe  Fe9  1  0.750000  0.594948  0.515449  1
  Fe  Fe10  1  0.750000  0.906775  0.014877  1
  Fe  Fe11  1  0.250000  0.458727  0.932249  1
  Fe  Fe12  1  0.250000  0.038387  0.427588  1
  Fe  Fe13  1  0.750000  0.536739  0.068181  1
  Fe  Fe14  1  0.750000  0.963537  0.566923  1
  Fe  Fe15  1  0.250000  0.788951  0.490449  1
  Fe  Fe16  1  0.750000  0.288283  0.010865  1
  Fe  Fe17  1  0.750000  0.213994  0.508653  1
  Ni  Ni18  1  0.250000  0.226589  0.178701  1
  Ni  Ni19  1  0.250000  0.271365  0.671216  1
  Ni  Ni20  1  0.750000  0.770872  0.825821  1
  Ni  Ni21  1  0.750000  0.726456  0.328542  1
  Ni  Ni22  1  0.750000  0.124487  0.295754  1
  P  P23  1  0.250000  0.428608  0.117434  1
  P  P24  1  0.250000  0.069349  0.613114  1
  P  P25  1  0.750000  0.563253  0.880986  1
  P  P26  1  0.750000  0.926907  0.385440  1
  P  P27  1  0.250000  0.262282  0.865162  1
  P  P28  1  0.250000  0.241732  0.372754  1
  P  P29  1  0.750000  0.734879  0.137528  1
  P  P30  1  0.750000  0.765166  0.632967  1
  P  P31  1  0.250000  0.598300  0.394625  1
  P  P32  1  0.250000  0.911064  0.890717  1
  P  P33  1  0.750000  0.403290  0.607068  1
  P  P34  1  0.750000  0.096612  0.103753  1
  Rh  Rh35  1  0.250000  0.711115  0.987091  1
