# generated using pymatgen
data_Gd2HoMg2AlIr3
_symmetry_space_group_name_H-M   'P 1'
_cell_length_a   7.27099426
_cell_length_b   7.26011212
_cell_length_c   4.04188700
_cell_angle_alpha   90.00000000
_cell_angle_beta   90.00000000
_cell_angle_gamma   120.18064556
_symmetry_Int_Tables_number   1
_chemical_formula_structural   Gd2HoMg2AlIr3
_chemical_formula_sum   'Gd2 Ho1 Mg2 Al1 Ir3'
_cell_volume   184.44143775
_cell_formula_units_Z   1
loop_
 _symmetry_equiv_pos_site_id
 _symmetry_equiv_pos_as_xyz
  1  'x, y, z'
loop_
 _atom_site_type_symbol
 _atom_site_label
 _atom_site_symmetry_multiplicity
 _atom_site_fract_x
 _atom_site_fract_y
 _atom_site_fract_z
 _atom_site_occupancy
  Gd  Gd0  1  0.004052  0.409983  0.500000  1
  Gd  Gd1  1  0.576945  0.576857  0.500000  1
  Ho  Ho2  1  0.407519  0.004188  0.500000  1
  Mg  Mg3  1  0.754017  0.998319  0.000000  1
  Mg  Mg4  1  0.998684  0.755392  0.000000  1
  Al  Al5  1  0.245781  0.244225  0.000000  1
  Ir  Ir6  1  0.331482  0.656755  0.000000  1
  Ir  Ir7  1  0.653426  0.327625  0.000000  1
  Ir  Ir8  1  0.028093  0.026656  0.500000  1
