# generated using pymatgen
data_Rb(HfSe2)4
_symmetry_space_group_name_H-M   'P 1'
_cell_length_a   9.79985848
_cell_length_b   9.79985880
_cell_length_c   9.79985840
_cell_angle_alpha   45.15725241
_cell_angle_beta   45.15725192
_cell_angle_gamma   45.15725289
_symmetry_Int_Tables_number   1
_chemical_formula_structural   Rb(HfSe2)4
_chemical_formula_sum   'Rb1 Hf4 Se8'
_cell_volume   430.80304381
_cell_formula_units_Z   1
loop_
 _symmetry_equiv_pos_site_id
 _symmetry_equiv_pos_as_xyz
  1  'x, y, z'
loop_
 _atom_site_type_symbol
 _atom_site_label
 _atom_site_symmetry_multiplicity
 _atom_site_fract_x
 _atom_site_fract_y
 _atom_site_fract_z
 _atom_site_occupancy
  Rb  Rb0  1  0.500000  0.500000  0.500000  1
  Hf  Hf1  1  0.000000  0.500000  0.500000  1
  Hf  Hf2  1  0.500000  0.000000  0.500000  1
  Hf  Hf3  1  0.500000  0.500000  0.000000  1
  Hf  Hf4  1  0.000000  0.000000  0.000000  1
  Se  Se5  1  0.270626  0.773971  0.773971  1
  Se  Se6  1  0.226029  0.226029  0.729374  1
  Se  Se7  1  0.729374  0.226029  0.226029  1
  Se  Se8  1  0.226029  0.729374  0.226029  1
  Se  Se9  1  0.273197  0.273197  0.273197  1
  Se  Se10  1  0.726803  0.726803  0.726803  1
  Se  Se11  1  0.773971  0.270626  0.773971  1
  Se  Se12  1  0.773971  0.773971  0.270626  1
