# generated using pymatgen
data_Zr6Zn16Cu7Ge
_symmetry_space_group_name_H-M   'P 1'
_cell_length_a   8.65413323
_cell_length_b   8.65413324
_cell_length_c   8.65413300
_cell_angle_alpha   59.99999711
_cell_angle_beta   59.99999705
_cell_angle_gamma   59.99999809
_symmetry_Int_Tables_number   1
_chemical_formula_structural   Zr6Zn16Cu7Ge
_chemical_formula_sum   'Zr6 Zn16 Cu7 Ge1'
_cell_volume   458.30616184
_cell_formula_units_Z   1
loop_
 _symmetry_equiv_pos_site_id
 _symmetry_equiv_pos_as_xyz
  1  'x, y, z'
loop_
 _atom_site_type_symbol
 _atom_site_label
 _atom_site_symmetry_multiplicity
 _atom_site_fract_x
 _atom_site_fract_y
 _atom_site_fract_z
 _atom_site_occupancy
  Zr  Zr0  1  0.714847  0.285153  0.285153  1
  Zr  Zr1  1  0.285153  0.714847  0.714847  1
  Zr  Zr2  1  0.285153  0.714847  0.285153  1
  Zr  Zr3  1  0.714847  0.285153  0.714847  1
  Zr  Zr4  1  0.285153  0.285153  0.714847  1
  Zr  Zr5  1  0.714847  0.714847  0.285153  1
  Zn  Zn6  1  0.122395  0.122395  0.122395  1
  Zn  Zn7  1  0.877605  0.877605  0.877605  1
  Zn  Zn8  1  0.122395  0.122395  0.632816  1
  Zn  Zn9  1  0.122395  0.632816  0.122395  1
  Zn  Zn10  1  0.877605  0.877605  0.367184  1
  Zn  Zn11  1  0.877605  0.367184  0.877605  1
  Zn  Zn12  1  0.632816  0.122395  0.122395  1
  Zn  Zn13  1  0.367184  0.877605  0.877605  1
  Zn  Zn14  1  0.335671  0.335671  0.335671  1
  Zn  Zn15  1  0.664329  0.664329  0.664329  1
  Zn  Zn16  1  0.335671  0.335671  0.992987  1
  Zn  Zn17  1  0.335671  0.992987  0.335671  1
  Zn  Zn18  1  0.664329  0.664329  0.007013  1
  Zn  Zn19  1  0.664329  0.007013  0.664329  1
  Zn  Zn20  1  0.992987  0.335671  0.335671  1
  Zn  Zn21  1  0.007013  0.664329  0.664329  1
  Cu  Cu22  1  0.500000  0.000000  0.000000  1
  Cu  Cu23  1  0.000000  0.500000  0.500000  1
  Cu  Cu24  1  0.000000  0.500000  0.000000  1
  Cu  Cu25  1  0.500000  0.000000  0.500000  1
  Cu  Cu26  1  0.000000  0.000000  0.500000  1
  Cu  Cu27  1  0.500000  0.500000  0.000000  1
  Cu  Cu28  1  0.000000  0.000000  0.000000  1
  Ge  Ge29  1  0.500000  0.500000  0.500000  1
