# generated using pymatgen
data_YbPa(ZnIr)2
_symmetry_space_group_name_H-M   'P 1'
_cell_length_a   3.89874700
_cell_length_b   7.11838111
_cell_length_c   8.34783720
_cell_angle_alpha   90.46175972
_cell_angle_beta   90.00000000
_cell_angle_gamma   90.00000000
_symmetry_Int_Tables_number   1
_chemical_formula_structural   YbPa(ZnIr)2
_chemical_formula_sum   'Yb2 Pa2 Zn4 Ir4'
_cell_volume   231.66805697
_cell_formula_units_Z   2
loop_
 _symmetry_equiv_pos_site_id
 _symmetry_equiv_pos_as_xyz
  1  'x, y, z'
loop_
 _atom_site_type_symbol
 _atom_site_label
 _atom_site_symmetry_multiplicity
 _atom_site_fract_x
 _atom_site_fract_y
 _atom_site_fract_z
 _atom_site_occupancy
  Yb  Yb0  1  0.750000  0.951432  0.683056  1
  Yb  Yb1  1  0.250000  0.048568  0.316944  1
  Pa  Pa2  1  0.250000  0.546592  0.189624  1
  Pa  Pa3  1  0.750000  0.453408  0.810376  1
  Zn  Zn4  1  0.250000  0.641599  0.561049  1
  Zn  Zn5  1  0.750000  0.358401  0.438951  1
  Zn  Zn6  1  0.750000  0.884692  0.065268  1
  Zn  Zn7  1  0.250000  0.115308  0.934732  1
  Ir  Ir8  1  0.250000  0.724045  0.883907  1
  Ir  Ir9  1  0.750000  0.275955  0.116093  1
  Ir  Ir10  1  0.750000  0.735210  0.356491  1
  Ir  Ir11  1  0.250000  0.264790  0.643509  1
