# generated using pymatgen
data_PrBi(TeO4)2
_symmetry_space_group_name_H-M   'P 1'
_cell_length_a   7.14637875
_cell_length_b   7.14637799
_cell_length_c   10.34344495
_cell_angle_alpha   66.76568183
_cell_angle_beta   66.76568374
_cell_angle_gamma   47.55316415
_symmetry_Int_Tables_number   1
_chemical_formula_structural   PrBi(TeO4)2
_chemical_formula_sum   'Pr2 Bi2 Te4 O16'
_cell_volume   351.71789037
_cell_formula_units_Z   2
loop_
 _symmetry_equiv_pos_site_id
 _symmetry_equiv_pos_as_xyz
  1  'x, y, z'
loop_
 _atom_site_type_symbol
 _atom_site_label
 _atom_site_symmetry_multiplicity
 _atom_site_fract_x
 _atom_site_fract_y
 _atom_site_fract_z
 _atom_site_occupancy
  Pr  Pr0  1  0.059094  0.940906  0.500000  1
  Pr  Pr1  1  0.947229  0.052771  0.000000  1
  Bi  Bi2  1  0.667314  0.777934  0.902421  1
  Bi  Bi3  1  0.222066  0.332686  0.097579  1
  Te  Te4  1  0.506505  0.499388  0.749057  1
  Te  Te5  1  0.500612  0.493495  0.250943  1
  Te  Te6  1  0.368443  0.190672  0.623874  1
  Te  Te7  1  0.809328  0.631557  0.376126  1
  O  O8  1  0.790749  0.355962  0.590800  1
  O  O9  1  0.644038  0.209251  0.409200  1
  O  O10  1  0.200463  0.647509  0.902039  1
  O  O11  1  0.352491  0.799537  0.097961  1
  O  O12  1  0.713036  0.486403  0.836648  1
  O  O13  1  0.513597  0.286964  0.163352  1
  O  O14  1  0.299584  0.489614  0.661232  1
  O  O15  1  0.510386  0.700416  0.338768  1
  O  O16  1  0.909509  0.717162  0.162796  1
  O  O17  1  0.282838  0.090491  0.837204  1
  O  O18  1  0.078475  0.283890  0.346350  1
  O  O19  1  0.716110  0.921525  0.653650  1
  O  O20  1  0.157849  0.647435  0.367712  1
  O  O21  1  0.352565  0.842151  0.632288  1
  O  O22  1  0.840379  0.362863  0.126386  1
  O  O23  1  0.637137  0.159621  0.873614  1
