# generated using pymatgen
data_K2Rb3BaVAs4
_symmetry_space_group_name_H-M   'P 1'
_cell_length_a   10.65581842
_cell_length_b   10.65581980
_cell_length_c   8.11921057
_cell_angle_alpha   89.16349303
_cell_angle_beta   89.16350813
_cell_angle_gamma   120.56808733
_symmetry_Int_Tables_number   1
_chemical_formula_structural   K2Rb3BaVAs4
_chemical_formula_sum   'K4 Rb6 Ba2 V2 As8'
_cell_volume   793.44170292
_cell_formula_units_Z   2
loop_
 _symmetry_equiv_pos_site_id
 _symmetry_equiv_pos_as_xyz
  1  'x, y, z'
loop_
 _atom_site_type_symbol
 _atom_site_label
 _atom_site_symmetry_multiplicity
 _atom_site_fract_x
 _atom_site_fract_y
 _atom_site_fract_z
 _atom_site_occupancy
  K  K0  1  0.468058  0.525628  0.609065  1
  K  K1  1  0.057779  0.527162  0.609506  1
  K  K2  1  0.525628  0.468058  0.109065  1
  K  K3  1  0.527162  0.057779  0.109506  1
  Rb  Rb4  1  0.866740  0.141854  0.789301  1
  Rb  Rb5  1  0.292296  0.153309  0.822348  1
  Rb  Rb6  1  0.854921  0.715298  0.771175  1
  Rb  Rb7  1  0.141854  0.866740  0.289301  1
  Rb  Rb8  1  0.715298  0.854921  0.271175  1
  Rb  Rb9  1  0.153309  0.292296  0.322348  1
  Ba  Ba10  1  0.466248  0.937762  0.604219  1
  Ba  Ba11  1  0.937762  0.466248  0.104219  1
  V  V12  1  0.668311  0.331751  0.499109  1
  V  V13  1  0.331751  0.668311  0.999109  1
  As  As14  1  0.679920  0.333041  0.796038  1
  As  As15  1  0.333041  0.679920  0.296038  1
  As  As16  1  0.204593  0.788140  0.898028  1
  As  As17  1  0.575977  0.791240  0.886849  1
  As  As18  1  0.202820  0.417152  0.921561  1
  As  As19  1  0.788140  0.204593  0.398028  1
  As  As20  1  0.417152  0.202820  0.421561  1
  As  As21  1  0.791240  0.575977  0.386849  1
