# generated using pymatgen
data_Th6Ga6Pt5Rh
_symmetry_space_group_name_H-M   'P 1'
_cell_length_a   7.35286600
_cell_length_b   7.35286795
_cell_length_c   8.24059200
_cell_angle_alpha   90.00000000
_cell_angle_beta   90.00000000
_cell_angle_gamma   119.99999122
_symmetry_Int_Tables_number   1
_chemical_formula_structural   Th6Ga6Pt5Rh
_chemical_formula_sum   'Th6 Ga6 Pt5 Rh1'
_cell_volume   385.83578135
_cell_formula_units_Z   1
loop_
 _symmetry_equiv_pos_site_id
 _symmetry_equiv_pos_as_xyz
  1  'x, y, z'
loop_
 _atom_site_type_symbol
 _atom_site_label
 _atom_site_symmetry_multiplicity
 _atom_site_fract_x
 _atom_site_fract_y
 _atom_site_fract_z
 _atom_site_occupancy
  Th  Th0  1  0.415952  0.415397  0.750000  1
  Th  Th1  1  0.999445  0.584048  0.750000  1
  Th  Th2  1  0.584603  0.000555  0.750000  1
  Th  Th3  1  0.588162  0.999846  0.250000  1
  Th  Th4  1  0.000154  0.588317  0.250000  1
  Th  Th5  1  0.411683  0.411838  0.250000  1
  Ga  Ga6  1  0.238240  0.999571  0.002978  1
  Ga  Ga7  1  0.761332  0.761760  0.002978  1
  Ga  Ga8  1  0.000429  0.238668  0.002978  1
  Ga  Ga9  1  0.761332  0.761760  0.497022  1
  Ga  Ga10  1  0.238240  0.999571  0.497022  1
  Ga  Ga11  1  0.000429  0.238668  0.497022  1
  Pt  Pt12  1  0.666667  0.333333  0.000048  1
  Pt  Pt13  1  0.000000  0.000000  0.750000  1
  Pt  Pt14  1  0.666667  0.333333  0.499952  1
  Pt  Pt15  1  0.333333  0.666667  0.501020  1
  Pt  Pt16  1  0.333333  0.666667  0.998980  1
  Rh  Rh17  1  0.000000  0.000000  0.250000  1
