# generated using pymatgen
data_Ca6Al15SiIr7
_symmetry_space_group_name_H-M   'P 1'
_cell_length_a   8.94037833
_cell_length_b   8.94048090
_cell_length_c   8.94047484
_cell_angle_alpha   60.04036657
_cell_angle_beta   60.04032693
_cell_angle_gamma   60.04122601
_symmetry_Int_Tables_number   1
_chemical_formula_structural   Ca6Al15SiIr7
_chemical_formula_sum   'Ca6 Al15 Si1 Ir7'
_cell_volume   505.78068396
_cell_formula_units_Z   1
loop_
 _symmetry_equiv_pos_site_id
 _symmetry_equiv_pos_as_xyz
  1  'x, y, z'
loop_
 _atom_site_type_symbol
 _atom_site_label
 _atom_site_symmetry_multiplicity
 _atom_site_fract_x
 _atom_site_fract_y
 _atom_site_fract_z
 _atom_site_occupancy
  Ca  Ca0  1  0.203408  0.793213  0.793221  1
  Ca  Ca1  1  0.793132  0.207461  0.207453  1
  Ca  Ca2  1  0.793215  0.203416  0.793214  1
  Ca  Ca3  1  0.793225  0.793213  0.203406  1
  Ca  Ca4  1  0.207458  0.793125  0.207461  1
  Ca  Ca5  1  0.207451  0.207461  0.793133  1
  Al  Al6  1  0.827080  0.827077  0.519690  1
  Al  Al7  1  0.519695  0.827077  0.827077  1
  Al  Al8  1  0.827084  0.519685  0.827082  1
  Al  Al9  1  0.172653  0.172666  0.172655  1
  Al  Al10  1  0.172857  0.172860  0.481079  1
  Al  Al11  1  0.172855  0.481082  0.172859  1
  Al  Al12  1  0.481074  0.172861  0.172862  1
  Al  Al13  1  0.619422  0.619428  0.619423  1
  Al  Al14  1  0.618079  0.618076  0.143514  1
  Al  Al15  1  0.143516  0.618078  0.618078  1
  Al  Al16  1  0.618079  0.143516  0.618075  1
  Al  Al17  1  0.380615  0.380611  0.380612  1
  Al  Al18  1  0.381162  0.381165  0.858307  1
  Al  Al19  1  0.381163  0.858303  0.381167  1
  Al  Al20  1  0.858304  0.381163  0.381163  1
  Si  Si21  1  0.824861  0.824854  0.824857  1
  Ir  Ir22  1  0.500177  0.500177  0.500177  1
  Ir  Ir23  1  0.000176  0.500955  0.500955  1
  Ir  Ir24  1  0.506672  0.997338  0.997338  1
  Ir  Ir25  1  0.500955  0.000177  0.500954  1
  Ir  Ir26  1  0.500955  0.500955  0.000176  1
  Ir  Ir27  1  0.997340  0.506670  0.997339  1
  Ir  Ir28  1  0.997337  0.997337  0.506672  1
