# generated using pymatgen
data_LaNd15Cd4CuIr3
_symmetry_space_group_name_H-M   'P 1'
_cell_length_a   9.94942434
_cell_length_b   9.94942390
_cell_length_c   9.94942422
_cell_angle_alpha   60.44602733
_cell_angle_beta   60.44602795
_cell_angle_gamma   60.44602812
_symmetry_Int_Tables_number   1
_chemical_formula_structural   LaNd15Cd4CuIr3
_chemical_formula_sum   'La1 Nd15 Cd4 Cu1 Ir3'
_cell_volume   703.45482601
_cell_formula_units_Z   1
loop_
 _symmetry_equiv_pos_site_id
 _symmetry_equiv_pos_as_xyz
  1  'x, y, z'
loop_
 _atom_site_type_symbol
 _atom_site_label
 _atom_site_symmetry_multiplicity
 _atom_site_fract_x
 _atom_site_fract_y
 _atom_site_fract_z
 _atom_site_occupancy
  La  La0  1  0.345423  0.345423  0.345423  1
  Nd  Nd1  1  0.352882  0.352882  0.946118  1
  Nd  Nd2  1  0.352882  0.946118  0.352882  1
  Nd  Nd3  1  0.946118  0.352882  0.352882  1
  Nd  Nd4  1  0.806573  0.190251  0.190251  1
  Nd  Nd5  1  0.190526  0.809865  0.809865  1
  Nd  Nd6  1  0.190251  0.806573  0.190251  1
  Nd  Nd7  1  0.809865  0.190526  0.809865  1
  Nd  Nd8  1  0.190251  0.190251  0.806573  1
  Nd  Nd9  1  0.809865  0.809865  0.190526  1
  Nd  Nd10  1  0.940766  0.562151  0.562151  1
  Nd  Nd11  1  0.563116  0.939438  0.939438  1
  Nd  Nd12  1  0.562151  0.940766  0.562151  1
  Nd  Nd13  1  0.939438  0.563116  0.939438  1
  Nd  Nd14  1  0.562151  0.562151  0.940766  1
  Nd  Nd15  1  0.939438  0.939438  0.563116  1
  Cd  Cd16  1  0.580647  0.580647  0.580647  1
  Cd  Cd17  1  0.581275  0.581275  0.258385  1
  Cd  Cd18  1  0.581275  0.258385  0.581275  1
  Cd  Cd19  1  0.258385  0.581275  0.581275  1
  Cu  Cu20  1  0.143814  0.143814  0.143814  1
  Ir  Ir21  1  0.140261  0.140261  0.572386  1
  Ir  Ir22  1  0.140261  0.572386  0.140261  1
  Ir  Ir23  1  0.572386  0.140261  0.140261  1
