# generated using pymatgen
data_Pr4HgPt
_symmetry_space_group_name_H-M   'P 1'
_cell_length_a   10.09500990
_cell_length_b   10.09500977
_cell_length_c   10.09500900
_cell_angle_alpha   59.99999925
_cell_angle_beta   59.99999968
_cell_angle_gamma   60.00000125
_symmetry_Int_Tables_number   1
_chemical_formula_structural   Pr4HgPt
_chemical_formula_sum   'Pr16 Hg4 Pt4'
_cell_volume   727.45344716
_cell_formula_units_Z   4
loop_
 _symmetry_equiv_pos_site_id
 _symmetry_equiv_pos_as_xyz
  1  'x, y, z'
loop_
 _atom_site_type_symbol
 _atom_site_label
 _atom_site_symmetry_multiplicity
 _atom_site_fract_x
 _atom_site_fract_y
 _atom_site_fract_z
 _atom_site_occupancy
  Pr  Pr0  1  0.351797  0.351797  0.351797  1
  Pr  Pr1  1  0.351797  0.351797  0.944609  1
  Pr  Pr2  1  0.351797  0.944609  0.351797  1
  Pr  Pr3  1  0.944609  0.351797  0.351797  1
  Pr  Pr4  1  0.808339  0.191661  0.191661  1
  Pr  Pr5  1  0.191661  0.808339  0.808339  1
  Pr  Pr6  1  0.191661  0.808339  0.191661  1
  Pr  Pr7  1  0.808339  0.191661  0.808339  1
  Pr  Pr8  1  0.191661  0.191661  0.808339  1
  Pr  Pr9  1  0.808339  0.808339  0.191661  1
  Pr  Pr10  1  0.936452  0.563548  0.563548  1
  Pr  Pr11  1  0.563548  0.936452  0.936452  1
  Pr  Pr12  1  0.563548  0.936452  0.563548  1
  Pr  Pr13  1  0.936452  0.563548  0.936452  1
  Pr  Pr14  1  0.563548  0.563548  0.936452  1
  Pr  Pr15  1  0.936452  0.936452  0.563548  1
  Hg  Hg16  1  0.584617  0.584617  0.584617  1
  Hg  Hg17  1  0.584617  0.584617  0.246149  1
  Hg  Hg18  1  0.584617  0.246149  0.584617  1
  Hg  Hg19  1  0.246149  0.584617  0.584617  1
  Pt  Pt20  1  0.143129  0.143129  0.143129  1
  Pt  Pt21  1  0.143129  0.143129  0.570613  1
  Pt  Pt22  1  0.143129  0.570613  0.143129  1
  Pt  Pt23  1  0.570613  0.143129  0.143129  1
