# generated using pymatgen
data_Tb3In(OsO4)4
_symmetry_space_group_name_H-M   'P 1'
_cell_length_a   5.35073214
_cell_length_b   7.71469241
_cell_length_c   7.43868026
_cell_angle_alpha   79.23442594
_cell_angle_beta   89.57216999
_cell_angle_gamma   85.99886139
_symmetry_Int_Tables_number   1
_chemical_formula_structural   Tb3In(OsO4)4
_chemical_formula_sum   'Tb3 In1 Os4 O16'
_cell_volume   300.91864757
_cell_formula_units_Z   1
loop_
 _symmetry_equiv_pos_site_id
 _symmetry_equiv_pos_as_xyz
  1  'x, y, z'
loop_
 _atom_site_type_symbol
 _atom_site_label
 _atom_site_symmetry_multiplicity
 _atom_site_fract_x
 _atom_site_fract_y
 _atom_site_fract_z
 _atom_site_occupancy
  Tb  Tb0  1  0.239634  0.616478  0.113759  1
  Tb  Tb1  1  0.760698  0.386759  0.887162  1
  Tb  Tb2  1  0.695006  0.329353  0.396277  1
  In  In3  1  0.297420  0.668118  0.613278  1
  Os  Os4  1  0.782159  0.837347  0.800883  1
  Os  Os5  1  0.750105  0.835273  0.295735  1
  Os  Os6  1  0.251767  0.164586  0.706475  1
  Os  Os7  1  0.217437  0.161366  0.201251  1
  O  O8  1  0.084889  0.944277  0.696573  1
  O  O9  1  0.451866  0.968006  0.214160  1
  O  O10  1  0.638459  0.810794  0.554610  1
  O  O11  1  0.889148  0.831531  0.051725  1
  O  O12  1  0.519209  0.666823  0.881805  1
  O  O13  1  0.006994  0.614756  0.818594  1
  O  O14  1  0.062670  0.699199  0.377024  1
  O  O15  1  0.568959  0.613757  0.308496  1
  O  O16  1  0.446835  0.389586  0.672587  1
  O  O17  1  0.948873  0.303265  0.631585  1
  O  O18  1  0.993916  0.387687  0.176368  1
  O  O19  1  0.476940  0.333543  0.115501  1
  O  O20  1  0.113277  0.172064  0.949957  1
  O  O21  1  0.341860  0.177641  0.446625  1
  O  O22  1  0.550160  0.030920  0.784806  1
  O  O23  1  0.911717  0.056871  0.304765  1
