# generated using pymatgen
data_Be3Al(SiIr3)2
_symmetry_space_group_name_H-M   'P 1'
_cell_length_a   4.10425400
_cell_length_b   5.80423800
_cell_length_c   12.30539300
_cell_angle_alpha   90.00001862
_cell_angle_beta   90.00086577
_cell_angle_gamma   90.00002512
_symmetry_Int_Tables_number   1
_chemical_formula_structural   Be3Al(SiIr3)2
_chemical_formula_sum   'Be6 Al2 Si4 Ir12'
_cell_volume   293.13989685
_cell_formula_units_Z   2
loop_
 _symmetry_equiv_pos_site_id
 _symmetry_equiv_pos_as_xyz
  1  'x, y, z'
loop_
 _atom_site_type_symbol
 _atom_site_label
 _atom_site_symmetry_multiplicity
 _atom_site_fract_x
 _atom_site_fract_y
 _atom_site_fract_z
 _atom_site_occupancy
  Be  Be0  1  0.999998  0.500000  0.005465  1
  Be  Be1  1  0.499801  0.000000  0.161207  1
  Be  Be2  1  0.999780  0.500000  0.328121  1
  Be  Be3  1  0.500004  0.000000  0.499871  1
  Be  Be4  1  0.000239  0.500000  0.666797  1
  Be  Be5  1  0.500212  0.000000  0.838544  1
  Al  Al6  1  0.000015  0.000000  0.999583  1
  Al  Al7  1  0.499856  0.500000  0.167086  1
  Si  Si8  1  0.999860  0.000000  0.333539  1
  Si  Si9  1  0.499999  0.500000  0.500063  1
  Si  Si10  1  0.000126  0.000000  0.666606  1
  Si  Si11  1  0.500145  0.500000  0.833129  1
  Ir  Ir12  1  0.500016  0.253857  0.995930  1
  Ir  Ir13  1  0.500017  0.746143  0.995930  1
  Ir  Ir14  1  0.999879  0.246144  0.170735  1
  Ir  Ir15  1  0.999878  0.753856  0.170735  1
  Ir  Ir16  1  0.499894  0.247277  0.338864  1
  Ir  Ir17  1  0.499893  0.752724  0.338864  1
  Ir  Ir18  1  0.999994  0.250461  0.501581  1
  Ir  Ir19  1  0.999994  0.749538  0.501581  1
  Ir  Ir20  1  0.500094  0.249540  0.665086  1
  Ir  Ir21  1  0.500095  0.750461  0.665086  1
  Ir  Ir22  1  0.000109  0.252724  0.827802  1
  Ir  Ir23  1  0.000109  0.747275  0.827802  1
