# generated using pymatgen
data_ThMg3(B6Os)2
_symmetry_space_group_name_H-M   'P 1'
_cell_length_a   3.59160500
_cell_length_b   8.94216479
_cell_length_c   11.26380818
_cell_angle_alpha   89.77326011
_cell_angle_beta   90.00000000
_cell_angle_gamma   90.00000000
_symmetry_Int_Tables_number   1
_chemical_formula_structural   ThMg3(B6Os)2
_chemical_formula_sum   'Th2 Mg6 B24 Os4'
_cell_volume   361.75378320
_cell_formula_units_Z   2
loop_
 _symmetry_equiv_pos_site_id
 _symmetry_equiv_pos_as_xyz
  1  'x, y, z'
loop_
 _atom_site_type_symbol
 _atom_site_label
 _atom_site_symmetry_multiplicity
 _atom_site_fract_x
 _atom_site_fract_y
 _atom_site_fract_z
 _atom_site_occupancy
  Th  Th0  1  0.000000  0.318692  0.411061  1
  Th  Th1  1  0.000000  0.681308  0.588939  1
  Mg  Mg2  1  0.000000  0.831091  0.082753  1
  Mg  Mg3  1  0.000000  0.168909  0.917247  1
  Mg  Mg4  1  0.000000  0.943375  0.363356  1
  Mg  Mg5  1  0.000000  0.056625  0.636644  1
  Mg  Mg6  1  0.000000  0.442498  0.122112  1
  Mg  Mg7  1  0.000000  0.557502  0.877888  1
  B  B8  1  0.500000  0.557472  0.428131  1
  B  B9  1  0.500000  0.442528  0.571869  1
  B  B10  1  0.500000  0.054943  0.064013  1
  B  B11  1  0.500000  0.945057  0.935987  1
  B  B12  1  0.500000  0.756257  0.412178  1
  B  B13  1  0.500000  0.243743  0.587822  1
  B  B14  1  0.500000  0.253436  0.076148  1
  B  B15  1  0.500000  0.746564  0.923852  1
  B  B16  1  0.500000  0.794807  0.256778  1
  B  B17  1  0.500000  0.205193  0.743222  1
  B  B18  1  0.500000  0.291502  0.230716  1
  B  B19  1  0.500000  0.708498  0.769284  1
  B  B20  1  0.500000  0.629647  0.177268  1
  B  B21  1  0.500000  0.370353  0.822732  1
  B  B22  1  0.500000  0.125070  0.312685  1
  B  B23  1  0.500000  0.874930  0.687315  1
  B  B24  1  0.500000  0.979234  0.207112  1
  B  B25  1  0.500000  0.020766  0.792888  1
  B  B26  1  0.500000  0.483306  0.281385  1
  B  B27  1  0.500000  0.516694  0.718615  1
  B  B28  1  0.500000  0.592330  0.024909  1
  B  B29  1  0.500000  0.407670  0.975091  1
  B  B30  1  0.500000  0.089668  0.475076  1
  B  B31  1  0.500000  0.910332  0.524924  1
  Os  Os32  1  0.000000  0.641525  0.314025  1
  Os  Os33  1  0.000000  0.358475  0.685975  1
  Os  Os34  1  0.000000  0.141115  0.177959  1
  Os  Os35  1  0.000000  0.858885  0.822041  1
