# generated using pymatgen
data_RbSb12(OsPd)2
_symmetry_space_group_name_H-M   'P 1'
_cell_length_a   8.23307742
_cell_length_b   8.23307743
_cell_length_c   8.27371625
_cell_angle_alpha   109.38116654
_cell_angle_beta   109.47584795
_cell_angle_gamma   109.35715321
_symmetry_Int_Tables_number   1
_chemical_formula_structural   RbSb12(OsPd)2
_chemical_formula_sum   'Rb1 Sb12 Os2 Pd2'
_cell_volume   432.78021232
_cell_formula_units_Z   1
loop_
 _symmetry_equiv_pos_site_id
 _symmetry_equiv_pos_as_xyz
  1  'x, y, z'
loop_
 _atom_site_type_symbol
 _atom_site_label
 _atom_site_symmetry_multiplicity
 _atom_site_fract_x
 _atom_site_fract_y
 _atom_site_fract_z
 _atom_site_occupancy
  Rb  Rb0  1  0.000000  0.000000  0.000000  1
  Sb  Sb1  1  0.339177  0.188532  0.839445  1
  Sb  Sb2  1  0.660823  0.811468  0.160555  1
  Sb  Sb3  1  0.650912  0.500266  0.839445  1
  Sb  Sb4  1  0.349088  0.499734  0.160555  1
  Sb  Sb5  1  0.188049  0.848219  0.348931  1
  Sb  Sb6  1  0.811951  0.151781  0.651069  1
  Sb  Sb7  1  0.499288  0.839119  0.651069  1
  Sb  Sb8  1  0.500712  0.160881  0.348931  1
  Sb  Sb9  1  0.845279  0.349421  0.194701  1
  Sb  Sb10  1  0.154721  0.650579  0.805299  1
  Sb  Sb11  1  0.842954  0.660693  0.503645  1
  Sb  Sb12  1  0.157046  0.339307  0.496355  1
  Os  Os13  1  0.000000  0.000000  0.500000  1
  Os  Os14  1  0.500000  0.500000  0.500000  1
  Pd  Pd15  1  0.500000  0.000000  0.000000  1
  Pd  Pd16  1  0.000000  0.500000  0.000000  1
