# generated using pymatgen
data_Th6H8SBr14
_symmetry_space_group_name_H-M   'P 1'
_cell_length_a   10.03096218
_cell_length_b   10.03100320
_cell_length_c   10.09015637
_cell_angle_alpha   109.50840512
_cell_angle_beta   109.50811614
_cell_angle_gamma   109.15811939
_symmetry_Int_Tables_number   1
_chemical_formula_structural   Th6H8SBr14
_chemical_formula_sum   'Th6 H8 S1 Br14'
_cell_volume   783.85084555
_cell_formula_units_Z   1
loop_
 _symmetry_equiv_pos_site_id
 _symmetry_equiv_pos_as_xyz
  1  'x, y, z'
loop_
 _atom_site_type_symbol
 _atom_site_label
 _atom_site_symmetry_multiplicity
 _atom_site_fract_x
 _atom_site_fract_y
 _atom_site_fract_z
 _atom_site_occupancy
  Th  Th0  1  0.238933  0.238683  0.000001  1
  Th  Th1  1  0.761319  0.761070  0.000002  1
  Th  Th2  1  0.237531  0.002187  0.239716  1
  Th  Th3  1  0.988165  0.240479  0.228643  1
  Th  Th4  1  0.759518  0.011835  0.771355  1
  Th  Th5  1  0.997814  0.762472  0.760285  1
  H  H6  1  0.178733  0.999770  0.000001  1
  H  H7  1  0.821717  0.995394  0.000000  1
  H  H8  1  0.004606  0.178282  0.999999  1
  H  H9  1  0.000231  0.821267  0.000001  1
  H  H10  1  0.998225  0.999808  0.177951  1
  H  H11  1  0.178142  0.179726  0.177950  1
  H  H12  1  0.000193  0.001776  0.822050  1
  H  H13  1  0.820274  0.821857  0.822050  1
  S  S14  1  0.759675  0.240325  0.000000  1
  Br  Br15  1  0.500309  0.499689  0.000000  1
  Br  Br16  1  0.252989  0.747019  0.000001  1
  Br  Br17  1  0.744530  0.997073  0.252311  1
  Br  Br18  1  0.000862  0.745917  0.252838  1
  Br  Br19  1  0.506923  0.251976  0.252840  1
  Br  Br20  1  0.255238  0.507782  0.252312  1
  Br  Br21  1  0.747654  0.747748  0.495402  1
  Br  Br22  1  0.496272  0.999349  0.495620  1
  Br  Br23  1  0.000650  0.503729  0.504380  1
  Br  Br24  1  0.252249  0.252349  0.504598  1
  Br  Br25  1  0.254084  0.999136  0.747161  1
  Br  Br26  1  0.002926  0.255468  0.747688  1
  Br  Br27  1  0.748025  0.493080  0.747164  1
  Br  Br28  1  0.492218  0.744761  0.747688  1
