# generated using pymatgen
data_Ca2PuAgO6
_symmetry_space_group_name_H-M   'P 1'
_cell_length_a   5.85236800
_cell_length_b   5.70225541
_cell_length_c   10.19499326
_cell_angle_alpha   59.15271857
_cell_angle_beta   90.00000000
_cell_angle_gamma   90.00000000
_symmetry_Int_Tables_number   1
_chemical_formula_structural   Ca2PuAgO6
_chemical_formula_sum   'Ca4 Pu2 Ag2 O12'
_cell_volume   292.09510679
_cell_formula_units_Z   2
loop_
 _symmetry_equiv_pos_site_id
 _symmetry_equiv_pos_as_xyz
  1  'x, y, z'
loop_
 _atom_site_type_symbol
 _atom_site_label
 _atom_site_symmetry_multiplicity
 _atom_site_fract_x
 _atom_site_fract_y
 _atom_site_fract_z
 _atom_site_occupancy
  Ca  Ca0  1  0.052944  0.301404  0.728292  1
  Ca  Ca1  1  0.552944  0.698596  0.771708  1
  Ca  Ca2  1  0.947056  0.698596  0.271708  1
  Ca  Ca3  1  0.447056  0.301404  0.228292  1
  Pu  Pu4  1  0.000000  0.000000  0.500000  1
  Pu  Pu5  1  0.500000  0.000000  0.000000  1
  Ag  Ag6  1  0.000000  0.500000  0.000000  1
  Ag  Ag7  1  0.500000  0.500000  0.500000  1
  O  O8  1  0.259707  0.729727  0.608107  1
  O  O9  1  0.759707  0.270273  0.891893  1
  O  O10  1  0.740293  0.270273  0.391893  1
  O  O11  1  0.240293  0.729727  0.108107  1
  O  O12  1  0.189017  0.335980  0.454412  1
  O  O13  1  0.689017  0.664020  0.045588  1
  O  O14  1  0.810983  0.664020  0.545588  1
  O  O15  1  0.310983  0.335980  0.954412  1
  O  O16  1  0.397085  0.046421  0.802457  1
  O  O17  1  0.897085  0.953579  0.697543  1
  O  O18  1  0.102915  0.046421  0.302457  1
  O  O19  1  0.602915  0.953579  0.197543  1
