# generated using pymatgen
data_La6NpO12
_symmetry_space_group_name_H-M   'P 1'
_cell_length_a   6.92332542
_cell_length_b   6.92332513
_cell_length_c   6.92332629
_cell_angle_alpha   98.60467255
_cell_angle_beta   98.60467568
_cell_angle_gamma   98.60469099
_symmetry_Int_Tables_number   1
_chemical_formula_structural   La6NpO12
_chemical_formula_sum   'La6 Np1 O12'
_cell_volume   319.36269076
_cell_formula_units_Z   1
loop_
 _symmetry_equiv_pos_site_id
 _symmetry_equiv_pos_as_xyz
  1  'x, y, z'
loop_
 _atom_site_type_symbol
 _atom_site_label
 _atom_site_symmetry_multiplicity
 _atom_site_fract_x
 _atom_site_fract_y
 _atom_site_fract_z
 _atom_site_occupancy
  La  La0  1  0.310000  0.606244  0.143997  1
  La  La1  1  0.606244  0.143997  0.310000  1
  La  La2  1  0.393756  0.856003  0.690000  1
  La  La3  1  0.690000  0.393756  0.856003  1
  La  La4  1  0.856003  0.690000  0.393756  1
  La  La5  1  0.143997  0.310000  0.606244  1
  Np  Np6  1  0.000000  0.000000  0.000000  1
  O  O7  1  0.437098  0.177220  0.592676  1
  O  O8  1  0.930336  0.705816  0.042718  1
  O  O9  1  0.177220  0.592676  0.437098  1
  O  O10  1  0.822780  0.407324  0.562902  1
  O  O11  1  0.562902  0.822780  0.407324  1
  O  O12  1  0.592676  0.437098  0.177220  1
  O  O13  1  0.407324  0.562902  0.822780  1
  O  O14  1  0.957282  0.069664  0.294184  1
  O  O15  1  0.042718  0.930336  0.705816  1
  O  O16  1  0.705816  0.042718  0.930336  1
  O  O17  1  0.069664  0.294184  0.957282  1
  O  O18  1  0.294184  0.957282  0.069664  1
