# generated using pymatgen
data_Ca10HfMoN10
_symmetry_space_group_name_H-M   'P 1'
_cell_length_a   6.99229857
_cell_length_b   6.99229784
_cell_length_c   8.87346890
_cell_angle_alpha   80.83641945
_cell_angle_beta   80.83642405
_cell_angle_gamma   59.99439139
_symmetry_Int_Tables_number   1
_chemical_formula_structural   Ca10HfMoN10
_chemical_formula_sum   'Ca10 Hf1 Mo1 N10'
_cell_volume   369.29194218
_cell_formula_units_Z   1
loop_
 _symmetry_equiv_pos_site_id
 _symmetry_equiv_pos_as_xyz
  1  'x, y, z'
loop_
 _atom_site_type_symbol
 _atom_site_label
 _atom_site_symmetry_multiplicity
 _atom_site_fract_x
 _atom_site_fract_y
 _atom_site_fract_z
 _atom_site_occupancy
  Ca  Ca0  1  0.874587  0.358904  0.833055  1
  Ca  Ca1  1  0.872964  0.872964  0.819861  1
  Ca  Ca2  1  0.734608  0.734608  0.535375  1
  Ca  Ca3  1  0.746671  0.257858  0.510329  1
  Ca  Ca4  1  0.620848  0.141519  0.147299  1
  Ca  Ca5  1  0.358904  0.874587  0.833055  1
  Ca  Ca6  1  0.257858  0.746671  0.510329  1
  Ca  Ca7  1  0.239501  0.239501  0.496940  1
  Ca  Ca8  1  0.144401  0.144401  0.160190  1
  Ca  Ca9  1  0.141519  0.620848  0.147299  1
  Hf  Hf10  1  0.369686  0.369686  0.774484  1
  Mo  Mo11  1  0.633379  0.633379  0.225145  1
  N  N12  1  0.908533  0.472100  0.319115  1
  N  N13  1  0.993427  0.993427  0.028661  1
  N  N14  1  0.678238  0.678238  0.014065  1
  N  N15  1  0.543153  0.543153  0.688924  1
  N  N16  1  0.472100  0.908533  0.319115  1
  N  N17  1  0.545131  0.076397  0.668445  1
  N  N18  1  0.474049  0.474049  0.296508  1
  N  N19  1  0.317499  0.317499  0.004595  1
  N  N20  1  0.058833  0.058833  0.644569  1
  N  N21  1  0.076397  0.545131  0.668445  1
