# generated using pymatgen
data_Ho4Al4OsPdPt2
_symmetry_space_group_name_H-M   'P 1'
_cell_length_a   4.33772900
_cell_length_b   6.85991686
_cell_length_c   7.88985039
_cell_angle_alpha   89.82279962
_cell_angle_beta   90.00000000
_cell_angle_gamma   90.00000000
_symmetry_Int_Tables_number   1
_chemical_formula_structural   Ho4Al4OsPdPt2
_chemical_formula_sum   'Ho4 Al4 Os1 Pd1 Pt2'
_cell_volume   234.77289734
_cell_formula_units_Z   1
loop_
 _symmetry_equiv_pos_site_id
 _symmetry_equiv_pos_as_xyz
  1  'x, y, z'
loop_
 _atom_site_type_symbol
 _atom_site_label
 _atom_site_symmetry_multiplicity
 _atom_site_fract_x
 _atom_site_fract_y
 _atom_site_fract_z
 _atom_site_occupancy
  Ho  Ho0  1  0.250000  0.032983  0.677756  1
  Ho  Ho1  1  0.250000  0.528431  0.818090  1
  Ho  Ho2  1  0.750000  0.979057  0.322678  1
  Ho  Ho3  1  0.750000  0.463591  0.184990  1
  Al  Al4  1  0.250000  0.144761  0.063246  1
  Al  Al5  1  0.250000  0.638278  0.439495  1
  Al  Al6  1  0.750000  0.858978  0.937684  1
  Al  Al7  1  0.750000  0.355291  0.559621  1
  Os  Os8  1  0.250000  0.266918  0.377635  1
  Pd  Pd9  1  0.250000  0.770607  0.117969  1
  Pt  Pt10  1  0.750000  0.730291  0.621714  1
  Pt  Pt11  1  0.750000  0.230814  0.879123  1
