# generated using pymatgen
data_Tm3In4CuRu
_symmetry_space_group_name_H-M   'P 1'
_cell_length_a   7.98272600
_cell_length_b   7.98272556
_cell_length_c   3.60326800
_cell_angle_alpha   90.00000000
_cell_angle_beta   90.00000000
_cell_angle_gamma   120.00000182
_symmetry_Int_Tables_number   1
_chemical_formula_structural   Tm3In4CuRu
_chemical_formula_sum   'Tm3 In4 Cu1 Ru1'
_cell_volume   198.85183827
_cell_formula_units_Z   1
loop_
 _symmetry_equiv_pos_site_id
 _symmetry_equiv_pos_as_xyz
  1  'x, y, z'
loop_
 _atom_site_type_symbol
 _atom_site_label
 _atom_site_symmetry_multiplicity
 _atom_site_fract_x
 _atom_site_fract_y
 _atom_site_fract_z
 _atom_site_occupancy
  Tm  Tm0  1  0.294553  0.248057  0.500000  1
  Tm  Tm1  1  0.751943  0.046495  0.500000  1
  Tm  Tm2  1  0.953505  0.705447  0.500000  1
  In  In3  1  0.073994  0.406629  0.000000  1
  In  In4  1  0.593371  0.667365  0.000000  1
  In  In5  1  0.332635  0.926006  0.000000  1
  In  In6  1  0.666667  0.333333  0.000000  1
  Cu  Cu7  1  0.333333  0.666667  0.500000  1
  Ru  Ru8  1  0.000000  0.000000  0.000000  1
