# generated using pymatgen
data_Sr9Ca3(WN4)4
_symmetry_space_group_name_H-M   'P 1'
_cell_length_a   9.87157923
_cell_length_b   10.32938100
_cell_length_c   11.86697200
_cell_angle_alpha   90.00000000
_cell_angle_beta   89.94102438
_cell_angle_gamma   90.00000000
_symmetry_Int_Tables_number   1
_chemical_formula_structural   Sr9Ca3(WN4)4
_chemical_formula_sum   'Sr18 Ca6 W8 N32'
_cell_volume   1210.04248780
_cell_formula_units_Z   2
loop_
 _symmetry_equiv_pos_site_id
 _symmetry_equiv_pos_as_xyz
  1  'x, y, z'
loop_
 _atom_site_type_symbol
 _atom_site_label
 _atom_site_symmetry_multiplicity
 _atom_site_fract_x
 _atom_site_fract_y
 _atom_site_fract_z
 _atom_site_occupancy
  Sr  Sr0  1  0.620576  0.031144  0.639729  1
  Sr  Sr1  1  0.879424  0.531144  0.360272  1
  Sr  Sr2  1  0.120149  0.959695  0.864141  1
  Sr  Sr3  1  0.379851  0.459695  0.135859  1
  Sr  Sr4  1  0.380005  0.971663  0.360222  1
  Sr  Sr5  1  0.119995  0.471663  0.639778  1
  Sr  Sr6  1  0.879059  0.036552  0.140675  1
  Sr  Sr7  1  0.620941  0.536552  0.859325  1
  Sr  Sr8  1  0.289551  0.778610  0.618760  1
  Sr  Sr9  1  0.210449  0.278610  0.381240  1
  Sr  Sr10  1  0.782179  0.221084  0.881863  1
  Sr  Sr11  1  0.717821  0.721084  0.118137  1
  Sr  Sr12  1  0.708322  0.224607  0.379799  1
  Sr  Sr13  1  0.791678  0.724607  0.620201  1
  Sr  Sr14  1  0.212031  0.774458  0.121303  1
  Sr  Sr15  1  0.287969  0.274458  0.878697  1
  Sr  Sr16  1  0.968291  0.125161  0.607029  1
  Sr  Sr17  1  0.531709  0.625161  0.392971  1
  Ca  Ca18  1  0.469558  0.879292  0.896849  1
  Ca  Ca19  1  0.030442  0.379292  0.103151  1
  Ca  Ca20  1  0.033059  0.879284  0.394221  1
  Ca  Ca21  1  0.466941  0.379284  0.605779  1
  Ca  Ca22  1  0.529427  0.116803  0.103645  1
  Ca  Ca23  1  0.970573  0.616803  0.896355  1
  W  W24  1  0.298935  0.096797  0.616850  1
  W  W25  1  0.201065  0.596797  0.383150  1
  W  W26  1  0.791861  0.901101  0.884969  1
  W  W27  1  0.708139  0.401101  0.115031  1
  W  W28  1  0.707471  0.907076  0.380030  1
  W  W29  1  0.792529  0.407076  0.619970  1
  W  W30  1  0.207073  0.094369  0.118640  1
  W  W31  1  0.292927  0.594369  0.881360  1
  N  N32  1  0.184587  0.991172  0.526880  1
  N  N33  1  0.315413  0.491172  0.473120  1
  N  N34  1  0.676135  0.006100  0.973959  1
  N  N35  1  0.823865  0.506100  0.026041  1
  N  N36  1  0.827785  0.012082  0.462677  1
  N  N37  1  0.672215  0.512082  0.537323  1
  N  N38  1  0.321761  0.988368  0.029324  1
  N  N39  1  0.178239  0.488368  0.970676  1
  N  N40  1  0.432973  0.165817  0.519482  1
  N  N41  1  0.067027  0.665817  0.480518  1
  N  N42  1  0.925618  0.828610  0.981436  1
  N  N43  1  0.574382  0.328610  0.018564  1
  N  N44  1  0.575823  0.845345  0.483309  1
  N  N45  1  0.924177  0.345345  0.516691  1
  N  N46  1  0.074950  0.166038  0.020977  1
  N  N47  1  0.425050  0.666038  0.979023  1
  N  N48  1  0.378544  0.987695  0.726739  1
  N  N49  1  0.121456  0.487695  0.273261  1
  N  N50  1  0.877537  0.011432  0.781099  1
  N  N51  1  0.622463  0.511432  0.218901  1
  N  N52  1  0.622881  0.014997  0.272143  1
  N  N53  1  0.877119  0.514997  0.727857  1
  N  N54  1  0.120975  0.984975  0.224120  1
  N  N55  1  0.379025  0.484975  0.775880  1
  N  N56  1  0.195505  0.229615  0.684121  1
  N  N57  1  0.304495  0.729615  0.315879  1
  N  N58  1  0.682529  0.777874  0.810191  1
  N  N59  1  0.817471  0.277874  0.189809  1
  N  N60  1  0.809216  0.772729  0.312266  1
  N  N61  1  0.690784  0.272729  0.687734  1
  N  N62  1  0.316706  0.219449  0.191580  1
  N  N63  1  0.183294  0.719449  0.808420  1
