# generated using pymatgen
data_YbDy2ErB16
_symmetry_space_group_name_H-M   'P 1'
_cell_length_a   7.09977546
_cell_length_b   7.09977480
_cell_length_c   4.01883300
_cell_angle_alpha   90.00000000
_cell_angle_beta   90.00000000
_cell_angle_gamma   89.98712012
_symmetry_Int_Tables_number   1
_chemical_formula_structural   YbDy2ErB16
_chemical_formula_sum   'Yb1 Dy2 Er1 B16'
_cell_volume   202.57653385
_cell_formula_units_Z   1
loop_
 _symmetry_equiv_pos_site_id
 _symmetry_equiv_pos_as_xyz
  1  'x, y, z'
loop_
 _atom_site_type_symbol
 _atom_site_label
 _atom_site_symmetry_multiplicity
 _atom_site_fract_x
 _atom_site_fract_y
 _atom_site_fract_z
 _atom_site_occupancy
  Yb  Yb0  1  0.682639  0.817361  0.000000  1
  Dy  Dy1  1  0.817673  0.317862  0.000000  1
  Dy  Dy2  1  0.182138  0.682327  0.000000  1
  Er  Er3  1  0.319156  0.180844  0.000000  1
  B  B4  1  0.500065  0.501034  0.797284  1
  B  B5  1  0.998966  0.999935  0.797284  1
  B  B6  1  0.500065  0.501034  0.202716  1
  B  B7  1  0.998966  0.999935  0.202716  1
  B  B8  1  0.913330  0.586670  0.500000  1
  B  B9  1  0.086924  0.413076  0.500000  1
  B  B10  1  0.413092  0.913839  0.500000  1
  B  B11  1  0.586161  0.086908  0.500000  1
  B  B12  1  0.675617  0.537838  0.500000  1
  B  B13  1  0.324243  0.460928  0.500000  1
  B  B14  1  0.176954  0.962539  0.500000  1
  B  B15  1  0.823823  0.038507  0.500000  1
  B  B16  1  0.461493  0.676177  0.500000  1
  B  B17  1  0.537461  0.323046  0.500000  1
  B  B18  1  0.039072  0.175757  0.500000  1
  B  B19  1  0.962162  0.824383  0.500000  1
