# generated using pymatgen
data_RbZn(In4Ir)2
_symmetry_space_group_name_H-M   'P 1'
_cell_length_a   9.12194500
_cell_length_b   9.01285589
_cell_length_c   4.21655900
_cell_angle_alpha   90.00000000
_cell_angle_beta   90.00000000
_cell_angle_gamma   120.40119850
_symmetry_Int_Tables_number   1
_chemical_formula_structural   RbZn(In4Ir)2
_chemical_formula_sum   'Rb1 Zn1 In8 Ir2'
_cell_volume   298.99829686
_cell_formula_units_Z   1
loop_
 _symmetry_equiv_pos_site_id
 _symmetry_equiv_pos_as_xyz
  1  'x, y, z'
loop_
 _atom_site_type_symbol
 _atom_site_label
 _atom_site_symmetry_multiplicity
 _atom_site_fract_x
 _atom_site_fract_y
 _atom_site_fract_z
 _atom_site_occupancy
  Rb  Rb0  1  0.000000  0.000000  0.000000  1
  Zn  Zn1  1  0.500000  0.000000  0.000000  1
  In  In2  1  0.584225  0.802353  0.500000  1
  In  In3  1  0.218129  0.802353  0.500000  1
  In  In4  1  0.205879  0.411756  0.500000  1
  In  In5  1  0.794121  0.588244  0.500000  1
  In  In6  1  0.781871  0.197647  0.500000  1
  In  In7  1  0.415775  0.197647  0.500000  1
  In  In8  1  0.000000  0.500000  0.000000  1
  In  In9  1  0.500000  0.500000  0.000000  1
  Ir  Ir10  1  0.337024  0.674050  0.000000  1
  Ir  Ir11  1  0.662976  0.325950  0.000000  1
