# generated using pymatgen
data_Dy2ZnInPd
_symmetry_space_group_name_H-M   'P 1'
_cell_length_a   7.84440600
_cell_length_b   7.81716000
_cell_length_c   3.73159000
_cell_angle_alpha   90.00000000
_cell_angle_beta   90.00000000
_cell_angle_gamma   90.00000000
_symmetry_Int_Tables_number   1
_chemical_formula_structural   Dy2ZnInPd
_chemical_formula_sum   'Dy4 Zn2 In2 Pd2'
_cell_volume   228.82474384
_cell_formula_units_Z   2
loop_
 _symmetry_equiv_pos_site_id
 _symmetry_equiv_pos_as_xyz
  1  'x, y, z'
loop_
 _atom_site_type_symbol
 _atom_site_label
 _atom_site_symmetry_multiplicity
 _atom_site_fract_x
 _atom_site_fract_y
 _atom_site_fract_z
 _atom_site_occupancy
  Dy  Dy0  1  0.329742  0.815967  0.500000  1
  Dy  Dy1  1  0.829742  0.684033  0.500000  1
  Dy  Dy2  1  0.174361  0.339043  0.500000  1
  Dy  Dy3  1  0.674361  0.160957  0.500000  1
  Zn  Zn4  1  0.374704  0.120548  0.000000  1
  Zn  Zn5  1  0.874704  0.379452  0.000000  1
  In  In6  1  0.004070  0.002225  0.000000  1
  In  In7  1  0.504070  0.497775  0.000000  1
  Pd  Pd8  1  0.117124  0.621752  0.000000  1
  Pd  Pd9  1  0.617124  0.878248  0.000000  1
