# generated using pymatgen
data_Zr8Cd4Cu7Au
_symmetry_space_group_name_H-M   'P 1'
_cell_length_a   7.31678897
_cell_length_b   7.31678897
_cell_length_c   6.87477930
_cell_angle_alpha   89.97643920
_cell_angle_beta   90.02356080
_cell_angle_gamma   90.22269272
_symmetry_Int_Tables_number   1
_chemical_formula_structural   Zr8Cd4Cu7Au
_chemical_formula_sum   'Zr8 Cd4 Cu7 Au1'
_cell_volume   368.04122304
_cell_formula_units_Z   1
loop_
 _symmetry_equiv_pos_site_id
 _symmetry_equiv_pos_as_xyz
  1  'x, y, z'
loop_
 _atom_site_type_symbol
 _atom_site_label
 _atom_site_symmetry_multiplicity
 _atom_site_fract_x
 _atom_site_fract_y
 _atom_site_fract_z
 _atom_site_occupancy
  Zr  Zr0  1  0.148878  0.152835  0.004041  1
  Zr  Zr1  1  0.847165  0.851122  0.004041  1
  Zr  Zr2  1  0.649269  0.350731  0.499062  1
  Zr  Zr3  1  0.356204  0.643796  0.496521  1
  Zr  Zr4  1  0.691948  0.308052  0.000246  1
  Zr  Zr5  1  0.312303  0.687697  0.003626  1
  Zr  Zr6  1  0.800754  0.807563  0.496689  1
  Zr  Zr7  1  0.192437  0.199246  0.496689  1
  Cd  Cd8  1  0.497948  0.000683  0.249306  1
  Cd  Cd9  1  0.506779  0.002804  0.751309  1
  Cd  Cd10  1  0.999317  0.502052  0.249306  1
  Cd  Cd11  1  0.997196  0.493221  0.751309  1
  Cu  Cu12  1  0.377806  0.374100  0.201469  1
  Cu  Cu13  1  0.624947  0.624047  0.797678  1
  Cu  Cu14  1  0.625900  0.622194  0.201469  1
  Cu  Cu15  1  0.870059  0.129941  0.702219  1
  Cu  Cu16  1  0.874950  0.125050  0.297667  1
  Cu  Cu17  1  0.375953  0.375053  0.797678  1
  Cu  Cu18  1  0.124332  0.875668  0.294388  1
  Au  Au19  1  0.125854  0.874146  0.705285  1
