# generated using pymatgen
data_CsPr6RhI12
_symmetry_space_group_name_H-M   'P 1'
_cell_length_a   10.15075843
_cell_length_b   10.27164629
_cell_length_c   10.13643824
_cell_angle_alpha   103.86082807
_cell_angle_beta   103.68667168
_cell_angle_gamma   103.71145154
_symmetry_Int_Tables_number   1
_chemical_formula_structural   CsPr6RhI12
_chemical_formula_sum   'Cs1 Pr6 Rh1 I12'
_cell_volume   947.40377733
_cell_formula_units_Z   1
loop_
 _symmetry_equiv_pos_site_id
 _symmetry_equiv_pos_as_xyz
  1  'x, y, z'
loop_
 _atom_site_type_symbol
 _atom_site_label
 _atom_site_symmetry_multiplicity
 _atom_site_fract_x
 _atom_site_fract_y
 _atom_site_fract_z
 _atom_site_occupancy
  Cs  Cs0  1  0.500000  0.500000  0.500000  1
  Pr  Pr1  1  0.093783  0.301883  0.004454  1
  Pr  Pr2  1  0.287267  0.004699  0.088323  1
  Pr  Pr3  1  0.005621  0.088278  0.288117  1
  Pr  Pr4  1  0.994380  0.911722  0.711884  1
  Pr  Pr5  1  0.712733  0.995302  0.911677  1
  Pr  Pr6  1  0.906217  0.698117  0.995546  1
  Rh  Rh7  1  0.000000  0.000000  0.000000  1
  I  I8  1  0.222103  0.669515  0.076669  1
  I  I9  1  0.419562  0.325704  0.097415  1
  I  I10  1  0.669290  0.076520  0.220882  1
  I  I11  1  0.924570  0.781139  0.332090  1
  I  I12  1  0.096168  0.416861  0.328199  1
  I  I13  1  0.329857  0.098821  0.420359  1
  I  I14  1  0.670143  0.901179  0.579642  1
  I  I15  1  0.903833  0.583139  0.671801  1
  I  I16  1  0.075431  0.218861  0.667911  1
  I  I17  1  0.330711  0.923481  0.779118  1
  I  I18  1  0.580438  0.674296  0.902586  1
  I  I19  1  0.777897  0.330485  0.923331  1
