# generated using pymatgen
data_Er2CuP3Pd2
_symmetry_space_group_name_H-M   'P 1'
_cell_length_a   3.86603500
_cell_length_b   10.77728600
_cell_length_c   13.15811500
_cell_angle_alpha   90.00000000
_cell_angle_beta   90.00000000
_cell_angle_gamma   90.00000000
_symmetry_Int_Tables_number   1
_chemical_formula_structural   Er2CuP3Pd2
_chemical_formula_sum   'Er8 Cu4 P12 Pd8'
_cell_volume   548.23766262
_cell_formula_units_Z   4
loop_
 _symmetry_equiv_pos_site_id
 _symmetry_equiv_pos_as_xyz
  1  'x, y, z'
loop_
 _atom_site_type_symbol
 _atom_site_label
 _atom_site_symmetry_multiplicity
 _atom_site_fract_x
 _atom_site_fract_y
 _atom_site_fract_z
 _atom_site_occupancy
  Er  Er0  1  0.250000  0.926685  0.786512  1
  Er  Er1  1  0.750000  0.426685  0.713488  1
  Er  Er2  1  0.250000  0.573315  0.286512  1
  Er  Er3  1  0.750000  0.073315  0.213488  1
  Er  Er4  1  0.250000  0.840163  0.502491  1
  Er  Er5  1  0.750000  0.340163  0.997509  1
  Er  Er6  1  0.250000  0.659837  0.002491  1
  Er  Er7  1  0.750000  0.159837  0.497509  1
  Cu  Cu8  1  0.250000  0.870043  0.284700  1
  Cu  Cu9  1  0.750000  0.370043  0.215300  1
  Cu  Cu10  1  0.250000  0.629957  0.784700  1
  Cu  Cu11  1  0.750000  0.129957  0.715300  1
  P  P12  1  0.250000  0.235884  0.642041  1
  P  P13  1  0.750000  0.735884  0.857959  1
  P  P14  1  0.250000  0.264116  0.142041  1
  P  P15  1  0.750000  0.764116  0.357959  1
  P  P16  1  0.250000  0.601923  0.605833  1
  P  P17  1  0.750000  0.101923  0.894167  1
  P  P18  1  0.250000  0.898077  0.105833  1
  P  P19  1  0.750000  0.398077  0.394167  1
  P  P20  1  0.250000  0.053627  0.373994  1
  P  P21  1  0.750000  0.553627  0.126006  1
  P  P22  1  0.250000  0.446373  0.873994  1
  P  P23  1  0.750000  0.946373  0.626006  1
  Pd  Pd24  1  0.250000  0.404567  0.520567  1
  Pd  Pd25  1  0.750000  0.904567  0.979433  1
  Pd  Pd26  1  0.250000  0.095433  0.020567  1
  Pd  Pd27  1  0.750000  0.595433  0.479433  1
  Pd  Pd28  1  0.250000  0.274005  0.328903  1
  Pd  Pd29  1  0.750000  0.774005  0.171097  1
  Pd  Pd30  1  0.250000  0.225995  0.828903  1
  Pd  Pd31  1  0.750000  0.725995  0.671097  1
