# generated using pymatgen
data_TbLu7(ZrIr3)2
_symmetry_space_group_name_H-M   'P 1'
_cell_length_a   10.70339871
_cell_length_b   10.70367600
_cell_length_c   6.17419662
_cell_angle_alpha   90.00000000
_cell_angle_beta   89.80928427
_cell_angle_gamma   90.00000000
_symmetry_Int_Tables_number   1
_chemical_formula_structural   TbLu7(ZrIr3)2
_chemical_formula_sum   'Tb2 Lu14 Zr4 Ir12'
_cell_volume   707.34731216
_cell_formula_units_Z   2
loop_
 _symmetry_equiv_pos_site_id
 _symmetry_equiv_pos_as_xyz
  1  'x, y, z'
loop_
 _atom_site_type_symbol
 _atom_site_label
 _atom_site_symmetry_multiplicity
 _atom_site_fract_x
 _atom_site_fract_y
 _atom_site_fract_z
 _atom_site_occupancy
  Tb  Tb0  1  0.087860  0.712384  0.634469  1
  Tb  Tb1  1  0.087860  0.287616  0.134469  1
  Lu  Lu2  1  0.292431  0.083774  0.371327  1
  Lu  Lu3  1  0.292431  0.916226  0.871327  1
  Lu  Lu4  1  0.708911  0.085978  0.865855  1
  Lu  Lu5  1  0.708911  0.914022  0.365855  1
  Lu  Lu6  1  0.585704  0.790578  0.869521  1
  Lu  Lu7  1  0.585704  0.209422  0.369521  1
  Lu  Lu8  1  0.414574  0.790196  0.367779  1
  Lu  Lu9  1  0.414574  0.209804  0.867779  1
  Lu  Lu10  1  0.209315  0.413531  0.631860  1
  Lu  Lu11  1  0.209315  0.586469  0.131860  1
  Lu  Lu12  1  0.789935  0.413960  0.132888  1
  Lu  Lu13  1  0.789935  0.586040  0.632888  1
  Lu  Lu14  1  0.912337  0.708693  0.131555  1
  Lu  Lu15  1  0.912337  0.291307  0.631555  1
  Zr  Zr16  1  0.998001  0.001844  0.495545  1
  Zr  Zr17  1  0.998001  0.998156  0.995545  1
  Zr  Zr18  1  0.500609  0.499873  0.000981  1
  Zr  Zr19  1  0.500609  0.500127  0.500981  1
  Ir  Ir20  1  0.848315  0.147144  0.249399  1
  Ir  Ir21  1  0.848315  0.852856  0.749399  1
  Ir  Ir22  1  0.148632  0.147156  0.744408  1
  Ir  Ir23  1  0.148632  0.852844  0.244408  1
  Ir  Ir24  1  0.649259  0.351904  0.750565  1
  Ir  Ir25  1  0.649259  0.648096  0.250565  1
  Ir  Ir26  1  0.354728  0.350768  0.252920  1
  Ir  Ir27  1  0.354728  0.649232  0.752920  1
  Ir  Ir28  1  0.500866  0.000619  0.113483  1
  Ir  Ir29  1  0.500866  0.999381  0.613483  1
  Ir  Ir30  1  0.998521  0.499767  0.887442  1
  Ir  Ir31  1  0.998521  0.500233  0.387442  1
