# generated using pymatgen
data_InNiBr18
_symmetry_space_group_name_H-M   'P 1'
_cell_length_a   9.10693638
_cell_length_b   9.14348465
_cell_length_c   9.37117450
_cell_angle_alpha   87.03448057
_cell_angle_beta   88.57145568
_cell_angle_gamma   88.21437738
_symmetry_Int_Tables_number   1
_chemical_formula_structural   InNiBr18
_chemical_formula_sum   'In1 Ni1 Br18'
_cell_volume   778.69362175
_cell_formula_units_Z   1
loop_
 _symmetry_equiv_pos_site_id
 _symmetry_equiv_pos_as_xyz
  1  'x, y, z'
loop_
 _atom_site_type_symbol
 _atom_site_label
 _atom_site_symmetry_multiplicity
 _atom_site_fract_x
 _atom_site_fract_y
 _atom_site_fract_z
 _atom_site_occupancy
  In  In0  1  0.000000  0.000000  0.000000  1
  Ni  Ni1  1  0.500000  0.500000  0.500000  1
  Br  Br2  1  0.761926  0.467255  0.509048  1
  Br  Br3  1  0.508295  0.765757  0.461004  1
  Br  Br4  1  0.463177  0.509561  0.776255  1
  Br  Br5  1  0.238074  0.532745  0.490952  1
  Br  Br6  1  0.491705  0.234243  0.538996  1
  Br  Br7  1  0.536823  0.490439  0.223745  1
  Br  Br8  1  0.879072  0.382105  0.746763  1
  Br  Br9  1  0.748615  0.881390  0.375729  1
  Br  Br10  1  0.379582  0.740459  0.886400  1
  Br  Br11  1  0.120928  0.617895  0.253237  1
  Br  Br12  1  0.251385  0.118610  0.624271  1
  Br  Br13  1  0.620418  0.259541  0.113600  1
  Br  Br14  1  0.027316  0.967841  0.708174  1
  Br  Br15  1  0.707155  0.027238  0.967815  1
  Br  Br16  1  0.966964  0.699950  0.035954  1
  Br  Br17  1  0.972684  0.032159  0.291826  1
  Br  Br18  1  0.292845  0.972762  0.032185  1
  Br  Br19  1  0.033036  0.300050  0.964046  1
