# generated using pymatgen
data_YU3Ga12Tc
_symmetry_space_group_name_H-M   'P 1'
_cell_length_a   7.47013066
_cell_length_b   7.47013029
_cell_length_c   7.47013057
_cell_angle_alpha   109.38899051
_cell_angle_beta   109.38898397
_cell_angle_gamma   109.38899488
_symmetry_Int_Tables_number   1
_chemical_formula_structural   YU3Ga12Tc
_chemical_formula_sum   'Y1 U3 Ga12 Tc1'
_cell_volume   321.86806030
_cell_formula_units_Z   1
loop_
 _symmetry_equiv_pos_site_id
 _symmetry_equiv_pos_as_xyz
  1  'x, y, z'
loop_
 _atom_site_type_symbol
 _atom_site_label
 _atom_site_symmetry_multiplicity
 _atom_site_fract_x
 _atom_site_fract_y
 _atom_site_fract_z
 _atom_site_occupancy
  Y  Y0  1  0.500000  0.500000  0.500000  1
  U  U1  1  0.000000  0.000000  0.500000  1
  U  U2  1  0.000000  0.500000  0.000000  1
  U  U3  1  0.500000  0.000000  0.000000  1
  Ga  Ga4  1  0.500000  0.750300  0.249700  1
  Ga  Ga5  1  0.500000  0.249700  0.750300  1
  Ga  Ga6  1  0.249700  0.500000  0.750300  1
  Ga  Ga7  1  0.750300  0.500000  0.249700  1
  Ga  Ga8  1  0.750300  0.249700  0.500000  1
  Ga  Ga9  1  0.249700  0.750300  0.500000  1
  Ga  Ga10  1  0.997286  0.289690  0.289690  1
  Ga  Ga11  1  0.002714  0.710310  0.710310  1
  Ga  Ga12  1  0.289690  0.997286  0.289690  1
  Ga  Ga13  1  0.710310  0.002714  0.710310  1
  Ga  Ga14  1  0.289690  0.289690  0.997286  1
  Ga  Ga15  1  0.710310  0.710310  0.002714  1
  Tc  Tc16  1  0.000000  0.000000  0.000000  1
