# generated using pymatgen
data_Ho3P6Ru2Rh7
_symmetry_space_group_name_H-M   'P 1'
_cell_length_a   3.92659300
_cell_length_b   11.25457000
_cell_length_c   12.65362400
_cell_angle_alpha   90.00000000
_cell_angle_beta   90.00000000
_cell_angle_gamma   90.00000000
_symmetry_Int_Tables_number   1
_chemical_formula_structural   Ho3P6Ru2Rh7
_chemical_formula_sum   'Ho6 P12 Ru4 Rh14'
_cell_volume   559.19041684
_cell_formula_units_Z   2
loop_
 _symmetry_equiv_pos_site_id
 _symmetry_equiv_pos_as_xyz
  1  'x, y, z'
loop_
 _atom_site_type_symbol
 _atom_site_label
 _atom_site_symmetry_multiplicity
 _atom_site_fract_x
 _atom_site_fract_y
 _atom_site_fract_z
 _atom_site_occupancy
  Ho  Ho0  1  0.000000  0.500000  0.520208  1
  Ho  Ho1  1  0.500000  0.000000  0.479944  1
  Ho  Ho2  1  0.500000  0.818763  0.206630  1
  Ho  Ho3  1  0.500000  0.181237  0.206630  1
  Ho  Ho4  1  0.000000  0.680648  0.793693  1
  Ho  Ho5  1  0.000000  0.319352  0.793693  1
  P  P6  1  0.500000  0.314882  0.616667  1
  P  P7  1  0.500000  0.685118  0.616667  1
  P  P8  1  0.000000  0.188607  0.381984  1
  P  P9  1  0.000000  0.811393  0.381984  1
  P  P10  1  0.500000  0.500000  0.882326  1
  P  P11  1  0.000000  0.000000  0.118307  1
  P  P12  1  0.500000  0.845828  0.893195  1
  P  P13  1  0.500000  0.154172  0.893195  1
  P  P14  1  0.000000  0.655053  0.106702  1
  P  P15  1  0.000000  0.344947  0.106702  1
  P  P16  1  0.500000  0.500000  0.352462  1
  P  P17  1  0.000000  0.000000  0.648474  1
  Ru  Ru18  1  0.000000  0.500000  0.988163  1
  Ru  Ru19  1  0.500000  0.000000  0.013343  1
  Ru  Ru20  1  0.500000  0.295762  0.429687  1
  Ru  Ru21  1  0.500000  0.704238  0.429687  1
  Rh  Rh22  1  0.000000  0.205358  0.571497  1
  Rh  Rh23  1  0.000000  0.794642  0.571497  1
  Rh  Rh24  1  0.500000  0.873164  0.712526  1
  Rh  Rh25  1  0.500000  0.126836  0.712526  1
  Rh  Rh26  1  0.000000  0.626301  0.286381  1
  Rh  Rh27  1  0.000000  0.373699  0.286381  1
  Rh  Rh28  1  0.500000  0.331845  0.991391  1
  Rh  Rh29  1  0.500000  0.668155  0.991391  1
  Rh  Rh30  1  0.000000  0.167882  0.007769  1
  Rh  Rh31  1  0.000000  0.832118  0.007769  1
  Rh  Rh32  1  0.500000  0.500000  0.164260  1
  Rh  Rh33  1  0.000000  0.000000  0.835067  1
  Rh  Rh34  1  0.500000  0.500000  0.701131  1
  Rh  Rh35  1  0.000000  0.000000  0.300071  1
