# generated using pymatgen
data_Dy12Fe4AgSn
_symmetry_space_group_name_H-M   'P 1'
_cell_length_a   8.37332800
_cell_length_b   8.37332832
_cell_length_c   8.37332786
_cell_angle_alpha   110.88283646
_cell_angle_beta   110.58326019
_cell_angle_gamma   106.97615181
_symmetry_Int_Tables_number   1
_chemical_formula_structural   Dy12Fe4AgSn
_chemical_formula_sum   'Dy12 Fe4 Ag1 Sn1'
_cell_volume   451.28885169
_cell_formula_units_Z   1
loop_
 _symmetry_equiv_pos_site_id
 _symmetry_equiv_pos_as_xyz
  1  'x, y, z'
loop_
 _atom_site_type_symbol
 _atom_site_label
 _atom_site_symmetry_multiplicity
 _atom_site_fract_x
 _atom_site_fract_y
 _atom_site_fract_z
 _atom_site_occupancy
  Dy  Dy0  1  0.311702  0.611563  0.299860  1
  Dy  Dy1  1  0.688298  0.388438  0.700140  1
  Dy  Dy2  1  0.311702  0.011842  0.700140  1
  Dy  Dy3  1  0.688298  0.988158  0.299860  1
  Dy  Dy4  1  0.428293  0.220497  0.207796  1
  Dy  Dy5  1  0.571707  0.779503  0.792204  1
  Dy  Dy6  1  0.012701  0.220497  0.792204  1
  Dy  Dy7  1  0.987299  0.779503  0.207796  1
  Dy  Dy8  1  0.188384  0.291474  0.479858  1
  Dy  Dy9  1  0.811616  0.708526  0.520142  1
  Dy  Dy10  1  0.188384  0.708526  0.896911  1
  Dy  Dy11  1  0.811616  0.291474  0.103089  1
  Fe  Fe12  1  0.107875  0.607875  0.500000  1
  Fe  Fe13  1  0.892126  0.392126  0.500000  1
  Fe  Fe14  1  0.386402  0.000000  0.386402  1
  Fe  Fe15  1  0.613598  0.000000  0.613598  1
  Ag  Ag16  1  0.000000  0.000000  0.000000  1
  Sn  Sn17  1  0.500000  0.500000  0.000000  1
