# generated using pymatgen
data_Ti12Al4CuPd7N4
_symmetry_space_group_name_H-M   'P 1'
_cell_length_a   8.17393326
_cell_length_b   8.18302446
_cell_length_c   8.18302600
_cell_angle_alpha   59.99999376
_cell_angle_beta   59.96319506
_cell_angle_gamma   59.96319711
_symmetry_Int_Tables_number   1
_chemical_formula_structural   Ti12Al4CuPd7N4
_chemical_formula_sum   'Ti12 Al4 Cu1 Pd7 N4'
_cell_volume   386.81386373
_cell_formula_units_Z   1
loop_
 _symmetry_equiv_pos_site_id
 _symmetry_equiv_pos_as_xyz
  1  'x, y, z'
loop_
 _atom_site_type_symbol
 _atom_site_label
 _atom_site_symmetry_multiplicity
 _atom_site_fract_x
 _atom_site_fract_y
 _atom_site_fract_z
 _atom_site_occupancy
  Ti  Ti0  1  0.817475  0.817537  0.182493  1
  Ti  Ti1  1  0.183361  0.182889  0.816875  1
  Ti  Ti2  1  0.817475  0.182493  0.817537  1
  Ti  Ti3  1  0.183361  0.816875  0.182889  1
  Ti  Ti4  1  0.183361  0.816875  0.816875  1
  Ti  Ti5  1  0.817475  0.182493  0.182493  1
  Ti  Ti6  1  0.432238  0.432628  0.067567  1
  Ti  Ti7  1  0.064920  0.071367  0.431857  1
  Ti  Ti8  1  0.432238  0.067567  0.432628  1
  Ti  Ti9  1  0.064920  0.431857  0.071367  1
  Ti  Ti10  1  0.064920  0.431857  0.431857  1
  Ti  Ti11  1  0.432238  0.067567  0.067567  1
  Al  Al12  1  0.125642  0.624786  0.624786  1
  Al  Al13  1  0.627939  0.125985  0.623037  1
  Al  Al14  1  0.627939  0.623037  0.125985  1
  Al  Al15  1  0.627939  0.623037  0.623037  1
  Cu  Cu16  1  0.758867  0.413712  0.413712  1
  Pd  Pd17  1  0.413395  0.765085  0.410760  1
  Pd  Pd18  1  0.413395  0.410760  0.765085  1
  Pd  Pd19  1  0.413395  0.410760  0.410760  1
  Pd  Pd20  1  0.484011  0.838663  0.838663  1
  Pd  Pd21  1  0.838553  0.482756  0.839345  1
  Pd  Pd22  1  0.838553  0.839345  0.482756  1
  Pd  Pd23  1  0.838553  0.839345  0.839345  1
  N  N24  1  0.624665  0.125112  0.125112  1
  N  N25  1  0.124389  0.625053  0.125278  1
  N  N26  1  0.124389  0.125278  0.625053  1
  N  N27  1  0.124389  0.125278  0.125278  1
