# generated using pymatgen
data_Pr5Dy11(AgRh)4
_symmetry_space_group_name_H-M   'P 1'
_cell_length_a   9.66730413
_cell_length_b   9.66190617
_cell_length_c   9.66190561
_cell_angle_alpha   59.90101349
_cell_angle_beta   59.98151520
_cell_angle_gamma   59.98151546
_symmetry_Int_Tables_number   1
_chemical_formula_structural   Pr5Dy11(AgRh)4
_chemical_formula_sum   'Pr5 Dy11 Ag4 Rh4'
_cell_volume   637.48332559
_cell_formula_units_Z   1
loop_
 _symmetry_equiv_pos_site_id
 _symmetry_equiv_pos_as_xyz
  1  'x, y, z'
loop_
 _atom_site_type_symbol
 _atom_site_label
 _atom_site_symmetry_multiplicity
 _atom_site_fract_x
 _atom_site_fract_y
 _atom_site_fract_z
 _atom_site_occupancy
  Pr  Pr0  1  0.559735  0.940265  0.940265  1
  Pr  Pr1  1  0.564163  0.936261  0.560512  1
  Pr  Pr2  1  0.939064  0.560512  0.936261  1
  Pr  Pr3  1  0.564163  0.560512  0.936261  1
  Pr  Pr4  1  0.939064  0.936261  0.560512  1
  Dy  Dy5  1  0.351252  0.352040  0.352040  1
  Dy  Dy6  1  0.350087  0.353352  0.946473  1
  Dy  Dy7  1  0.350087  0.946473  0.353352  1
  Dy  Dy8  1  0.944667  0.352040  0.352040  1
  Dy  Dy9  1  0.814333  0.185667  0.185667  1
  Dy  Dy10  1  0.184764  0.815237  0.815236  1
  Dy  Dy11  1  0.185378  0.813270  0.186930  1
  Dy  Dy12  1  0.814421  0.186931  0.813270  1
  Dy  Dy13  1  0.185378  0.186931  0.813270  1
  Dy  Dy14  1  0.814422  0.813271  0.186930  1
  Dy  Dy15  1  0.941790  0.558210  0.558210  1
  Ag  Ag16  1  0.584029  0.578412  0.578412  1
  Ag  Ag17  1  0.579149  0.579191  0.262510  1
  Ag  Ag18  1  0.579149  0.262510  0.579191  1
  Ag  Ag19  1  0.259146  0.578412  0.578412  1
  Rh  Rh20  1  0.143377  0.142890  0.142890  1
  Rh  Rh21  1  0.140770  0.147835  0.570627  1
  Rh  Rh22  1  0.140770  0.570627  0.147835  1
  Rh  Rh23  1  0.570844  0.142890  0.142890  1
