# generated using pymatgen
data_Zr6Zn20SiNi3
_symmetry_space_group_name_H-M   'P 1'
_cell_length_a   8.72873130
_cell_length_b   8.72873129
_cell_length_c   8.68018366
_cell_angle_alpha   59.78233151
_cell_angle_beta   59.78233011
_cell_angle_gamma   59.57362229
_symmetry_Int_Tables_number   1
_chemical_formula_structural   Zr6Zn20SiNi3
_chemical_formula_sum   'Zr6 Zn20 Si1 Ni3'
_cell_volume   464.58976541
_cell_formula_units_Z   1
loop_
 _symmetry_equiv_pos_site_id
 _symmetry_equiv_pos_as_xyz
  1  'x, y, z'
loop_
 _atom_site_type_symbol
 _atom_site_label
 _atom_site_symmetry_multiplicity
 _atom_site_fract_x
 _atom_site_fract_y
 _atom_site_fract_z
 _atom_site_occupancy
  Zr  Zr0  1  0.709576  0.287725  0.290544  1
  Zr  Zr1  1  0.290424  0.712275  0.709456  1
  Zr  Zr2  1  0.287725  0.709576  0.290544  1
  Zr  Zr3  1  0.712275  0.290424  0.709456  1
  Zr  Zr4  1  0.291676  0.291676  0.705113  1
  Zr  Zr5  1  0.708324  0.708324  0.294887  1
  Zn  Zn6  1  0.118325  0.118325  0.117801  1
  Zn  Zn7  1  0.881675  0.881675  0.882199  1
  Zn  Zn8  1  0.125016  0.125016  0.638171  1
  Zn  Zn9  1  0.114646  0.641109  0.130333  1
  Zn  Zn10  1  0.874984  0.874984  0.361829  1
  Zn  Zn11  1  0.885354  0.358891  0.869667  1
  Zn  Zn12  1  0.641109  0.114646  0.130333  1
  Zn  Zn13  1  0.358891  0.885354  0.869667  1
  Zn  Zn14  1  0.500000  0.000000  0.000000  1
  Zn  Zn15  1  0.000000  0.500000  0.000000  1
  Zn  Zn16  1  0.000000  0.000000  0.500000  1
  Zn  Zn17  1  0.500000  0.500000  0.000000  1
  Zn  Zn18  1  0.331605  0.331605  0.341587  1
  Zn  Zn19  1  0.668395  0.668395  0.658413  1
  Zn  Zn20  1  0.336023  0.336023  0.992256  1
  Zn  Zn21  1  0.338984  0.994311  0.339809  1
  Zn  Zn22  1  0.663977  0.663977  0.007744  1
  Zn  Zn23  1  0.661016  0.005689  0.660191  1
  Zn  Zn24  1  0.994311  0.338984  0.339809  1
  Zn  Zn25  1  0.005689  0.661016  0.660191  1
  Si  Si26  1  0.500000  0.500000  0.500000  1
  Ni  Ni27  1  0.000000  0.500000  0.500000  1
  Ni  Ni28  1  0.500000  0.000000  0.500000  1
  Ni  Ni29  1  0.000000  0.000000  0.000000  1
