# generated using pymatgen
data_LaNd2(PdAu)3
_symmetry_space_group_name_H-M   'P 1'
_cell_length_a   7.67531380
_cell_length_b   7.66151745
_cell_length_c   3.97682000
_cell_angle_alpha   90.00000000
_cell_angle_beta   90.00000000
_cell_angle_gamma   119.94055718
_symmetry_Int_Tables_number   1
_chemical_formula_structural   LaNd2(PdAu)3
_chemical_formula_sum   'La1 Nd2 Pd3 Au3'
_cell_volume   202.64566877
_cell_formula_units_Z   1
loop_
 _symmetry_equiv_pos_site_id
 _symmetry_equiv_pos_as_xyz
  1  'x, y, z'
loop_
 _atom_site_type_symbol
 _atom_site_label
 _atom_site_symmetry_multiplicity
 _atom_site_fract_x
 _atom_site_fract_y
 _atom_site_fract_z
 _atom_site_occupancy
  La  La0  1  0.000000  0.607955  0.500000  1
  Nd  Nd1  1  0.390934  0.391306  0.500000  1
  Nd  Nd2  1  0.609066  0.000373  0.500000  1
  Pd  Pd3  1  0.668547  0.335268  0.000000  1
  Pd  Pd4  1  0.331453  0.666722  0.000000  1
  Pd  Pd5  1  0.000000  0.997127  0.500000  1
  Au  Au6  1  0.731016  0.735805  0.000000  1
  Au  Au7  1  0.268984  0.004789  0.000000  1
  Au  Au8  1  0.000000  0.260654  0.000000  1
