# generated using pymatgen
data_Er4VTc3B16
_symmetry_space_group_name_H-M   'P 1'
_cell_length_a   3.55768700
_cell_length_b   5.95145776
_cell_length_c   11.50455028
_cell_angle_alpha   89.85474550
_cell_angle_beta   90.00000000
_cell_angle_gamma   90.00000000
_symmetry_Int_Tables_number   1
_chemical_formula_structural   Er4VTc3B16
_chemical_formula_sum   'Er4 V1 Tc3 B16'
_cell_volume   243.58993719
_cell_formula_units_Z   1
loop_
 _symmetry_equiv_pos_site_id
 _symmetry_equiv_pos_as_xyz
  1  'x, y, z'
loop_
 _atom_site_type_symbol
 _atom_site_label
 _atom_site_symmetry_multiplicity
 _atom_site_fract_x
 _atom_site_fract_y
 _atom_site_fract_z
 _atom_site_occupancy
  Er  Er0  1  0.500000  0.126093  0.850207  1
  Er  Er1  1  0.500000  0.874079  0.149984  1
  Er  Er2  1  0.500000  0.627372  0.650137  1
  Er  Er3  1  0.500000  0.372583  0.348816  1
  V  V4  1  0.500000  0.371918  0.082383  1
  Tc  Tc5  1  0.500000  0.134386  0.587609  1
  Tc  Tc6  1  0.500000  0.865909  0.413584  1
  Tc  Tc7  1  0.500000  0.627356  0.916342  1
  B  B8  1  0.000000  0.286174  0.686079  1
  B  B9  1  0.000000  0.713847  0.314321  1
  B  B10  1  0.000000  0.786342  0.815250  1
  B  B11  1  0.000000  0.213499  0.185163  1
  B  B12  1  0.000000  0.364801  0.531252  1
  B  B13  1  0.000000  0.635268  0.468695  1
  B  B14  1  0.000000  0.865284  0.967891  1
  B  B15  1  0.000000  0.134318  0.032223  1
  B  B16  1  0.000000  0.024171  0.307102  1
  B  B17  1  0.000000  0.975719  0.692827  1
  B  B18  1  0.000000  0.523163  0.192798  1
  B  B19  1  0.000000  0.476877  0.807270  1
  B  B20  1  0.000000  0.114243  0.452429  1
  B  B21  1  0.000000  0.886179  0.547509  1
  B  B22  1  0.000000  0.614723  0.047467  1
  B  B23  1  0.000000  0.385699  0.952664  1
