# generated using pymatgen
data_Sc2UCo2Sn3Ir
_symmetry_space_group_name_H-M   'P 1'
_cell_length_a   7.27831061
_cell_length_b   7.42458466
_cell_length_c   3.66448800
_cell_angle_alpha   90.00000000
_cell_angle_beta   90.00000000
_cell_angle_gamma   121.37150262
_symmetry_Int_Tables_number   1
_chemical_formula_structural   Sc2UCo2Sn3Ir
_chemical_formula_sum   'Sc2 U1 Co2 Sn3 Ir1'
_cell_volume   169.07414605
_cell_formula_units_Z   1
loop_
 _symmetry_equiv_pos_site_id
 _symmetry_equiv_pos_as_xyz
  1  'x, y, z'
loop_
 _atom_site_type_symbol
 _atom_site_label
 _atom_site_symmetry_multiplicity
 _atom_site_fract_x
 _atom_site_fract_y
 _atom_site_fract_z
 _atom_site_occupancy
  Sc  Sc0  1  0.401510  0.401125  0.500000  1
  Sc  Sc1  1  0.596875  0.994578  0.500000  1
  U  U2  1  0.986838  0.581215  0.500000  1
  Co  Co3  1  0.704150  0.368896  0.000000  1
  Co  Co4  1  0.001246  0.986104  0.500000  1
  Sn  Sn5  1  0.728252  0.739502  0.000000  1
  Sn  Sn6  1  0.280621  0.025819  0.000000  1
  Sn  Sn7  1  0.993250  0.236360  0.000000  1
  Ir  Ir8  1  0.307258  0.666402  0.000000  1
