# generated using pymatgen
data_Yb8Cu3Si12Ni
_symmetry_space_group_name_H-M   'P 1'
_cell_length_a   8.14606800
_cell_length_b   8.14606765
_cell_length_c   8.21143900
_cell_angle_alpha   90.00000000
_cell_angle_beta   90.00000000
_cell_angle_gamma   119.99999331
_symmetry_Int_Tables_number   1
_chemical_formula_structural   Yb8Cu3Si12Ni
_chemical_formula_sum   'Yb8 Cu3 Si12 Ni1'
_cell_volume   471.89565153
_cell_formula_units_Z   1
loop_
 _symmetry_equiv_pos_site_id
 _symmetry_equiv_pos_as_xyz
  1  'x, y, z'
loop_
 _atom_site_type_symbol
 _atom_site_label
 _atom_site_symmetry_multiplicity
 _atom_site_fract_x
 _atom_site_fract_y
 _atom_site_fract_z
 _atom_site_occupancy
  Yb  Yb0  1  0.498412  0.996823  0.252271  1
  Yb  Yb1  1  0.498784  0.997568  0.747633  1
  Yb  Yb2  1  0.003177  0.501588  0.252271  1
  Yb  Yb3  1  0.002432  0.501216  0.747633  1
  Yb  Yb4  1  0.498412  0.501588  0.252271  1
  Yb  Yb5  1  0.498784  0.501216  0.747633  1
  Yb  Yb6  1  0.000000  0.000000  0.250868  1
  Yb  Yb7  1  0.000000  0.000000  0.748912  1
  Cu  Cu8  1  0.333333  0.666667  0.999124  1
  Cu  Cu9  1  0.666667  0.333333  0.000875  1
  Cu  Cu10  1  0.666667  0.333333  0.499877  1
  Si  Si11  1  0.166630  0.333259  0.999959  1
  Si  Si12  1  0.832832  0.665664  0.999975  1
  Si  Si13  1  0.666741  0.833370  0.999959  1
  Si  Si14  1  0.834107  0.668215  0.499893  1
  Si  Si15  1  0.334336  0.167168  0.999975  1
  Si  Si16  1  0.171009  0.342017  0.499961  1
  Si  Si17  1  0.166630  0.833370  0.999959  1
  Si  Si18  1  0.331785  0.165893  0.499893  1
  Si  Si19  1  0.832832  0.167168  0.999975  1
  Si  Si20  1  0.657983  0.828991  0.499961  1
  Si  Si21  1  0.834107  0.165893  0.499893  1
  Si  Si22  1  0.171009  0.828991  0.499961  1
  Ni  Ni23  1  0.333333  0.666667  0.501271  1
