# generated using pymatgen
data_La12ReOsI17
_symmetry_space_group_name_H-M   'P 1'
_cell_length_a   10.22277579
_cell_length_b   12.33410047
_cell_length_c   12.31382285
_cell_angle_alpha   73.86956769
_cell_angle_beta   74.69679910
_cell_angle_gamma   65.24193228
_symmetry_Int_Tables_number   1
_chemical_formula_structural   La12ReOsI17
_chemical_formula_sum   'La12 Re1 Os1 I17'
_cell_volume   1334.89405388
_cell_formula_units_Z   1
loop_
 _symmetry_equiv_pos_site_id
 _symmetry_equiv_pos_as_xyz
  1  'x, y, z'
loop_
 _atom_site_type_symbol
 _atom_site_label
 _atom_site_symmetry_multiplicity
 _atom_site_fract_x
 _atom_site_fract_y
 _atom_site_fract_z
 _atom_site_occupancy
  La  La0  1  0.453404  0.487743  0.323441  1
  La  La1  1  0.558592  0.670425  0.006181  1
  La  La2  1  0.274654  0.990449  0.103105  1
  La  La3  1  0.861803  0.285839  0.850750  1
  La  La4  1  0.403046  0.240460  0.718718  1
  La  La5  1  0.726861  0.006112  0.898807  1
  La  La6  1  0.545808  0.515775  0.675357  1
  La  La7  1  0.441984  0.328706  0.993453  1
  La  La8  1  0.596988  0.759608  0.281384  1
  La  La9  1  0.823363  0.190460  0.581225  1
  La  La10  1  0.176457  0.810263  0.418235  1
  La  La11  1  0.137088  0.714260  0.149105  1
  Re  Re12  1  0.632522  0.260661  0.787872  1
  Os  Os13  1  0.366961  0.739089  0.212286  1
  I  I14  1  0.054492  0.103692  0.323600  1
  I  I15  1  0.466313  0.947346  0.839479  1
  I  I16  1  0.427196  0.816208  0.534781  1
  I  I17  1  0.572655  0.184270  0.465267  1
  I  I18  1  0.847042  0.704135  0.045618  1
  I  I19  1  0.219521  0.421143  0.243558  1
  I  I20  1  0.683566  0.368028  0.102108  1
  I  I21  1  0.534175  0.053486  0.160021  1
  I  I22  1  0.741744  0.471296  0.417446  1
  I  I23  1  0.886726  0.786392  0.368945  1
  I  I24  1  0.945425  0.896613  0.676258  1
  I  I25  1  0.154320  0.295406  0.954487  1
  I  I26  1  0.316621  0.631100  0.897707  1
  I  I27  1  0.999663  0.000315  0.999756  1
  I  I28  1  0.112075  0.213810  0.631097  1
  I  I29  1  0.780060  0.578697  0.756770  1
  I  I30  1  0.258874  0.528214  0.583184  1
