# generated using pymatgen
data_AcNdCu3Ni7
_symmetry_space_group_name_H-M   'P 1'
_cell_length_a   4.01726300
_cell_length_b   5.02553200
_cell_length_c   8.82152700
_cell_angle_alpha   90.00000000
_cell_angle_beta   90.00000000
_cell_angle_gamma   90.00000000
_symmetry_Int_Tables_number   1
_chemical_formula_structural   AcNdCu3Ni7
_chemical_formula_sum   'Ac1 Nd1 Cu3 Ni7'
_cell_volume   178.09678318
_cell_formula_units_Z   1
loop_
 _symmetry_equiv_pos_site_id
 _symmetry_equiv_pos_as_xyz
  1  'x, y, z'
loop_
 _atom_site_type_symbol
 _atom_site_label
 _atom_site_symmetry_multiplicity
 _atom_site_fract_x
 _atom_site_fract_y
 _atom_site_fract_z
 _atom_site_occupancy
  Ac  Ac0  1  0.000000  0.000000  0.000000  1
  Nd  Nd1  1  0.000000  0.500000  0.500000  1
  Cu  Cu2  1  0.000000  0.000000  0.336803  1
  Cu  Cu3  1  0.000000  0.000000  0.663197  1
  Cu  Cu4  1  0.500000  0.500000  0.000000  1
  Ni  Ni5  1  0.000000  0.500000  0.819454  1
  Ni  Ni6  1  0.000000  0.500000  0.180546  1
  Ni  Ni7  1  0.500000  0.000000  0.500000  1
  Ni  Ni8  1  0.500000  0.253916  0.256450  1
  Ni  Ni9  1  0.500000  0.746084  0.743550  1
  Ni  Ni10  1  0.500000  0.746084  0.256450  1
  Ni  Ni11  1  0.500000  0.253916  0.743550  1
