# generated using pymatgen
data_HoCo3As3Rh2
_symmetry_space_group_name_H-M   'P 1'
_cell_length_a   3.82799900
_cell_length_b   10.89200500
_cell_length_c   12.50539600
_cell_angle_alpha   90.00000000
_cell_angle_beta   90.00000000
_cell_angle_gamma   90.00000000
_symmetry_Int_Tables_number   1
_chemical_formula_structural   HoCo3As3Rh2
_chemical_formula_sum   'Ho4 Co12 As12 Rh8'
_cell_volume   521.40728708
_cell_formula_units_Z   4
loop_
 _symmetry_equiv_pos_site_id
 _symmetry_equiv_pos_as_xyz
  1  'x, y, z'
loop_
 _atom_site_type_symbol
 _atom_site_label
 _atom_site_symmetry_multiplicity
 _atom_site_fract_x
 _atom_site_fract_y
 _atom_site_fract_z
 _atom_site_occupancy
  Ho  Ho0  1  0.250000  0.582058  0.706947  1
  Ho  Ho1  1  0.250000  0.917942  0.206947  1
  Ho  Ho2  1  0.750000  0.417942  0.293053  1
  Ho  Ho3  1  0.750000  0.082058  0.793053  1
  Co  Co4  1  0.250000  0.217627  0.178461  1
  Co  Co5  1  0.250000  0.282373  0.678461  1
  Co  Co6  1  0.750000  0.782373  0.821539  1
  Co  Co7  1  0.750000  0.717627  0.321539  1
  Co  Co8  1  0.250000  0.885090  0.695468  1
  Co  Co9  1  0.250000  0.614910  0.195468  1
  Co  Co10  1  0.750000  0.114910  0.304532  1
  Co  Co11  1  0.750000  0.385090  0.804532  1
  Co  Co12  1  0.250000  0.466024  0.930632  1
  Co  Co13  1  0.250000  0.033976  0.430632  1
  Co  Co14  1  0.750000  0.533976  0.069368  1
  Co  Co15  1  0.750000  0.966024  0.569368  1
  As  As16  1  0.250000  0.417394  0.112311  1
  As  As17  1  0.250000  0.082606  0.612311  1
  As  As18  1  0.750000  0.582606  0.887689  1
  As  As19  1  0.750000  0.917394  0.387689  1
  As  As20  1  0.250000  0.273300  0.863431  1
  As  As21  1  0.250000  0.226700  0.363431  1
  As  As22  1  0.750000  0.726700  0.136569  1
  As  As23  1  0.750000  0.773300  0.636569  1
  As  As24  1  0.250000  0.603890  0.379742  1
  As  As25  1  0.250000  0.896110  0.879742  1
  As  As26  1  0.750000  0.396110  0.620258  1
  As  As27  1  0.750000  0.103890  0.120258  1
  Rh  Rh28  1  0.250000  0.710952  0.991450  1
  Rh  Rh29  1  0.250000  0.789048  0.491450  1
  Rh  Rh30  1  0.750000  0.289048  0.008550  1
  Rh  Rh31  1  0.750000  0.210952  0.508550  1
  Rh  Rh32  1  0.250000  0.407380  0.480499  1
  Rh  Rh33  1  0.250000  0.092620  0.980499  1
  Rh  Rh34  1  0.750000  0.592620  0.519501  1
  Rh  Rh35  1  0.750000  0.907380  0.019501  1
