# generated using pymatgen
data_Dy8Ho2IrRh5
_symmetry_space_group_name_H-M   'P 1'
_cell_length_a   10.89844600
_cell_length_b   10.89954800
_cell_length_c   6.36177500
_cell_angle_alpha   89.99985961
_cell_angle_beta   90.00301287
_cell_angle_gamma   90.00052570
_symmetry_Int_Tables_number   1
_chemical_formula_structural   Dy8Ho2IrRh5
_chemical_formula_sum   'Dy16 Ho4 Ir2 Rh10'
_cell_volume   755.70338892
_cell_formula_units_Z   2
loop_
 _symmetry_equiv_pos_site_id
 _symmetry_equiv_pos_as_xyz
  1  'x, y, z'
loop_
 _atom_site_type_symbol
 _atom_site_label
 _atom_site_symmetry_multiplicity
 _atom_site_fract_x
 _atom_site_fract_y
 _atom_site_fract_z
 _atom_site_occupancy
  Dy  Dy0  1  0.290848  0.089408  0.378193  1
  Dy  Dy1  1  0.290848  0.910596  0.878191  1
  Dy  Dy2  1  0.709229  0.088308  0.878230  1
  Dy  Dy3  1  0.709228  0.911695  0.378236  1
  Dy  Dy4  1  0.587366  0.790323  0.878283  1
  Dy  Dy5  1  0.587363  0.209678  0.378277  1
  Dy  Dy6  1  0.411315  0.790311  0.379000  1
  Dy  Dy7  1  0.411318  0.209692  0.878996  1
  Dy  Dy8  1  0.210205  0.412352  0.621183  1
  Dy  Dy9  1  0.210203  0.587644  0.121183  1
  Dy  Dy10  1  0.790861  0.411592  0.121511  1
  Dy  Dy11  1  0.790860  0.588409  0.621520  1
  Dy  Dy12  1  0.911688  0.709321  0.121678  1
  Dy  Dy13  1  0.911687  0.290680  0.621688  1
  Dy  Dy14  1  0.089450  0.709041  0.621934  1
  Dy  Dy15  1  0.089450  0.290958  0.121937  1
  Ho  Ho16  1  0.999936  0.999884  0.500031  1
  Ho  Ho17  1  0.999936  0.000114  0.000013  1
  Ho  Ho18  1  0.499646  0.499878  0.999970  1
  Ho  Ho19  1  0.499649  0.500111  0.499966  1
  Ir  Ir20  1  0.346567  0.346171  0.249936  1
  Ir  Ir21  1  0.346570  0.653832  0.749937  1
  Rh  Rh22  1  0.846612  0.153248  0.250075  1
  Rh  Rh23  1  0.846620  0.846758  0.750070  1
  Rh  Rh24  1  0.152878  0.153008  0.749914  1
  Rh  Rh25  1  0.152880  0.846996  0.249914  1
  Rh  Rh26  1  0.653808  0.346522  0.750065  1
  Rh  Rh27  1  0.653811  0.653475  0.250084  1
  Rh  Rh28  1  0.500331  0.999856  0.122601  1
  Rh  Rh29  1  0.500328  0.000139  0.622596  1
  Rh  Rh30  1  0.999252  0.499946  0.877395  1
  Rh  Rh31  1  0.999256  0.500057  0.377395  1
