# generated using pymatgen
data_BaAs2IrRu
_symmetry_space_group_name_H-M   'P 1'
_cell_length_a   7.01250289
_cell_length_b   7.01250311
_cell_length_c   7.01250370
_cell_angle_alpha   145.47486955
_cell_angle_beta   145.47486597
_cell_angle_gamma   49.62742372
_symmetry_Int_Tables_number   1
_chemical_formula_structural   BaAs2IrRu
_chemical_formula_sum   'Ba1 As2 Ir1 Ru1'
_cell_volume   110.25417121
_cell_formula_units_Z   1
loop_
 _symmetry_equiv_pos_site_id
 _symmetry_equiv_pos_as_xyz
  1  'x, y, z'
loop_
 _atom_site_type_symbol
 _atom_site_label
 _atom_site_symmetry_multiplicity
 _atom_site_fract_x
 _atom_site_fract_y
 _atom_site_fract_z
 _atom_site_occupancy
  Ba  Ba0  1  0.000000  0.000000  0.000000  1
  As  As1  1  0.353454  0.353454  0.000000  1
  As  As2  1  0.646546  0.646546  0.000000  1
  Ir  Ir3  1  0.750000  0.250000  0.500000  1
  Ru  Ru4  1  0.250000  0.750000  0.500000  1
