# generated using pymatgen
data_La4Ho6Sn7Au
_symmetry_space_group_name_H-M   'P 1'
_cell_length_a   8.02598300
_cell_length_b   8.50041700
_cell_length_c   15.73426800
_cell_angle_alpha   90.00000000
_cell_angle_beta   90.00000000
_cell_angle_gamma   90.00000000
_symmetry_Int_Tables_number   1
_chemical_formula_structural   La4Ho6Sn7Au
_chemical_formula_sum   'La8 Ho12 Sn14 Au2'
_cell_volume   1073.45788362
_cell_formula_units_Z   2
loop_
 _symmetry_equiv_pos_site_id
 _symmetry_equiv_pos_as_xyz
  1  'x, y, z'
loop_
 _atom_site_type_symbol
 _atom_site_label
 _atom_site_symmetry_multiplicity
 _atom_site_fract_x
 _atom_site_fract_y
 _atom_site_fract_z
 _atom_site_occupancy
  La  La0  1  0.506797  0.316609  0.904777  1
  La  La1  1  0.006797  0.183391  0.595223  1
  La  La2  1  0.491957  0.679633  0.405518  1
  La  La3  1  0.991957  0.820367  0.094482  1
  La  La4  1  0.491957  0.679633  0.094482  1
  La  La5  1  0.991957  0.820367  0.405518  1
  La  La6  1  0.506797  0.316609  0.595223  1
  La  La7  1  0.006797  0.183391  0.904777  1
  Ho  Ho8  1  0.341699  0.830364  0.868120  1
  Ho  Ho9  1  0.841699  0.669636  0.631880  1
  Ho  Ho10  1  0.656125  0.165357  0.375647  1
  Ho  Ho11  1  0.156125  0.334643  0.124353  1
  Ho  Ho12  1  0.656125  0.165357  0.124353  1
  Ho  Ho13  1  0.156125  0.334643  0.375647  1
  Ho  Ho14  1  0.341699  0.830364  0.631880  1
  Ho  Ho15  1  0.841699  0.669636  0.868120  1
  Ho  Ho16  1  0.192771  0.500487  0.750000  1
  Ho  Ho17  1  0.692771  0.999513  0.750000  1
  Ho  Ho18  1  0.819509  0.501172  0.250000  1
  Ho  Ho19  1  0.319509  0.998828  0.250000  1
  Sn  Sn20  1  0.318104  0.039706  0.038934  1
  Sn  Sn21  1  0.818104  0.460294  0.461066  1
  Sn  Sn22  1  0.684341  0.960018  0.543230  1
  Sn  Sn23  1  0.184341  0.539982  0.956770  1
  Sn  Sn24  1  0.684341  0.960018  0.956770  1
  Sn  Sn25  1  0.184341  0.539982  0.543230  1
  Sn  Sn26  1  0.318104  0.039706  0.461066  1
  Sn  Sn27  1  0.818104  0.460294  0.038934  1
  Sn  Sn28  1  0.457645  0.374155  0.250000  1
  Sn  Sn29  1  0.957645  0.125845  0.250000  1
  Sn  Sn30  1  0.303100  0.133114  0.750000  1
  Sn  Sn31  1  0.803100  0.366886  0.750000  1
  Sn  Sn32  1  0.684609  0.855866  0.250000  1
  Sn  Sn33  1  0.184609  0.644134  0.250000  1
  Au  Au34  1  0.544323  0.627309  0.750000  1
  Au  Au35  1  0.044323  0.872691  0.750000  1
