# generated using pymatgen
data_Eu6CrCo14(P4Rh)3
_symmetry_space_group_name_H-M   'P 1'
_cell_length_a   3.76366100
_cell_length_b   10.88388700
_cell_length_c   12.57434900
_cell_angle_alpha   90.00000000
_cell_angle_beta   90.00000000
_cell_angle_gamma   90.00000000
_symmetry_Int_Tables_number   1
_chemical_formula_structural   Eu6CrCo14(P4Rh)3
_chemical_formula_sum   'Eu6 Cr1 Co14 P12 Rh3'
_cell_volume   515.08634037
_cell_formula_units_Z   1
loop_
 _symmetry_equiv_pos_site_id
 _symmetry_equiv_pos_as_xyz
  1  'x, y, z'
loop_
 _atom_site_type_symbol
 _atom_site_label
 _atom_site_symmetry_multiplicity
 _atom_site_fract_x
 _atom_site_fract_y
 _atom_site_fract_z
 _atom_site_occupancy
  Eu  Eu0  1  0.000000  0.500000  0.522053  1
  Eu  Eu1  1  0.500000  0.000000  0.475489  1
  Eu  Eu2  1  0.500000  0.817791  0.205922  1
  Eu  Eu3  1  0.500000  0.182209  0.205922  1
  Eu  Eu4  1  0.000000  0.681822  0.795600  1
  Eu  Eu5  1  0.000000  0.318178  0.795600  1
  Cr  Cr6  1  0.500000  0.500000  0.155674  1
  Co  Co7  1  0.000000  0.500000  0.991910  1
  Co  Co8  1  0.500000  0.000000  0.007399  1
  Co  Co9  1  0.500000  0.332718  0.998190  1
  Co  Co10  1  0.500000  0.667282  0.998190  1
  Co  Co11  1  0.000000  0.169089  0.005230  1
  Co  Co12  1  0.000000  0.830911  0.005230  1
  Co  Co13  1  0.500000  0.298149  0.431300  1
  Co  Co14  1  0.500000  0.701851  0.431300  1
  Co  Co15  1  0.000000  0.201749  0.567493  1
  Co  Co16  1  0.000000  0.798251  0.567493  1
  Co  Co17  1  0.500000  0.882813  0.707385  1
  Co  Co18  1  0.500000  0.117187  0.707385  1
  Co  Co19  1  0.000000  0.617359  0.290568  1
  Co  Co20  1  0.000000  0.382641  0.290568  1
  P  P21  1  0.500000  0.500000  0.894335  1
  P  P22  1  0.000000  0.000000  0.105671  1
  P  P23  1  0.500000  0.500000  0.341618  1
  P  P24  1  0.000000  0.000000  0.655124  1
  P  P25  1  0.500000  0.297844  0.613250  1
  P  P26  1  0.500000  0.702156  0.613250  1
  P  P27  1  0.000000  0.202679  0.386758  1
  P  P28  1  0.000000  0.797321  0.386758  1
  P  P29  1  0.500000  0.843770  0.896541  1
  P  P30  1  0.500000  0.156230  0.896541  1
  P  P31  1  0.000000  0.652031  0.106197  1
  P  P32  1  0.000000  0.347969  0.106197  1
  Rh  Rh33  1  0.000000  0.000000  0.842479  1
  Rh  Rh34  1  0.500000  0.500000  0.702331  1
  Rh  Rh35  1  0.000000  0.000000  0.297047  1
