# generated using pymatgen
data_Y3Ho2Co19(Si5P)2
_symmetry_space_group_name_H-M   'P 1'
_cell_length_a   12.14985800
_cell_length_b   12.12696122
_cell_length_c   3.71471300
_cell_angle_alpha   90.00000000
_cell_angle_beta   90.00000000
_cell_angle_gamma   119.92956566
_symmetry_Int_Tables_number   1
_chemical_formula_structural   Y3Ho2Co19(Si5P)2
_chemical_formula_sum   'Y3 Ho2 Co19 Si10 P2'
_cell_volume   474.33687561
_cell_formula_units_Z   1
loop_
 _symmetry_equiv_pos_site_id
 _symmetry_equiv_pos_as_xyz
  1  'x, y, z'
loop_
 _atom_site_type_symbol
 _atom_site_label
 _atom_site_symmetry_multiplicity
 _atom_site_fract_x
 _atom_site_fract_y
 _atom_site_fract_z
 _atom_site_occupancy
  Y  Y0  1  0.333686  0.666373  0.500000  1
  Y  Y1  1  0.666220  0.332672  0.500000  1
  Y  Y2  1  0.185787  0.000917  0.000000  1
  Ho  Ho3  1  0.000040  0.185578  0.000000  1
  Ho  Ho4  1  0.814026  0.814970  0.000000  1
  Co  Co5  1  0.626733  0.824078  0.500000  1
  Co  Co6  1  0.179926  0.802552  0.500000  1
  Co  Co7  1  0.197084  0.373293  0.500000  1
  Co  Co8  1  0.373646  0.197764  0.500000  1
  Co  Co9  1  0.819948  0.622908  0.500000  1
  Co  Co10  1  0.802941  0.176103  0.500000  1
  Co  Co11  1  0.000016  0.558753  0.500000  1
  Co  Co12  1  0.441118  0.441722  0.500000  1
  Co  Co13  1  0.559016  0.000604  0.500000  1
  Co  Co14  1  0.521185  0.644408  0.000000  1
  Co  Co15  1  0.357091  0.877668  0.000000  1
  Co  Co16  1  0.123046  0.478367  0.000000  1
  Co  Co17  1  0.479030  0.123298  0.000000  1
  Co  Co18  1  0.643004  0.520769  0.000000  1
  Co  Co19  1  0.876954  0.355280  0.000000  1
  Co  Co20  1  0.999828  0.718388  0.000000  1
  Co  Co21  1  0.277930  0.278056  0.000000  1
  Co  Co22  1  0.722177  0.999915  0.000000  1
  Co  Co23  1  0.999613  0.004544  0.500000  1
  Si  Si24  1  0.000096  0.371029  0.500000  1
  Si  Si25  1  0.628950  0.629192  0.500000  1
  Si  Si26  1  0.371470  0.000241  0.500000  1
  Si  Si27  1  0.522669  0.840640  0.000000  1
  Si  Si28  1  0.160695  0.682682  0.000000  1
  Si  Si29  1  0.317867  0.477627  0.000000  1
  Si  Si30  1  0.477375  0.317939  0.000000  1
  Si  Si31  1  0.839291  0.521920  0.000000  1
  Si  Si32  1  0.682062  0.159614  0.000000  1
  Si  Si33  1  0.999635  0.817274  0.500000  1
  P  P34  1  0.182480  0.182888  0.500000  1
  P  P35  1  0.817364  0.999975  0.500000  1
