# generated using pymatgen
data_Nd4Ga24Ir2Pt7
_symmetry_space_group_name_H-M   'P 1'
_cell_length_a   7.56538974
_cell_length_b   7.62275604
_cell_length_c   13.42564207
_cell_angle_alpha   84.88728641
_cell_angle_beta   100.56937783
_cell_angle_gamma   119.65084822
_symmetry_Int_Tables_number   1
_chemical_formula_structural   Nd4Ga24Ir2Pt7
_chemical_formula_sum   'Nd4 Ga24 Ir2 Pt7'
_cell_volume   661.44510592
_cell_formula_units_Z   1
loop_
 _symmetry_equiv_pos_site_id
 _symmetry_equiv_pos_as_xyz
  1  'x, y, z'
loop_
 _atom_site_type_symbol
 _atom_site_label
 _atom_site_symmetry_multiplicity
 _atom_site_fract_x
 _atom_site_fract_y
 _atom_site_fract_z
 _atom_site_occupancy
  Nd  Nd0  1  0.731296  0.999278  0.188935  1
  Nd  Nd1  1  0.269124  0.001768  0.810930  1
  Nd  Nd2  1  0.062276  0.667995  0.189920  1
  Nd  Nd3  1  0.936002  0.331465  0.810009  1
  Ga  Ga4  1  0.807418  0.868326  0.818261  1
  Ga  Ga5  1  0.193557  0.130332  0.181697  1
  Ga  Ga6  1  0.982570  0.668841  0.942931  1
  Ga  Ga7  1  0.024306  0.334351  0.057482  1
  Ga  Ga8  1  0.398493  0.662833  0.819334  1
  Ga  Ga9  1  0.598734  0.335914  0.182471  1
  Ga  Ga10  1  0.883510  0.665482  0.673888  1
  Ga  Ga11  1  0.116555  0.334751  0.324911  1
  Ga  Ga12  1  0.602387  0.462181  0.816579  1
  Ga  Ga13  1  0.399006  0.541901  0.181692  1
  Ga  Ga14  1  0.231276  0.339009  0.670721  1
  Ga  Ga15  1  0.769108  0.661450  0.329290  1
  Ga  Ga16  1  0.854686  0.333187  0.556579  1
  Ga  Ga17  1  0.185609  0.998472  0.557378  1
  Ga  Ga18  1  0.815265  0.001348  0.442726  1
  Ga  Ga19  1  0.351273  0.996093  0.056450  1
  Ga  Ga20  1  0.645537  0.997355  0.943464  1
  Ga  Ga21  1  0.557973  0.994119  0.673480  1
  Ga  Ga22  1  0.442363  0.005281  0.327357  1
  Ga  Ga23  1  0.522802  0.669700  0.559464  1
  Ga  Ga24  1  0.476551  0.330798  0.440300  1
  Ga  Ga25  1  0.685421  0.671346  0.048066  1
  Ga  Ga26  1  0.310867  0.332053  0.951615  1
  Ga  Ga27  1  0.145410  0.665616  0.443786  1
  Ir  Ir28  1  0.329496  0.669397  0.000498  1
  Ir  Ir29  1  0.000097  0.999975  0.999971  1
  Pt  Pt30  1  0.548426  0.328148  0.635827  1
  Pt  Pt31  1  0.451556  0.671350  0.363740  1
  Pt  Pt32  1  0.886515  0.004526  0.638360  1
  Pt  Pt33  1  0.113989  0.995695  0.361793  1
  Pt  Pt34  1  0.670246  0.329844  0.999492  1
  Pt  Pt35  1  0.208277  0.666873  0.638907  1
  Pt  Pt36  1  0.792022  0.332947  0.361695  1
