# generated using pymatgen
data_Hf12Al8ZnCo3C4
_symmetry_space_group_name_H-M   'P 1'
_cell_length_a   8.47846782
_cell_length_b   8.49730719
_cell_length_c   8.47884301
_cell_angle_alpha   60.07157223
_cell_angle_beta   59.99786449
_cell_angle_gamma   60.07068198
_symmetry_Int_Tables_number   1
_chemical_formula_structural   Hf12Al8ZnCo3C4
_chemical_formula_sum   'Hf12 Al8 Zn1 Co3 C4'
_cell_volume   432.39367695
_cell_formula_units_Z   1
loop_
 _symmetry_equiv_pos_site_id
 _symmetry_equiv_pos_as_xyz
  1  'x, y, z'
loop_
 _atom_site_type_symbol
 _atom_site_label
 _atom_site_symmetry_multiplicity
 _atom_site_fract_x
 _atom_site_fract_y
 _atom_site_fract_z
 _atom_site_occupancy
  Hf  Hf0  1  0.555073  0.944140  0.555100  1
  Hf  Hf1  1  0.305788  0.697235  0.691176  1
  Hf  Hf2  1  0.694929  0.305858  0.304314  1
  Hf  Hf3  1  0.305784  0.697243  0.305794  1
  Hf  Hf4  1  0.691178  0.697228  0.305796  1
  Hf  Hf5  1  0.304289  0.305852  0.694931  1
  Hf  Hf6  1  0.558823  0.552772  0.944204  1
  Hf  Hf7  1  0.944214  0.552765  0.558823  1
  Hf  Hf8  1  0.555069  0.944142  0.945687  1
  Hf  Hf9  1  0.945711  0.944149  0.555068  1
  Hf  Hf10  1  0.694927  0.305859  0.694899  1
  Hf  Hf11  1  0.944215  0.552757  0.944206  1
  Al  Al12  1  0.914194  0.932181  0.914220  1
  Al  Al13  1  0.010639  0.317801  0.335778  1
  Al  Al14  1  0.330017  0.009913  0.330035  1
  Al  Al15  1  0.335802  0.317817  0.010597  1
  Al  Al16  1  0.919982  0.240086  0.919966  1
  Al  Al17  1  0.914199  0.932183  0.239403  1
  Al  Al18  1  0.239361  0.932199  0.914222  1
  Al  Al19  1  0.335806  0.317819  0.335780  1
  Zn  Zn20  1  0.125000  0.625000  0.125000  1
  Co  Co21  1  0.125001  0.125000  0.124999  1
  Co  Co22  1  0.625000  0.125000  0.125001  1
  Co  Co23  1  0.125000  0.125000  0.625000  1
  C  C24  1  0.625000  0.624999  0.625000  1
  C  C25  1  0.124999  0.625000  0.625001  1
  C  C26  1  0.625000  0.125000  0.625000  1
  C  C27  1  0.625001  0.625001  0.125000  1
