# generated using pymatgen
data_Er5ReWC7
_symmetry_space_group_name_H-M   'P 1'
_cell_length_a   8.30937277
_cell_length_b   8.30937240
_cell_length_c   3.39149900
_cell_angle_alpha   90.00000000
_cell_angle_beta   90.00000000
_cell_angle_gamma   122.25102102
_symmetry_Int_Tables_number   1
_chemical_formula_structural   Er5ReWC7
_chemical_formula_sum   'Er5 Re1 W1 C7'
_cell_volume   198.04044492
_cell_formula_units_Z   1
loop_
 _symmetry_equiv_pos_site_id
 _symmetry_equiv_pos_as_xyz
  1  'x, y, z'
loop_
 _atom_site_type_symbol
 _atom_site_label
 _atom_site_symmetry_multiplicity
 _atom_site_fract_x
 _atom_site_fract_y
 _atom_site_fract_z
 _atom_site_occupancy
  Er  Er0  1  0.498923  0.501077  0.000000  1
  Er  Er1  1  0.077493  0.335998  0.500000  1
  Er  Er2  1  0.925039  0.666360  0.500000  1
  Er  Er3  1  0.664002  0.922507  0.500000  1
  Er  Er4  1  0.333640  0.074961  0.500000  1
  Re  Re5  1  0.285924  0.714076  0.000000  1
  W  W6  1  0.714596  0.285404  0.000000  1
  C  C7  1  0.623798  0.376202  0.500000  1
  C  C8  1  0.374804  0.625196  0.500000  1
  C  C9  1  0.999889  0.000111  0.000000  1
  C  C10  1  0.169282  0.168467  0.000000  1
  C  C11  1  0.831533  0.830718  0.000000  1
  C  C12  1  0.001074  0.499997  0.000000  1
  C  C13  1  0.500003  0.998926  0.000000  1
