# generated using pymatgen
data_Sc2Zn11Cu6
_symmetry_space_group_name_H-M   'P 1'
_cell_length_a   6.56884191
_cell_length_b   6.56884163
_cell_length_c   6.56884103
_cell_angle_alpha   82.80097702
_cell_angle_beta   82.80098041
_cell_angle_gamma   82.80098450
_symmetry_Int_Tables_number   1
_chemical_formula_structural   Sc2Zn11Cu6
_chemical_formula_sum   'Sc2 Zn11 Cu6'
_cell_volume   277.25683802
_cell_formula_units_Z   1
loop_
 _symmetry_equiv_pos_site_id
 _symmetry_equiv_pos_as_xyz
  1  'x, y, z'
loop_
 _atom_site_type_symbol
 _atom_site_label
 _atom_site_symmetry_multiplicity
 _atom_site_fract_x
 _atom_site_fract_y
 _atom_site_fract_z
 _atom_site_occupancy
  Sc  Sc0  1  0.647314  0.647314  0.647314  1
  Sc  Sc1  1  0.342625  0.342625  0.342625  1
  Zn  Zn2  1  0.169056  0.650017  0.650018  1
  Zn  Zn3  1  0.650017  0.650017  0.169056  1
  Zn  Zn4  1  0.650017  0.169056  0.650018  1
  Zn  Zn5  1  0.889817  0.889817  0.889817  1
  Zn  Zn6  1  0.107947  0.107947  0.107947  1
  Zn  Zn7  1  0.692745  0.002792  0.306668  1
  Zn  Zn8  1  0.002793  0.306668  0.692745  1
  Zn  Zn9  1  0.306667  0.692745  0.002792  1
  Zn  Zn10  1  0.306668  0.002793  0.692745  1
  Zn  Zn11  1  0.002792  0.692745  0.306668  1
  Zn  Zn12  1  0.692745  0.306667  0.002792  1
  Cu  Cu13  1  0.347376  0.844650  0.347376  1
  Cu  Cu14  1  0.347376  0.347376  0.844650  1
  Cu  Cu15  1  0.844650  0.347376  0.347376  1
  Cu  Cu16  1  0.999146  0.501099  0.999146  1
  Cu  Cu17  1  0.501099  0.999146  0.999146  1
  Cu  Cu18  1  0.999146  0.999146  0.501099  1
