# generated using pymatgen
data_Li2Fe3PtO8
_symmetry_space_group_name_H-M   'P 1'
_cell_length_a   5.98795102
_cell_length_b   10.56585701
_cell_length_c   5.98415111
_cell_angle_alpha   73.55674704
_cell_angle_beta   119.99426090
_cell_angle_gamma   90.00059224
_symmetry_Int_Tables_number   1
_chemical_formula_structural   Li2Fe3PtO8
_chemical_formula_sum   'Li4 Fe6 Pt2 O16'
_cell_volume   309.89253010
_cell_formula_units_Z   2
loop_
 _symmetry_equiv_pos_site_id
 _symmetry_equiv_pos_as_xyz
  1  'x, y, z'
loop_
 _atom_site_type_symbol
 _atom_site_label
 _atom_site_symmetry_multiplicity
 _atom_site_fract_x
 _atom_site_fract_y
 _atom_site_fract_z
 _atom_site_occupancy
  Li  Li0  1  0.933806  0.198322  0.867826  1
  Li  Li1  1  0.433809  0.698329  0.867837  1
  Li  Li2  1  0.566197  0.301678  0.132168  1
  Li  Li3  1  0.066176  0.801696  0.132136  1
  Fe  Fe4  1  0.500087  0.999976  0.000027  1
  Fe  Fe5  1  0.499948  0.999999  0.499916  1
  Fe  Fe6  1  0.499971  0.499971  0.500001  1
  Fe  Fe7  1  0.999964  0.500035  0.000007  1
  Fe  Fe8  1  0.000030  0.499975  0.500061  1
  Fe  Fe9  1  0.999998  0.000036  0.500019  1
  Pt  Pt10  1  0.749991  0.750006  0.499985  1
  Pt  Pt11  1  0.249997  0.250019  0.499975  1
  O  O12  1  0.866961  0.398506  0.734555  1
  O  O13  1  0.366960  0.898511  0.734480  1
  O  O14  1  0.633019  0.101503  0.265457  1
  O  O15  1  0.133033  0.601489  0.265545  1
  O  O16  1  0.097449  0.621541  0.738008  1
  O  O17  1  0.597432  0.121533  0.737950  1
  O  O18  1  0.640525  0.621616  0.738134  1
  O  O19  1  0.140605  0.121613  0.738195  1
  O  O20  1  0.640525  0.621517  0.280814  1
  O  O21  1  0.140495  0.121557  0.280749  1
  O  O22  1  0.859462  0.878466  0.719178  1
  O  O23  1  0.359491  0.378431  0.719240  1
  O  O24  1  0.859489  0.878383  0.261886  1
  O  O25  1  0.359408  0.378391  0.261819  1
  O  O26  1  0.402581  0.878443  0.261991  1
  O  O27  1  0.902589  0.378460  0.262039  1
