# generated using pymatgen
data_CaLaNd3Ir2
_symmetry_space_group_name_H-M   'P 1'
_cell_length_a   8.96642418
_cell_length_b   8.96642356
_cell_length_c   7.41296716
_cell_angle_alpha   83.54696655
_cell_angle_beta   83.54696994
_cell_angle_gamma   43.79412526
_symmetry_Int_Tables_number   1
_chemical_formula_structural   CaLaNd3Ir2
_chemical_formula_sum   'Ca2 La2 Nd6 Ir4'
_cell_volume   409.42141395
_cell_formula_units_Z   2
loop_
 _symmetry_equiv_pos_site_id
 _symmetry_equiv_pos_as_xyz
  1  'x, y, z'
loop_
 _atom_site_type_symbol
 _atom_site_label
 _atom_site_symmetry_multiplicity
 _atom_site_fract_x
 _atom_site_fract_y
 _atom_site_fract_z
 _atom_site_occupancy
  Ca  Ca0  1  0.016827  0.798106  0.916802  1
  Ca  Ca1  1  0.201894  0.983173  0.583198  1
  La  La2  1  0.984368  0.201550  0.086825  1
  La  La3  1  0.798450  0.015632  0.413175  1
  Nd  Nd4  1  0.351956  0.213991  0.817715  1
  Nd  Nd5  1  0.786009  0.648044  0.682285  1
  Nd  Nd6  1  0.652655  0.787318  0.182044  1
  Nd  Nd7  1  0.212682  0.347345  0.317956  1
  Nd  Nd8  1  0.561807  0.438193  0.750000  1
  Nd  Nd9  1  0.429255  0.570745  0.250000  1
  Ir  Ir10  1  0.178009  0.590358  0.569277  1
  Ir  Ir11  1  0.409642  0.821991  0.930723  1
  Ir  Ir12  1  0.818426  0.401981  0.421305  1
  Ir  Ir13  1  0.598019  0.181574  0.078695  1
