# generated using pymatgen
data_ScNb3B4(AsRu5)2
_symmetry_space_group_name_H-M   'P 1'
_cell_length_a   9.35531758
_cell_length_b   9.35531758
_cell_length_c   2.99220200
_cell_angle_alpha   90.00000000
_cell_angle_beta   90.00000000
_cell_angle_gamma   89.89973118
_symmetry_Int_Tables_number   1
_chemical_formula_structural   ScNb3B4(AsRu5)2
_chemical_formula_sum   'Sc1 Nb3 B4 As2 Ru10'
_cell_volume   261.88300383
_cell_formula_units_Z   1
loop_
 _symmetry_equiv_pos_site_id
 _symmetry_equiv_pos_as_xyz
  1  'x, y, z'
loop_
 _atom_site_type_symbol
 _atom_site_label
 _atom_site_symmetry_multiplicity
 _atom_site_fract_x
 _atom_site_fract_y
 _atom_site_fract_z
 _atom_site_occupancy
  Sc  Sc0  1  0.824502  0.675498  0.000000  1
  Nb  Nb1  1  0.175208  0.324792  0.000000  1
  Nb  Nb2  1  0.324592  0.823738  0.000000  1
  Nb  Nb3  1  0.676262  0.175408  0.000000  1
  B  B4  1  0.623902  0.876098  0.000000  1
  B  B5  1  0.375807  0.124193  0.000000  1
  B  B6  1  0.122432  0.623343  0.000000  1
  B  B7  1  0.876657  0.377568  0.000000  1
  As  As8  1  0.502754  0.501797  0.000000  1
  As  As9  1  0.998203  0.997246  0.000000  1
  Ru  Ru10  1  0.562388  0.715670  0.500000  1
  Ru  Ru11  1  0.430823  0.287162  0.500000  1
  Ru  Ru12  1  0.075694  0.788539  0.500000  1
  Ru  Ru13  1  0.933299  0.212179  0.500000  1
  Ru  Ru14  1  0.287821  0.566701  0.500000  1
  Ru  Ru15  1  0.711461  0.424306  0.500000  1
  Ru  Ru16  1  0.212838  0.069177  0.500000  1
  Ru  Ru17  1  0.784330  0.937612  0.500000  1
  Ru  Ru18  1  0.499102  0.000898  0.500000  1
  Ru  Ru19  1  0.001925  0.498075  0.500000  1
