# generated using pymatgen
data_Tb16Mg2Cd2RuPt3
_symmetry_space_group_name_H-M   'P 1'
_cell_length_a   9.77010271
_cell_length_b   9.77010290
_cell_length_c   9.78376000
_cell_angle_alpha   59.55370740
_cell_angle_beta   59.55371559
_cell_angle_gamma   59.50792207
_symmetry_Int_Tables_number   1
_chemical_formula_structural   Tb16Mg2Cd2RuPt3
_chemical_formula_sum   'Tb16 Mg2 Cd2 Ru1 Pt3'
_cell_volume   653.44207879
_cell_formula_units_Z   1
loop_
 _symmetry_equiv_pos_site_id
 _symmetry_equiv_pos_as_xyz
  1  'x, y, z'
loop_
 _atom_site_type_symbol
 _atom_site_label
 _atom_site_symmetry_multiplicity
 _atom_site_fract_x
 _atom_site_fract_y
 _atom_site_fract_z
 _atom_site_occupancy
  Tb  Tb0  1  0.350681  0.350681  0.351350  1
  Tb  Tb1  1  0.348281  0.348281  0.950845  1
  Tb  Tb2  1  0.347158  0.953430  0.347971  1
  Tb  Tb3  1  0.953430  0.347158  0.347971  1
  Tb  Tb4  1  0.815075  0.188726  0.188232  1
  Tb  Tb5  1  0.188009  0.810363  0.810569  1
  Tb  Tb6  1  0.188726  0.815075  0.188232  1
  Tb  Tb7  1  0.810363  0.188009  0.810569  1
  Tb  Tb8  1  0.189689  0.189689  0.813971  1
  Tb  Tb9  1  0.811604  0.811604  0.187000  1
  Tb  Tb10  1  0.936783  0.565921  0.565842  1
  Tb  Tb11  1  0.561262  0.937906  0.934503  1
  Tb  Tb12  1  0.565921  0.936783  0.565842  1
  Tb  Tb13  1  0.937906  0.561262  0.934503  1
  Tb  Tb14  1  0.566722  0.566722  0.933950  1
  Tb  Tb15  1  0.936686  0.936686  0.560561  1
  Mg  Mg16  1  0.576538  0.576538  0.579418  1
  Mg  Mg17  1  0.576526  0.576526  0.264602  1
  Cd  Cd18  1  0.581421  0.254204  0.580905  1
  Cd  Cd19  1  0.254204  0.581421  0.580905  1
  Ru  Ru20  1  0.143211  0.143211  0.142265  1
  Pt  Pt21  1  0.143703  0.143703  0.572944  1
  Pt  Pt22  1  0.144029  0.572072  0.143527  1
  Pt  Pt23  1  0.572072  0.144029  0.143527  1
