# generated using pymatgen
data_YbEr4(In2Pd)2
_symmetry_space_group_name_H-M   'P 1'
_cell_length_a   3.62252400
_cell_length_b   8.09436600
_cell_length_c   18.24750300
_cell_angle_alpha   90.00000000
_cell_angle_beta   90.00000000
_cell_angle_gamma   90.00000000
_symmetry_Int_Tables_number   1
_chemical_formula_structural   YbEr4(In2Pd)2
_chemical_formula_sum   'Yb2 Er8 In8 Pd4'
_cell_volume   535.05392345
_cell_formula_units_Z   2
loop_
 _symmetry_equiv_pos_site_id
 _symmetry_equiv_pos_as_xyz
  1  'x, y, z'
loop_
 _atom_site_type_symbol
 _atom_site_label
 _atom_site_symmetry_multiplicity
 _atom_site_fract_x
 _atom_site_fract_y
 _atom_site_fract_z
 _atom_site_occupancy
  Yb  Yb0  1  0.000000  0.500000  0.500000  1
  Yb  Yb1  1  0.000000  0.000000  0.000000  1
  Er  Er2  1  0.000000  0.743684  0.280111  1
  Er  Er3  1  0.000000  0.256316  0.719889  1
  Er  Er4  1  0.000000  0.756316  0.780111  1
  Er  Er5  1  0.000000  0.243684  0.219889  1
  Er  Er6  1  0.000000  0.621538  0.084422  1
  Er  Er7  1  0.000000  0.378462  0.915578  1
  Er  Er8  1  0.000000  0.878462  0.584422  1
  Er  Er9  1  0.000000  0.121538  0.415578  1
  In  In10  1  0.500000  0.705854  0.932538  1
  In  In11  1  0.500000  0.294146  0.067462  1
  In  In12  1  0.500000  0.794146  0.432538  1
  In  In13  1  0.500000  0.205854  0.567462  1
  In  In14  1  0.500000  0.574498  0.650108  1
  In  In15  1  0.500000  0.425502  0.349892  1
  In  In16  1  0.500000  0.925502  0.150108  1
  In  In17  1  0.500000  0.074498  0.849892  1
  Pd  Pd18  1  0.500000  0.524953  0.195762  1
  Pd  Pd19  1  0.500000  0.475047  0.804238  1
  Pd  Pd20  1  0.500000  0.975047  0.695762  1
  Pd  Pd21  1  0.500000  0.024953  0.304238  1
