# generated using pymatgen
data_Tb2MgMnO6
_symmetry_space_group_name_H-M   'P 1'
_cell_length_a   5.30624042
_cell_length_b   5.58977200
_cell_length_c   7.62481751
_cell_angle_alpha   90.00000000
_cell_angle_beta   90.00331059
_cell_angle_gamma   90.00000000
_symmetry_Int_Tables_number   1
_chemical_formula_structural   Tb2MgMnO6
_chemical_formula_sum   'Tb4 Mg2 Mn2 O12'
_cell_volume   226.15722729
_cell_formula_units_Z   2
loop_
 _symmetry_equiv_pos_site_id
 _symmetry_equiv_pos_as_xyz
  1  'x, y, z'
loop_
 _atom_site_type_symbol
 _atom_site_label
 _atom_site_symmetry_multiplicity
 _atom_site_fract_x
 _atom_site_fract_y
 _atom_site_fract_z
 _atom_site_occupancy
  Tb  Tb0  1  0.982974  0.066460  0.248990  1
  Tb  Tb1  1  0.517027  0.566461  0.251009  1
  Tb  Tb2  1  0.482975  0.433539  0.748991  1
  Tb  Tb3  1  0.017026  0.933540  0.751010  1
  Mg  Mg4  1  0.000000  0.499999  0.000000  1
  Mg  Mg5  1  0.500001  0.000000  0.499999  1
  Mn  Mn6  1  0.500001  0.000000  0.000000  1
  Mn  Mn7  1  0.000000  0.499999  0.500001  1
  O  O8  1  0.795147  0.810833  0.051785  1
  O  O9  1  0.685226  0.291970  0.056229  1
  O  O10  1  0.396012  0.964950  0.241035  1
  O  O11  1  0.103989  0.464949  0.258964  1
  O  O12  1  0.814775  0.791969  0.443770  1
  O  O13  1  0.704852  0.310832  0.448215  1
  O  O14  1  0.295148  0.689168  0.551785  1
  O  O15  1  0.185225  0.208031  0.556230  1
  O  O16  1  0.896011  0.535051  0.741036  1
  O  O17  1  0.603988  0.035050  0.758965  1
  O  O18  1  0.314774  0.708030  0.943771  1
  O  O19  1  0.204853  0.189167  0.948214  1
