# generated using pymatgen
data_Tm2Al9IrPd2
_symmetry_space_group_name_H-M   'P 1'
_cell_length_a   7.60327000
_cell_length_b   7.60326985
_cell_length_c   9.41372400
_cell_angle_alpha   90.00000000
_cell_angle_beta   90.00000000
_cell_angle_gamma   119.70065104
_symmetry_Int_Tables_number   1
_chemical_formula_structural   Tm2Al9IrPd2
_chemical_formula_sum   'Tm4 Al18 Ir2 Pd4'
_cell_volume   472.71027848
_cell_formula_units_Z   2
loop_
 _symmetry_equiv_pos_site_id
 _symmetry_equiv_pos_as_xyz
  1  'x, y, z'
loop_
 _atom_site_type_symbol
 _atom_site_label
 _atom_site_symmetry_multiplicity
 _atom_site_fract_x
 _atom_site_fract_y
 _atom_site_fract_z
 _atom_site_occupancy
  Tm  Tm0  1  0.994408  0.669156  0.250000  1
  Tm  Tm1  1  0.005592  0.330844  0.750000  1
  Tm  Tm2  1  0.669156  0.994408  0.250000  1
  Tm  Tm3  1  0.330844  0.005592  0.750000  1
  Al  Al4  1  0.127697  0.127697  0.250000  1
  Al  Al5  1  0.872303  0.872303  0.750000  1
  Al  Al6  1  0.999471  0.331341  0.076783  1
  Al  Al7  1  0.000529  0.668659  0.923217  1
  Al  Al8  1  0.000529  0.668659  0.576783  1
  Al  Al9  1  0.331341  0.999471  0.423217  1
  Al  Al10  1  0.999471  0.331341  0.423217  1
  Al  Al11  1  0.668659  0.000529  0.576783  1
  Al  Al12  1  0.668659  0.000529  0.923217  1
  Al  Al13  1  0.331341  0.999471  0.076783  1
  Al  Al14  1  0.330348  0.330348  0.557859  1
  Al  Al15  1  0.669652  0.669652  0.442141  1
  Al  Al16  1  0.669652  0.669652  0.057859  1
  Al  Al17  1  0.330348  0.330348  0.942141  1
  Al  Al18  1  0.340524  0.548625  0.250000  1
  Al  Al19  1  0.659476  0.451375  0.750000  1
  Al  Al20  1  0.548625  0.340524  0.250000  1
  Al  Al21  1  0.451375  0.659476  0.750000  1
  Ir  Ir22  1  0.000000  0.000000  0.000000  1
  Ir  Ir23  1  0.000000  0.000000  0.500000  1
  Pd  Pd24  1  0.672648  0.327352  0.000000  1
  Pd  Pd25  1  0.327352  0.672648  0.000000  1
  Pd  Pd26  1  0.327352  0.672648  0.500000  1
  Pd  Pd27  1  0.672648  0.327352  0.500000  1
