# generated using pymatgen
data_Ta4Mn5FeGe2
_symmetry_space_group_name_H-M   'P 1'
_cell_length_a   4.89449000
_cell_length_b   4.89449077
_cell_length_c   7.97271700
_cell_angle_alpha   90.00000000
_cell_angle_beta   90.00000000
_cell_angle_gamma   119.88756014
_symmetry_Int_Tables_number   1
_chemical_formula_structural   Ta4Mn5FeGe2
_chemical_formula_sum   'Ta4 Mn5 Fe1 Ge2'
_cell_volume   165.59334898
_cell_formula_units_Z   1
loop_
 _symmetry_equiv_pos_site_id
 _symmetry_equiv_pos_as_xyz
  1  'x, y, z'
loop_
 _atom_site_type_symbol
 _atom_site_label
 _atom_site_symmetry_multiplicity
 _atom_site_fract_x
 _atom_site_fract_y
 _atom_site_fract_z
 _atom_site_occupancy
  Ta  Ta0  1  0.333023  0.666977  0.935651  1
  Ta  Ta1  1  0.665688  0.334312  0.065255  1
  Ta  Ta2  1  0.665688  0.334312  0.434745  1
  Ta  Ta3  1  0.333023  0.666977  0.564349  1
  Mn  Mn4  1  0.828187  0.652647  0.750000  1
  Mn  Mn5  1  0.347353  0.171813  0.750000  1
  Mn  Mn6  1  0.173195  0.826805  0.250000  1
  Mn  Mn7  1  0.173692  0.346701  0.250000  1
  Mn  Mn8  1  0.653299  0.826308  0.250000  1
  Fe  Fe9  1  0.828273  0.171727  0.750000  1
  Ge  Ge10  1  0.999291  0.000709  0.999921  1
  Ge  Ge11  1  0.999291  0.000709  0.500079  1
