# generated using pymatgen
data_Er5AsRuO12
_symmetry_space_group_name_H-M   'P 1'
_cell_length_a   6.77315393
_cell_length_b   6.77315430
_cell_length_c   7.14755560
_cell_angle_alpha   74.56334676
_cell_angle_beta   74.56333779
_cell_angle_gamma   51.28445287
_symmetry_Int_Tables_number   1
_chemical_formula_structural   Er5AsRuO12
_chemical_formula_sum   'Er5 As1 Ru1 O12'
_cell_volume   244.44063309
_cell_formula_units_Z   1
loop_
 _symmetry_equiv_pos_site_id
 _symmetry_equiv_pos_as_xyz
  1  'x, y, z'
loop_
 _atom_site_type_symbol
 _atom_site_label
 _atom_site_symmetry_multiplicity
 _atom_site_fract_x
 _atom_site_fract_y
 _atom_site_fract_z
 _atom_site_occupancy
  Er  Er0  1  0.699400  0.698254  0.639559  1
  Er  Er1  1  0.301746  0.300600  0.360441  1
  Er  Er2  1  0.694153  0.692279  0.168870  1
  Er  Er3  1  0.307721  0.305847  0.831130  1
  Er  Er4  1  0.007924  0.992076  0.500000  1
  As  As5  1  0.242011  0.757989  0.000000  1
  Ru  Ru6  1  0.751811  0.248189  0.000000  1
  O  O7  1  0.014817  0.985875  0.179093  1
  O  O8  1  0.014125  0.985183  0.820907  1
  O  O9  1  0.569159  0.097193  0.082947  1
  O  O10  1  0.419531  0.899014  0.918123  1
  O  O11  1  0.902807  0.430841  0.917053  1
  O  O12  1  0.100986  0.580469  0.081877  1
  O  O13  1  0.480484  0.519817  0.181846  1
  O  O14  1  0.480183  0.519516  0.818154  1
  O  O15  1  0.406048  0.899888  0.426852  1
  O  O16  1  0.601986  0.095003  0.575061  1
  O  O17  1  0.100112  0.593952  0.573148  1
  O  O18  1  0.904997  0.398014  0.424939  1
