# generated using pymatgen
data_Tb8Sc12Ga2Si13Ag
_symmetry_space_group_name_H-M   'P 1'
_cell_length_a   7.15566940
_cell_length_b   7.40000933
_cell_length_c   14.21026657
_cell_angle_alpha   89.90025052
_cell_angle_beta   89.30628844
_cell_angle_gamma   89.72291139
_symmetry_Int_Tables_number   1
_chemical_formula_structural   Tb8Sc12Ga2Si13Ag
_chemical_formula_sum   'Tb8 Sc12 Ga2 Si13 Ag1'
_cell_volume   752.39730859
_cell_formula_units_Z   1
loop_
 _symmetry_equiv_pos_site_id
 _symmetry_equiv_pos_as_xyz
  1  'x, y, z'
loop_
 _atom_site_type_symbol
 _atom_site_label
 _atom_site_symmetry_multiplicity
 _atom_site_fract_x
 _atom_site_fract_y
 _atom_site_fract_z
 _atom_site_occupancy
  Tb  Tb0  1  0.011259  0.175940  0.095105  1
  Tb  Tb1  1  0.989103  0.825312  0.904570  1
  Tb  Tb2  1  0.489209  0.676096  0.904017  1
  Tb  Tb3  1  0.991186  0.825340  0.603265  1
  Tb  Tb4  1  0.511235  0.325377  0.095227  1
  Tb  Tb5  1  0.000518  0.173320  0.395890  1
  Tb  Tb6  1  0.506750  0.322668  0.398472  1
  Tb  Tb7  1  0.496214  0.676547  0.605327  1
  Sc  Sc8  1  0.165407  0.500236  0.754239  1
  Sc  Sc9  1  0.831324  0.497175  0.246370  1
  Sc  Sc10  1  0.332862  0.999439  0.243441  1
  Sc  Sc11  1  0.667775  0.999787  0.750876  1
  Sc  Sc12  1  0.342678  0.173334  0.631887  1
  Sc  Sc13  1  0.664538  0.829172  0.373449  1
  Sc  Sc14  1  0.158806  0.671890  0.368820  1
  Sc  Sc15  1  0.670183  0.822903  0.122208  1
  Sc  Sc16  1  0.835781  0.326187  0.628147  1
  Sc  Sc17  1  0.331568  0.176211  0.876370  1
  Sc  Sc18  1  0.831534  0.324405  0.876626  1
  Sc  Sc19  1  0.169448  0.674951  0.123249  1
  Ga  Ga20  1  0.169158  0.459740  0.536773  1
  Ga  Ga21  1  0.836068  0.537049  0.460695  1
  Si  Si22  1  0.037068  0.120293  0.753538  1
  Si  Si23  1  0.961254  0.882578  0.245685  1
  Si  Si24  1  0.463122  0.619049  0.247741  1
  Si  Si25  1  0.536916  0.384161  0.753857  1
  Si  Si26  1  0.288938  0.873334  0.754683  1
  Si  Si27  1  0.708134  0.125894  0.244883  1
  Si  Si28  1  0.210257  0.372818  0.245586  1
  Si  Si29  1  0.791441  0.627744  0.754881  1
  Si  Si30  1  0.844333  0.535742  0.038073  1
  Si  Si31  1  0.667756  0.038706  0.541761  1
  Si  Si32  1  0.156109  0.464262  0.961452  1
  Si  Si33  1  0.655435  0.036118  0.961241  1
  Si  Si34  1  0.345061  0.964330  0.037917  1
  Ag  Ag35  1  0.331573  0.961889  0.463680  1
