# generated using pymatgen
data_La2Pd(SeO3)4
_symmetry_space_group_name_H-M   'P 1'
_cell_length_a   7.20831300
_cell_length_b   8.39503725
_cell_length_c   11.07997805
_cell_angle_alpha   70.54774102
_cell_angle_beta   90.00000000
_cell_angle_gamma   90.00000000
_symmetry_Int_Tables_number   1
_chemical_formula_structural   La2Pd(SeO3)4
_chemical_formula_sum   'La4 Pd2 Se8 O24'
_cell_volume   632.22212573
_cell_formula_units_Z   2
loop_
 _symmetry_equiv_pos_site_id
 _symmetry_equiv_pos_as_xyz
  1  'x, y, z'
loop_
 _atom_site_type_symbol
 _atom_site_label
 _atom_site_symmetry_multiplicity
 _atom_site_fract_x
 _atom_site_fract_y
 _atom_site_fract_z
 _atom_site_occupancy
  La  La0  1  0.656497  0.762096  0.087657  1
  La  La1  1  0.156497  0.737904  0.912343  1
  La  La2  1  0.343503  0.237904  0.912343  1
  La  La3  1  0.843503  0.262096  0.087657  1
  Pd  Pd4  1  0.500000  0.500000  0.500000  1
  Pd  Pd5  1  0.000000  0.000000  0.500000  1
  Se  Se6  1  0.673214  0.630958  0.819422  1
  Se  Se7  1  0.173214  0.869042  0.180578  1
  Se  Se8  1  0.326786  0.369042  0.180578  1
  Se  Se9  1  0.826786  0.130958  0.819422  1
  Se  Se10  1  0.332794  0.120695  0.631202  1
  Se  Se11  1  0.832794  0.379305  0.368798  1
  Se  Se12  1  0.667206  0.879305  0.368798  1
  Se  Se13  1  0.167206  0.620695  0.631202  1
  O  O14  1  0.395489  0.312209  0.653648  1
  O  O15  1  0.895489  0.187791  0.346352  1
  O  O16  1  0.604511  0.687791  0.346352  1
  O  O17  1  0.104511  0.812209  0.653648  1
  O  O18  1  0.614897  0.427800  0.837120  1
  O  O19  1  0.114897  0.072200  0.162880  1
  O  O20  1  0.385103  0.572200  0.162880  1
  O  O21  1  0.885103  0.927800  0.837120  1
  O  O22  1  0.840726  0.586312  0.942436  1
  O  O23  1  0.340726  0.913688  0.057564  1
  O  O24  1  0.159274  0.413688  0.057564  1
  O  O25  1  0.659274  0.086312  0.942436  1
  O  O26  1  0.114602  0.178961  0.563932  1
  O  O27  1  0.614602  0.321039  0.436068  1
  O  O28  1  0.885398  0.821039  0.436068  1
  O  O29  1  0.385398  0.678961  0.563932  1
  O  O30  1  0.502593  0.703388  0.899607  1
  O  O31  1  0.002593  0.796612  0.100393  1
  O  O32  1  0.497407  0.296612  0.100393  1
  O  O33  1  0.997407  0.203388  0.899607  1
  O  O34  1  0.289278  0.024868  0.791991  1
  O  O35  1  0.789278  0.475132  0.208009  1
  O  O36  1  0.710722  0.975132  0.208009  1
  O  O37  1  0.210722  0.524868  0.791991  1
