# generated using pymatgen
data_HoEr7(TmRu2)2
_symmetry_space_group_name_H-M   'P 1'
_cell_length_a   6.26746730
_cell_length_b   7.24155947
_cell_length_c   8.38017913
_cell_angle_alpha   96.78805375
_cell_angle_beta   112.04199997
_cell_angle_gamma   89.99275162
_symmetry_Int_Tables_number   1
_chemical_formula_structural   HoEr7(TmRu2)2
_chemical_formula_sum   'Ho1 Er7 Tm2 Ru4'
_cell_volume   349.66928070
_cell_formula_units_Z   1
loop_
 _symmetry_equiv_pos_site_id
 _symmetry_equiv_pos_as_xyz
  1  'x, y, z'
loop_
 _atom_site_type_symbol
 _atom_site_label
 _atom_site_symmetry_multiplicity
 _atom_site_fract_x
 _atom_site_fract_y
 _atom_site_fract_z
 _atom_site_occupancy
  Ho  Ho0  1  0.791182  0.084075  0.813667  1
  Er  Er1  1  0.977552  0.415780  0.186043  1
  Er  Er2  1  0.208630  0.915743  0.186287  1
  Er  Er3  1  0.022726  0.584234  0.814115  1
  Er  Er4  1  0.205909  0.184446  0.565537  1
  Er  Er5  1  0.640581  0.315526  0.434485  1
  Er  Er6  1  0.793833  0.815458  0.434210  1
  Er  Er7  1  0.359367  0.684536  0.565405  1
  Tm  Tm8  1  0.419700  0.249814  0.999970  1
  Tm  Tm9  1  0.580282  0.750149  0.000220  1
  Ru  Ru10  1  0.602679  0.424340  0.780222  1
  Ru  Ru11  1  0.822693  0.076532  0.219677  1
  Ru  Ru12  1  0.397085  0.575979  0.219723  1
  Ru  Ru13  1  0.177780  0.923387  0.780438  1
