# generated using pymatgen
data_Tb2P7IrRu11
_symmetry_space_group_name_H-M   'P 1'
_cell_length_a   9.38773518
_cell_length_b   9.43449767
_cell_length_c   3.96243100
_cell_angle_alpha   90.00000000
_cell_angle_beta   90.00000000
_cell_angle_gamma   119.68381705
_symmetry_Int_Tables_number   1
_chemical_formula_structural   Tb2P7IrRu11
_chemical_formula_sum   'Tb2 P7 Ir1 Ru11'
_cell_volume   304.89257590
_cell_formula_units_Z   1
loop_
 _symmetry_equiv_pos_site_id
 _symmetry_equiv_pos_as_xyz
  1  'x, y, z'
loop_
 _atom_site_type_symbol
 _atom_site_label
 _atom_site_symmetry_multiplicity
 _atom_site_fract_x
 _atom_site_fract_y
 _atom_site_fract_z
 _atom_site_occupancy
  Tb  Tb0  1  0.667763  0.334548  0.500000  1
  Tb  Tb1  1  0.331546  0.663596  0.000000  1
  P  P2  1  0.599925  0.712814  0.500000  1
  P  P3  1  0.999246  0.999983  0.000000  1
  P  P4  1  0.278435  0.880644  0.500000  1
  P  P5  1  0.116345  0.399036  0.500000  1
  P  P6  1  0.886664  0.576904  0.000000  1
  P  P7  1  0.426184  0.310790  0.000000  1
  P  P8  1  0.695196  0.119848  0.000000  1
  Ir  Ir9  1  0.551653  0.943210  0.500000  1
  Ru  Ru10  1  0.391066  0.441406  0.500000  1
  Ru  Ru11  1  0.912820  0.123736  0.500000  1
  Ru  Ru12  1  0.209531  0.085650  0.500000  1
  Ru  Ru13  1  0.877167  0.793609  0.500000  1
  Ru  Ru14  1  0.727095  0.893730  0.000000  1
  Ru  Ru15  1  0.109223  0.837344  0.000000  1
  Ru  Ru16  1  0.163628  0.270234  0.000000  1
  Ru  Ru17  1  0.428869  0.068072  0.000000  1
  Ru  Ru18  1  0.935619  0.360831  0.000000  1
  Ru  Ru19  1  0.641358  0.576185  0.000000  1
  Ru  Ru20  1  0.050667  0.607831  0.500000  1
