# generated using pymatgen
data_Dy3YZn4IrPt3
_symmetry_space_group_name_H-M   'P 1'
_cell_length_a   4.17774200
_cell_length_b   6.91671210
_cell_length_c   8.14359750
_cell_angle_alpha   90.23753437
_cell_angle_beta   90.00000000
_cell_angle_gamma   90.00000000
_symmetry_Int_Tables_number   1
_chemical_formula_structural   Dy3YZn4IrPt3
_chemical_formula_sum   'Dy3 Y1 Zn4 Ir1 Pt3'
_cell_volume   235.31731448
_cell_formula_units_Z   1
loop_
 _symmetry_equiv_pos_site_id
 _symmetry_equiv_pos_as_xyz
  1  'x, y, z'
loop_
 _atom_site_type_symbol
 _atom_site_label
 _atom_site_symmetry_multiplicity
 _atom_site_fract_x
 _atom_site_fract_y
 _atom_site_fract_z
 _atom_site_occupancy
  Dy  Dy0  1  0.250000  0.539023  0.182244  1
  Dy  Dy1  1  0.750000  0.469066  0.814421  1
  Dy  Dy2  1  0.750000  0.959948  0.690076  1
  Y  Y3  1  0.250000  0.036408  0.313719  1
  Zn  Zn4  1  0.250000  0.645716  0.567310  1
  Zn  Zn5  1  0.750000  0.355406  0.435116  1
  Zn  Zn6  1  0.750000  0.852826  0.062549  1
  Zn  Zn7  1  0.250000  0.141706  0.934195  1
  Ir  Ir8  1  0.250000  0.755016  0.882508  1
  Pt  Pt9  1  0.750000  0.244744  0.117217  1
  Pt  Pt10  1  0.750000  0.742972  0.381929  1
  Pt  Pt11  1  0.250000  0.257170  0.618716  1
