# generated using pymatgen
data_Ta6Al5V4SiN
_symmetry_space_group_name_H-M   'P 1'
_cell_length_a   7.64715468
_cell_length_b   7.60808907
_cell_length_c   5.00782578
_cell_angle_alpha   90.03889928
_cell_angle_beta   89.97933887
_cell_angle_gamma   119.83337984
_symmetry_Int_Tables_number   1
_chemical_formula_structural   Ta6Al5V4SiN
_chemical_formula_sum   'Ta6 Al5 V4 Si1 N1'
_cell_volume   252.74462631
_cell_formula_units_Z   1
loop_
 _symmetry_equiv_pos_site_id
 _symmetry_equiv_pos_as_xyz
  1  'x, y, z'
loop_
 _atom_site_type_symbol
 _atom_site_label
 _atom_site_symmetry_multiplicity
 _atom_site_fract_x
 _atom_site_fract_y
 _atom_site_fract_z
 _atom_site_occupancy
  Ta  Ta0  1  0.000025  0.764743  0.247820  1
  Ta  Ta1  1  0.229310  0.234957  0.246660  1
  Ta  Ta2  1  0.770648  0.005600  0.246669  1
  Ta  Ta3  1  0.000020  0.235843  0.752847  1
  Ta  Ta4  1  0.769809  0.769097  0.754227  1
  Ta  Ta5  1  0.230146  0.999234  0.754220  1
  Al  Al6  1  0.587758  0.589177  0.249743  1
  Al  Al7  1  0.412022  0.001041  0.249750  1
  Al  Al8  1  0.000194  0.590511  0.751784  1
  Al  Al9  1  0.415142  0.411547  0.751096  1
  Al  Al10  1  0.584638  0.996018  0.751097  1
  V  V11  1  0.324733  0.659717  0.497770  1
  V  V12  1  0.675346  0.334984  0.497812  1
  V  V13  1  0.674299  0.334730  0.002097  1
  V  V14  1  0.325758  0.660500  0.002067  1
  Si  Si15  1  0.000164  0.411660  0.245176  1
  N  N16  1  0.999987  0.000641  0.499168  1
