# generated using pymatgen
data_Tm4MgNi2Ag
_symmetry_space_group_name_H-M   'P 1'
_cell_length_a   8.39017547
_cell_length_b   8.39017581
_cell_length_c   8.39017563
_cell_angle_alpha   128.17164296
_cell_angle_beta   128.17163766
_cell_angle_gamma   76.34714562
_symmetry_Int_Tables_number   1
_chemical_formula_structural   Tm4MgNi2Ag
_chemical_formula_sum   'Tm8 Mg2 Ni4 Ag2'
_cell_volume   354.71989449
_cell_formula_units_Z   2
loop_
 _symmetry_equiv_pos_site_id
 _symmetry_equiv_pos_as_xyz
  1  'x, y, z'
loop_
 _atom_site_type_symbol
 _atom_site_label
 _atom_site_symmetry_multiplicity
 _atom_site_fract_x
 _atom_site_fract_y
 _atom_site_fract_z
 _atom_site_occupancy
  Tm  Tm0  1  0.798898  0.298898  0.834222  1
  Tm  Tm1  1  0.201102  0.701102  0.165778  1
  Tm  Tm2  1  0.464676  0.964676  0.165778  1
  Tm  Tm3  1  0.298898  0.464676  0.500000  1
  Tm  Tm4  1  0.035324  0.201102  0.500000  1
  Tm  Tm5  1  0.535324  0.035324  0.834222  1
  Tm  Tm6  1  0.701102  0.535324  0.500000  1
  Tm  Tm7  1  0.964676  0.798898  0.500000  1
  Mg  Mg8  1  0.000000  0.000000  0.000000  1
  Mg  Mg9  1  0.500000  0.500000  0.000000  1
  Ni  Ni10  1  0.128117  0.628117  0.756234  1
  Ni  Ni11  1  0.871883  0.371883  0.243766  1
  Ni  Ni12  1  0.628117  0.871883  0.500000  1
  Ni  Ni13  1  0.371883  0.128117  0.500000  1
  Ag  Ag14  1  0.250000  0.250000  0.000000  1
  Ag  Ag15  1  0.750000  0.750000  0.000000  1
