# generated using pymatgen
data_CaLa5YOsBr12
_symmetry_space_group_name_H-M   'P 1'
_cell_length_a   9.74621986
_cell_length_b   9.56817980
_cell_length_c   9.83516226
_cell_angle_alpha   107.41614379
_cell_angle_beta   108.17260282
_cell_angle_gamma   105.83931491
_symmetry_Int_Tables_number   1
_chemical_formula_structural   CaLa5YOsBr12
_chemical_formula_sum   'Ca1 La5 Y1 Os1 Br12'
_cell_volume   760.57759514
_cell_formula_units_Z   1
loop_
 _symmetry_equiv_pos_site_id
 _symmetry_equiv_pos_as_xyz
  1  'x, y, z'
loop_
 _atom_site_type_symbol
 _atom_site_label
 _atom_site_symmetry_multiplicity
 _atom_site_fract_x
 _atom_site_fract_y
 _atom_site_fract_z
 _atom_site_occupancy
  Ca  Ca0  1  0.503428  0.498449  0.494085  1
  La  La1  1  0.019209  0.298070  0.103244  1
  La  La2  1  0.120557  0.028162  0.327959  1
  La  La3  1  0.888320  0.975936  0.677540  1
  La  La4  1  0.976287  0.702190  0.899833  1
  La  La5  1  0.672279  0.887344  0.970852  1
  Y  Y6  1  0.310391  0.107994  0.029688  1
  Os  Os7  1  0.998019  0.000795  0.002765  1
  Br  Br8  1  0.668947  0.214147  0.066805  1
  Br  Br9  1  0.375145  0.444892  0.161685  1
  Br  Br10  1  0.072367  0.682042  0.219517  1
  Br  Br11  1  0.790239  0.931028  0.316267  1
  Br  Br12  1  0.463915  0.165536  0.366894  1
  Br  Br13  1  0.178938  0.382019  0.460544  1
  Br  Br14  1  0.830978  0.621505  0.542149  1
  Br  Br15  1  0.538704  0.829348  0.615435  1
  Br  Br16  1  0.224039  0.074851  0.701842  1
  Br  Br17  1  0.931691  0.320332  0.784817  1
  Br  Br18  1  0.619426  0.538298  0.822339  1
  Br  Br19  1  0.317125  0.797067  0.935744  1
