# generated using pymatgen
data_NdHo2Ni8Ir
_symmetry_space_group_name_H-M   'P 1'
_cell_length_a   8.79787222
_cell_length_b   8.79787205
_cell_length_c   8.79787224
_cell_angle_alpha   33.01676503
_cell_angle_beta   33.01676659
_cell_angle_gamma   33.01676701
_symmetry_Int_Tables_number   1
_chemical_formula_structural   NdHo2Ni8Ir
_chemical_formula_sum   'Nd1 Ho2 Ni8 Ir1'
_cell_volume   179.92912255
_cell_formula_units_Z   1
loop_
 _symmetry_equiv_pos_site_id
 _symmetry_equiv_pos_as_xyz
  1  'x, y, z'
loop_
 _atom_site_type_symbol
 _atom_site_label
 _atom_site_symmetry_multiplicity
 _atom_site_fract_x
 _atom_site_fract_y
 _atom_site_fract_z
 _atom_site_occupancy
  Nd  Nd0  1  0.000000  0.000000  0.000000  1
  Ho  Ho1  1  0.860787  0.860787  0.860787  1
  Ho  Ho2  1  0.139213  0.139213  0.139213  1
  Ni  Ni3  1  0.417582  0.417582  0.921117  1
  Ni  Ni4  1  0.921117  0.417582  0.417582  1
  Ni  Ni5  1  0.417582  0.921117  0.417582  1
  Ni  Ni6  1  0.333122  0.333122  0.333122  1
  Ni  Ni7  1  0.666878  0.666878  0.666878  1
  Ni  Ni8  1  0.078883  0.582418  0.582418  1
  Ni  Ni9  1  0.582418  0.582418  0.078883  1
  Ni  Ni10  1  0.582418  0.078883  0.582418  1
  Ir  Ir11  1  0.500000  0.500000  0.500000  1
