# generated using pymatgen
data_ErScCo12SiP6
_symmetry_space_group_name_H-M   'P 1'
_cell_length_a   8.96953800
_cell_length_b   8.96953857
_cell_length_c   3.56175300
_cell_angle_alpha   90.00000000
_cell_angle_beta   90.00000000
_cell_angle_gamma   119.99999053
_symmetry_Int_Tables_number   1
_chemical_formula_structural   ErScCo12SiP6
_chemical_formula_sum   'Er1 Sc1 Co12 Si1 P6'
_cell_volume   248.16163830
_cell_formula_units_Z   1
loop_
 _symmetry_equiv_pos_site_id
 _symmetry_equiv_pos_as_xyz
  1  'x, y, z'
loop_
 _atom_site_type_symbol
 _atom_site_label
 _atom_site_symmetry_multiplicity
 _atom_site_fract_x
 _atom_site_fract_y
 _atom_site_fract_z
 _atom_site_occupancy
  Er  Er0  1  0.666667  0.333333  0.500000  1
  Sc  Sc1  1  0.333333  0.666667  0.000000  1
  Co  Co2  1  0.123330  0.839709  0.000000  1
  Co  Co3  1  0.385084  0.439019  0.500000  1
  Co  Co4  1  0.716378  0.876670  0.000000  1
  Co  Co5  1  0.560981  0.946065  0.500000  1
  Co  Co6  1  0.230867  0.099482  0.500000  1
  Co  Co7  1  0.868614  0.769133  0.500000  1
  Co  Co8  1  0.900518  0.131386  0.500000  1
  Co  Co9  1  0.940880  0.375064  0.000000  1
  Co  Co10  1  0.624936  0.565816  0.000000  1
  Co  Co11  1  0.434184  0.059120  0.000000  1
  Co  Co12  1  0.053935  0.614916  0.500000  1
  Co  Co13  1  0.160291  0.283622  0.000000  1
  Si  Si14  1  0.000000  0.000000  0.000000  1
  P  P15  1  0.592585  0.709721  0.500000  1
  P  P16  1  0.707240  0.113912  0.000000  1
  P  P17  1  0.886088  0.593328  0.000000  1
  P  P18  1  0.406672  0.292760  0.000000  1
  P  P19  1  0.290279  0.882865  0.500000  1
  P  P20  1  0.117135  0.407415  0.500000  1
