# generated using pymatgen
data_Hf3SiPt2Rh3
_symmetry_space_group_name_H-M   'P 1'
_cell_length_a   7.28315000
_cell_length_b   7.28315144
_cell_length_c   3.27129300
_cell_angle_alpha   90.00000000
_cell_angle_beta   90.00000000
_cell_angle_gamma   120.00000256
_symmetry_Int_Tables_number   1
_chemical_formula_structural   Hf3SiPt2Rh3
_chemical_formula_sum   'Hf3 Si1 Pt2 Rh3'
_cell_volume   150.27566536
_cell_formula_units_Z   1
loop_
 _symmetry_equiv_pos_site_id
 _symmetry_equiv_pos_as_xyz
  1  'x, y, z'
loop_
 _atom_site_type_symbol
 _atom_site_label
 _atom_site_symmetry_multiplicity
 _atom_site_fract_x
 _atom_site_fract_y
 _atom_site_fract_z
 _atom_site_occupancy
  Hf  Hf0  1  0.400135  0.400135  0.500000  1
  Hf  Hf1  1  0.599865  0.000000  0.500000  1
  Hf  Hf2  1  0.000000  0.599865  0.500000  1
  Si  Si3  1  0.000000  0.000000  0.500000  1
  Pt  Pt4  1  0.666667  0.333333  0.000000  1
  Pt  Pt5  1  0.333333  0.666667  0.000000  1
  Rh  Rh6  1  0.000000  0.236544  0.000000  1
  Rh  Rh7  1  0.236544  0.000000  0.000000  1
  Rh  Rh8  1  0.763456  0.763456  0.000000  1
