# generated using pymatgen
data_Dy2ThAlIn2Rh3
_symmetry_space_group_name_H-M   'P 1'
_cell_length_a   7.52594850
_cell_length_b   7.61940218
_cell_length_c   3.87716900
_cell_angle_alpha   90.00000000
_cell_angle_beta   90.00000000
_cell_angle_gamma   120.41160781
_symmetry_Int_Tables_number   1
_chemical_formula_structural   Dy2ThAlIn2Rh3
_chemical_formula_sum   'Dy2 Th1 Al1 In2 Rh3'
_cell_volume   191.73933873
_cell_formula_units_Z   1
loop_
 _symmetry_equiv_pos_site_id
 _symmetry_equiv_pos_as_xyz
  1  'x, y, z'
loop_
 _atom_site_type_symbol
 _atom_site_label
 _atom_site_symmetry_multiplicity
 _atom_site_fract_x
 _atom_site_fract_y
 _atom_site_fract_z
 _atom_site_occupancy
  Dy  Dy0  1  0.601639  0.011541  0.500000  1
  Dy  Dy1  1  0.398361  0.409902  0.500000  1
  Th  Th2  1  0.000000  0.566910  0.500000  1
  Al  Al3  1  0.000000  0.234480  0.000000  1
  In  In4  1  0.264219  0.011063  0.000000  1
  In  In5  1  0.735781  0.746844  0.000000  1
  Rh  Rh6  1  0.000000  0.021371  0.500000  1
  Rh  Rh7  1  0.694805  0.346347  0.000000  1
  Rh  Rh8  1  0.305195  0.651543  0.000000  1
