# generated using pymatgen
data_CaYb(Al5Os)4
_symmetry_space_group_name_H-M   'P 1'
_cell_length_a   6.89665155
_cell_length_b   6.89665074
_cell_length_c   9.12995900
_cell_angle_alpha   90.00000000
_cell_angle_beta   90.00000000
_cell_angle_gamma   96.44327724
_symmetry_Int_Tables_number   1
_chemical_formula_structural   CaYb(Al5Os)4
_chemical_formula_sum   'Ca1 Yb1 Al20 Os4'
_cell_volume   431.51251510
_cell_formula_units_Z   1
loop_
 _symmetry_equiv_pos_site_id
 _symmetry_equiv_pos_as_xyz
  1  'x, y, z'
loop_
 _atom_site_type_symbol
 _atom_site_label
 _atom_site_symmetry_multiplicity
 _atom_site_fract_x
 _atom_site_fract_y
 _atom_site_fract_z
 _atom_site_occupancy
  Ca  Ca0  1  0.626018  0.373982  0.750000  1
  Yb  Yb1  1  0.373895  0.626105  0.250000  1
  Al  Al2  1  0.282365  0.023505  0.750000  1
  Al  Al3  1  0.023678  0.282705  0.250000  1
  Al  Al4  1  0.717295  0.976322  0.250000  1
  Al  Al5  1  0.976495  0.717635  0.750000  1
  Al  Al6  1  0.876707  0.123293  0.956257  1
  Al  Al7  1  0.123420  0.876580  0.044177  1
  Al  Al8  1  0.876707  0.123293  0.543743  1
  Al  Al9  1  0.123420  0.876580  0.455823  1
  Al  Al10  1  0.643546  0.915421  0.750000  1
  Al  Al11  1  0.915518  0.643749  0.250000  1
  Al  Al12  1  0.356251  0.084482  0.250000  1
  Al  Al13  1  0.084579  0.356454  0.750000  1
  Al  Al14  1  0.344512  0.655488  0.900617  1
  Al  Al15  1  0.655269  0.344731  0.099749  1
  Al  Al16  1  0.344512  0.655488  0.599383  1
  Al  Al17  1  0.655269  0.344731  0.400251  1
  Al  Al18  1  0.723239  0.723339  0.000268  1
  Al  Al19  1  0.723239  0.723339  0.499732  1
  Al  Al20  1  0.276661  0.276761  0.000268  1
  Al  Al21  1  0.276661  0.276761  0.499732  1
  Os  Os22  1  0.499711  0.999338  0.000341  1
  Os  Os23  1  0.000662  0.500289  0.000341  1
  Os  Os24  1  0.499711  0.999338  0.499659  1
  Os  Os25  1  0.000662  0.500289  0.499659  1
