# generated using pymatgen
data_Li2Pr8Sc9Si16Ag
_symmetry_space_group_name_H-M   'P 1'
_cell_length_a   7.12086552
_cell_length_b   7.61004382
_cell_length_c   14.30260100
_cell_angle_alpha   90.00000000
_cell_angle_beta   90.00000000
_cell_angle_gamma   90.15144656
_symmetry_Int_Tables_number   1
_chemical_formula_structural   Li2Pr8Sc9Si16Ag
_chemical_formula_sum   'Li2 Pr8 Sc9 Si16 Ag1'
_cell_volume   775.05665177
_cell_formula_units_Z   1
loop_
 _symmetry_equiv_pos_site_id
 _symmetry_equiv_pos_as_xyz
  1  'x, y, z'
loop_
 _atom_site_type_symbol
 _atom_site_label
 _atom_site_symmetry_multiplicity
 _atom_site_fract_x
 _atom_site_fract_y
 _atom_site_fract_z
 _atom_site_occupancy
  Li  Li0  1  0.844847  0.506682  0.250000  1
  Li  Li1  1  0.344021  0.993636  0.250000  1
  Pr  Pr2  1  0.016498  0.181250  0.398116  1
  Pr  Pr3  1  0.516496  0.322138  0.396830  1
  Pr  Pr4  1  0.491707  0.680951  0.899564  1
  Pr  Pr5  1  0.491707  0.680951  0.600436  1
  Pr  Pr6  1  0.981058  0.827740  0.601322  1
  Pr  Pr7  1  0.981058  0.827740  0.898678  1
  Pr  Pr8  1  0.516496  0.322138  0.103170  1
  Pr  Pr9  1  0.016498  0.181250  0.101884  1
  Sc  Sc10  1  0.333875  0.173281  0.624897  1
  Sc  Sc11  1  0.668838  0.818101  0.373930  1
  Sc  Sc12  1  0.166757  0.680928  0.375132  1
  Sc  Sc13  1  0.826316  0.312862  0.875006  1
  Sc  Sc14  1  0.826316  0.312862  0.624994  1
  Sc  Sc15  1  0.333875  0.173281  0.875103  1
  Sc  Sc16  1  0.166757  0.680928  0.124868  1
  Sc  Sc17  1  0.668838  0.818101  0.126070  1
  Sc  Sc18  1  0.159709  0.494669  0.750000  1
  Si  Si19  1  0.280975  0.884868  0.750000  1
  Si  Si20  1  0.462188  0.616763  0.250000  1
  Si  Si21  1  0.041943  0.122348  0.750000  1
  Si  Si22  1  0.530683  0.386497  0.750000  1
  Si  Si23  1  0.152173  0.466707  0.540356  1
  Si  Si24  1  0.963166  0.882941  0.250000  1
  Si  Si25  1  0.716718  0.099114  0.250000  1
  Si  Si26  1  0.847420  0.537895  0.033584  1
  Si  Si27  1  0.345700  0.961559  0.035556  1
  Si  Si28  1  0.152173  0.466707  0.959644  1
  Si  Si29  1  0.652906  0.040933  0.530327  1
  Si  Si30  1  0.345700  0.961559  0.464444  1
  Si  Si31  1  0.847420  0.537895  0.466416  1
  Si  Si32  1  0.793216  0.593170  0.750000  1
  Si  Si33  1  0.213940  0.403359  0.250000  1
  Si  Si34  1  0.652906  0.040933  0.969673  1
  Ag  Ag35  1  0.649106  0.007266  0.750000  1
