# generated using pymatgen
data_Th(NbC)4
_symmetry_space_group_name_H-M   'P 1'
_cell_length_a   6.39973346
_cell_length_b   6.39973382
_cell_length_c   6.39973400
_cell_angle_alpha   93.96790832
_cell_angle_beta   93.96791752
_cell_angle_gamma   149.49719275
_symmetry_Int_Tables_number   1
_chemical_formula_structural   Th(NbC)4
_chemical_formula_sum   'Th1 Nb4 C4'
_cell_volume   128.35696200
_cell_formula_units_Z   1
loop_
 _symmetry_equiv_pos_site_id
 _symmetry_equiv_pos_as_xyz
  1  'x, y, z'
loop_
 _atom_site_type_symbol
 _atom_site_label
 _atom_site_symmetry_multiplicity
 _atom_site_fract_x
 _atom_site_fract_y
 _atom_site_fract_z
 _atom_site_occupancy
  Th  Th0  1  0.000000  0.000000  0.000000  1
  Nb  Nb1  1  0.628927  0.826557  0.455483  1
  Nb  Nb2  1  0.371073  0.173443  0.544517  1
  Nb  Nb3  1  0.826557  0.371073  0.197629  1
  Nb  Nb4  1  0.173443  0.628927  0.802371  1
  C  C5  1  0.274090  0.398810  0.672900  1
  C  C6  1  0.725910  0.601190  0.327100  1
  C  C7  1  0.398810  0.725910  0.124719  1
  C  C8  1  0.601190  0.274090  0.875281  1
