# generated using pymatgen
data_Ac4Sn3
_symmetry_space_group_name_H-M   'P 1'
_cell_length_a   8.83121275
_cell_length_b   8.83577568
_cell_length_c   8.83578148
_cell_angle_alpha   109.48158996
_cell_angle_beta   109.46057320
_cell_angle_gamma   109.46056282
_symmetry_Int_Tables_number   1
_chemical_formula_structural   Ac4Sn3
_chemical_formula_sum   'Ac8 Sn6'
_cell_volume   530.81928215
_cell_formula_units_Z   2
loop_
 _symmetry_equiv_pos_site_id
 _symmetry_equiv_pos_as_xyz
  1  'x, y, z'
loop_
 _atom_site_type_symbol
 _atom_site_label
 _atom_site_symmetry_multiplicity
 _atom_site_fract_x
 _atom_site_fract_y
 _atom_site_fract_z
 _atom_site_occupancy
  Ac  Ac0  1  0.499550  0.999859  0.361767  1
  Ac  Ac1  1  0.500278  0.000559  0.861823  1
  Ac  Ac2  1  0.638455  0.638178  0.638736  1
  Ac  Ac3  1  0.999690  0.361908  0.500141  1
  Ac  Ac4  1  0.137782  0.138234  0.138092  1
  Ac  Ac5  1  0.861934  0.500001  0.000001  1
  Ac  Ac6  1  0.999720  0.861265  0.499442  1
  Ac  Ac7  1  0.361466  0.500002  0.000002  1
  Sn  Sn8  1  0.125953  0.749899  0.875711  1
  Sn  Sn9  1  0.876046  0.125808  0.750097  1
  Sn  Sn10  1  0.624605  0.375363  0.249563  1
  Sn  Sn11  1  0.375041  0.250438  0.625801  1
  Sn  Sn12  1  0.749241  0.874200  0.124638  1
  Sn  Sn13  1  0.250240  0.624288  0.374186  1
