# generated using pymatgen
data_Eu2Ga9Ru2Rh
_symmetry_space_group_name_H-M   'P 1'
_cell_length_a   7.54403211
_cell_length_b   7.54403215
_cell_length_c   9.92356400
_cell_angle_alpha   90.00000000
_cell_angle_beta   90.00000000
_cell_angle_gamma   119.06733992
_symmetry_Int_Tables_number   1
_chemical_formula_structural   Eu2Ga9Ru2Rh
_chemical_formula_sum   'Eu4 Ga18 Ru4 Rh2'
_cell_volume   493.64036555
_cell_formula_units_Z   2
loop_
 _symmetry_equiv_pos_site_id
 _symmetry_equiv_pos_as_xyz
  1  'x, y, z'
loop_
 _atom_site_type_symbol
 _atom_site_label
 _atom_site_symmetry_multiplicity
 _atom_site_fract_x
 _atom_site_fract_y
 _atom_site_fract_z
 _atom_site_occupancy
  Eu  Eu0  1  0.669820  0.996861  0.250000  1
  Eu  Eu1  1  0.003139  0.330180  0.750000  1
  Eu  Eu2  1  0.996861  0.669820  0.250000  1
  Eu  Eu3  1  0.330180  0.003139  0.750000  1
  Ga  Ga4  1  0.663165  0.991287  0.926924  1
  Ga  Ga5  1  0.130990  0.130990  0.250000  1
  Ga  Ga6  1  0.008713  0.336835  0.426924  1
  Ga  Ga7  1  0.341604  0.341604  0.558021  1
  Ga  Ga8  1  0.336991  0.548296  0.250000  1
  Ga  Ga9  1  0.451704  0.663009  0.750000  1
  Ga  Ga10  1  0.869010  0.869010  0.750000  1
  Ga  Ga11  1  0.658396  0.658396  0.058021  1
  Ga  Ga12  1  0.658396  0.658396  0.441979  1
  Ga  Ga13  1  0.991287  0.663165  0.573076  1
  Ga  Ga14  1  0.991287  0.663165  0.926924  1
  Ga  Ga15  1  0.336835  0.008713  0.426924  1
  Ga  Ga16  1  0.663009  0.451704  0.750000  1
  Ga  Ga17  1  0.548296  0.336991  0.250000  1
  Ga  Ga18  1  0.341604  0.341604  0.941979  1
  Ga  Ga19  1  0.336835  0.008713  0.073076  1
  Ga  Ga20  1  0.663165  0.991287  0.573076  1
  Ga  Ga21  1  0.008713  0.336835  0.073076  1
  Ru  Ru22  1  0.325116  0.674884  0.500000  1
  Ru  Ru23  1  0.325116  0.674884  0.000000  1
  Ru  Ru24  1  0.674884  0.325116  0.500000  1
  Ru  Ru25  1  0.674884  0.325116  0.000000  1
  Rh  Rh26  1  0.000000  0.000000  0.000000  1
  Rh  Rh27  1  0.000000  0.000000  0.500000  1
