# generated using pymatgen
data_LiEu4Ga5Ir2
_symmetry_space_group_name_H-M   'P 1'
_cell_length_a   5.72741200
_cell_length_b   5.69082127
_cell_length_c   8.88173300
_cell_angle_alpha   90.00000000
_cell_angle_beta   90.00000000
_cell_angle_gamma   120.21293596
_symmetry_Int_Tables_number   1
_chemical_formula_structural   LiEu4Ga5Ir2
_chemical_formula_sum   'Li1 Eu4 Ga5 Ir2'
_cell_volume   250.16459943
_cell_formula_units_Z   1
loop_
 _symmetry_equiv_pos_site_id
 _symmetry_equiv_pos_as_xyz
  1  'x, y, z'
loop_
 _atom_site_type_symbol
 _atom_site_label
 _atom_site_symmetry_multiplicity
 _atom_site_fract_x
 _atom_site_fract_y
 _atom_site_fract_z
 _atom_site_occupancy
  Li  Li0  1  0.840792  0.681583  0.250000  1
  Eu  Eu1  1  0.334656  0.669312  0.453146  1
  Eu  Eu2  1  0.665901  0.331800  0.947506  1
  Eu  Eu3  1  0.334656  0.669312  0.046854  1
  Eu  Eu4  1  0.665901  0.331800  0.552494  1
  Ga  Ga5  1  0.840559  0.145969  0.250000  1
  Ga  Ga6  1  0.158190  0.840080  0.750000  1
  Ga  Ga7  1  0.305409  0.145969  0.250000  1
  Ga  Ga8  1  0.681891  0.840080  0.750000  1
  Ga  Ga9  1  0.161240  0.322480  0.750000  1
  Ir  Ir10  1  0.005403  0.010807  0.996889  1
  Ir  Ir11  1  0.005403  0.010807  0.503111  1
