# generated using pymatgen
data_LaYb(Sn2Ir)4
_symmetry_space_group_name_H-M   'P 1'
_cell_length_a   4.52392200
_cell_length_b   7.24636800
_cell_length_c   18.63166300
_cell_angle_alpha   90.00000000
_cell_angle_beta   90.00000000
_cell_angle_gamma   90.00000000
_symmetry_Int_Tables_number   1
_chemical_formula_structural   LaYb(Sn2Ir)4
_chemical_formula_sum   'La2 Yb2 Sn16 Ir8'
_cell_volume   610.78324382
_cell_formula_units_Z   2
loop_
 _symmetry_equiv_pos_site_id
 _symmetry_equiv_pos_as_xyz
  1  'x, y, z'
loop_
 _atom_site_type_symbol
 _atom_site_label
 _atom_site_symmetry_multiplicity
 _atom_site_fract_x
 _atom_site_fract_y
 _atom_site_fract_z
 _atom_site_occupancy
  La  La0  1  0.750000  0.003023  0.142379  1
  La  La1  1  0.750000  0.496977  0.642379  1
  Yb  Yb2  1  0.250000  0.994416  0.856824  1
  Yb  Yb3  1  0.250000  0.505584  0.356824  1
  Sn  Sn4  1  0.250000  0.305275  0.183913  1
  Sn  Sn5  1  0.250000  0.194725  0.683913  1
  Sn  Sn6  1  0.750000  0.700522  0.818560  1
  Sn  Sn7  1  0.750000  0.799478  0.318560  1
  Sn  Sn8  1  0.250000  0.721727  0.194821  1
  Sn  Sn9  1  0.250000  0.778273  0.694821  1
  Sn  Sn10  1  0.750000  0.273123  0.809297  1
  Sn  Sn11  1  0.750000  0.226877  0.309297  1
  Sn  Sn12  1  0.250000  0.868065  0.029935  1
  Sn  Sn13  1  0.250000  0.631935  0.529935  1
  Sn  Sn14  1  0.750000  0.133384  0.964919  1
  Sn  Sn15  1  0.750000  0.366616  0.464919  1
  Sn  Sn16  1  0.250000  0.518477  0.931510  1
  Sn  Sn17  1  0.250000  0.981523  0.431510  1
  Sn  Sn18  1  0.750000  0.479000  0.067353  1
  Sn  Sn19  1  0.750000  0.021000  0.567353  1
  Ir  Ir20  1  0.250000  0.252414  0.036014  1
  Ir  Ir21  1  0.250000  0.247586  0.536014  1
  Ir  Ir22  1  0.750000  0.748706  0.963234  1
  Ir  Ir23  1  0.750000  0.751294  0.463234  1
  Ir  Ir24  1  0.250000  0.018827  0.285820  1
  Ir  Ir25  1  0.250000  0.481173  0.785820  1
  Ir  Ir26  1  0.750000  0.983272  0.715421  1
  Ir  Ir27  1  0.750000  0.516728  0.215421  1
