# generated using pymatgen
data_Sm2HoMg3AgSn2
_symmetry_space_group_name_H-M   'P 1'
_cell_length_a   7.55510253
_cell_length_b   7.55510243
_cell_length_c   4.56740100
_cell_angle_alpha   90.00000000
_cell_angle_beta   90.00000000
_cell_angle_gamma   119.58507461
_symmetry_Int_Tables_number   1
_chemical_formula_structural   Sm2HoMg3AgSn2
_chemical_formula_sum   'Sm2 Ho1 Mg3 Ag1 Sn2'
_cell_volume   226.71547445
_cell_formula_units_Z   1
loop_
 _symmetry_equiv_pos_site_id
 _symmetry_equiv_pos_as_xyz
  1  'x, y, z'
loop_
 _atom_site_type_symbol
 _atom_site_label
 _atom_site_symmetry_multiplicity
 _atom_site_fract_x
 _atom_site_fract_y
 _atom_site_fract_z
 _atom_site_occupancy
  Sm  Sm0  1  0.584199  0.999005  0.000000  1
  Sm  Sm1  1  0.999005  0.584199  0.000000  1
  Ho  Ho2  1  0.414195  0.414195  0.000000  1
  Mg  Mg3  1  0.237010  0.000676  0.500000  1
  Mg  Mg4  1  0.000676  0.237010  0.500000  1
  Mg  Mg5  1  0.762825  0.762825  0.500000  1
  Ag  Ag6  1  0.003155  0.003155  0.000000  1
  Sn  Sn7  1  0.334694  0.664242  0.500000  1
  Sn  Sn8  1  0.664242  0.334694  0.500000  1
