# generated using pymatgen
data_TbTh(ReN3)2
_symmetry_space_group_name_H-M   'P 1'
_cell_length_a   5.45499900
_cell_length_b   5.64649600
_cell_length_c   7.76102700
_cell_angle_alpha   90.00000000
_cell_angle_beta   90.00000000
_cell_angle_gamma   90.00000000
_symmetry_Int_Tables_number   1
_chemical_formula_structural   TbTh(ReN3)2
_chemical_formula_sum   'Tb2 Th2 Re4 N12'
_cell_volume   239.05228233
_cell_formula_units_Z   2
loop_
 _symmetry_equiv_pos_site_id
 _symmetry_equiv_pos_as_xyz
  1  'x, y, z'
loop_
 _atom_site_type_symbol
 _atom_site_label
 _atom_site_symmetry_multiplicity
 _atom_site_fract_x
 _atom_site_fract_y
 _atom_site_fract_z
 _atom_site_occupancy
  Tb  Tb0  1  0.500265  0.561663  0.750000  1
  Tb  Tb1  1  0.999735  0.061663  0.750000  1
  Th  Th2  1  0.481041  0.453816  0.250000  1
  Th  Th3  1  0.018959  0.953816  0.250000  1
  Re  Re4  1  0.509893  0.003213  0.506879  1
  Re  Re5  1  0.990107  0.503213  0.993121  1
  Re  Re6  1  0.990107  0.503213  0.506879  1
  Re  Re7  1  0.509893  0.003213  0.993121  1
  N  N8  1  0.703403  0.291216  0.541738  1
  N  N9  1  0.298967  0.701469  0.040361  1
  N  N10  1  0.201033  0.201469  0.040361  1
  N  N11  1  0.421469  0.981411  0.750000  1
  N  N12  1  0.929937  0.511314  0.250000  1
  N  N13  1  0.298967  0.701469  0.459639  1
  N  N14  1  0.796597  0.791216  0.958262  1
  N  N15  1  0.703403  0.291216  0.958262  1
  N  N16  1  0.796597  0.791216  0.541738  1
  N  N17  1  0.078531  0.481411  0.750000  1
  N  N18  1  0.201033  0.201469  0.459639  1
  N  N19  1  0.570063  0.011314  0.250000  1
