# generated using pymatgen
data_Y3Be2CrIr6
_symmetry_space_group_name_H-M   'P 1'
_cell_length_a   5.48486900
_cell_length_b   5.48486934
_cell_length_c   14.91714900
_cell_angle_alpha   90.00000000
_cell_angle_beta   90.00000000
_cell_angle_gamma   120.00000395
_symmetry_Int_Tables_number   1
_chemical_formula_structural   Y3Be2CrIr6
_chemical_formula_sum   'Y6 Be4 Cr2 Ir12'
_cell_volume   388.64133403
_cell_formula_units_Z   2
loop_
 _symmetry_equiv_pos_site_id
 _symmetry_equiv_pos_as_xyz
  1  'x, y, z'
loop_
 _atom_site_type_symbol
 _atom_site_label
 _atom_site_symmetry_multiplicity
 _atom_site_fract_x
 _atom_site_fract_y
 _atom_site_fract_z
 _atom_site_occupancy
  Y  Y0  1  0.333333  0.666667  0.537438  1
  Y  Y1  1  0.666667  0.333333  0.462562  1
  Y  Y2  1  0.666667  0.333333  0.037438  1
  Y  Y3  1  0.333333  0.666667  0.962562  1
  Y  Y4  1  0.333333  0.666667  0.750000  1
  Y  Y5  1  0.666667  0.333333  0.250000  1
  Be  Be6  1  0.000000  0.000000  0.250000  1
  Be  Be7  1  0.000000  0.000000  0.750000  1
  Be  Be8  1  0.333333  0.666667  0.250000  1
  Be  Be9  1  0.666667  0.333333  0.750000  1
  Cr  Cr10  1  0.000000  0.000000  0.000000  1
  Cr  Cr11  1  0.000000  0.000000  0.500000  1
  Ir  Ir12  1  0.167101  0.334202  0.133583  1
  Ir  Ir13  1  0.832899  0.665798  0.866417  1
  Ir  Ir14  1  0.665798  0.832899  0.133583  1
  Ir  Ir15  1  0.832899  0.665798  0.633583  1
  Ir  Ir16  1  0.334202  0.167101  0.866417  1
  Ir  Ir17  1  0.167101  0.334202  0.366417  1
  Ir  Ir18  1  0.167101  0.832899  0.133583  1
  Ir  Ir19  1  0.334202  0.167101  0.633583  1
  Ir  Ir20  1  0.832899  0.167101  0.866417  1
  Ir  Ir21  1  0.665798  0.832899  0.366417  1
  Ir  Ir22  1  0.832899  0.167101  0.633583  1
  Ir  Ir23  1  0.167101  0.832899  0.366417  1
