# generated using pymatgen
data_Hf7ScH30
_symmetry_space_group_name_H-M   'P 1'
_cell_length_a   6.92142783
_cell_length_b   6.92142832
_cell_length_c   6.92142812
_cell_angle_alpha   109.52057990
_cell_angle_beta   109.52058084
_cell_angle_gamma   109.52057534
_symmetry_Int_Tables_number   1
_chemical_formula_structural   Hf7ScH30
_chemical_formula_sum   'Hf7 Sc1 H30'
_cell_volume   254.78218166
_cell_formula_units_Z   1
loop_
 _symmetry_equiv_pos_site_id
 _symmetry_equiv_pos_as_xyz
  1  'x, y, z'
loop_
 _atom_site_type_symbol
 _atom_site_label
 _atom_site_symmetry_multiplicity
 _atom_site_fract_x
 _atom_site_fract_y
 _atom_site_fract_z
 _atom_site_occupancy
  Hf  Hf0  1  0.499700  0.000559  0.098041  1
  Hf  Hf1  1  0.000559  0.098041  0.499700  1
  Hf  Hf2  1  0.098041  0.499700  0.000559  1
  Hf  Hf3  1  0.998313  0.600090  0.501217  1
  Hf  Hf4  1  0.600090  0.501217  0.998313  1
  Hf  Hf5  1  0.501217  0.998313  0.600090  1
  Hf  Hf6  1  0.404140  0.404140  0.404140  1
  Sc  Sc7  1  0.903578  0.903578  0.903578  1
  H  H8  1  0.654964  0.967704  0.384160  1
  H  H9  1  0.227896  0.311028  0.844434  1
  H  H10  1  0.188019  0.419007  0.532649  1
  H  H11  1  0.089196  0.276558  0.118069  1
  H  H12  1  0.276558  0.118069  0.089196  1
  H  H13  1  0.118069  0.089196  0.276558  1
  H  H14  1  0.466445  0.155550  0.884343  1
  H  H15  1  0.728298  0.344326  0.811431  1
  H  H16  1  0.626421  0.373789  0.249917  1
  H  H17  1  0.249917  0.626421  0.373789  1
  H  H18  1  0.749003  0.872873  0.126789  1
  H  H19  1  0.126789  0.749003  0.872873  1
  H  H20  1  0.373789  0.249917  0.626421  1
  H  H21  1  0.872873  0.126789  0.749003  1
  H  H22  1  0.769240  0.581106  0.611057  1
  H  H23  1  0.311028  0.844434  0.227896  1
  H  H24  1  0.384160  0.654964  0.967704  1
  H  H25  1  0.967704  0.384160  0.654964  1
  H  H26  1  0.532649  0.188019  0.419007  1
  H  H27  1  0.419007  0.532649  0.188019  1
  H  H28  1  0.844434  0.227896  0.311028  1
  H  H29  1  0.915816  0.683414  0.030863  1
  H  H30  1  0.811431  0.728298  0.344326  1
  H  H31  1  0.155550  0.884343  0.466445  1
  H  H32  1  0.683414  0.030863  0.915816  1
  H  H33  1  0.344326  0.811431  0.728298  1
  H  H34  1  0.884343  0.466445  0.155550  1
  H  H35  1  0.611057  0.769240  0.581106  1
  H  H36  1  0.581106  0.611057  0.769240  1
  H  H37  1  0.030863  0.915816  0.683414  1
