# generated using pymatgen
data_LaNd4(TcB3)2
_symmetry_space_group_name_H-M   'P 1'
_cell_length_a   8.80564372
_cell_length_b   8.80564317
_cell_length_c   8.80564352
_cell_angle_alpha   37.22320135
_cell_angle_beta   37.22320750
_cell_angle_gamma   37.22319756
_symmetry_Int_Tables_number   1
_chemical_formula_structural   LaNd4(TcB3)2
_chemical_formula_sum   'La1 Nd4 Tc2 B6'
_cell_volume   223.96054251
_cell_formula_units_Z   1
loop_
 _symmetry_equiv_pos_site_id
 _symmetry_equiv_pos_as_xyz
  1  'x, y, z'
loop_
 _atom_site_type_symbol
 _atom_site_label
 _atom_site_symmetry_multiplicity
 _atom_site_fract_x
 _atom_site_fract_y
 _atom_site_fract_z
 _atom_site_occupancy
  La  La0  1  0.000000  0.000000  0.000000  1
  Nd  Nd1  1  0.581549  0.581549  0.581549  1
  Nd  Nd2  1  0.418451  0.418451  0.418451  1
  Nd  Nd3  1  0.751100  0.751100  0.751100  1
  Nd  Nd4  1  0.248900  0.248900  0.248900  1
  Tc  Tc5  1  0.885870  0.885870  0.885870  1
  Tc  Tc6  1  0.114130  0.114130  0.114130  1
  B  B7  1  0.500000  0.831615  0.168385  1
  B  B8  1  0.168385  0.500000  0.831615  1
  B  B9  1  0.831615  0.168385  0.500000  1
  B  B10  1  0.500000  0.168385  0.831615  1
  B  B11  1  0.831615  0.500000  0.168385  1
  B  B12  1  0.168385  0.831615  0.500000  1
