# generated using pymatgen
data_Tm3Th(Al8Pt3)3
_symmetry_space_group_name_H-M   'P 1'
_cell_length_a   7.54413707
_cell_length_b   7.56672039
_cell_length_c   13.15298032
_cell_angle_alpha   84.54510273
_cell_angle_beta   79.01555036
_cell_angle_gamma   59.91687845
_symmetry_Int_Tables_number   1
_chemical_formula_structural   Tm3Th(Al8Pt3)3
_chemical_formula_sum   'Tm3 Th1 Al24 Pt9'
_cell_volume   637.78911069
_cell_formula_units_Z   1
loop_
 _symmetry_equiv_pos_site_id
 _symmetry_equiv_pos_as_xyz
  1  'x, y, z'
loop_
 _atom_site_type_symbol
 _atom_site_label
 _atom_site_symmetry_multiplicity
 _atom_site_fract_x
 _atom_site_fract_y
 _atom_site_fract_z
 _atom_site_occupancy
  Tm  Tm0  1  0.605804  0.831190  0.193729  1
  Tm  Tm1  1  0.733637  0.499182  0.807049  1
  Tm  Tm2  1  0.265873  0.501257  0.193812  1
  Th  Th3  1  0.393919  0.167998  0.807619  1
  Al  Al4  1  0.687001  0.830065  0.946892  1
  Al  Al5  1  0.315451  0.166203  0.059038  1
  Al  Al6  1  0.146828  0.832576  0.560517  1
  Al  Al7  1  0.854119  0.167562  0.437551  1
  Al  Al8  1  0.480841  0.166523  0.556662  1
  Al  Al9  1  0.520425  0.832510  0.440542  1
  Al  Al10  1  0.218028  0.165483  0.328452  1
  Al  Al11  1  0.787169  0.830807  0.667963  1
  Al  Al12  1  0.438158  0.510268  0.668416  1
  Al  Al13  1  0.562938  0.493804  0.328199  1
  Al  Al14  1  0.106450  0.160120  0.666747  1
  Al  Al15  1  0.890650  0.839758  0.329612  1
  Al  Al16  1  0.352361  0.502746  0.946841  1
  Al  Al17  1  0.645775  0.501615  0.056805  1
  Al  Al18  1  0.011469  0.167852  0.955572  1
  Al  Al19  1  0.983633  0.831455  0.049433  1
  Al  Al20  1  0.185976  0.500179  0.440680  1
  Al  Al21  1  0.813550  0.500468  0.558255  1
  Al  Al22  1  0.733661  0.164023  0.183319  1
  Al  Al23  1  0.265462  0.832136  0.816735  1
  Al  Al24  1  0.057996  0.634922  0.815549  1
  Al  Al25  1  0.937929  0.369829  0.184736  1
  Al  Al26  1  0.859276  0.041494  0.816380  1
  Al  Al27  1  0.144928  0.957463  0.184147  1
  Pt  Pt28  1  0.120597  0.490943  0.639077  1
  Pt  Pt29  1  0.880191  0.508776  0.360532  1
  Pt  Pt30  1  0.656491  0.171623  0.999818  1
  Pt  Pt31  1  0.343110  0.829116  0.000141  1
  Pt  Pt32  1  0.537249  0.166902  0.360581  1
  Pt  Pt33  1  0.462437  0.833720  0.638926  1
  Pt  Pt34  1  0.777927  0.175468  0.637579  1
  Pt  Pt35  1  0.221878  0.824538  0.362110  1
  Pt  Pt36  1  0.000812  0.499429  0.999981  1
