# generated using pymatgen
data_LaPr7(SiI6)2
_symmetry_space_group_name_H-M   'P 1'
_cell_length_a   4.38762700
_cell_length_b   14.55794344
_cell_length_c   15.36693578
_cell_angle_alpha   89.89228028
_cell_angle_beta   90.00000000
_cell_angle_gamma   90.00000000
_symmetry_Int_Tables_number   1
_chemical_formula_structural   LaPr7(SiI6)2
_chemical_formula_sum   'La1 Pr7 Si2 I12'
_cell_volume   981.55860987
_cell_formula_units_Z   1
loop_
 _symmetry_equiv_pos_site_id
 _symmetry_equiv_pos_as_xyz
  1  'x, y, z'
loop_
 _atom_site_type_symbol
 _atom_site_label
 _atom_site_symmetry_multiplicity
 _atom_site_fract_x
 _atom_site_fract_y
 _atom_site_fract_z
 _atom_site_occupancy
  La  La0  1  0.500000  0.383536  0.844191  1
  Pr  Pr1  1  0.500000  0.115184  0.345851  1
  Pr  Pr2  1  0.500000  0.884786  0.654126  1
  Pr  Pr3  1  0.500000  0.615216  0.154133  1
  Pr  Pr4  1  0.000000  0.112861  0.575494  1
  Pr  Pr5  1  0.000000  0.886502  0.424033  1
  Pr  Pr6  1  0.000000  0.614121  0.924969  1
  Pr  Pr7  1  0.000000  0.387198  0.076825  1
  Si  Si8  1  0.500000  0.999836  0.499887  1
  Si  Si9  1  0.500000  0.499855  0.999821  1
  I  I10  1  0.500000  0.243893  0.161944  1
  I  I11  1  0.500000  0.756139  0.838088  1
  I  I12  1  0.500000  0.744184  0.338399  1
  I  I13  1  0.500000  0.255711  0.661214  1
  I  I14  1  0.000000  0.258638  0.414229  1
  I  I15  1  0.000000  0.741434  0.585830  1
  I  I16  1  0.000000  0.758940  0.085880  1
  I  I17  1  0.000000  0.239540  0.915850  1
  I  I18  1  0.000000  0.998807  0.240541  1
  I  I19  1  0.000000  0.001322  0.759409  1
  I  I20  1  0.000000  0.498757  0.259806  1
  I  I21  1  0.000000  0.503541  0.739479  1
