# generated using pymatgen
data_Dy11Ho(BCl3)4
_symmetry_space_group_name_H-M   'P 1'
_cell_length_a   9.43651582
_cell_length_b   9.43651545
_cell_length_c   9.43534206
_cell_angle_alpha   109.47351204
_cell_angle_beta   109.47351176
_cell_angle_gamma   109.46606589
_symmetry_Int_Tables_number   1
_chemical_formula_structural   Dy11Ho(BCl3)4
_chemical_formula_sum   'Dy11 Ho1 B4 Cl12'
_cell_volume   646.78829390
_cell_formula_units_Z   1
loop_
 _symmetry_equiv_pos_site_id
 _symmetry_equiv_pos_as_xyz
  1  'x, y, z'
loop_
 _atom_site_type_symbol
 _atom_site_label
 _atom_site_symmetry_multiplicity
 _atom_site_fract_x
 _atom_site_fract_y
 _atom_site_fract_z
 _atom_site_occupancy
  Dy  Dy0  1  0.469782  0.484794  0.234785  1
  Dy  Dy1  1  0.750128  0.234866  0.265245  1
  Dy  Dy2  1  0.750090  0.015105  0.484927  1
  Dy  Dy3  1  0.234916  0.469767  0.484967  1
  Dy  Dy4  1  0.265134  0.749872  0.234755  1
  Dy  Dy5  1  0.030233  0.265084  0.015033  1
  Dy  Dy6  1  0.015206  0.030218  0.265215  1
  Dy  Dy7  1  0.484895  0.749910  0.015073  1
  Dy  Dy8  1  0.484908  0.234874  0.469825  1
  Dy  Dy9  1  0.015173  0.484827  0.750000  1
  Dy  Dy10  1  0.265126  0.015092  0.030175  1
  Ho  Ho11  1  0.234288  0.265712  0.750000  1
  B  B12  1  0.249983  0.250017  0.250000  1
  B  B13  1  0.500039  0.999961  0.250000  1
  B  B14  1  0.000434  0.249979  0.500433  1
  B  B15  1  0.250021  0.499566  0.999567  1
  Cl  Cl16  1  0.249970  0.755650  0.744302  1
  Cl  Cl17  1  0.510768  0.504928  0.755722  1
  Cl  Cl18  1  0.988685  0.744319  0.994291  1
  Cl  Cl19  1  0.744350  0.250030  0.755698  1
  Cl  Cl20  1  0.995072  0.989232  0.744278  1
  Cl  Cl21  1  0.250116  0.995045  0.506436  1
  Cl  Cl22  1  0.755681  0.511315  0.505709  1
  Cl  Cl23  1  0.504955  0.249884  0.993564  1
  Cl  Cl24  1  0.755680  0.744320  0.250000  1
  Cl  Cl25  1  0.744367  0.994346  0.988687  1
  Cl  Cl26  1  0.994347  0.505653  0.250000  1
  Cl  Cl27  1  0.505654  0.755633  0.511313  1
