# generated using pymatgen
data_Ni8Bi8BBr2
_symmetry_space_group_name_H-M   'P 1'
_cell_length_a   4.14205100
_cell_length_b   9.92228800
_cell_length_c   20.85087100
_cell_angle_alpha   90.00000000
_cell_angle_beta   90.00000000
_cell_angle_gamma   90.00000000
_symmetry_Int_Tables_number   1
_chemical_formula_structural   Ni8Bi8BBr2
_chemical_formula_sum   'Ni16 Bi16 B2 Br4'
_cell_volume   856.94208505
_cell_formula_units_Z   2
loop_
 _symmetry_equiv_pos_site_id
 _symmetry_equiv_pos_as_xyz
  1  'x, y, z'
loop_
 _atom_site_type_symbol
 _atom_site_label
 _atom_site_symmetry_multiplicity
 _atom_site_fract_x
 _atom_site_fract_y
 _atom_site_fract_z
 _atom_site_occupancy
  Ni  Ni0  1  0.749630  0.324370  0.972272  1
  Ni  Ni1  1  0.749630  0.675630  0.027728  1
  Ni  Ni2  1  0.250370  0.824370  0.527728  1
  Ni  Ni3  1  0.250370  0.175630  0.472272  1
  Ni  Ni4  1  0.250581  0.583106  0.080995  1
  Ni  Ni5  1  0.250581  0.416894  0.919005  1
  Ni  Ni6  1  0.749419  0.083106  0.419005  1
  Ni  Ni7  1  0.749419  0.916894  0.580995  1
  Ni  Ni8  1  0.248613  0.336033  0.038623  1
  Ni  Ni9  1  0.248613  0.663967  0.961377  1
  Ni  Ni10  1  0.751387  0.836033  0.461377  1
  Ni  Ni11  1  0.751387  0.163967  0.538623  1
  Ni  Ni12  1  0.749400  0.442093  0.083912  1
  Ni  Ni13  1  0.749400  0.557907  0.916088  1
  Ni  Ni14  1  0.250600  0.942093  0.416088  1
  Ni  Ni15  1  0.250600  0.057907  0.583912  1
  Bi  Bi16  1  0.252621  0.381254  0.168376  1
  Bi  Bi17  1  0.252621  0.618746  0.831624  1
  Bi  Bi18  1  0.747379  0.881254  0.331624  1
  Bi  Bi19  1  0.747379  0.118746  0.668376  1
  Bi  Bi20  1  0.745406  0.169496  0.081438  1
  Bi  Bi21  1  0.745406  0.830504  0.918562  1
  Bi  Bi22  1  0.254594  0.669496  0.418562  1
  Bi  Bi23  1  0.254594  0.330504  0.581438  1
  Bi  Bi24  1  0.252689  0.146940  0.945310  1
  Bi  Bi25  1  0.252689  0.853060  0.054690  1
  Bi  Bi26  1  0.747311  0.646940  0.554690  1
  Bi  Bi27  1  0.747311  0.353060  0.445310  1
  Bi  Bi28  1  0.747703  0.669113  0.158283  1
  Bi  Bi29  1  0.747703  0.330887  0.841717  1
  Bi  Bi30  1  0.252297  0.169113  0.341717  1
  Bi  Bi31  1  0.252297  0.830887  0.658283  1
  B  B32  1  0.499450  0.500000  0.000000  1
  B  B33  1  0.500550  0.000000  0.500000  1
  Br  Br34  1  0.250300  0.006568  0.795426  1
  Br  Br35  1  0.250300  0.993432  0.204574  1
  Br  Br36  1  0.749700  0.506568  0.704574  1
  Br  Br37  1  0.749700  0.493432  0.295426  1
