# generated using pymatgen
data_Th5SiSnSb2
_symmetry_space_group_name_H-M   'P 1'
_cell_length_a   9.51360898
_cell_length_b   9.49750287
_cell_length_c   6.54810000
_cell_angle_alpha   90.00000000
_cell_angle_beta   90.00000000
_cell_angle_gamma   119.94400952
_symmetry_Int_Tables_number   1
_chemical_formula_structural   Th5SiSnSb2
_chemical_formula_sum   'Th10 Si2 Sn2 Sb4'
_cell_volume   512.67886847
_cell_formula_units_Z   2
loop_
 _symmetry_equiv_pos_site_id
 _symmetry_equiv_pos_as_xyz
  1  'x, y, z'
loop_
 _atom_site_type_symbol
 _atom_site_label
 _atom_site_symmetry_multiplicity
 _atom_site_fract_x
 _atom_site_fract_y
 _atom_site_fract_z
 _atom_site_occupancy
  Th  Th0  1  0.257430  0.000074  0.250000  1
  Th  Th1  1  0.257430  0.257356  0.750000  1
  Th  Th2  1  0.000286  0.741078  0.750000  1
  Th  Th3  1  0.000286  0.259207  0.250000  1
  Th  Th4  1  0.741385  0.741443  0.250000  1
  Th  Th5  1  0.741385  0.999941  0.750000  1
  Th  Th6  1  0.332657  0.666329  0.000000  1
  Th  Th7  1  0.667547  0.333773  0.500000  1
  Th  Th8  1  0.667547  0.333773  0.000000  1
  Th  Th9  1  0.332657  0.666329  0.500000  1
  Si  Si10  1  0.999919  0.999960  0.000000  1
  Si  Si11  1  0.999919  0.999960  0.500000  1
  Sn  Sn12  1  0.609962  0.999241  0.250000  1
  Sn  Sn13  1  0.609962  0.610720  0.750000  1
  Sb  Sb14  1  0.999271  0.389117  0.750000  1
  Sb  Sb15  1  0.999271  0.610154  0.250000  1
  Sb  Sb16  1  0.391544  0.391311  0.250000  1
  Sb  Sb17  1  0.391544  0.000234  0.750000  1
