# generated using pymatgen
data_Lu4Sn3Ge3Ir7
_symmetry_space_group_name_H-M   'P 1'
_cell_length_a   7.35335427
_cell_length_b   7.35335560
_cell_length_c   7.42007900
_cell_angle_alpha   109.65513853
_cell_angle_beta   109.65514225
_cell_angle_gamma   109.28667471
_symmetry_Int_Tables_number   1
_chemical_formula_structural   Lu4Sn3Ge3Ir7
_chemical_formula_sum   'Lu4 Sn3 Ge3 Ir7'
_cell_volume   308.15335356
_cell_formula_units_Z   1
loop_
 _symmetry_equiv_pos_site_id
 _symmetry_equiv_pos_as_xyz
  1  'x, y, z'
loop_
 _atom_site_type_symbol
 _atom_site_label
 _atom_site_symmetry_multiplicity
 _atom_site_fract_x
 _atom_site_fract_y
 _atom_site_fract_z
 _atom_site_occupancy
  Lu  Lu0  1  0.000000  0.000000  0.553210  1
  Lu  Lu1  1  0.000000  0.472037  0.988315  1
  Lu  Lu2  1  0.472037  0.000000  0.988315  1
  Lu  Lu3  1  0.527963  0.527963  0.516278  1
  Sn  Sn4  1  0.710489  0.710489  0.016274  1
  Sn  Sn5  1  0.289511  0.000000  0.305785  1
  Sn  Sn6  1  0.000000  0.289511  0.305785  1
  Ge  Ge7  1  0.334632  0.334632  0.008746  1
  Ge  Ge8  1  0.665368  0.000000  0.674114  1
  Ge  Ge9  1  0.000000  0.665368  0.674114  1
  Ir  Ir10  1  0.745315  0.246639  0.499748  1
  Ir  Ir11  1  0.753361  0.498676  0.253108  1
  Ir  Ir12  1  0.501324  0.254685  0.754431  1
  Ir  Ir13  1  0.254685  0.501324  0.754431  1
  Ir  Ir14  1  0.246639  0.745315  0.499748  1
  Ir  Ir15  1  0.498676  0.753361  0.253108  1
  Ir  Ir16  1  0.000000  0.000000  0.954490  1
