# generated using pymatgen
data_Li8Y3Er5(SnSb)4
_symmetry_space_group_name_H-M   'P 1'
_cell_length_a   9.36986423
_cell_length_b   9.36575816
_cell_length_c   7.12012607
_cell_angle_alpha   90.00717512
_cell_angle_beta   89.98447608
_cell_angle_gamma   120.03546166
_symmetry_Int_Tables_number   1
_chemical_formula_structural   Li8Y3Er5(SnSb)4
_chemical_formula_sum   'Li8 Y3 Er5 Sn4 Sb4'
_cell_volume   540.92771912
_cell_formula_units_Z   1
loop_
 _symmetry_equiv_pos_site_id
 _symmetry_equiv_pos_as_xyz
  1  'x, y, z'
loop_
 _atom_site_type_symbol
 _atom_site_label
 _atom_site_symmetry_multiplicity
 _atom_site_fract_x
 _atom_site_fract_y
 _atom_site_fract_z
 _atom_site_occupancy
  Li  Li0  1  0.166551  0.333829  0.215527  1
  Li  Li1  1  0.166553  0.832669  0.215502  1
  Li  Li2  1  0.666493  0.833240  0.216022  1
  Li  Li3  1  0.666921  0.333438  0.324857  1
  Li  Li4  1  0.833341  0.666425  0.715149  1
  Li  Li5  1  0.333696  0.166936  0.715053  1
  Li  Li6  1  0.833346  0.167104  0.715126  1
  Li  Li7  1  0.332956  0.666589  0.822948  1
  Y  Y8  1  0.000200  0.000240  0.994900  1
  Y  Y9  1  0.511402  0.022869  0.003935  1
  Y  Y10  1  0.511285  0.488806  0.004021  1
  Er  Er11  1  0.977324  0.488816  0.003344  1
  Er  Er12  1  0.999766  0.000080  0.501455  1
  Er  Er13  1  0.488823  0.977399  0.511021  1
  Er  Er14  1  0.022595  0.511392  0.511236  1
  Er  Er15  1  0.488894  0.511711  0.510993  1
  Sn  Sn16  1  0.667668  0.333728  0.737750  1
  Sn  Sn17  1  0.166556  0.334325  0.763873  1
  Sn  Sn18  1  0.166558  0.831984  0.764050  1
  Sn  Sn19  1  0.665895  0.832812  0.762630  1
  Sb  Sb20  1  0.332756  0.666077  0.243774  1
  Sb  Sb21  1  0.833517  0.665796  0.267840  1
  Sb  Sb22  1  0.333333  0.166457  0.269099  1
  Sb  Sb23  1  0.833570  0.167279  0.267880  1
