# generated using pymatgen
data_Ho5Er5BiPb5
_symmetry_space_group_name_H-M   'P 1'
_cell_length_a   9.03416307
_cell_length_b   9.03785383
_cell_length_c   6.51762500
_cell_angle_alpha   90.00000000
_cell_angle_beta   90.00000000
_cell_angle_gamma   119.99458315
_symmetry_Int_Tables_number   1
_chemical_formula_structural   Ho5Er5BiPb5
_chemical_formula_sum   'Ho5 Er5 Bi1 Pb5'
_cell_volume   460.88963619
_cell_formula_units_Z   1
loop_
 _symmetry_equiv_pos_site_id
 _symmetry_equiv_pos_as_xyz
  1  'x, y, z'
loop_
 _atom_site_type_symbol
 _atom_site_label
 _atom_site_symmetry_multiplicity
 _atom_site_fract_x
 _atom_site_fract_y
 _atom_site_fract_z
 _atom_site_occupancy
  Ho  Ho0  1  0.763018  0.762983  0.750000  1
  Ho  Ho1  1  0.237344  0.996907  0.750000  1
  Ho  Ho2  1  0.996935  0.237451  0.750000  1
  Ho  Ho3  1  0.238347  0.238302  0.250000  1
  Ho  Ho4  1  0.761674  0.000507  0.250000  1
  Er  Er5  1  0.668162  0.332963  0.999904  1
  Er  Er6  1  0.332938  0.668161  0.999868  1
  Er  Er7  1  0.332938  0.668161  0.500132  1
  Er  Er8  1  0.668162  0.332963  0.500096  1
  Er  Er9  1  0.000556  0.761629  0.250000  1
  Bi  Bi10  1  0.393030  0.393034  0.750000  1
  Pb  Pb11  1  0.605883  0.999793  0.750000  1
  Pb  Pb12  1  0.999799  0.605891  0.750000  1
  Pb  Pb13  1  0.607020  0.606873  0.250000  1
  Pb  Pb14  1  0.393364  0.000705  0.250000  1
  Pb  Pb15  1  0.000830  0.393676  0.250000  1
