# generated using pymatgen
data_NiIrRhO6
_symmetry_space_group_name_H-M   'P 1'
_cell_length_a   4.55331500
_cell_length_b   4.55331500
_cell_length_c   9.33901200
_cell_angle_alpha   90.00000000
_cell_angle_beta   90.00000000
_cell_angle_gamma   90.00000000
_symmetry_Int_Tables_number   1
_chemical_formula_structural   NiIrRhO6
_chemical_formula_sum   'Ni2 Ir2 Rh2 O12'
_cell_volume   193.62272386
_cell_formula_units_Z   2
loop_
 _symmetry_equiv_pos_site_id
 _symmetry_equiv_pos_as_xyz
  1  'x, y, z'
loop_
 _atom_site_type_symbol
 _atom_site_label
 _atom_site_symmetry_multiplicity
 _atom_site_fract_x
 _atom_site_fract_y
 _atom_site_fract_z
 _atom_site_occupancy
  Ni  Ni0  1  0.500000  0.500000  0.166124  1
  Ni  Ni1  1  0.000000  0.000000  0.666124  1
  Ir  Ir2  1  0.500000  0.500000  0.498821  1
  Ir  Ir3  1  0.000000  0.000000  0.998821  1
  Rh  Rh4  1  0.500000  0.500000  0.835118  1
  Rh  Rh5  1  0.000000  0.000000  0.335118  1
  O  O6  1  0.202094  0.797906  0.499158  1
  O  O7  1  0.797906  0.202094  0.499158  1
  O  O8  1  0.297906  0.297906  0.999158  1
  O  O9  1  0.702094  0.702094  0.999158  1
  O  O10  1  0.189168  0.810832  0.164473  1
  O  O11  1  0.810832  0.189168  0.164473  1
  O  O12  1  0.310832  0.310832  0.664473  1
  O  O13  1  0.689168  0.689168  0.664473  1
  O  O14  1  0.806624  0.193376  0.836338  1
  O  O15  1  0.193376  0.806624  0.836338  1
  O  O16  1  0.693376  0.693376  0.336338  1
  O  O17  1  0.306624  0.306624  0.336338  1
