# generated using pymatgen
data_Tb3Yb(Ir2O7)2
_symmetry_space_group_name_H-M   'P 1'
_cell_length_a   7.25868348
_cell_length_b   7.25221349
_cell_length_c   7.25221500
_cell_angle_alpha   59.99999767
_cell_angle_beta   60.02947875
_cell_angle_gamma   60.02947667
_symmetry_Int_Tables_number   1
_chemical_formula_structural   Tb3Yb(Ir2O7)2
_chemical_formula_sum   'Tb3 Yb1 Ir4 O14'
_cell_volume   270.07069573
_cell_formula_units_Z   1
loop_
 _symmetry_equiv_pos_site_id
 _symmetry_equiv_pos_as_xyz
  1  'x, y, z'
loop_
 _atom_site_type_symbol
 _atom_site_label
 _atom_site_symmetry_multiplicity
 _atom_site_fract_x
 _atom_site_fract_y
 _atom_site_fract_z
 _atom_site_occupancy
  Tb  Tb0  1  0.125000  0.125000  0.625000  1
  Tb  Tb1  1  0.125000  0.125000  0.125000  1
  Tb  Tb2  1  0.125000  0.625000  0.125000  1
  Yb  Yb3  1  0.625000  0.125000  0.125000  1
  Ir  Ir4  1  0.625000  0.625000  0.625000  1
  Ir  Ir5  1  0.125000  0.625000  0.625000  1
  Ir  Ir6  1  0.625000  0.125000  0.625000  1
  Ir  Ir7  1  0.625000  0.625000  0.125000  1
  O  O8  1  0.960005  0.540558  0.540558  1
  O  O9  1  0.289995  0.291120  0.709442  1
  O  O10  1  0.960005  0.540558  0.958880  1
  O  O11  1  0.714207  0.292047  0.292047  1
  O  O12  1  0.535793  0.548301  0.957953  1
  O  O13  1  0.535793  0.957953  0.548301  1
  O  O14  1  0.535793  0.957953  0.957953  1
  O  O15  1  0.245949  0.251350  0.251350  1
  O  O16  1  0.289995  0.709442  0.709442  1
  O  O17  1  0.714207  0.292047  0.701699  1
  O  O18  1  0.004051  0.998650  0.998650  1
  O  O19  1  0.960005  0.958880  0.540558  1
  O  O20  1  0.289995  0.709442  0.291120  1
  O  O21  1  0.714207  0.701699  0.292047  1
