# generated using pymatgen
data_LuU2Ga3Ru2Pt
_symmetry_space_group_name_H-M   'P 1'
_cell_length_a   6.93527200
_cell_length_b   7.17233682
_cell_length_c   3.86780300
_cell_angle_alpha   90.00000000
_cell_angle_beta   90.00000000
_cell_angle_gamma   118.91250145
_symmetry_Int_Tables_number   1
_chemical_formula_structural   LuU2Ga3Ru2Pt
_chemical_formula_sum   'Lu1 U2 Ga3 Ru2 Pt1'
_cell_volume   168.41266597
_cell_formula_units_Z   1
loop_
 _symmetry_equiv_pos_site_id
 _symmetry_equiv_pos_as_xyz
  1  'x, y, z'
loop_
 _atom_site_type_symbol
 _atom_site_label
 _atom_site_symmetry_multiplicity
 _atom_site_fract_x
 _atom_site_fract_y
 _atom_site_fract_z
 _atom_site_occupancy
  Lu  Lu0  1  0.410762  0.000000  0.500000  1
  U  U1  1  0.000884  0.423669  0.500000  1
  U  U2  1  0.577214  0.576331  0.500000  1
  Ga  Ga3  1  0.730196  0.000000  0.000000  1
  Ga  Ga4  1  0.017437  0.766390  0.000000  1
  Ga  Ga5  1  0.251047  0.233610  0.000000  1
  Ru  Ru6  1  0.329530  0.629875  0.000000  1
  Ru  Ru7  1  0.699656  0.370125  0.000000  1
  Pt  Pt8  1  0.983273  0.000000  0.500000  1
