# generated using pymatgen
data_Dy14Tm6Si15Pt
_symmetry_space_group_name_H-M   'P 1'
_cell_length_a   7.37155090
_cell_length_b   7.73083438
_cell_length_c   14.56804800
_cell_angle_alpha   90.08908425
_cell_angle_beta   89.97173899
_cell_angle_gamma   90.00544680
_symmetry_Int_Tables_number   1
_chemical_formula_structural   Dy14Tm6Si15Pt
_chemical_formula_sum   'Dy14 Tm6 Si15 Pt1'
_cell_volume   830.20629443
_cell_formula_units_Z   1
loop_
 _symmetry_equiv_pos_site_id
 _symmetry_equiv_pos_as_xyz
  1  'x, y, z'
loop_
 _atom_site_type_symbol
 _atom_site_label
 _atom_site_symmetry_multiplicity
 _atom_site_fract_x
 _atom_site_fract_y
 _atom_site_fract_z
 _atom_site_occupancy
  Dy  Dy0  1  0.317868  0.819769  0.123372  1
  Dy  Dy1  1  0.817086  0.677534  0.376295  1
  Dy  Dy2  1  0.317948  0.820516  0.376869  1
  Dy  Dy3  1  0.817018  0.676993  0.123544  1
  Dy  Dy4  1  0.679473  0.179187  0.876082  1
  Dy  Dy5  1  0.187396  0.323808  0.624173  1
  Dy  Dy6  1  0.524440  0.681375  0.595086  1
  Dy  Dy7  1  0.026204  0.817985  0.903973  1
  Dy  Dy8  1  0.473340  0.316007  0.097409  1
  Dy  Dy9  1  0.972942  0.182454  0.402495  1
  Dy  Dy10  1  0.474155  0.316571  0.402887  1
  Dy  Dy11  1  0.973789  0.182203  0.097159  1
  Dy  Dy12  1  0.523838  0.681279  0.905030  1
  Dy  Dy13  1  0.026278  0.817639  0.595951  1
  Tm  Tm14  1  0.678497  0.180130  0.624743  1
  Tm  Tm15  1  0.188474  0.325102  0.875002  1
  Tm  Tm16  1  0.843954  0.510468  0.749844  1
  Tm  Tm17  1  0.355143  0.984861  0.750060  1
  Tm  Tm18  1  0.148753  0.485449  0.249892  1
  Tm  Tm19  1  0.648446  0.013153  0.250114  1
  Si  Si20  1  0.648496  0.973010  0.460336  1
  Si  Si21  1  0.147880  0.526630  0.039430  1
  Si  Si22  1  0.349290  0.028025  0.959920  1
  Si  Si23  1  0.850731  0.470316  0.540348  1
  Si  Si24  1  0.353657  0.026571  0.540827  1
  Si  Si25  1  0.854825  0.471454  0.958878  1
  Si  Si26  1  0.646685  0.972138  0.040802  1
  Si  Si27  1  0.146109  0.527290  0.459509  1
  Si  Si28  1  0.981626  0.102421  0.749732  1
  Si  Si29  1  0.519281  0.601946  0.250042  1
  Si  Si30  1  0.019143  0.896544  0.250032  1
  Si  Si31  1  0.739316  0.875044  0.749305  1
  Si  Si32  1  0.227579  0.632629  0.750591  1
  Si  Si33  1  0.268344  0.129391  0.250020  1
  Si  Si34  1  0.768733  0.369838  0.250025  1
  Pt  Pt35  1  0.483265  0.404272  0.750225  1
