# generated using pymatgen
data_Bi2SbRuO8
_symmetry_space_group_name_H-M   'P 1'
_cell_length_a   5.21711700
_cell_length_b   5.27664809
_cell_length_c   13.55757403
_cell_angle_alpha   69.00341347
_cell_angle_beta   90.00000000
_cell_angle_gamma   90.00000000
_symmetry_Int_Tables_number   1
_chemical_formula_structural   Bi2SbRuO8
_chemical_formula_sum   'Bi4 Sb2 Ru2 O16'
_cell_volume   348.44349477
_cell_formula_units_Z   2
loop_
 _symmetry_equiv_pos_site_id
 _symmetry_equiv_pos_as_xyz
  1  'x, y, z'
loop_
 _atom_site_type_symbol
 _atom_site_label
 _atom_site_symmetry_multiplicity
 _atom_site_fract_x
 _atom_site_fract_y
 _atom_site_fract_z
 _atom_site_occupancy
  Bi  Bi0  1  0.758469  0.662805  0.333943  1
  Bi  Bi1  1  0.741531  0.662805  0.833943  1
  Bi  Bi2  1  0.241855  0.334195  0.667883  1
  Bi  Bi3  1  0.258145  0.334195  0.167883  1
  Sb  Sb4  1  0.249733  0.075270  0.932508  1
  Sb  Sb5  1  0.250267  0.075270  0.432508  1
  Ru  Ru6  1  0.747021  0.922577  0.069704  1
  Ru  Ru7  1  0.752979  0.922577  0.569704  1
  O  O8  1  0.437822  0.748650  0.038413  1
  O  O9  1  0.062178  0.748650  0.538413  1
  O  O10  1  0.562752  0.253911  0.964087  1
  O  O11  1  0.937248  0.253911  0.464087  1
  O  O12  1  0.604136  0.007781  0.184073  1
  O  O13  1  0.895864  0.007781  0.684073  1
  O  O14  1  0.399423  0.993062  0.812173  1
  O  O15  1  0.100577  0.993062  0.312173  1
  O  O16  1  0.060529  0.148132  0.053160  1
  O  O17  1  0.439471  0.148132  0.553160  1
  O  O18  1  0.934283  0.845726  0.948542  1
  O  O19  1  0.565717  0.845726  0.448542  1
  O  O20  1  0.885440  0.597666  0.172953  1
  O  O21  1  0.614560  0.597666  0.672953  1
  O  O22  1  0.109110  0.410222  0.822562  1
  O  O23  1  0.390890  0.410222  0.322562  1
