# generated using pymatgen
data_Tb8Re3TcB24
_symmetry_space_group_name_H-M   'P 1'
_cell_length_a   3.70481800
_cell_length_b   9.20327623
_cell_length_c   11.59783629
_cell_angle_alpha   90.02576738
_cell_angle_beta   90.00000000
_cell_angle_gamma   90.00000000
_symmetry_Int_Tables_number   1
_chemical_formula_structural   Tb8Re3TcB24
_chemical_formula_sum   'Tb8 Re3 Tc1 B24'
_cell_volume   395.44516123
_cell_formula_units_Z   1
loop_
 _symmetry_equiv_pos_site_id
 _symmetry_equiv_pos_as_xyz
  1  'x, y, z'
loop_
 _atom_site_type_symbol
 _atom_site_label
 _atom_site_symmetry_multiplicity
 _atom_site_fract_x
 _atom_site_fract_y
 _atom_site_fract_z
 _atom_site_occupancy
  Tb  Tb0  1  0.000000  0.324232  0.413828  1
  Tb  Tb1  1  0.000000  0.676006  0.585984  1
  Tb  Tb2  1  0.000000  0.824093  0.086039  1
  Tb  Tb3  1  0.000000  0.176293  0.913918  1
  Tb  Tb4  1  0.000000  0.941885  0.369541  1
  Tb  Tb5  1  0.000000  0.056961  0.629843  1
  Tb  Tb6  1  0.000000  0.443598  0.130901  1
  Tb  Tb7  1  0.000000  0.556980  0.870152  1
  Re  Re8  1  0.000000  0.361360  0.679077  1
  Re  Re9  1  0.000000  0.138687  0.179167  1
  Re  Re10  1  0.000000  0.861319  0.820940  1
  Tc  Tc11  1  0.000000  0.638819  0.320806  1
  B  B12  1  0.500000  0.553420  0.432499  1
  B  B13  1  0.500000  0.446779  0.567232  1
  B  B14  1  0.500000  0.053435  0.067287  1
  B  B15  1  0.500000  0.946817  0.932613  1
  B  B16  1  0.500000  0.747911  0.418114  1
  B  B17  1  0.500000  0.251659  0.581682  1
  B  B18  1  0.500000  0.248596  0.081817  1
  B  B19  1  0.500000  0.751750  0.918264  1
  B  B20  1  0.500000  0.791212  0.265495  1
  B  B21  1  0.500000  0.208452  0.734273  1
  B  B22  1  0.500000  0.291480  0.234549  1
  B  B23  1  0.500000  0.708429  0.765646  1
  B  B24  1  0.500000  0.631422  0.186128  1
  B  B25  1  0.500000  0.368843  0.813976  1
  B  B26  1  0.500000  0.130918  0.314040  1
  B  B27  1  0.500000  0.868750  0.685931  1
  B  B28  1  0.500000  0.982885  0.211738  1
  B  B29  1  0.500000  0.017064  0.788040  1
  B  B30  1  0.500000  0.483274  0.288339  1
  B  B31  1  0.500000  0.517082  0.711930  1
  B  B32  1  0.500000  0.600818  0.028342  1
  B  B33  1  0.500000  0.399462  0.972195  1
  B  B34  1  0.500000  0.100199  0.471619  1
  B  B35  1  0.500000  0.899111  0.528055  1
