# generated using pymatgen
data_Tm4Al18(CuOs)3
_symmetry_space_group_name_H-M   'P 1'
_cell_length_a   7.53050899
_cell_length_b   7.53050959
_cell_length_c   9.39955900
_cell_angle_alpha   90.14157886
_cell_angle_beta   90.14157126
_cell_angle_gamma   119.21413817
_symmetry_Int_Tables_number   1
_chemical_formula_structural   Tm4Al18(CuOs)3
_chemical_formula_sum   'Tm4 Al18 Cu3 Os3'
_cell_volume   465.22876891
_cell_formula_units_Z   1
loop_
 _symmetry_equiv_pos_site_id
 _symmetry_equiv_pos_as_xyz
  1  'x, y, z'
loop_
 _atom_site_type_symbol
 _atom_site_label
 _atom_site_symmetry_multiplicity
 _atom_site_fract_x
 _atom_site_fract_y
 _atom_site_fract_z
 _atom_site_occupancy
  Tm  Tm0  1  0.994585  0.673244  0.248336  1
  Tm  Tm1  1  0.005022  0.325769  0.750859  1
  Tm  Tm2  1  0.674231  0.994978  0.249141  1
  Tm  Tm3  1  0.326756  0.005415  0.751664  1
  Al  Al4  1  0.127976  0.129081  0.250004  1
  Al  Al5  1  0.870919  0.872024  0.749996  1
  Al  Al6  1  0.996093  0.330605  0.073542  1
  Al  Al7  1  0.996557  0.661593  0.925733  1
  Al  Al8  1  0.000538  0.667390  0.577134  1
  Al  Al9  1  0.332610  0.999462  0.422866  1
  Al  Al10  1  0.999707  0.335090  0.424780  1
  Al  Al11  1  0.664910  0.000293  0.575220  1
  Al  Al12  1  0.669395  0.003907  0.926458  1
  Al  Al13  1  0.338407  0.003443  0.074267  1
  Al  Al14  1  0.330720  0.332022  0.555675  1
  Al  Al15  1  0.667978  0.669280  0.444325  1
  Al  Al16  1  0.672347  0.667363  0.047321  1
  Al  Al17  1  0.332637  0.327653  0.952679  1
  Al  Al18  1  0.341997  0.552941  0.248493  1
  Al  Al19  1  0.656758  0.448498  0.752133  1
  Al  Al20  1  0.551502  0.343242  0.247867  1
  Al  Al21  1  0.447059  0.658003  0.751507  1
  Cu  Cu22  1  0.328352  0.671648  0.000000  1
  Cu  Cu23  1  0.327668  0.672332  0.500000  1
  Cu  Cu24  1  0.671440  0.328560  0.500000  1
  Os  Os25  1  0.672362  0.327638  0.000000  1
  Os  Os26  1  0.002094  0.997906  0.000000  1
  Os  Os27  1  0.999378  0.000622  0.500000  1
