# generated using pymatgen
data_YHo11(TcIr)2
_symmetry_space_group_name_H-M   'P 1'
_cell_length_a   6.31350808
_cell_length_b   7.32058667
_cell_length_c   9.13360500
_cell_angle_alpha   90.00000000
_cell_angle_beta   90.00000000
_cell_angle_gamma   89.80499157
_symmetry_Int_Tables_number   1
_chemical_formula_structural   YHo11(TcIr)2
_chemical_formula_sum   'Y1 Ho11 Tc2 Ir2'
_cell_volume   422.13983669
_cell_formula_units_Z   1
loop_
 _symmetry_equiv_pos_site_id
 _symmetry_equiv_pos_as_xyz
  1  'x, y, z'
loop_
 _atom_site_type_symbol
 _atom_site_label
 _atom_site_symmetry_multiplicity
 _atom_site_fract_x
 _atom_site_fract_y
 _atom_site_fract_z
 _atom_site_occupancy
  Y  Y0  1  0.132521  0.460832  0.750000  1
  Ho  Ho1  1  0.329099  0.676860  0.065821  1
  Ho  Ho2  1  0.171114  0.176492  0.434186  1
  Ho  Ho3  1  0.668194  0.323787  0.560650  1
  Ho  Ho4  1  0.831487  0.824162  0.939350  1
  Ho  Ho5  1  0.668194  0.323787  0.939350  1
  Ho  Ho6  1  0.831487  0.824162  0.560650  1
  Ho  Ho7  1  0.329099  0.676860  0.434179  1
  Ho  Ho8  1  0.171114  0.176492  0.065814  1
  Ho  Ho9  1  0.873478  0.537977  0.250000  1
  Ho  Ho10  1  0.626684  0.038056  0.250000  1
  Ho  Ho11  1  0.366649  0.959613  0.750000  1
  Tc  Tc12  1  0.035198  0.886038  0.250000  1
  Tc  Tc13  1  0.464705  0.385981  0.250000  1
  Ir  Ir14  1  0.954421  0.113145  0.750000  1
  Ir  Ir15  1  0.546555  0.615756  0.750000  1
