# generated using pymatgen
data_Hf2Zr4Sn2Ge
_symmetry_space_group_name_H-M   'P 1'
_cell_length_a   7.68492339
_cell_length_b   7.68492423
_cell_length_c   3.85893300
_cell_angle_alpha   90.00000000
_cell_angle_beta   90.00000000
_cell_angle_gamma   119.85219361
_symmetry_Int_Tables_number   1
_chemical_formula_structural   Hf2Zr4Sn2Ge
_chemical_formula_sum   'Hf2 Zr4 Sn2 Ge1'
_cell_volume   197.66142121
_cell_formula_units_Z   1
loop_
 _symmetry_equiv_pos_site_id
 _symmetry_equiv_pos_as_xyz
  1  'x, y, z'
loop_
 _atom_site_type_symbol
 _atom_site_label
 _atom_site_symmetry_multiplicity
 _atom_site_fract_x
 _atom_site_fract_y
 _atom_site_fract_z
 _atom_site_occupancy
  Hf  Hf0  1  0.247696  0.000751  0.500000  1
  Hf  Hf1  1  0.000751  0.247696  0.500000  1
  Zr  Zr2  1  0.752950  0.752950  0.500000  1
  Zr  Zr3  1  0.605284  0.000077  0.000000  1
  Zr  Zr4  1  0.000077  0.605284  0.000000  1
  Zr  Zr5  1  0.392746  0.392746  0.000000  1
  Sn  Sn6  1  0.332471  0.666575  0.500000  1
  Sn  Sn7  1  0.666575  0.332471  0.500000  1
  Ge  Ge8  1  0.001449  0.001449  0.000000  1
