# generated using pymatgen
data_Cs6DyYBi4
_symmetry_space_group_name_H-M   'P 1'
_cell_length_a   10.69694172
_cell_length_b   10.69694312
_cell_length_c   10.69694300
_cell_angle_alpha   127.10995632
_cell_angle_beta   70.97170462
_cell_angle_gamma   136.27689991
_symmetry_Int_Tables_number   1
_chemical_formula_structural   Cs6DyYBi4
_chemical_formula_sum   'Cs6 Dy1 Y1 Bi4'
_cell_volume   661.09064228
_cell_formula_units_Z   1
loop_
 _symmetry_equiv_pos_site_id
 _symmetry_equiv_pos_as_xyz
  1  'x, y, z'
loop_
 _atom_site_type_symbol
 _atom_site_label
 _atom_site_symmetry_multiplicity
 _atom_site_fract_x
 _atom_site_fract_y
 _atom_site_fract_z
 _atom_site_occupancy
  Cs  Cs0  1  0.250000  0.250000  0.000000  1
  Cs  Cs1  1  0.750000  0.750000  0.000000  1
  Cs  Cs2  1  0.315111  0.803135  0.118244  1
  Cs  Cs3  1  0.184889  0.303134  0.488024  1
  Cs  Cs4  1  0.815111  0.696866  0.511977  1
  Cs  Cs5  1  0.684889  0.196865  0.881755  1
  Dy  Dy6  1  0.750000  0.250000  0.500000  1
  Y  Y7  1  0.250000  0.749999  0.499999  1
  Bi  Bi8  1  0.905854  0.312198  0.218051  1
  Bi  Bi9  1  0.594146  0.812198  0.406345  1
  Bi  Bi10  1  0.405854  0.187802  0.593655  1
  Bi  Bi11  1  0.094146  0.687802  0.781948  1
