# generated using pymatgen
data_Tb16Ho4Ir11Ru
_symmetry_space_group_name_H-M   'P 1'
_cell_length_a   10.91331900
_cell_length_b   10.91331900
_cell_length_c   6.41773600
_cell_angle_alpha   90.00000000
_cell_angle_beta   90.00000000
_cell_angle_gamma   90.00000000
_symmetry_Int_Tables_number   1
_chemical_formula_structural   Tb16Ho4Ir11Ru
_chemical_formula_sum   'Tb16 Ho4 Ir11 Ru1'
_cell_volume   764.35576924
_cell_formula_units_Z   1
loop_
 _symmetry_equiv_pos_site_id
 _symmetry_equiv_pos_as_xyz
  1  'x, y, z'
loop_
 _atom_site_type_symbol
 _atom_site_label
 _atom_site_symmetry_multiplicity
 _atom_site_fract_x
 _atom_site_fract_y
 _atom_site_fract_z
 _atom_site_occupancy
  Tb  Tb0  1  0.292055  0.087112  0.376827  1
  Tb  Tb1  1  0.292353  0.912848  0.879607  1
  Tb  Tb2  1  0.707647  0.087152  0.879607  1
  Tb  Tb3  1  0.707945  0.912888  0.376827  1
  Tb  Tb4  1  0.587152  0.792353  0.879607  1
  Tb  Tb5  1  0.587112  0.207945  0.376827  1
  Tb  Tb6  1  0.412888  0.792055  0.376827  1
  Tb  Tb7  1  0.412848  0.207647  0.879607  1
  Tb  Tb8  1  0.209396  0.411842  0.621918  1
  Tb  Tb9  1  0.209372  0.588019  0.121604  1
  Tb  Tb10  1  0.790628  0.411981  0.121604  1
  Tb  Tb11  1  0.790604  0.588158  0.621918  1
  Tb  Tb12  1  0.911981  0.709372  0.121604  1
  Tb  Tb13  1  0.911842  0.290604  0.621918  1
  Tb  Tb14  1  0.088158  0.709396  0.621918  1
  Tb  Tb15  1  0.088019  0.290628  0.121604  1
  Ho  Ho16  1  0.000000  0.000000  0.499450  1
  Ho  Ho17  1  0.000000  0.000000  0.999373  1
  Ho  Ho18  1  0.500000  0.500000  0.999373  1
  Ho  Ho19  1  0.500000  0.500000  0.499450  1
  Ir  Ir20  1  0.847465  0.153286  0.250053  1
  Ir  Ir21  1  0.847557  0.847048  0.749789  1
  Ir  Ir22  1  0.152443  0.152952  0.749789  1
  Ir  Ir23  1  0.152535  0.846714  0.250053  1
  Ir  Ir24  1  0.652952  0.347557  0.749789  1
  Ir  Ir25  1  0.653286  0.652535  0.250053  1
  Ir  Ir26  1  0.346714  0.347465  0.250053  1
  Ir  Ir27  1  0.347048  0.652443  0.749789  1
  Ir  Ir28  1  0.500000  0.000000  0.622408  1
  Ir  Ir29  1  0.000000  0.500000  0.878902  1
  Ir  Ir30  1  0.000000  0.500000  0.379055  1
  Ru  Ru31  1  0.500000  0.000000  0.122809  1
