# generated using pymatgen
data_Dy5Ho4LuPb6
_symmetry_space_group_name_H-M   'P 1'
_cell_length_a   6.58691100
_cell_length_b   9.03645922
_cell_length_c   9.03907237
_cell_angle_alpha   120.00723863
_cell_angle_beta   90.00049392
_cell_angle_gamma   90.00087562
_symmetry_Int_Tables_number   1
_chemical_formula_structural   Dy5Ho4LuPb6
_chemical_formula_sum   'Dy5 Ho4 Lu1 Pb6'
_cell_volume   465.91093214
_cell_formula_units_Z   1
loop_
 _symmetry_equiv_pos_site_id
 _symmetry_equiv_pos_as_xyz
  1  'x, y, z'
loop_
 _atom_site_type_symbol
 _atom_site_label
 _atom_site_symmetry_multiplicity
 _atom_site_fract_x
 _atom_site_fract_y
 _atom_site_fract_z
 _atom_site_occupancy
  Dy  Dy0  1  0.750201  0.237083  0.999794  1
  Dy  Dy1  1  0.750214  0.762807  0.762598  1
  Dy  Dy2  1  0.750210  0.000177  0.237906  1
  Dy  Dy3  1  0.249803  0.762665  0.999775  1
  Dy  Dy4  1  0.249793  0.237322  0.237371  1
  Ho  Ho5  1  0.249792  0.999975  0.762700  1
  Ho  Ho6  1  0.499921  0.333337  0.666763  1
  Ho  Ho7  1  0.499925  0.666607  0.333168  1
  Ho  Ho8  1  0.000074  0.666630  0.333166  1
  Lu  Lu9  1  0.000048  0.333371  0.666779  1
  Pb  Pb10  1  0.750971  0.604122  0.998971  1
  Pb  Pb11  1  0.750979  0.395049  0.395945  1
  Pb  Pb12  1  0.750995  0.000977  0.604977  1
  Pb  Pb13  1  0.248990  0.394275  0.998699  1
  Pb  Pb14  1  0.249057  0.604672  0.605251  1
  Pb  Pb15  1  0.249024  0.000933  0.396137  1
