# generated using pymatgen
data_Dy6Al24Os7Rh
_symmetry_space_group_name_H-M   'P 1'
_cell_length_a   8.81791936
_cell_length_b   8.81791943
_cell_length_c   9.56591219
_cell_angle_alpha   89.74566838
_cell_angle_beta   90.25433082
_cell_angle_gamma   119.66637127
_symmetry_Int_Tables_number   1
_chemical_formula_structural   Dy6Al24Os7Rh
_chemical_formula_sum   'Dy6 Al24 Os7 Rh1'
_cell_volume   646.29945599
_cell_formula_units_Z   1
loop_
 _symmetry_equiv_pos_site_id
 _symmetry_equiv_pos_as_xyz
  1  'x, y, z'
loop_
 _atom_site_type_symbol
 _atom_site_label
 _atom_site_symmetry_multiplicity
 _atom_site_fract_x
 _atom_site_fract_y
 _atom_site_fract_z
 _atom_site_occupancy
  Dy  Dy0  1  0.190521  0.386742  0.251753  1
  Dy  Dy1  1  0.809479  0.613258  0.748247  1
  Dy  Dy2  1  0.613258  0.809479  0.251753  1
  Dy  Dy3  1  0.386742  0.190521  0.748247  1
  Dy  Dy4  1  0.194728  0.805272  0.251164  1
  Dy  Dy5  1  0.805272  0.194728  0.748836  1
  Al  Al6  1  0.332761  0.667239  0.017589  1
  Al  Al7  1  0.667239  0.332761  0.982411  1
  Al  Al8  1  0.666851  0.333149  0.516409  1
  Al  Al9  1  0.333149  0.666851  0.483591  1
  Al  Al10  1  0.163863  0.325462  0.576942  1
  Al  Al11  1  0.836137  0.674538  0.423058  1
  Al  Al12  1  0.674538  0.836137  0.576942  1
  Al  Al13  1  0.839391  0.675437  0.077391  1
  Al  Al14  1  0.325462  0.163863  0.423058  1
  Al  Al15  1  0.160609  0.324563  0.922609  1
  Al  Al16  1  0.163536  0.836464  0.575675  1
  Al  Al17  1  0.324563  0.160609  0.077391  1
  Al  Al18  1  0.836464  0.163536  0.424325  1
  Al  Al19  1  0.675437  0.839391  0.922609  1
  Al  Al20  1  0.836888  0.163112  0.075799  1
  Al  Al21  1  0.163112  0.836888  0.924201  1
  Al  Al22  1  0.560491  0.122364  0.249577  1
  Al  Al23  1  0.439509  0.877636  0.750423  1
  Al  Al24  1  0.877636  0.439509  0.249577  1
  Al  Al25  1  0.122364  0.560491  0.750423  1
  Al  Al26  1  0.560759  0.439241  0.250084  1
  Al  Al27  1  0.439241  0.560759  0.749916  1
  Al  Al28  1  0.999659  0.000341  0.250157  1
  Al  Al29  1  0.000341  0.999659  0.749843  1
  Os  Os30  1  0.500000  0.000000  0.000000  1
  Os  Os31  1  0.000000  0.500000  0.000000  1
  Os  Os32  1  0.500000  0.000000  0.500000  1
  Os  Os33  1  0.000000  0.500000  0.500000  1
  Os  Os34  1  0.500000  0.500000  0.500000  1
  Os  Os35  1  0.000000  0.000000  0.000000  1
  Os  Os36  1  0.000000  0.000000  0.500000  1
  Rh  Rh37  1  0.500000  0.500000  0.000000  1
