# generated using pymatgen
data_NaCe2ErF11
_symmetry_space_group_name_H-M   'P 1'
_cell_length_a   6.14859193
_cell_length_b   6.14859019
_cell_length_c   8.63847200
_cell_angle_alpha   69.02171472
_cell_angle_beta   69.02172096
_cell_angle_gamma   72.62159976
_symmetry_Int_Tables_number   1
_chemical_formula_structural   NaCe2ErF11
_chemical_formula_sum   'Na1 Ce2 Er1 F11'
_cell_volume   279.22169896
_cell_formula_units_Z   1
loop_
 _symmetry_equiv_pos_site_id
 _symmetry_equiv_pos_as_xyz
  1  'x, y, z'
loop_
 _atom_site_type_symbol
 _atom_site_label
 _atom_site_symmetry_multiplicity
 _atom_site_fract_x
 _atom_site_fract_y
 _atom_site_fract_z
 _atom_site_occupancy
  Na  Na0  1  0.000000  0.000000  0.000000  1
  Ce  Ce1  1  0.501769  0.501769  0.229049  1
  Ce  Ce2  1  0.498231  0.498231  0.770951  1
  Er  Er3  1  0.000000  0.000000  0.500000  1
  F  F4  1  0.184089  0.791255  0.317166  1
  F  F5  1  0.208745  0.815911  0.682834  1
  F  F6  1  0.815911  0.208745  0.682834  1
  F  F7  1  0.791255  0.184089  0.317166  1
  F  F8  1  0.500000  0.500000  0.500000  1
  F  F9  1  0.677499  0.322501  0.000000  1
  F  F10  1  0.322501  0.677499  0.000000  1
  F  F11  1  0.756125  0.756125  0.642289  1
  F  F12  1  0.243875  0.243875  0.357711  1
  F  F13  1  0.741375  0.741375  0.107765  1
  F  F14  1  0.258625  0.258625  0.892235  1
