# generated using pymatgen
data_MnCr3Fe8(Mo3N)4
_symmetry_space_group_name_H-M   'P 1'
_cell_length_a   7.80895217
_cell_length_b   7.82587756
_cell_length_c   7.80895300
_cell_angle_alpha   60.07151805
_cell_angle_beta   60.00000070
_cell_angle_gamma   60.07152025
_symmetry_Int_Tables_number   1
_chemical_formula_structural   MnCr3Fe8(Mo3N)4
_chemical_formula_sum   'Mn1 Cr3 Fe8 Mo12 N4'
_cell_volume   337.80980994
_cell_formula_units_Z   1
loop_
 _symmetry_equiv_pos_site_id
 _symmetry_equiv_pos_as_xyz
  1  'x, y, z'
loop_
 _atom_site_type_symbol
 _atom_site_label
 _atom_site_symmetry_multiplicity
 _atom_site_fract_x
 _atom_site_fract_y
 _atom_site_fract_z
 _atom_site_occupancy
  Mn  Mn0  1  0.625000  0.125000  0.625000  1
  Cr  Cr1  1  0.125000  0.625000  0.625000  1
  Cr  Cr2  1  0.625000  0.625000  0.125000  1
  Cr  Cr3  1  0.625000  0.625000  0.625000  1
  Fe  Fe4  1  0.732539  0.422299  0.422580  1
  Fe  Fe5  1  0.421735  0.734797  0.421735  1
  Fe  Fe6  1  0.422580  0.422299  0.732539  1
  Fe  Fe7  1  0.422580  0.422299  0.422580  1
  Fe  Fe8  1  0.517461  0.827701  0.827420  1
  Fe  Fe9  1  0.828265  0.515203  0.828265  1
  Fe  Fe10  1  0.827420  0.827701  0.517461  1
  Fe  Fe11  1  0.827420  0.827701  0.827420  1
  Mo  Mo12  1  0.799685  0.800261  0.200027  1
  Mo  Mo13  1  0.203096  0.200329  0.798287  1
  Mo  Mo14  1  0.798287  0.200329  0.798287  1
  Mo  Mo15  1  0.200027  0.800261  0.200027  1
  Mo  Mo16  1  0.200027  0.800261  0.799685  1
  Mo  Mo17  1  0.798287  0.200329  0.203096  1
  Mo  Mo18  1  0.450315  0.449739  0.049973  1
  Mo  Mo19  1  0.046904  0.049671  0.451713  1
  Mo  Mo20  1  0.451713  0.049671  0.451713  1
  Mo  Mo21  1  0.049973  0.449739  0.049973  1
  Mo  Mo22  1  0.049973  0.449739  0.450315  1
  Mo  Mo23  1  0.451713  0.049671  0.046904  1
  N  N24  1  0.625000  0.125000  0.125000  1
  N  N25  1  0.125000  0.625000  0.125000  1
  N  N26  1  0.125000  0.125000  0.625000  1
  N  N27  1  0.125000  0.125000  0.125000  1
