# generated using pymatgen
data_Cs6CeBiBr12
_symmetry_space_group_name_H-M   'P 1'
_cell_length_a   10.10206985
_cell_length_b   10.09642888
_cell_length_c   8.39052400
_cell_angle_alpha   90.00000000
_cell_angle_beta   90.00000000
_cell_angle_gamma   90.18987883
_symmetry_Int_Tables_number   1
_chemical_formula_structural   Cs6CeBiBr12
_chemical_formula_sum   'Cs6 Ce1 Bi1 Br12'
_cell_volume   855.78536766
_cell_formula_units_Z   1
loop_
 _symmetry_equiv_pos_site_id
 _symmetry_equiv_pos_as_xyz
  1  'x, y, z'
loop_
 _atom_site_type_symbol
 _atom_site_label
 _atom_site_symmetry_multiplicity
 _atom_site_fract_x
 _atom_site_fract_y
 _atom_site_fract_z
 _atom_site_occupancy
  Cs  Cs0  1  0.000000  0.000000  0.500000  1
  Cs  Cs1  1  0.000000  0.000000  0.000000  1
  Cs  Cs2  1  0.234509  0.586115  0.500000  1
  Cs  Cs3  1  0.765491  0.413885  0.500000  1
  Cs  Cs4  1  0.414527  0.233969  0.000000  1
  Cs  Cs5  1  0.585473  0.766031  0.000000  1
  Ce  Ce6  1  0.000000  0.500000  0.000000  1
  Bi  Bi7  1  0.500000  0.000000  0.500000  1
  Br  Br8  1  0.695561  0.060061  0.744242  1
  Br  Br9  1  0.304439  0.939939  0.744242  1
  Br  Br10  1  0.940167  0.697718  0.246205  1
  Br  Br11  1  0.059833  0.302282  0.246205  1
  Br  Br12  1  0.304439  0.939939  0.255758  1
  Br  Br13  1  0.695561  0.060061  0.255758  1
  Br  Br14  1  0.059833  0.302282  0.753795  1
  Br  Br15  1  0.940167  0.697718  0.753795  1
  Br  Br16  1  0.569265  0.722613  0.500000  1
  Br  Br17  1  0.430735  0.277387  0.500000  1
  Br  Br18  1  0.279501  0.570134  0.000000  1
  Br  Br19  1  0.720499  0.429866  0.000000  1
