# generated using pymatgen
data_TbHf2Zr(Al3Ir)6
_symmetry_space_group_name_H-M   'P 1'
_cell_length_a   7.48722501
_cell_length_b   7.47876776
_cell_length_c   9.29267000
_cell_angle_alpha   90.00000000
_cell_angle_beta   90.00000000
_cell_angle_gamma   119.79515476
_symmetry_Int_Tables_number   1
_chemical_formula_structural   TbHf2Zr(Al3Ir)6
_chemical_formula_sum   'Tb1 Hf2 Zr1 Al18 Ir6'
_cell_volume   451.55934513
_cell_formula_units_Z   1
loop_
 _symmetry_equiv_pos_site_id
 _symmetry_equiv_pos_as_xyz
  1  'x, y, z'
loop_
 _atom_site_type_symbol
 _atom_site_label
 _atom_site_symmetry_multiplicity
 _atom_site_fract_x
 _atom_site_fract_y
 _atom_site_fract_z
 _atom_site_occupancy
  Tb  Tb0  1  0.329433  0.005647  0.750000  1
  Hf  Hf1  1  0.994113  0.671627  0.250000  1
  Hf  Hf2  1  0.672051  0.994569  0.250000  1
  Zr  Zr3  1  0.005332  0.329464  0.750000  1
  Al  Al4  1  0.123277  0.124572  0.250000  1
  Al  Al5  1  0.871651  0.875208  0.750000  1
  Al  Al6  1  0.997652  0.334626  0.077736  1
  Al  Al7  1  0.999565  0.662829  0.926283  1
  Al  Al8  1  0.999565  0.662829  0.573717  1
  Al  Al9  1  0.334890  0.998083  0.418826  1
  Al  Al10  1  0.997652  0.334626  0.422264  1
  Al  Al11  1  0.668012  0.001819  0.573771  1
  Al  Al12  1  0.668012  0.001819  0.926229  1
  Al  Al13  1  0.334890  0.998083  0.081174  1
  Al  Al14  1  0.331432  0.333797  0.555101  1
  Al  Al15  1  0.668177  0.668168  0.439122  1
  Al  Al16  1  0.668177  0.668168  0.060878  1
  Al  Al17  1  0.331432  0.333797  0.944899  1
  Al  Al18  1  0.338392  0.552449  0.250000  1
  Al  Al19  1  0.666389  0.452855  0.750000  1
  Al  Al20  1  0.553504  0.339667  0.250000  1
  Al  Al21  1  0.447345  0.656472  0.750000  1
  Ir  Ir22  1  0.672913  0.327965  0.001989  1
  Ir  Ir23  1  0.328276  0.673508  0.002238  1
  Ir  Ir24  1  0.328276  0.673508  0.497762  1
  Ir  Ir25  1  0.672913  0.327965  0.498011  1
  Ir  Ir26  1  0.998340  0.997941  0.002444  1
  Ir  Ir27  1  0.998340  0.997941  0.497556  1
