# generated using pymatgen
data_DyY(MgIn2)2
_symmetry_space_group_name_H-M   'P 1'
_cell_length_a   6.47818986
_cell_length_b   6.47819009
_cell_length_c   4.62365100
_cell_angle_alpha   90.00000000
_cell_angle_beta   90.00000000
_cell_angle_gamma   91.50184311
_symmetry_Int_Tables_number   1
_chemical_formula_structural   DyY(MgIn2)2
_chemical_formula_sum   'Dy1 Y1 Mg2 In4'
_cell_volume   193.97385240
_cell_formula_units_Z   1
loop_
 _symmetry_equiv_pos_site_id
 _symmetry_equiv_pos_as_xyz
  1  'x, y, z'
loop_
 _atom_site_type_symbol
 _atom_site_label
 _atom_site_symmetry_multiplicity
 _atom_site_fract_x
 _atom_site_fract_y
 _atom_site_fract_z
 _atom_site_occupancy
  Dy  Dy0  1  0.000000  0.000000  0.500000  1
  Y  Y1  1  0.500000  0.500000  0.500000  1
  Mg  Mg2  1  0.751886  0.248114  0.000000  1
  Mg  Mg3  1  0.248114  0.751886  0.000000  1
  In  In4  1  0.500000  0.000000  0.500000  1
  In  In5  1  0.000000  0.500000  0.500000  1
  In  In6  1  0.750774  0.750774  0.000000  1
  In  In7  1  0.249226  0.249226  0.000000  1
