# generated using pymatgen
data_Ce4LuGa2Os3
_symmetry_space_group_name_H-M   'P 1'
_cell_length_a   8.42515279
_cell_length_b   8.44914389
_cell_length_c   8.33436300
_cell_angle_alpha   109.73909926
_cell_angle_beta   109.46465495
_cell_angle_gamma   110.34495171
_symmetry_Int_Tables_number   1
_chemical_formula_structural   Ce4LuGa2Os3
_chemical_formula_sum   'Ce8 Lu2 Ga4 Os6'
_cell_volume   450.17854561
_cell_formula_units_Z   2
loop_
 _symmetry_equiv_pos_site_id
 _symmetry_equiv_pos_as_xyz
  1  'x, y, z'
loop_
 _atom_site_type_symbol
 _atom_site_label
 _atom_site_symmetry_multiplicity
 _atom_site_fract_x
 _atom_site_fract_y
 _atom_site_fract_z
 _atom_site_occupancy
  Ce  Ce0  1  0.754759  0.315407  0.561736  1
  Ce  Ce1  1  0.561771  0.752106  0.309761  1
  Ce  Ce2  1  0.714425  0.502150  0.996989  1
  Ce  Ce3  1  0.007761  0.721458  0.511152  1
  Ce  Ce4  1  0.507273  0.001527  0.718998  1
  Ce  Ce5  1  0.243735  0.186344  0.937516  1
  Ce  Ce6  1  0.939029  0.247931  0.186727  1
  Ce  Ce7  1  0.186837  0.938503  0.245179  1
  Lu  Lu8  1  0.767779  0.771915  0.771633  1
  Lu  Lu9  1  0.319764  0.568189  0.751975  1
  Ga  Ga10  1  0.400094  0.398719  0.403099  1
  Ga  Ga11  1  0.103805  0.501447  0.998070  1
  Ga  Ga12  1  0.004956  0.107414  0.503349  1
  Ga  Ga13  1  0.495263  0.995972  0.096403  1
  Os  Os14  1  0.871312  0.120146  0.749119  1
  Os  Os15  1  0.745157  0.874357  0.122236  1
  Os  Os16  1  0.112576  0.750715  0.877612  1
  Os  Os17  1  0.255453  0.625722  0.382021  1
  Os  Os18  1  0.379099  0.240515  0.625053  1
  Os  Os19  1  0.629150  0.379463  0.251370  1
