# generated using pymatgen
data_Y7ErSc12Si15Sn
_symmetry_space_group_name_H-M   'P 1'
_cell_length_a   7.13082219
_cell_length_b   7.41687376
_cell_length_c   14.06845945
_cell_angle_alpha   89.99562400
_cell_angle_beta   89.59140751
_cell_angle_gamma   90.04674842
_symmetry_Int_Tables_number   1
_chemical_formula_structural   Y7ErSc12Si15Sn
_chemical_formula_sum   'Y7 Er1 Sc12 Si15 Sn1'
_cell_volume   744.03925314
_cell_formula_units_Z   1
loop_
 _symmetry_equiv_pos_site_id
 _symmetry_equiv_pos_as_xyz
  1  'x, y, z'
loop_
 _atom_site_type_symbol
 _atom_site_label
 _atom_site_symmetry_multiplicity
 _atom_site_fract_x
 _atom_site_fract_y
 _atom_site_fract_z
 _atom_site_occupancy
  Y  Y0  1  0.010522  0.175802  0.096381  1
  Y  Y1  1  0.989144  0.824895  0.904395  1
  Y  Y2  1  0.489889  0.675896  0.904585  1
  Y  Y3  1  0.990211  0.830172  0.598301  1
  Y  Y4  1  0.509939  0.324226  0.096679  1
  Y  Y5  1  0.005123  0.169573  0.399321  1
  Y  Y6  1  0.512224  0.320609  0.399647  1
  Er  Er7  1  0.501954  0.684750  0.600442  1
  Sc  Sc8  1  0.163528  0.501779  0.754973  1
  Sc  Sc9  1  0.836240  0.498320  0.249055  1
  Sc  Sc10  1  0.336330  0.002009  0.249249  1
  Sc  Sc11  1  0.665056  0.997778  0.751670  1
  Sc  Sc12  1  0.344215  0.162670  0.631026  1
  Sc  Sc13  1  0.662934  0.824522  0.372563  1
  Sc  Sc14  1  0.162382  0.683435  0.369006  1
  Sc  Sc15  1  0.666603  0.822825  0.124268  1
  Sc  Sc16  1  0.824103  0.323871  0.626796  1
  Sc  Sc17  1  0.331709  0.176091  0.875406  1
  Sc  Sc18  1  0.832109  0.323232  0.875423  1
  Sc  Sc19  1  0.167663  0.676846  0.125126  1
  Si  Si20  1  0.036096  0.119171  0.751223  1
  Si  Si21  1  0.961748  0.884669  0.246757  1
  Si  Si22  1  0.463955  0.615791  0.248520  1
  Si  Si23  1  0.534067  0.385533  0.752024  1
  Si  Si24  1  0.288547  0.870098  0.752057  1
  Si  Si25  1  0.711150  0.125764  0.247412  1
  Si  Si26  1  0.210995  0.373429  0.249056  1
  Si  Si27  1  0.789849  0.627803  0.751244  1
  Si  Si28  1  0.830064  0.539598  0.458825  1
  Si  Si29  1  0.338271  0.962628  0.460578  1
  Si  Si30  1  0.841776  0.535253  0.039377  1
  Si  Si31  1  0.662171  0.036821  0.538189  1
  Si  Si32  1  0.157047  0.464319  0.961538  1
  Si  Si33  1  0.657338  0.035889  0.960804  1
  Si  Si34  1  0.341323  0.964880  0.039730  1
  Sn  Sn35  1  0.173726  0.459051  0.538354  1
