# generated using pymatgen
data_La3Cd3Pd2Ru
_symmetry_space_group_name_H-M   'P 1'
_cell_length_a   7.74304800
_cell_length_b   7.74304827
_cell_length_c   4.15810700
_cell_angle_alpha   90.00000000
_cell_angle_beta   90.00000000
_cell_angle_gamma   120.00000741
_symmetry_Int_Tables_number   1
_chemical_formula_structural   La3Cd3Pd2Ru
_chemical_formula_sum   'La3 Cd3 Pd2 Ru1'
_cell_volume   215.89877490
_cell_formula_units_Z   1
loop_
 _symmetry_equiv_pos_site_id
 _symmetry_equiv_pos_as_xyz
  1  'x, y, z'
loop_
 _atom_site_type_symbol
 _atom_site_label
 _atom_site_symmetry_multiplicity
 _atom_site_fract_x
 _atom_site_fract_y
 _atom_site_fract_z
 _atom_site_occupancy
  La  La0  1  0.420883  0.404172  0.500000  1
  La  La1  1  0.595828  0.016711  0.500000  1
  La  La2  1  0.983289  0.579117  0.500000  1
  Cd  Cd3  1  0.751651  0.752399  0.000000  1
  Cd  Cd4  1  0.247601  0.999252  0.000000  1
  Cd  Cd5  1  0.000748  0.248349  0.000000  1
  Pd  Pd6  1  0.333333  0.666667  0.000000  1
  Pd  Pd7  1  0.000000  0.000000  0.500000  1
  Ru  Ru8  1  0.666667  0.333333  0.000000  1
