# generated using pymatgen
data_RbPr6RhBr12
_symmetry_space_group_name_H-M   'P 1'
_cell_length_a   9.74492395
_cell_length_b   9.58296233
_cell_length_c   9.62863522
_cell_angle_alpha   104.54686402
_cell_angle_beta   104.64392983
_cell_angle_gamma   104.47744552
_symmetry_Int_Tables_number   1
_chemical_formula_structural   RbPr6RhBr12
_chemical_formula_sum   'Rb1 Pr6 Rh1 Br12'
_cell_volume   793.49118137
_cell_formula_units_Z   1
loop_
 _symmetry_equiv_pos_site_id
 _symmetry_equiv_pos_as_xyz
  1  'x, y, z'
loop_
 _atom_site_type_symbol
 _atom_site_label
 _atom_site_symmetry_multiplicity
 _atom_site_fract_x
 _atom_site_fract_y
 _atom_site_fract_z
 _atom_site_occupancy
  Rb  Rb0  1  0.500000  0.500000  0.500000  1
  Pr  Pr1  1  0.100040  0.304343  0.010057  1
  Pr  Pr2  1  0.316094  0.009371  0.105159  1
  Pr  Pr3  1  0.008595  0.100425  0.302778  1
  Pr  Pr4  1  0.991406  0.899575  0.697223  1
  Pr  Pr5  1  0.683906  0.990630  0.894841  1
  Pr  Pr6  1  0.899960  0.695657  0.989943  1
  Rh  Rh7  1  0.000000  0.000000  0.000000  1
  Br  Br8  1  0.214030  0.672988  0.074857  1
  Br  Br9  1  0.424332  0.334001  0.113870  1
  Br  Br10  1  0.674177  0.076297  0.215634  1
  Br  Br11  1  0.924985  0.784274  0.326188  1
  Br  Br12  1  0.115796  0.427916  0.334470  1
  Br  Br13  1  0.330314  0.113334  0.424451  1
  Br  Br14  1  0.669686  0.886666  0.575550  1
  Br  Br15  1  0.884205  0.572084  0.665530  1
  Br  Br16  1  0.075016  0.215726  0.673813  1
  Br  Br17  1  0.325824  0.923704  0.784366  1
  Br  Br18  1  0.575668  0.665999  0.886131  1
  Br  Br19  1  0.785970  0.327012  0.925143  1
