# generated using pymatgen
data_Tm2Ga4Tc3
_symmetry_space_group_name_H-M   'P 1'
_cell_length_a   6.93455100
_cell_length_b   6.84501122
_cell_length_c   6.90868550
_cell_angle_alpha   70.79639361
_cell_angle_beta   90.00000000
_cell_angle_gamma   90.00000000
_symmetry_Int_Tables_number   1
_chemical_formula_structural   Tm2Ga4Tc3
_chemical_formula_sum   'Tm4 Ga8 Tc6'
_cell_volume   309.68739258
_cell_formula_units_Z   2
loop_
 _symmetry_equiv_pos_site_id
 _symmetry_equiv_pos_as_xyz
  1  'x, y, z'
loop_
 _atom_site_type_symbol
 _atom_site_label
 _atom_site_symmetry_multiplicity
 _atom_site_fract_x
 _atom_site_fract_y
 _atom_site_fract_z
 _atom_site_occupancy
  Tm  Tm0  1  0.332026  0.549667  0.811825  1
  Tm  Tm1  1  0.832026  0.950333  0.188175  1
  Tm  Tm2  1  0.667974  0.450333  0.188175  1
  Tm  Tm3  1  0.167974  0.049667  0.811825  1
  Ga  Ga4  1  0.548676  0.864138  0.907930  1
  Ga  Ga5  1  0.048676  0.635862  0.092070  1
  Ga  Ga6  1  0.451324  0.135862  0.092070  1
  Ga  Ga7  1  0.951324  0.364138  0.907930  1
  Ga  Ga8  1  0.138602  0.864128  0.495289  1
  Ga  Ga9  1  0.638602  0.635872  0.504711  1
  Ga  Ga10  1  0.861398  0.135872  0.504711  1
  Ga  Ga11  1  0.361398  0.364128  0.495289  1
  Tc  Tc12  1  0.500000  0.000000  0.500000  1
  Tc  Tc13  1  0.000000  0.500000  0.500000  1
  Tc  Tc14  1  0.843145  0.751009  0.748379  1
  Tc  Tc15  1  0.343145  0.748991  0.251621  1
  Tc  Tc16  1  0.156855  0.248991  0.251621  1
  Tc  Tc17  1  0.656855  0.251009  0.748379  1
