# generated using pymatgen
data_PaBe12Ni
_symmetry_space_group_name_H-M   'P 1'
_cell_length_a   7.25309415
_cell_length_b   7.31020611
_cell_length_c   7.22637652
_cell_angle_alpha   59.85840873
_cell_angle_beta   59.82791242
_cell_angle_gamma   59.49688667
_symmetry_Int_Tables_number   1
_chemical_formula_structural   PaBe12Ni
_chemical_formula_sum   'Pa2 Be24 Ni2'
_cell_volume   269.24898512
_cell_formula_units_Z   2
loop_
 _symmetry_equiv_pos_site_id
 _symmetry_equiv_pos_as_xyz
  1  'x, y, z'
loop_
 _atom_site_type_symbol
 _atom_site_label
 _atom_site_symmetry_multiplicity
 _atom_site_fract_x
 _atom_site_fract_y
 _atom_site_fract_z
 _atom_site_occupancy
  Pa  Pa0  1  0.246480  0.253520  0.246480  1
  Pa  Pa1  1  0.753520  0.746480  0.753520  1
  Be  Be2  1  0.500000  0.500000  0.500000  1
  Be  Be3  1  0.000000  0.000000  0.000000  1
  Be  Be4  1  0.565435  0.790539  0.434565  1
  Be  Be5  1  0.434565  0.209461  0.565435  1
  Be  Be6  1  0.293487  0.938746  0.706513  1
  Be  Be7  1  0.706513  0.061254  0.293487  1
  Be  Be8  1  0.933543  0.281794  0.066457  1
  Be  Be9  1  0.066457  0.718206  0.933543  1
  Be  Be10  1  0.206234  0.798521  0.556552  1
  Be  Be11  1  0.793766  0.201479  0.443448  1
  Be  Be12  1  0.443448  0.561307  0.793766  1
  Be  Be13  1  0.556552  0.438693  0.206234  1
  Be  Be14  1  0.710059  0.286130  0.938616  1
  Be  Be15  1  0.289941  0.713870  0.061384  1
  Be  Be16  1  0.061384  0.934805  0.289941  1
  Be  Be17  1  0.938616  0.065195  0.710059  1
  Be  Be18  1  0.561109  0.204671  0.794599  1
  Be  Be19  1  0.438891  0.795329  0.205401  1
  Be  Be20  1  0.794599  0.439622  0.561109  1
  Be  Be21  1  0.205401  0.560378  0.438891  1
  Be  Be22  1  0.938399  0.711747  0.288781  1
  Be  Be23  1  0.061601  0.288253  0.711219  1
  Be  Be24  1  0.288781  0.061072  0.938399  1
  Be  Be25  1  0.711219  0.938928  0.061601  1
  Ni  Ni26  1  0.802437  0.555564  0.197563  1
  Ni  Ni27  1  0.197563  0.444436  0.802437  1
