# generated using pymatgen
data_Tb5MnFeO12
_symmetry_space_group_name_H-M   'P 1'
_cell_length_a   6.81833575
_cell_length_b   6.81833699
_cell_length_c   7.24660100
_cell_angle_alpha   74.59217454
_cell_angle_beta   74.59217302
_cell_angle_gamma   50.58764358
_symmetry_Int_Tables_number   1
_chemical_formula_structural   Tb5MnFeO12
_chemical_formula_sum   'Tb5 Mn1 Fe1 O12'
_cell_volume   248.79003909
_cell_formula_units_Z   1
loop_
 _symmetry_equiv_pos_site_id
 _symmetry_equiv_pos_as_xyz
  1  'x, y, z'
loop_
 _atom_site_type_symbol
 _atom_site_label
 _atom_site_symmetry_multiplicity
 _atom_site_fract_x
 _atom_site_fract_y
 _atom_site_fract_z
 _atom_site_occupancy
  Tb  Tb0  1  0.692705  0.696859  0.663719  1
  Tb  Tb1  1  0.697930  0.695458  0.142566  1
  Tb  Tb2  1  0.003146  0.996854  0.000000  1
  Tb  Tb3  1  0.304542  0.302070  0.857434  1
  Tb  Tb4  1  0.303141  0.307295  0.336281  1
  Mn  Mn5  1  0.755739  0.244261  0.500000  1
  Fe  Fe6  1  0.244020  0.755980  0.500000  1
  O  O7  1  0.401685  0.902755  0.925587  1
  O  O8  1  0.577963  0.099491  0.579181  1
  O  O9  1  0.900509  0.422037  0.420819  1
  O  O10  1  0.097245  0.598315  0.074413  1
  O  O11  1  0.004305  0.996641  0.323889  1
  O  O12  1  0.497423  0.502740  0.677404  1
  O  O13  1  0.902870  0.402940  0.922602  1
  O  O14  1  0.101230  0.582134  0.579629  1
  O  O15  1  0.417866  0.898770  0.420371  1
  O  O16  1  0.597060  0.097130  0.077398  1
  O  O17  1  0.497260  0.502577  0.322596  1
  O  O18  1  0.003359  0.995695  0.676111  1
