# generated using pymatgen
data_Li2Dy3GaSi2Ag
_symmetry_space_group_name_H-M   'P 1'
_cell_length_a   7.11462145
_cell_length_b   7.14988511
_cell_length_c   4.16673500
_cell_angle_alpha   90.00000000
_cell_angle_beta   90.00000000
_cell_angle_gamma   120.16409234
_symmetry_Int_Tables_number   1
_chemical_formula_structural   Li2Dy3GaSi2Ag
_chemical_formula_sum   'Li2 Dy3 Ga1 Si2 Ag1'
_cell_volume   183.25544527
_cell_formula_units_Z   1
loop_
 _symmetry_equiv_pos_site_id
 _symmetry_equiv_pos_as_xyz
  1  'x, y, z'
loop_
 _atom_site_type_symbol
 _atom_site_label
 _atom_site_symmetry_multiplicity
 _atom_site_fract_x
 _atom_site_fract_y
 _atom_site_fract_z
 _atom_site_occupancy
  Li  Li0  1  0.752016  0.756069  0.000000  1
  Li  Li1  1  0.247984  0.004055  0.000000  1
  Dy  Dy2  1  0.426268  0.426612  0.500000  1
  Dy  Dy3  1  0.573732  0.000344  0.500000  1
  Dy  Dy4  1  0.000000  0.570912  0.500000  1
  Ga  Ga5  1  0.000000  0.992417  0.500000  1
  Si  Si6  1  0.664261  0.333579  0.000000  1
  Si  Si7  1  0.335739  0.669318  0.000000  1
  Ag  Ag8  1  0.000000  0.246693  0.000000  1
