# generated using pymatgen
data_Ce4DyEr3(ReB6)4
_symmetry_space_group_name_H-M   'P 1'
_cell_length_a   3.71889000
_cell_length_b   9.19221913
_cell_length_c   11.58118616
_cell_angle_alpha   90.01909610
_cell_angle_beta   90.00000000
_cell_angle_gamma   90.00000000
_symmetry_Int_Tables_number   1
_chemical_formula_structural   Ce4DyEr3(ReB6)4
_chemical_formula_sum   'Ce4 Dy1 Er3 Re4 B24'
_cell_volume   395.90111049
_cell_formula_units_Z   1
loop_
 _symmetry_equiv_pos_site_id
 _symmetry_equiv_pos_as_xyz
  1  'x, y, z'
loop_
 _atom_site_type_symbol
 _atom_site_label
 _atom_site_symmetry_multiplicity
 _atom_site_fract_x
 _atom_site_fract_y
 _atom_site_fract_z
 _atom_site_occupancy
  Ce  Ce0  1  0.000000  0.323051  0.414543  1
  Ce  Ce1  1  0.000000  0.676715  0.586203  1
  Ce  Ce2  1  0.000000  0.822525  0.085562  1
  Ce  Ce3  1  0.000000  0.177591  0.913827  1
  Dy  Dy4  1  0.000000  0.944519  0.372918  1
  Er  Er5  1  0.000000  0.055455  0.627433  1
  Er  Er6  1  0.000000  0.444524  0.127009  1
  Er  Er7  1  0.000000  0.555669  0.872707  1
  Re  Re8  1  0.000000  0.637969  0.320760  1
  Re  Re9  1  0.000000  0.361072  0.679583  1
  Re  Re10  1  0.000000  0.139275  0.178952  1
  Re  Re11  1  0.000000  0.861221  0.820659  1
  B  B12  1  0.500000  0.554168  0.431623  1
  B  B13  1  0.500000  0.445258  0.568713  1
  B  B14  1  0.500000  0.054940  0.068131  1
  B  B15  1  0.500000  0.945500  0.931435  1
  B  B16  1  0.500000  0.748290  0.418664  1
  B  B17  1  0.500000  0.250926  0.581651  1
  B  B18  1  0.500000  0.249513  0.081220  1
  B  B19  1  0.500000  0.750861  0.918488  1
  B  B20  1  0.500000  0.791118  0.266008  1
  B  B21  1  0.500000  0.208184  0.733984  1
  B  B22  1  0.500000  0.292292  0.233676  1
  B  B23  1  0.500000  0.708120  0.766210  1
  B  B24  1  0.500000  0.631166  0.185653  1
  B  B25  1  0.500000  0.368643  0.814317  1
  B  B26  1  0.500000  0.132309  0.313895  1
  B  B27  1  0.500000  0.868340  0.685842  1
  B  B28  1  0.500000  0.984213  0.212737  1
  B  B29  1  0.500000  0.016291  0.786771  1
  B  B30  1  0.500000  0.483431  0.286643  1
  B  B31  1  0.500000  0.516242  0.713350  1
  B  B32  1  0.500000  0.605179  0.028909  1
  B  B33  1  0.500000  0.395012  0.970834  1
  B  B34  1  0.500000  0.106840  0.471176  1
  B  B35  1  0.500000  0.893580  0.529911  1
