# generated using pymatgen
data_TiMoP4(PbO8)2
_symmetry_space_group_name_H-M   'P 1'
_cell_length_a   5.27568264
_cell_length_b   8.36705180
_cell_length_c   8.89013639
_cell_angle_alpha   114.92390854
_cell_angle_beta   107.01280137
_cell_angle_gamma   89.69922707
_symmetry_Int_Tables_number   1
_chemical_formula_structural   TiMoP4(PbO8)2
_chemical_formula_sum   'Ti1 Mo1 P4 Pb2 O16'
_cell_volume   337.13865395
_cell_formula_units_Z   1
loop_
 _symmetry_equiv_pos_site_id
 _symmetry_equiv_pos_as_xyz
  1  'x, y, z'
loop_
 _atom_site_type_symbol
 _atom_site_label
 _atom_site_symmetry_multiplicity
 _atom_site_fract_x
 _atom_site_fract_y
 _atom_site_fract_z
 _atom_site_occupancy
  Ti  Ti0  1  0.499999  0.500000  0.500000  1
  Mo  Mo1  1  0.000000  0.000000  0.500000  1
  P  P2  1  0.907591  0.262508  0.287616  1
  P  P3  1  0.379774  0.752515  0.283585  1
  P  P4  1  0.620226  0.247484  0.716414  1
  P  P5  1  0.092409  0.737492  0.712383  1
  Pb  Pb6  1  0.343214  0.253758  0.002792  1
  Pb  Pb7  1  0.656786  0.746242  0.997208  1
  O  O8  1  0.765663  0.117886  0.102744  1
  O  O9  1  0.338258  0.605030  0.099050  1
  O  O10  1  0.169787  0.357569  0.297088  1
  O  O11  1  0.117365  0.842046  0.288062  1
  O  O12  1  0.708944  0.401515  0.336787  1
  O  O13  1  0.608348  0.896537  0.323977  1
  O  O14  1  0.992091  0.196546  0.430766  1
  O  O15  1  0.445899  0.686257  0.427195  1
  O  O16  1  0.554100  0.313742  0.572805  1
  O  O17  1  0.007910  0.803455  0.569234  1
  O  O18  1  0.391652  0.103463  0.676022  1
  O  O19  1  0.291055  0.598484  0.663212  1
  O  O20  1  0.882634  0.157954  0.711939  1
  O  O21  1  0.830214  0.642432  0.702913  1
  O  O22  1  0.661743  0.394971  0.900951  1
  O  O23  1  0.234336  0.882114  0.897257  1
