# generated using pymatgen
data_Ho2ScSi2Ag3Ge
_symmetry_space_group_name_H-M   'P 1'
_cell_length_a   6.96846174
_cell_length_b   7.03686841
_cell_length_c   4.14227500
_cell_angle_alpha   90.00000000
_cell_angle_beta   90.00000000
_cell_angle_gamma   120.27981646
_symmetry_Int_Tables_number   1
_chemical_formula_structural   Ho2ScSi2Ag3Ge
_chemical_formula_sum   'Ho2 Sc1 Si2 Ag3 Ge1'
_cell_volume   175.41003979
_cell_formula_units_Z   1
loop_
 _symmetry_equiv_pos_site_id
 _symmetry_equiv_pos_as_xyz
  1  'x, y, z'
loop_
 _atom_site_type_symbol
 _atom_site_label
 _atom_site_symmetry_multiplicity
 _atom_site_fract_x
 _atom_site_fract_y
 _atom_site_fract_z
 _atom_site_occupancy
  Ho  Ho0  1  0.418225  0.418660  0.000000  1
  Ho  Ho1  1  0.582958  0.003067  0.000000  1
  Sc  Sc2  1  0.998030  0.583786  0.000000  1
  Si  Si3  1  0.676971  0.340669  0.500000  1
  Si  Si4  1  0.999968  0.990012  0.000000  1
  Ag  Ag5  1  0.754631  0.747137  0.500000  1
  Ag  Ag6  1  0.252512  0.007125  0.500000  1
  Ag  Ag7  1  0.993160  0.245475  0.500000  1
  Ge  Ge8  1  0.323546  0.664067  0.500000  1
