# generated using pymatgen
data_Ho5Co11Si3P9Ru8
_symmetry_space_group_name_H-M   'P 1'
_cell_length_a   12.26074135
_cell_length_b   12.28499072
_cell_length_c   3.74571800
_cell_angle_alpha   90.00000000
_cell_angle_beta   90.00000000
_cell_angle_gamma   119.88763654
_symmetry_Int_Tables_number   1
_chemical_formula_structural   Ho5Co11Si3P9Ru8
_chemical_formula_sum   'Ho5 Co11 Si3 P9 Ru8'
_cell_volume   489.15656880
_cell_formula_units_Z   1
loop_
 _symmetry_equiv_pos_site_id
 _symmetry_equiv_pos_as_xyz
  1  'x, y, z'
loop_
 _atom_site_type_symbol
 _atom_site_label
 _atom_site_symmetry_multiplicity
 _atom_site_fract_x
 _atom_site_fract_y
 _atom_site_fract_z
 _atom_site_occupancy
  Ho  Ho0  1  0.666497  0.333359  0.000000  1
  Ho  Ho1  1  0.329253  0.663403  0.000000  1
  Ho  Ho2  1  0.819538  0.816890  0.500000  1
  Ho  Ho3  1  0.182035  0.002459  0.500000  1
  Ho  Ho4  1  0.997726  0.180683  0.500000  1
  Co  Co5  1  0.130118  0.483464  0.500000  1
  Co  Co6  1  0.805469  0.170021  0.000000  1
  Co  Co7  1  0.831768  0.634049  0.000000  1
  Co  Co8  1  0.363935  0.196331  0.000000  1
  Co  Co9  1  0.175274  0.804116  0.000000  1
  Co  Co10  1  0.629761  0.824575  0.000000  1
  Co  Co11  1  0.193033  0.373943  0.000000  1
  Co  Co12  1  0.272233  0.281934  0.500000  1
  Co  Co13  1  0.720058  0.994366  0.500000  1
  Co  Co14  1  0.007014  0.724518  0.500000  1
  Co  Co15  1  0.999995  0.999152  0.000000  1
  Si  Si16  1  0.682873  0.157719  0.500000  1
  Si  Si17  1  0.845439  0.524705  0.500000  1
  Si  Si18  1  0.473845  0.319656  0.500000  1
  P  P19  1  0.160615  0.680858  0.500000  1
  P  P20  1  0.523525  0.839234  0.500000  1
  P  P21  1  0.309816  0.476933  0.500000  1
  P  P22  1  0.176426  0.180806  0.000000  1
  P  P23  1  0.820020  0.997134  0.000000  1
  P  P24  1  0.002840  0.821679  0.000000  1
  P  P25  1  0.635939  0.635713  0.000000  1
  P  P26  1  0.363708  0.000424  0.000000  1
  P  P27  1  0.003042  0.363584  0.000000  1
  Ru  Ru28  1  0.881669  0.351462  0.500000  1
  Ru  Ru29  1  0.650759  0.526677  0.500000  1
  Ru  Ru30  1  0.473996  0.124718  0.500000  1
  Ru  Ru31  1  0.351812  0.868948  0.500000  1
  Ru  Ru32  1  0.514355  0.646420  0.500000  1
  Ru  Ru33  1  0.440210  0.443375  0.000000  1
  Ru  Ru34  1  0.557223  0.998586  0.000000  1
  Ru  Ru35  1  0.008181  0.558108  0.000000  1
