# generated using pymatgen
data_Ho8Lu7Sc5Si15Os
_symmetry_space_group_name_H-M   'P 1'
_cell_length_a   7.15562724
_cell_length_b   7.57505183
_cell_length_c   14.16507600
_cell_angle_alpha   90.08071011
_cell_angle_beta   90.02819740
_cell_angle_gamma   90.22712150
_symmetry_Int_Tables_number   1
_chemical_formula_structural   Ho8Lu7Sc5Si15Os
_chemical_formula_sum   'Ho8 Lu7 Sc5 Si15 Os1'
_cell_volume   767.80039268
_cell_formula_units_Z   1
loop_
 _symmetry_equiv_pos_site_id
 _symmetry_equiv_pos_as_xyz
  1  'x, y, z'
loop_
 _atom_site_type_symbol
 _atom_site_label
 _atom_site_symmetry_multiplicity
 _atom_site_fract_x
 _atom_site_fract_y
 _atom_site_fract_z
 _atom_site_occupancy
  Ho  Ho0  1  0.015693  0.182072  0.096954  1
  Ho  Ho1  1  0.987822  0.826249  0.905439  1
  Ho  Ho2  1  0.484852  0.680216  0.904232  1
  Ho  Ho3  1  0.986787  0.826784  0.596071  1
  Ho  Ho4  1  0.513964  0.320634  0.096092  1
  Ho  Ho5  1  0.015480  0.183288  0.401715  1
  Ho  Ho6  1  0.514507  0.320329  0.402353  1
  Ho  Ho7  1  0.485292  0.679716  0.595769  1
  Lu  Lu8  1  0.311896  0.172462  0.628088  1
  Lu  Lu9  1  0.676232  0.825682  0.372586  1
  Lu  Lu10  1  0.175881  0.677883  0.373115  1
  Lu  Lu11  1  0.676150  0.825385  0.125831  1
  Lu  Lu12  1  0.834459  0.316422  0.628329  1
  Lu  Lu13  1  0.311932  0.173000  0.873005  1
  Lu  Lu14  1  0.834398  0.317809  0.873270  1
  Sc  Sc15  1  0.155993  0.509821  0.750592  1
  Sc  Sc16  1  0.842385  0.490494  0.248827  1
  Sc  Sc17  1  0.341945  0.012120  0.248664  1
  Sc  Sc18  1  0.667447  0.989193  0.750429  1
  Sc  Sc19  1  0.175819  0.678364  0.127319  1
  Si  Si20  1  0.979001  0.894551  0.247921  1
  Si  Si21  1  0.475750  0.602616  0.247524  1
  Si  Si22  1  0.521849  0.400519  0.750520  1
  Si  Si23  1  0.282823  0.860049  0.750472  1
  Si  Si24  1  0.715401  0.137055  0.249190  1
  Si  Si25  1  0.216802  0.367245  0.248552  1
  Si  Si26  1  0.776164  0.630935  0.750378  1
  Si  Si27  1  0.157858  0.472516  0.538130  1
  Si  Si28  1  0.844507  0.532387  0.460728  1
  Si  Si29  1  0.345084  0.969719  0.458772  1
  Si  Si30  1  0.851043  0.532691  0.041322  1
  Si  Si31  1  0.651462  0.031640  0.538690  1
  Si  Si32  1  0.160528  0.474477  0.965514  1
  Si  Si33  1  0.650887  0.031226  0.961245  1
  Si  Si34  1  0.341505  0.964656  0.041552  1
  Os  Os35  1  0.020405  0.089796  0.750809  1
