# generated using pymatgen
data_Y3ScNi4(SnH)4
_symmetry_space_group_name_H-M   'P 1'
_cell_length_a   4.21004700
_cell_length_b   7.05590407
_cell_length_c   8.25570810
_cell_angle_alpha   90.01693188
_cell_angle_beta   90.00000000
_cell_angle_gamma   90.00000000
_symmetry_Int_Tables_number   1
_chemical_formula_structural   Y3ScNi4(SnH)4
_chemical_formula_sum   'Y3 Sc1 Ni4 Sn4 H4'
_cell_volume   245.24147633
_cell_formula_units_Z   1
loop_
 _symmetry_equiv_pos_site_id
 _symmetry_equiv_pos_as_xyz
  1  'x, y, z'
loop_
 _atom_site_type_symbol
 _atom_site_label
 _atom_site_symmetry_multiplicity
 _atom_site_fract_x
 _atom_site_fract_y
 _atom_site_fract_z
 _atom_site_occupancy
  Y  Y0  1  0.750000  0.517559  0.812207  1
  Y  Y1  1  0.250000  0.483089  0.186561  1
  Y  Y2  1  0.250000  0.982734  0.314651  1
  Sc  Sc3  1  0.750000  0.016122  0.680023  1
  Ni  Ni4  1  0.750000  0.270939  0.394654  1
  Ni  Ni5  1  0.250000  0.733547  0.610449  1
  Ni  Ni6  1  0.250000  0.224707  0.886604  1
  Ni  Ni7  1  0.750000  0.772652  0.109336  1
  Sn  Sn8  1  0.750000  0.152959  0.066110  1
  Sn  Sn9  1  0.250000  0.848163  0.922363  1
  Sn  Sn10  1  0.250000  0.338758  0.572977  1
  Sn  Sn11  1  0.750000  0.657581  0.431992  1
  H  H12  1  0.250000  0.956692  0.583564  1
  H  H13  1  0.750000  0.047665  0.429666  1
  H  H14  1  0.750000  0.549059  0.078557  1
  H  H15  1  0.250000  0.447775  0.920288  1
