# generated using pymatgen
data_Ac7Tb(Sc3Pb4)4
_symmetry_space_group_name_H-M   'P 1'
_cell_length_a   8.22625221
_cell_length_b   15.60749774
_cell_length_c   8.28870100
_cell_angle_alpha   89.89690607
_cell_angle_beta   90.01281559
_cell_angle_gamma   90.16598375
_symmetry_Int_Tables_number   1
_chemical_formula_structural   Ac7Tb(Sc3Pb4)4
_chemical_formula_sum   'Ac7 Tb1 Sc12 Pb16'
_cell_volume   1064.19015946
_cell_formula_units_Z   1
loop_
 _symmetry_equiv_pos_site_id
 _symmetry_equiv_pos_as_xyz
  1  'x, y, z'
loop_
 _atom_site_type_symbol
 _atom_site_label
 _atom_site_symmetry_multiplicity
 _atom_site_fract_x
 _atom_site_fract_y
 _atom_site_fract_z
 _atom_site_occupancy
  Ac  Ac0  1  0.481052  0.594313  0.674122  1
  Ac  Ac1  1  0.982734  0.906298  0.827878  1
  Ac  Ac2  1  0.519529  0.093547  0.328212  1
  Ac  Ac3  1  0.019913  0.408187  0.171150  1
  Ac  Ac4  1  0.515710  0.409195  0.325185  1
  Ac  Ac5  1  0.018734  0.093483  0.173023  1
  Ac  Ac6  1  0.479185  0.902618  0.673411  1
  Tb  Tb7  1  0.973858  0.597019  0.823418  1
  Sc  Sc8  1  0.643343  0.625539  0.152095  1
  Sc  Sc9  1  0.142278  0.868796  0.346607  1
  Sc  Sc10  1  0.356763  0.127123  0.843081  1
  Sc  Sc11  1  0.856731  0.375026  0.658861  1
  Sc  Sc12  1  0.360651  0.375775  0.845677  1
  Sc  Sc13  1  0.856733  0.127443  0.654828  1
  Sc  Sc14  1  0.644964  0.871135  0.155380  1
  Sc  Sc15  1  0.144821  0.627153  0.344188  1
  Sc  Sc16  1  0.809672  0.748038  0.491706  1
  Sc  Sc17  1  0.307003  0.747658  0.006569  1
  Sc  Sc18  1  0.191745  0.250708  0.510684  1
  Sc  Sc19  1  0.693779  0.251754  0.990683  1
  Pb  Pb20  1  0.695536  0.457473  0.944789  1
  Pb  Pb21  1  0.185157  0.047542  0.553748  1
  Pb  Pb22  1  0.317106  0.950022  0.055960  1
  Pb  Pb23  1  0.819473  0.548656  0.455034  1
  Pb  Pb24  1  0.301769  0.551042  0.043090  1
  Pb  Pb25  1  0.815239  0.949943  0.446442  1
  Pb  Pb26  1  0.683591  0.048554  0.945041  1
  Pb  Pb27  1  0.180318  0.454891  0.558069  1
  Pb  Pb28  1  0.450176  0.748244  0.355784  1
  Pb  Pb29  1  0.949498  0.746888  0.139825  1
  Pb  Pb30  1  0.550616  0.252138  0.643153  1
  Pb  Pb31  1  0.051756  0.250374  0.856667  1
  Pb  Pb32  1  0.675788  0.747617  0.859290  1
  Pb  Pb33  1  0.160968  0.744229  0.647562  1
  Pb  Pb34  1  0.332867  0.250523  0.138417  1
  Pb  Pb35  1  0.830944  0.251058  0.360370  1
