# generated using pymatgen
data_Ca2TmLu5(B6Ru)4
_symmetry_space_group_name_H-M   'P 1'
_cell_length_a   3.60336200
_cell_length_b   9.06825427
_cell_length_c   11.46132302
_cell_angle_alpha   89.84826189
_cell_angle_beta   90.00000000
_cell_angle_gamma   90.00000000
_symmetry_Int_Tables_number   1
_chemical_formula_structural   Ca2TmLu5(B6Ru)4
_chemical_formula_sum   'Ca2 Tm1 Lu5 B24 Ru4'
_cell_volume   374.51120267
_cell_formula_units_Z   1
loop_
 _symmetry_equiv_pos_site_id
 _symmetry_equiv_pos_as_xyz
  1  'x, y, z'
loop_
 _atom_site_type_symbol
 _atom_site_label
 _atom_site_symmetry_multiplicity
 _atom_site_fract_x
 _atom_site_fract_y
 _atom_site_fract_z
 _atom_site_occupancy
  Ca  Ca0  1  0.000000  0.323467  0.414747  1
  Ca  Ca1  1  0.000000  0.676525  0.585279  1
  Tm  Tm2  1  0.000000  0.822004  0.086001  1
  Lu  Lu3  1  0.000000  0.178083  0.913982  1
  Lu  Lu4  1  0.000000  0.942357  0.369613  1
  Lu  Lu5  1  0.000000  0.057711  0.630438  1
  Lu  Lu6  1  0.000000  0.442813  0.129834  1
  Lu  Lu7  1  0.000000  0.556997  0.870096  1
  B  B8  1  0.500000  0.554681  0.431694  1
  B  B9  1  0.500000  0.445268  0.568355  1
  B  B10  1  0.500000  0.053764  0.065736  1
  B  B11  1  0.500000  0.946609  0.934042  1
  B  B12  1  0.500000  0.749683  0.417019  1
  B  B13  1  0.500000  0.250325  0.583047  1
  B  B14  1  0.500000  0.249166  0.079925  1
  B  B15  1  0.500000  0.750826  0.919715  1
  B  B16  1  0.500000  0.792557  0.263439  1
  B  B17  1  0.500000  0.207317  0.736828  1
  B  B18  1  0.500000  0.290647  0.233316  1
  B  B19  1  0.500000  0.709370  0.766616  1
  B  B20  1  0.500000  0.631292  0.183586  1
  B  B21  1  0.500000  0.368449  0.816588  1
  B  B22  1  0.500000  0.129787  0.313647  1
  B  B23  1  0.500000  0.870291  0.686359  1
  B  B24  1  0.500000  0.982227  0.211181  1
  B  B25  1  0.500000  0.018142  0.788936  1
  B  B26  1  0.500000  0.483558  0.286569  1
  B  B27  1  0.500000  0.516350  0.713449  1
  B  B28  1  0.500000  0.602453  0.027988  1
  B  B29  1  0.500000  0.397119  0.971888  1
  B  B30  1  0.500000  0.097932  0.473064  1
  B  B31  1  0.500000  0.902102  0.526967  1
  Ru  Ru32  1  0.000000  0.641255  0.316761  1
  Ru  Ru33  1  0.000000  0.358576  0.683416  1
  Ru  Ru34  1  0.000000  0.136908  0.177219  1
  Ru  Ru35  1  0.000000  0.863388  0.822660  1
