# generated using pymatgen
data_Ho7Er(TcB6)4
_symmetry_space_group_name_H-M   'P 1'
_cell_length_a   3.67329100
_cell_length_b   9.13680000
_cell_length_c   11.51315900
_cell_angle_alpha   90.00300793
_cell_angle_beta   90.00000000
_cell_angle_gamma   90.00000000
_symmetry_Int_Tables_number   1
_chemical_formula_structural   Ho7Er(TcB6)4
_chemical_formula_sum   'Ho7 Er1 Tc4 B24'
_cell_volume   386.40608364
_cell_formula_units_Z   1
loop_
 _symmetry_equiv_pos_site_id
 _symmetry_equiv_pos_as_xyz
  1  'x, y, z'
loop_
 _atom_site_type_symbol
 _atom_site_label
 _atom_site_symmetry_multiplicity
 _atom_site_fract_x
 _atom_site_fract_y
 _atom_site_fract_z
 _atom_site_occupancy
  Ho  Ho0  1  0.000000  0.323941  0.414153  1
  Ho  Ho1  1  0.000000  0.676046  0.585955  1
  Ho  Ho2  1  0.000000  0.823868  0.085794  1
  Ho  Ho3  1  0.000000  0.176098  0.914126  1
  Ho  Ho4  1  0.000000  0.942826  0.369352  1
  Ho  Ho5  1  0.000000  0.057148  0.630730  1
  Ho  Ho6  1  0.000000  0.442898  0.130476  1
  Er  Er7  1  0.000000  0.557253  0.869207  1
  Tc  Tc8  1  0.000000  0.639001  0.320474  1
  Tc  Tc9  1  0.000000  0.361219  0.679705  1
  Tc  Tc10  1  0.000000  0.139016  0.179408  1
  Tc  Tc11  1  0.000000  0.860682  0.820568  1
  B  B12  1  0.500000  0.553408  0.433049  1
  B  B13  1  0.500000  0.446621  0.567049  1
  B  B14  1  0.500000  0.053370  0.066929  1
  B  B15  1  0.500000  0.946494  0.933020  1
  B  B16  1  0.500000  0.749086  0.418800  1
  B  B17  1  0.500000  0.250938  0.581244  1
  B  B18  1  0.500000  0.249123  0.081183  1
  B  B19  1  0.500000  0.750531  0.918790  1
  B  B20  1  0.500000  0.792161  0.265210  1
  B  B21  1  0.500000  0.207941  0.734823  1
  B  B22  1  0.500000  0.292184  0.234755  1
  B  B23  1  0.500000  0.707555  0.765325  1
  B  B24  1  0.500000  0.631011  0.185454  1
  B  B25  1  0.500000  0.369279  0.814678  1
  B  B26  1  0.500000  0.131024  0.314499  1
  B  B27  1  0.500000  0.868875  0.685570  1
  B  B28  1  0.500000  0.982238  0.211620  1
  B  B29  1  0.500000  0.017687  0.788410  1
  B  B30  1  0.500000  0.482238  0.288360  1
  B  B31  1  0.500000  0.517925  0.711846  1
  B  B32  1  0.500000  0.600212  0.027657  1
  B  B33  1  0.500000  0.400111  0.971743  1
  B  B34  1  0.500000  0.100380  0.471990  1
  B  B35  1  0.500000  0.899610  0.528050  1
