# generated using pymatgen
data_Dy(MnC)4
_symmetry_space_group_name_H-M   'P 1'
_cell_length_a   5.62127076
_cell_length_b   5.62127053
_cell_length_c   5.62126938
_cell_angle_alpha   94.81023524
_cell_angle_beta   94.81024557
_cell_angle_gamma   146.33448967
_symmetry_Int_Tables_number   1
_chemical_formula_structural   Dy(MnC)4
_chemical_formula_sum   'Dy1 Mn4 C4'
_cell_volume   94.24629128
_cell_formula_units_Z   1
loop_
 _symmetry_equiv_pos_site_id
 _symmetry_equiv_pos_as_xyz
  1  'x, y, z'
loop_
 _atom_site_type_symbol
 _atom_site_label
 _atom_site_symmetry_multiplicity
 _atom_site_fract_x
 _atom_site_fract_y
 _atom_site_fract_z
 _atom_site_occupancy
  Dy  Dy0  1  0.000000  0.000000  0.000000  1
  Mn  Mn1  1  0.820196  0.637688  0.457883  1
  Mn  Mn2  1  0.179804  0.362312  0.542117  1
  Mn  Mn3  1  0.637688  0.179804  0.817491  1
  Mn  Mn4  1  0.362312  0.820196  0.182509  1
  C  C5  1  0.246046  0.599867  0.845914  1
  C  C6  1  0.753954  0.400133  0.154086  1
  C  C7  1  0.599867  0.753954  0.353820  1
  C  C8  1  0.400133  0.246046  0.646180  1
