# generated using pymatgen
data_SrCeBr6
_symmetry_space_group_name_H-M   'P 1'
_cell_length_a   7.69180753
_cell_length_b   7.69180770
_cell_length_c   13.92971137
_cell_angle_alpha   83.82673311
_cell_angle_beta   83.82673462
_cell_angle_gamma   119.34409341
_symmetry_Int_Tables_number   1
_chemical_formula_structural   SrCeBr6
_chemical_formula_sum   'Sr2 Ce2 Br12'
_cell_volume   701.91341231
_cell_formula_units_Z   2
loop_
 _symmetry_equiv_pos_site_id
 _symmetry_equiv_pos_as_xyz
  1  'x, y, z'
loop_
 _atom_site_type_symbol
 _atom_site_label
 _atom_site_symmetry_multiplicity
 _atom_site_fract_x
 _atom_site_fract_y
 _atom_site_fract_z
 _atom_site_occupancy
  Sr  Sr0  1  0.084109  0.915891  0.250000  1
  Sr  Sr1  1  0.915891  0.084109  0.750000  1
  Ce  Ce2  1  0.418950  0.581050  0.250000  1
  Ce  Ce3  1  0.581050  0.418950  0.750000  1
  Br  Br4  1  0.316379  0.454467  0.635961  1
  Br  Br5  1  0.454467  0.316379  0.135961  1
  Br  Br6  1  0.232509  0.079403  0.866967  1
  Br  Br7  1  0.079403  0.232509  0.366967  1
  Br  Br8  1  0.172440  0.641522  0.131600  1
  Br  Br9  1  0.641522  0.172440  0.631600  1
  Br  Br10  1  0.358478  0.827560  0.368400  1
  Br  Br11  1  0.827560  0.358478  0.868400  1
  Br  Br12  1  0.767491  0.920597  0.133033  1
  Br  Br13  1  0.920597  0.767491  0.633033  1
  Br  Br14  1  0.545533  0.683621  0.864039  1
  Br  Br15  1  0.683621  0.545533  0.364039  1
