# generated using pymatgen
data_Nd2Dy2Al13Ga5Ir6
_symmetry_space_group_name_H-M   'P 1'
_cell_length_a   7.55988101
_cell_length_b   7.56253318
_cell_length_c   9.63723400
_cell_angle_alpha   90.00000000
_cell_angle_beta   90.00000000
_cell_angle_gamma   119.54943491
_symmetry_Int_Tables_number   1
_chemical_formula_structural   Nd2Dy2Al13Ga5Ir6
_chemical_formula_sum   'Nd2 Dy2 Al13 Ga5 Ir6'
_cell_volume   479.31301200
_cell_formula_units_Z   1
loop_
 _symmetry_equiv_pos_site_id
 _symmetry_equiv_pos_as_xyz
  1  'x, y, z'
loop_
 _atom_site_type_symbol
 _atom_site_label
 _atom_site_symmetry_multiplicity
 _atom_site_fract_x
 _atom_site_fract_y
 _atom_site_fract_z
 _atom_site_occupancy
  Nd  Nd0  1  0.994866  0.669619  0.750000  1
  Nd  Nd1  1  0.669704  0.995796  0.750000  1
  Dy  Dy2  1  0.000161  0.325503  0.250000  1
  Dy  Dy3  1  0.330202  0.006549  0.250000  1
  Al  Al4  1  0.004520  0.334852  0.568217  1
  Al  Al5  1  0.000047  0.665095  0.424292  1
  Al  Al6  1  0.000047  0.665095  0.075708  1
  Al  Al7  1  0.334868  0.004064  0.932019  1
  Al  Al8  1  0.004520  0.334852  0.931783  1
  Al  Al9  1  0.664249  0.998310  0.075796  1
  Al  Al10  1  0.664249  0.998310  0.424204  1
  Al  Al11  1  0.334868  0.004064  0.567981  1
  Al  Al12  1  0.333333  0.333877  0.060756  1
  Al  Al13  1  0.665147  0.664933  0.954598  1
  Al  Al14  1  0.665147  0.664933  0.545402  1
  Al  Al15  1  0.333333  0.333877  0.439244  1
  Al  Al16  1  0.449028  0.661299  0.250000  1
  Ga  Ga17  1  0.131218  0.131067  0.750000  1
  Ga  Ga18  1  0.870188  0.869487  0.250000  1
  Ga  Ga19  1  0.338226  0.544518  0.750000  1
  Ga  Ga20  1  0.661467  0.453420  0.250000  1
  Ga  Ga21  1  0.544630  0.338914  0.750000  1
  Ir  Ir22  1  0.671821  0.328434  0.498697  1
  Ir  Ir23  1  0.329715  0.671133  0.496328  1
  Ir  Ir24  1  0.329715  0.671133  0.003672  1
  Ir  Ir25  1  0.671821  0.328434  0.001303  1
  Ir  Ir26  1  0.001455  0.001218  0.497749  1
  Ir  Ir27  1  0.001455  0.001218  0.002251  1
