# generated using pymatgen
data_Pr4Tm(InBi)2
_symmetry_space_group_name_H-M   'P 1'
_cell_length_a   8.40291100
_cell_length_b   8.44235500
_cell_length_c   16.15194300
_cell_angle_alpha   90.00000000
_cell_angle_beta   90.00000000
_cell_angle_gamma   90.00000000
_symmetry_Int_Tables_number   1
_chemical_formula_structural   Pr4Tm(InBi)2
_chemical_formula_sum   'Pr16 Tm4 In8 Bi8'
_cell_volume   1145.82461390
_cell_formula_units_Z   4
loop_
 _symmetry_equiv_pos_site_id
 _symmetry_equiv_pos_as_xyz
  1  'x, y, z'
loop_
 _atom_site_type_symbol
 _atom_site_label
 _atom_site_symmetry_multiplicity
 _atom_site_fract_x
 _atom_site_fract_y
 _atom_site_fract_z
 _atom_site_occupancy
  Pr  Pr0  1  0.390588  0.837529  0.879996  1
  Pr  Pr1  1  0.890588  0.662471  0.620004  1
  Pr  Pr2  1  0.609412  0.162471  0.379996  1
  Pr  Pr3  1  0.109412  0.337529  0.120004  1
  Pr  Pr4  1  0.609412  0.162471  0.120004  1
  Pr  Pr5  1  0.109412  0.337529  0.379996  1
  Pr  Pr6  1  0.390588  0.837529  0.620004  1
  Pr  Pr7  1  0.890588  0.662471  0.879996  1
  Pr  Pr8  1  0.550715  0.325415  0.892463  1
  Pr  Pr9  1  0.050715  0.174585  0.607537  1
  Pr  Pr10  1  0.449285  0.674585  0.392463  1
  Pr  Pr11  1  0.949285  0.825415  0.107537  1
  Pr  Pr12  1  0.449285  0.674585  0.107537  1
  Pr  Pr13  1  0.949285  0.825415  0.392463  1
  Pr  Pr14  1  0.550715  0.325415  0.607537  1
  Pr  Pr15  1  0.050715  0.174585  0.892463  1
  Tm  Tm16  1  0.223502  0.499244  0.750000  1
  Tm  Tm17  1  0.723502  0.000756  0.750000  1
  Tm  Tm18  1  0.776498  0.500756  0.250000  1
  Tm  Tm19  1  0.276498  0.999244  0.250000  1
  In  In20  1  0.590778  0.619069  0.750000  1
  In  In21  1  0.090778  0.880931  0.750000  1
  In  In22  1  0.409222  0.380931  0.250000  1
  In  In23  1  0.909222  0.119069  0.250000  1
  In  In24  1  0.348265  0.138352  0.750000  1
  In  In25  1  0.848265  0.361648  0.750000  1
  In  In26  1  0.651735  0.861648  0.250000  1
  In  In27  1  0.151735  0.638352  0.250000  1
  Bi  Bi28  1  0.270358  0.018529  0.048104  1
  Bi  Bi29  1  0.770358  0.481471  0.451896  1
  Bi  Bi30  1  0.729642  0.981471  0.548104  1
  Bi  Bi31  1  0.229642  0.518529  0.951896  1
  Bi  Bi32  1  0.729642  0.981471  0.951896  1
  Bi  Bi33  1  0.229642  0.518529  0.548104  1
  Bi  Bi34  1  0.270358  0.018529  0.451896  1
  Bi  Bi35  1  0.770358  0.481471  0.048104  1
