# generated using pymatgen
data_YbY19(InGa2)4
_symmetry_space_group_name_H-M   'P 1'
_cell_length_a   7.76325900
_cell_length_b   7.76325900
_cell_length_c   14.47939000
_cell_angle_alpha   90.00000000
_cell_angle_beta   90.00000000
_cell_angle_gamma   90.00000000
_symmetry_Int_Tables_number   1
_chemical_formula_structural   YbY19(InGa2)4
_chemical_formula_sum   'Yb1 Y19 In4 Ga8'
_cell_volume   872.64663196
_cell_formula_units_Z   1
loop_
 _symmetry_equiv_pos_site_id
 _symmetry_equiv_pos_as_xyz
  1  'x, y, z'
loop_
 _atom_site_type_symbol
 _atom_site_label
 _atom_site_symmetry_multiplicity
 _atom_site_fract_x
 _atom_site_fract_y
 _atom_site_fract_z
 _atom_site_occupancy
  Yb  Yb0  1  0.500000  0.000000  0.752230  1
  Y  Y1  1  0.834416  0.831683  0.893296  1
  Y  Y2  1  0.168304  0.165454  0.606671  1
  Y  Y3  1  0.833784  0.168601  0.393840  1
  Y  Y4  1  0.166216  0.831399  0.393840  1
  Y  Y5  1  0.331399  0.333784  0.393840  1
  Y  Y6  1  0.830800  0.165728  0.106189  1
  Y  Y7  1  0.331683  0.665584  0.893296  1
  Y  Y8  1  0.169200  0.834272  0.106189  1
  Y  Y9  1  0.000000  0.500000  0.247730  1
  Y  Y10  1  0.334546  0.668304  0.606671  1
  Y  Y11  1  0.665728  0.669200  0.106189  1
  Y  Y12  1  0.665454  0.331696  0.606671  1
  Y  Y13  1  0.000000  0.500000  0.747747  1
  Y  Y14  1  0.831696  0.834546  0.606671  1
  Y  Y15  1  0.668317  0.334416  0.893296  1
  Y  Y16  1  0.165584  0.168317  0.893296  1
  Y  Y17  1  0.500000  0.000000  0.252260  1
  Y  Y18  1  0.668601  0.666216  0.393840  1
  Y  Y19  1  0.334272  0.330800  0.106189  1
  In  In20  1  0.000000  0.500000  0.000795  1
  In  In21  1  0.500000  0.000000  0.000752  1
  In  In22  1  0.500000  0.000000  0.497760  1
  In  In23  1  0.000000  0.500000  0.500591  1
  Ga  Ga24  1  0.623733  0.376201  0.250004  1
  Ga  Ga25  1  0.376267  0.623799  0.250004  1
  Ga  Ga26  1  0.123799  0.123733  0.250004  1
  Ga  Ga27  1  0.374546  0.381570  0.750034  1
  Ga  Ga28  1  0.118430  0.874546  0.750034  1
  Ga  Ga29  1  0.876201  0.876267  0.250004  1
  Ga  Ga30  1  0.625454  0.618430  0.750034  1
  Ga  Ga31  1  0.881570  0.125454  0.750034  1
