# generated using pymatgen
data_Th3Cd3Pd2Pt
_symmetry_space_group_name_H-M   'P 1'
_cell_length_a   7.84362900
_cell_length_b   7.84362977
_cell_length_c   3.96769600
_cell_angle_alpha   90.00000000
_cell_angle_beta   90.00000000
_cell_angle_gamma   120.00000939
_symmetry_Int_Tables_number   1
_chemical_formula_structural   Th3Cd3Pd2Pt
_chemical_formula_sum   'Th3 Cd3 Pd2 Pt1'
_cell_volume   211.39908842
_cell_formula_units_Z   1
loop_
 _symmetry_equiv_pos_site_id
 _symmetry_equiv_pos_as_xyz
  1  'x, y, z'
loop_
 _atom_site_type_symbol
 _atom_site_label
 _atom_site_symmetry_multiplicity
 _atom_site_fract_x
 _atom_site_fract_y
 _atom_site_fract_z
 _atom_site_occupancy
  Th  Th0  1  0.414053  0.408685  0.500000  1
  Th  Th1  1  0.591315  0.005367  0.500000  1
  Th  Th2  1  0.994633  0.585947  0.500000  1
  Cd  Cd3  1  0.745846  0.750774  0.000000  1
  Cd  Cd4  1  0.249226  0.995072  0.000000  1
  Cd  Cd5  1  0.004928  0.254154  0.000000  1
  Pd  Pd6  1  0.333333  0.666667  0.000000  1
  Pd  Pd7  1  0.000000  0.000000  0.500000  1
  Pt  Pt8  1  0.666667  0.333333  0.000000  1
