# generated using pymatgen
data_Dy12Lu4Co4Ag3Hg
_symmetry_space_group_name_H-M   'P 1'
_cell_length_a   9.33761080
_cell_length_b   9.35314951
_cell_length_c   9.35875400
_cell_angle_alpha   59.98017634
_cell_angle_beta   59.92506910
_cell_angle_gamma   59.84373119
_symmetry_Int_Tables_number   1
_chemical_formula_structural   Dy12Lu4Co4Ag3Hg
_chemical_formula_sum   'Dy12 Lu4 Co4 Ag3 Hg1'
_cell_volume   576.85984541
_cell_formula_units_Z   1
loop_
 _symmetry_equiv_pos_site_id
 _symmetry_equiv_pos_as_xyz
  1  'x, y, z'
loop_
 _atom_site_type_symbol
 _atom_site_label
 _atom_site_symmetry_multiplicity
 _atom_site_fract_x
 _atom_site_fract_y
 _atom_site_fract_z
 _atom_site_occupancy
  Dy  Dy0  1  0.186969  0.185875  0.813578  1
  Dy  Dy1  1  0.814388  0.813547  0.186032  1
  Dy  Dy2  1  0.936344  0.562059  0.562419  1
  Dy  Dy3  1  0.560448  0.938703  0.938848  1
  Dy  Dy4  1  0.560448  0.938703  0.562002  1
  Dy  Dy5  1  0.936344  0.562059  0.939178  1
  Dy  Dy6  1  0.560749  0.562256  0.938497  1
  Dy  Dy7  1  0.935457  0.939241  0.562652  1
  Dy  Dy8  1  0.349304  0.349367  0.347292  1
  Dy  Dy9  1  0.349304  0.349367  0.954036  1
  Dy  Dy10  1  0.347127  0.954281  0.349295  1
  Dy  Dy11  1  0.954515  0.347464  0.349011  1
  Lu  Lu12  1  0.813224  0.187087  0.187170  1
  Lu  Lu13  1  0.187587  0.812715  0.812393  1
  Lu  Lu14  1  0.187587  0.812715  0.187306  1
  Lu  Lu15  1  0.813224  0.187087  0.812518  1
  Co  Co16  1  0.141198  0.140516  0.140598  1
  Co  Co17  1  0.141198  0.140516  0.577687  1
  Co  Co18  1  0.142266  0.577903  0.139914  1
  Co  Co19  1  0.578983  0.140867  0.140075  1
  Ag  Ag20  1  0.582513  0.580063  0.582351  1
  Ag  Ag21  1  0.582513  0.580063  0.255072  1
  Ag  Ag22  1  0.583222  0.255186  0.580795  1
  Hg  Hg23  1  0.255082  0.582359  0.581280  1
