# generated using pymatgen
data_RbNd(BiAu)2
_symmetry_space_group_name_H-M   'P 1'
_cell_length_a   4.80272200
_cell_length_b   4.80272228
_cell_length_c   19.91400300
_cell_angle_alpha   90.00000000
_cell_angle_beta   90.00000000
_cell_angle_gamma   120.00001188
_symmetry_Int_Tables_number   1
_chemical_formula_structural   RbNd(BiAu)2
_chemical_formula_sum   'Rb2 Nd2 Bi4 Au4'
_cell_volume   397.79935105
_cell_formula_units_Z   2
loop_
 _symmetry_equiv_pos_site_id
 _symmetry_equiv_pos_as_xyz
  1  'x, y, z'
loop_
 _atom_site_type_symbol
 _atom_site_label
 _atom_site_symmetry_multiplicity
 _atom_site_fract_x
 _atom_site_fract_y
 _atom_site_fract_z
 _atom_site_occupancy
  Rb  Rb0  1  0.000000  0.000000  0.500000  1
  Rb  Rb1  1  0.000000  0.000000  0.000000  1
  Nd  Nd2  1  0.000000  0.000000  0.250000  1
  Nd  Nd3  1  0.000000  0.000000  0.750000  1
  Bi  Bi4  1  0.333333  0.666667  0.365817  1
  Bi  Bi5  1  0.666667  0.333333  0.634183  1
  Bi  Bi6  1  0.666667  0.333333  0.865817  1
  Bi  Bi7  1  0.333333  0.666667  0.134183  1
  Au  Au8  1  0.666667  0.333333  0.331850  1
  Au  Au9  1  0.333333  0.666667  0.668150  1
  Au  Au10  1  0.333333  0.666667  0.831850  1
  Au  Au11  1  0.666667  0.333333  0.168150  1
