# generated using pymatgen
data_Li4Zn8RuRh3
_symmetry_space_group_name_H-M   'P 1'
_cell_length_a   5.99662600
_cell_length_b   6.03870800
_cell_length_c   6.11983400
_cell_angle_alpha   90.00000000
_cell_angle_beta   89.99999981
_cell_angle_gamma   90.00005713
_symmetry_Int_Tables_number   1
_chemical_formula_structural   Li4Zn8RuRh3
_chemical_formula_sum   'Li4 Zn8 Ru1 Rh3'
_cell_volume   221.61065403
_cell_formula_units_Z   1
loop_
 _symmetry_equiv_pos_site_id
 _symmetry_equiv_pos_as_xyz
  1  'x, y, z'
loop_
 _atom_site_type_symbol
 _atom_site_label
 _atom_site_symmetry_multiplicity
 _atom_site_fract_x
 _atom_site_fract_y
 _atom_site_fract_z
 _atom_site_occupancy
  Li  Li0  1  0.250600  0.250000  0.000003  1
  Li  Li1  1  0.749384  0.750001  0.999998  1
  Li  Li2  1  0.249375  0.250002  0.499954  1
  Li  Li3  1  0.750621  0.750001  0.500046  1
  Zn  Zn4  1  0.999554  0.000423  0.249100  1
  Zn  Zn5  1  0.999553  0.499588  0.249099  1
  Zn  Zn6  1  0.500449  0.000426  0.250152  1
  Zn  Zn7  1  0.500449  0.499570  0.250152  1
  Zn  Zn8  1  0.500405  0.000441  0.749848  1
  Zn  Zn9  1  0.500405  0.499567  0.749848  1
  Zn  Zn10  1  0.999561  0.000429  0.750901  1
  Zn  Zn11  1  0.999563  0.499562  0.750901  1
  Ru  Ru12  1  0.749510  0.249999  0.999995  1
  Rh  Rh13  1  0.250539  0.750000  0.000005  1
  Rh  Rh14  1  0.750543  0.250001  0.500003  1
  Rh  Rh15  1  0.249487  0.750001  0.499994  1
