# generated using pymatgen
data_Ca4Al6RuO16
_symmetry_space_group_name_H-M   'P 1'
_cell_length_a   8.13303672
_cell_length_b   8.13303718
_cell_length_c   8.13303666
_cell_angle_alpha   110.09006838
_cell_angle_beta   110.09006209
_cell_angle_gamma   108.24049556
_symmetry_Int_Tables_number   1
_chemical_formula_structural   Ca4Al6RuO16
_chemical_formula_sum   'Ca4 Al6 Ru1 O16'
_cell_volume   413.98672759
_cell_formula_units_Z   1
loop_
 _symmetry_equiv_pos_site_id
 _symmetry_equiv_pos_as_xyz
  1  'x, y, z'
loop_
 _atom_site_type_symbol
 _atom_site_label
 _atom_site_symmetry_multiplicity
 _atom_site_fract_x
 _atom_site_fract_y
 _atom_site_fract_z
 _atom_site_occupancy
  Ca  Ca0  1  0.559164  0.013025  0.032930  1
  Ca  Ca1  1  0.986975  0.019906  0.546139  1
  Ca  Ca2  1  0.980094  0.526233  0.967070  1
  Ca  Ca3  1  0.473767  0.440836  0.453861  1
  Al  Al4  1  0.480035  0.746579  0.237647  1
  Al  Al5  1  0.250000  0.750000  0.500000  1
  Al  Al6  1  0.757612  0.519965  0.266543  1
  Al  Al7  1  0.750000  0.250000  0.500000  1
  Al  Al8  1  0.508932  0.242388  0.762353  1
  Al  Al9  1  0.253421  0.491068  0.733457  1
  Ru  Ru10  1  0.000000  0.000000  0.000000  1
  O  O11  1  0.414057  0.994576  0.718191  1
  O  O12  1  0.690376  0.325643  0.321427  1
  O  O13  1  0.380664  0.693658  0.983148  1
  O  O14  1  0.674357  0.995784  0.364733  1
  O  O15  1  0.005424  0.723616  0.419481  1
  O  O16  1  0.306342  0.289490  0.687006  1
  O  O17  1  0.276384  0.695865  0.281809  1
  O  O18  1  0.004216  0.368949  0.678573  1
  O  O19  1  0.710510  0.397516  0.016852  1
  O  O20  1  0.631051  0.309624  0.635267  1
  O  O21  1  0.304135  0.585943  0.580519  1
  O  O22  1  0.602484  0.619336  0.312994  1
  O  O23  1  0.882899  0.046987  0.148877  1
  O  O24  1  0.953013  0.101891  0.835913  1
  O  O25  1  0.898109  0.734022  0.851123  1
  O  O26  1  0.265978  0.117101  0.164087  1
