# generated using pymatgen
data_Y2(AlAu3)3
_symmetry_space_group_name_H-M   'P 1'
_cell_length_a   7.93908672
_cell_length_b   7.93908632
_cell_length_c   10.79294097
_cell_angle_alpha   68.45083495
_cell_angle_beta   68.45083668
_cell_angle_gamma   60.02264760
_symmetry_Int_Tables_number   1
_chemical_formula_structural   Y2(AlAu3)3
_chemical_formula_sum   'Y4 Al6 Au18'
_cell_volume   533.62821884
_cell_formula_units_Z   2
loop_
 _symmetry_equiv_pos_site_id
 _symmetry_equiv_pos_as_xyz
  1  'x, y, z'
loop_
 _atom_site_type_symbol
 _atom_site_label
 _atom_site_symmetry_multiplicity
 _atom_site_fract_x
 _atom_site_fract_y
 _atom_site_fract_z
 _atom_site_occupancy
  Y  Y0  1  0.415659  0.247590  0.248541  1
  Y  Y1  1  0.584341  0.752410  0.751459  1
  Y  Y2  1  0.752410  0.584341  0.251459  1
  Y  Y3  1  0.247590  0.415659  0.748541  1
  Al  Al4  1  0.500000  0.000000  0.000000  1
  Al  Al5  1  0.000000  0.500000  0.500000  1
  Al  Al6  1  0.651031  0.176280  0.498097  1
  Al  Al7  1  0.348969  0.823720  0.501903  1
  Al  Al8  1  0.823720  0.348969  0.001903  1
  Al  Al9  1  0.176280  0.651031  0.998097  1
  Au  Au10  1  0.306697  0.917617  0.255257  1
  Au  Au11  1  0.693303  0.082383  0.744743  1
  Au  Au12  1  0.082383  0.693303  0.244743  1
  Au  Au13  1  0.917617  0.306697  0.755257  1
  Au  Au14  1  0.479046  0.641428  0.072159  1
  Au  Au15  1  0.520954  0.358572  0.927841  1
  Au  Au16  1  0.358572  0.520954  0.427841  1
  Au  Au17  1  0.641428  0.479046  0.572159  1
  Au  Au18  1  0.851120  0.148880  0.250000  1
  Au  Au19  1  0.148880  0.851120  0.750000  1
  Au  Au20  1  0.799988  0.978602  0.073818  1
  Au  Au21  1  0.200012  0.021398  0.926182  1
  Au  Au22  1  0.021398  0.200012  0.426182  1
  Au  Au23  1  0.978602  0.799988  0.573818  1
  Au  Au24  1  0.690421  0.856270  0.432647  1
  Au  Au25  1  0.309579  0.143730  0.567353  1
  Au  Au26  1  0.143730  0.309579  0.067353  1
  Au  Au27  1  0.856270  0.690421  0.932647  1
