# generated using pymatgen
data_Y9Mg(AsPb3)2
_symmetry_space_group_name_H-M   'P 1'
_cell_length_a   9.20355300
_cell_length_b   9.20355364
_cell_length_c   6.73969400
_cell_angle_alpha   90.00000000
_cell_angle_beta   90.00000000
_cell_angle_gamma   120.00001567
_symmetry_Int_Tables_number   1
_chemical_formula_structural   Y9Mg(AsPb3)2
_chemical_formula_sum   'Y9 Mg1 As2 Pb6'
_cell_volume   494.40380839
_cell_formula_units_Z   1
loop_
 _symmetry_equiv_pos_site_id
 _symmetry_equiv_pos_as_xyz
  1  'x, y, z'
loop_
 _atom_site_type_symbol
 _atom_site_label
 _atom_site_symmetry_multiplicity
 _atom_site_fract_x
 _atom_site_fract_y
 _atom_site_fract_z
 _atom_site_occupancy
  Y  Y0  1  0.754984  0.752876  0.753145  1
  Y  Y1  1  0.247124  0.002109  0.753145  1
  Y  Y2  1  0.997891  0.245016  0.753145  1
  Y  Y3  1  0.247124  0.245016  0.246855  1
  Y  Y4  1  0.754984  0.002109  0.246855  1
  Y  Y5  1  0.997891  0.752876  0.246855  1
  Y  Y6  1  0.333333  0.666667  0.000000  1
  Y  Y7  1  0.333333  0.666667  0.500000  1
  Y  Y8  1  0.666667  0.333333  0.500000  1
  Mg  Mg9  1  0.666667  0.333333  0.000000  1
  As  As10  1  0.000000  0.000000  0.000000  1
  As  As11  1  0.000000  0.000000  0.500000  1
  Pb  Pb12  1  0.401281  0.399978  0.752249  1
  Pb  Pb13  1  0.600022  0.001303  0.752249  1
  Pb  Pb14  1  0.998697  0.598719  0.752249  1
  Pb  Pb15  1  0.600022  0.598719  0.247751  1
  Pb  Pb16  1  0.401281  0.001303  0.247751  1
  Pb  Pb17  1  0.998697  0.399978  0.247751  1
