# generated using pymatgen
data_EuFe3Sb12Pt
_symmetry_space_group_name_H-M   'P 1'
_cell_length_a   8.02652127
_cell_length_b   8.03977150
_cell_length_c   8.03977167
_cell_angle_alpha   109.50458624
_cell_angle_beta   109.43783147
_cell_angle_gamma   109.43783838
_symmetry_Int_Tables_number   1
_chemical_formula_structural   EuFe3Sb12Pt
_chemical_formula_sum   'Eu1 Fe3 Sb12 Pt1'
_cell_volume   399.55048475
_cell_formula_units_Z   1
loop_
 _symmetry_equiv_pos_site_id
 _symmetry_equiv_pos_as_xyz
  1  'x, y, z'
loop_
 _atom_site_type_symbol
 _atom_site_label
 _atom_site_symmetry_multiplicity
 _atom_site_fract_x
 _atom_site_fract_y
 _atom_site_fract_z
 _atom_site_occupancy
  Eu  Eu0  1  0.000000  0.000000  0.000000  1
  Fe  Fe1  1  0.500000  0.500000  0.500000  1
  Fe  Fe2  1  0.000000  0.500000  0.000000  1
  Fe  Fe3  1  0.000000  0.000000  0.500000  1
  Sb  Sb4  1  0.836342  0.667214  0.504740  1
  Sb  Sb5  1  0.163658  0.332786  0.495260  1
  Sb  Sb6  1  0.146315  0.648548  0.815492  1
  Sb  Sb7  1  0.853685  0.351452  0.184508  1
  Sb  Sb8  1  0.668397  0.504740  0.837525  1
  Sb  Sb9  1  0.331603  0.495260  0.162475  1
  Sb  Sb10  1  0.669178  0.815492  0.166945  1
  Sb  Sb11  1  0.330822  0.184508  0.833055  1
  Sb  Sb12  1  0.502232  0.833055  0.648548  1
  Sb  Sb13  1  0.497768  0.166945  0.351452  1
  Sb  Sb14  1  0.169129  0.837525  0.332786  1
  Sb  Sb15  1  0.830871  0.162475  0.667214  1
  Pt  Pt16  1  0.500000  0.000000  0.000000  1
