# generated using pymatgen
data_Mg2Pd(AuO2)3
_symmetry_space_group_name_H-M   'P 1'
_cell_length_a   5.33393300
_cell_length_b   5.33393407
_cell_length_c   18.22835800
_cell_angle_alpha   90.00000000
_cell_angle_beta   90.00000000
_cell_angle_gamma   119.99998719
_symmetry_Int_Tables_number   1
_chemical_formula_structural   Mg2Pd(AuO2)3
_chemical_formula_sum   'Mg6 Pd3 Au9 O18'
_cell_volume   449.13141813
_cell_formula_units_Z   3
loop_
 _symmetry_equiv_pos_site_id
 _symmetry_equiv_pos_as_xyz
  1  'x, y, z'
loop_
 _atom_site_type_symbol
 _atom_site_label
 _atom_site_symmetry_multiplicity
 _atom_site_fract_x
 _atom_site_fract_y
 _atom_site_fract_z
 _atom_site_occupancy
  Mg  Mg0  1  0.106985  0.893015  0.333333  1
  Mg  Mg1  1  0.106985  0.213968  0.666667  1
  Mg  Mg2  1  0.786032  0.893015  0.000000  1
  Mg  Mg3  1  0.773623  0.226377  0.333333  1
  Mg  Mg4  1  0.773623  0.547245  0.666667  1
  Mg  Mg5  1  0.452755  0.226377  0.000000  1
  Pd  Pd6  1  0.440451  0.559549  0.333333  1
  Pd  Pd7  1  0.440451  0.880901  0.666667  1
  Pd  Pd8  1  0.119099  0.559549  0.000000  1
  Au  Au9  1  0.441043  0.220522  0.500000  1
  Au  Au10  1  0.779478  0.220522  0.833333  1
  Au  Au11  1  0.779478  0.558957  0.166667  1
  Au  Au12  1  0.120917  0.560458  0.500000  1
  Au  Au13  1  0.439542  0.560458  0.833333  1
  Au  Au14  1  0.439542  0.879083  0.166667  1
  Au  Au15  1  0.760217  0.880108  0.500000  1
  Au  Au16  1  0.119892  0.880108  0.833333  1
  Au  Au17  1  0.119892  0.239783  0.166667  1
  O  O18  1  0.770052  0.559702  0.277304  1
  O  O19  1  0.440298  0.210350  0.610637  1
  O  O20  1  0.789650  0.229948  0.943971  1
  O  O21  1  0.770052  0.210350  0.722696  1
  O  O22  1  0.440298  0.229948  0.389363  1
  O  O23  1  0.789650  0.559702  0.056029  1
  O  O24  1  0.440669  0.888913  0.277118  1
  O  O25  1  0.111087  0.551755  0.610451  1
  O  O26  1  0.448245  0.559331  0.943785  1
  O  O27  1  0.440669  0.551755  0.722882  1
  O  O28  1  0.111087  0.559331  0.389549  1
  O  O29  1  0.448245  0.888913  0.056215  1
  O  O30  1  0.111094  0.230207  0.277143  1
  O  O31  1  0.769793  0.880885  0.610476  1
  O  O32  1  0.119115  0.888906  0.943809  1
  O  O33  1  0.111094  0.880885  0.722857  1
  O  O34  1  0.769793  0.888906  0.389524  1
  O  O35  1  0.119115  0.230207  0.056191  1
