# generated using pymatgen
data_KMnS2
_symmetry_space_group_name_H-M   'P 1'
_cell_length_a   5.24715040
_cell_length_b   6.78047635
_cell_length_c   6.72962213
_cell_angle_alpha   116.47905547
_cell_angle_beta   101.04192334
_cell_angle_gamma   101.54388755
_symmetry_Int_Tables_number   1
_chemical_formula_structural   KMnS2
_chemical_formula_sum   'K2 Mn2 S4'
_cell_volume   198.92545117
_cell_formula_units_Z   2
loop_
 _symmetry_equiv_pos_site_id
 _symmetry_equiv_pos_as_xyz
  1  'x, y, z'
loop_
 _atom_site_type_symbol
 _atom_site_label
 _atom_site_symmetry_multiplicity
 _atom_site_fract_x
 _atom_site_fract_y
 _atom_site_fract_z
 _atom_site_occupancy
  K  K0  1  0.245871  0.359225  0.643414  1
  K  K1  1  0.748082  0.638594  0.353911  1
  Mn  Mn2  1  0.250902  0.998451  0.000597  1
  Mn  Mn3  1  0.750476  0.001166  0.998280  1
  S  S4  1  0.404087  0.918922  0.703121  1
  S  S5  1  0.101823  0.296126  0.087438  1
  S  S6  1  0.597498  0.082580  0.295880  1
  S  S7  1  0.901261  0.704935  0.917361  1
