# generated using pymatgen
data_Ti6V6CdSn9
_symmetry_space_group_name_H-M   'P 1'
_cell_length_a   9.15238600
_cell_length_b   9.15238619
_cell_length_c   5.54116400
_cell_angle_alpha   90.00000000
_cell_angle_beta   90.00000000
_cell_angle_gamma   119.99999932
_symmetry_Int_Tables_number   1
_chemical_formula_structural   Ti6V6CdSn9
_chemical_formula_sum   'Ti6 V6 Cd1 Sn9'
_cell_volume   401.97616628
_cell_formula_units_Z   1
loop_
 _symmetry_equiv_pos_site_id
 _symmetry_equiv_pos_as_xyz
  1  'x, y, z'
loop_
 _atom_site_type_symbol
 _atom_site_label
 _atom_site_symmetry_multiplicity
 _atom_site_fract_x
 _atom_site_fract_y
 _atom_site_fract_z
 _atom_site_occupancy
  Ti  Ti0  1  0.842238  0.684475  0.755161  1
  Ti  Ti1  1  0.157762  0.842238  0.244839  1
  Ti  Ti2  1  0.684475  0.842238  0.244839  1
  Ti  Ti3  1  0.315525  0.157762  0.755161  1
  Ti  Ti4  1  0.842238  0.157762  0.755161  1
  Ti  Ti5  1  0.157762  0.315525  0.244839  1
  V  V6  1  0.500000  0.000000  0.500000  1
  V  V7  1  0.500000  0.500000  0.000000  1
  V  V8  1  0.000000  0.500000  0.000000  1
  V  V9  1  0.000000  0.500000  0.500000  1
  V  V10  1  0.500000  0.000000  0.000000  1
  V  V11  1  0.500000  0.500000  0.500000  1
  Cd  Cd12  1  0.000000  0.000000  0.500000  1
  Sn  Sn13  1  0.205414  0.410827  0.746044  1
  Sn  Sn14  1  0.794586  0.205414  0.253956  1
  Sn  Sn15  1  0.410827  0.205414  0.253956  1
  Sn  Sn16  1  0.589173  0.794586  0.746044  1
  Sn  Sn17  1  0.205414  0.794586  0.746044  1
  Sn  Sn18  1  0.794586  0.589173  0.253956  1
  Sn  Sn19  1  0.666667  0.333333  0.751547  1
  Sn  Sn20  1  0.333333  0.666667  0.248453  1
  Sn  Sn21  1  0.000000  0.000000  0.000000  1
