# generated using pymatgen
data_PrSm(SbS)2
_symmetry_space_group_name_H-M   'P 1'
_cell_length_a   4.17781100
_cell_length_b   4.17781100
_cell_length_c   8.90599300
_cell_angle_alpha   90.00000000
_cell_angle_beta   90.00000000
_cell_angle_gamma   90.00000000
_symmetry_Int_Tables_number   1
_chemical_formula_structural   PrSm(SbS)2
_chemical_formula_sum   'Pr1 Sm1 Sb2 S2'
_cell_volume   155.44613474
_cell_formula_units_Z   1
loop_
 _symmetry_equiv_pos_site_id
 _symmetry_equiv_pos_as_xyz
  1  'x, y, z'
loop_
 _atom_site_type_symbol
 _atom_site_label
 _atom_site_symmetry_multiplicity
 _atom_site_fract_x
 _atom_site_fract_y
 _atom_site_fract_z
 _atom_site_occupancy
  Pr  Pr0  1  0.500000  0.000000  0.308321  1
  Sm  Sm1  1  0.000000  0.500000  0.690927  1
  Sb  Sb2  1  0.000000  0.000000  0.997418  1
  Sb  Sb3  1  0.500000  0.500000  0.997418  1
  S  S4  1  0.000000  0.500000  0.375297  1
  S  S5  1  0.500000  0.000000  0.630618  1
