# generated using pymatgen
data_Hf7(Cu4Au)2
_symmetry_space_group_name_H-M   'P 1'
_cell_length_a   7.90513726
_cell_length_b   7.90513812
_cell_length_c   9.44235400
_cell_angle_alpha   90.00000000
_cell_angle_beta   90.00000000
_cell_angle_gamma   106.65943377
_symmetry_Int_Tables_number   1
_chemical_formula_structural   Hf7(Cu4Au)2
_chemical_formula_sum   'Hf14 Cu16 Au4'
_cell_volume   565.29653103
_cell_formula_units_Z   2
loop_
 _symmetry_equiv_pos_site_id
 _symmetry_equiv_pos_as_xyz
  1  'x, y, z'
loop_
 _atom_site_type_symbol
 _atom_site_label
 _atom_site_symmetry_multiplicity
 _atom_site_fract_x
 _atom_site_fract_y
 _atom_site_fract_z
 _atom_site_occupancy
  Hf  Hf0  1  0.694510  0.305490  0.000000  1
  Hf  Hf1  1  0.305490  0.694510  0.000000  1
  Hf  Hf2  1  0.805490  0.194510  0.500000  1
  Hf  Hf3  1  0.194510  0.805490  0.500000  1
  Hf  Hf4  1  0.000000  0.000000  0.000000  1
  Hf  Hf5  1  0.500000  0.500000  0.500000  1
  Hf  Hf6  1  0.008309  0.508309  0.250000  1
  Hf  Hf7  1  0.991691  0.491691  0.750000  1
  Hf  Hf8  1  0.491691  0.991691  0.750000  1
  Hf  Hf9  1  0.508309  0.008309  0.250000  1
  Hf  Hf10  1  0.314260  0.314260  0.187260  1
  Hf  Hf11  1  0.685740  0.685740  0.812740  1
  Hf  Hf12  1  0.185740  0.185740  0.687260  1
  Hf  Hf13  1  0.814260  0.814260  0.312740  1
  Cu  Cu14  1  0.861077  0.159411  0.202090  1
  Cu  Cu15  1  0.138923  0.840589  0.797910  1
  Cu  Cu16  1  0.638923  0.340589  0.702090  1
  Cu  Cu17  1  0.659411  0.361077  0.297910  1
  Cu  Cu18  1  0.361077  0.659411  0.297910  1
  Cu  Cu19  1  0.340589  0.638923  0.702090  1
  Cu  Cu20  1  0.840589  0.138923  0.797910  1
  Cu  Cu21  1  0.159411  0.861077  0.202090  1
  Cu  Cu22  1  0.948195  0.649416  0.004110  1
  Cu  Cu23  1  0.051805  0.350584  0.995890  1
  Cu  Cu24  1  0.551805  0.850584  0.504110  1
  Cu  Cu25  1  0.149416  0.448195  0.495890  1
  Cu  Cu26  1  0.448195  0.149416  0.495890  1
  Cu  Cu27  1  0.850584  0.551805  0.504110  1
  Cu  Cu28  1  0.350584  0.051805  0.995890  1
  Cu  Cu29  1  0.649416  0.948195  0.004110  1
  Au  Au30  1  0.111246  0.111246  0.390639  1
  Au  Au31  1  0.888754  0.888754  0.609361  1
  Au  Au32  1  0.388754  0.388754  0.890639  1
  Au  Au33  1  0.611246  0.611246  0.109361  1
