# generated using pymatgen
data_Li2PrAg4
_symmetry_space_group_name_H-M   'P 1'
_cell_length_a   5.79899076
_cell_length_b   5.79898860
_cell_length_c   5.79899047
_cell_angle_alpha   102.04669838
_cell_angle_beta   102.04754530
_cell_angle_gamma   125.63135618
_symmetry_Int_Tables_number   1
_chemical_formula_structural   Li2PrAg4
_chemical_formula_sum   'Li2 Pr1 Ag4'
_cell_volume   140.99293236
_cell_formula_units_Z   1
loop_
 _symmetry_equiv_pos_site_id
 _symmetry_equiv_pos_as_xyz
  1  'x, y, z'
loop_
 _atom_site_type_symbol
 _atom_site_label
 _atom_site_symmetry_multiplicity
 _atom_site_fract_x
 _atom_site_fract_y
 _atom_site_fract_z
 _atom_site_occupancy
  Li  Li0  1  0.249999  0.749999  0.500000  1
  Li  Li1  1  0.750001  0.250001  0.500000  1
  Pr  Pr2  1  0.000000  0.000000  0.000000  1
  Ag  Ag3  1  0.304817  0.304817  0.609635  1
  Ag  Ag4  1  0.695183  0.695183  0.390365  1
  Ag  Ag5  1  0.695182  0.304817  0.000000  1
  Ag  Ag6  1  0.304818  0.695183  0.000000  1
