# generated using pymatgen
data_Ti2NbAsC
_symmetry_space_group_name_H-M   'P 1'
_cell_length_a   5.50880148
_cell_length_b   5.50880082
_cell_length_c   8.15439700
_cell_angle_alpha   90.00000000
_cell_angle_beta   90.00000000
_cell_angle_gamma   144.93831511
_symmetry_Int_Tables_number   1
_chemical_formula_structural   Ti2NbAsC
_chemical_formula_sum   'Ti4 Nb2 As2 C2'
_cell_volume   142.15571711
_cell_formula_units_Z   2
loop_
 _symmetry_equiv_pos_site_id
 _symmetry_equiv_pos_as_xyz
  1  'x, y, z'
loop_
 _atom_site_type_symbol
 _atom_site_label
 _atom_site_symmetry_multiplicity
 _atom_site_fract_x
 _atom_site_fract_y
 _atom_site_fract_z
 _atom_site_occupancy
  Ti  Ti0  1  0.445071  0.554929  0.250000  1
  Ti  Ti1  1  0.869628  0.130372  0.553960  1
  Ti  Ti2  1  0.555709  0.444291  0.750000  1
  Ti  Ti3  1  0.869628  0.130372  0.946040  1
  Nb  Nb4  1  0.129997  0.870003  0.054502  1
  Nb  Nb5  1  0.129997  0.870003  0.445498  1
  As  As6  1  0.759420  0.240580  0.250000  1
  As  As7  1  0.247089  0.752911  0.750000  1
  C  C8  1  0.496729  0.503271  0.999036  1
  C  C9  1  0.496729  0.503271  0.500964  1
