# generated using pymatgen
data_La8Zn8Ir5Pd3
_symmetry_space_group_name_H-M   'P 1'
_cell_length_a   4.09977900
_cell_length_b   7.49066789
_cell_length_c   16.81123424
_cell_angle_alpha   89.85477807
_cell_angle_beta   90.00000000
_cell_angle_gamma   90.00000000
_symmetry_Int_Tables_number   1
_chemical_formula_structural   La8Zn8Ir5Pd3
_chemical_formula_sum   'La8 Zn8 Ir5 Pd3'
_cell_volume   516.27273898
_cell_formula_units_Z   1
loop_
 _symmetry_equiv_pos_site_id
 _symmetry_equiv_pos_as_xyz
  1  'x, y, z'
loop_
 _atom_site_type_symbol
 _atom_site_label
 _atom_site_symmetry_multiplicity
 _atom_site_fract_x
 _atom_site_fract_y
 _atom_site_fract_z
 _atom_site_occupancy
  La  La0  1  0.750000  0.323621  0.440530  1
  La  La1  1  0.250000  0.055651  0.717772  1
  La  La2  1  0.250000  0.542354  0.786149  1
  La  La3  1  0.250000  0.665318  0.559881  1
  La  La4  1  0.750000  0.824191  0.059210  1
  La  La5  1  0.250000  0.168800  0.936280  1
  La  La6  1  0.750000  0.456152  0.219099  1
  La  La7  1  0.750000  0.956139  0.280980  1
  Zn  Zn8  1  0.250000  0.126605  0.150888  1
  Zn  Zn9  1  0.250000  0.001708  0.439984  1
  Zn  Zn10  1  0.750000  0.874134  0.851988  1
  Zn  Zn11  1  0.750000  0.004585  0.560494  1
  Zn  Zn12  1  0.250000  0.501617  0.059702  1
  Zn  Zn13  1  0.750000  0.369994  0.649027  1
  Zn  Zn14  1  0.750000  0.503844  0.939024  1
  Zn  Zn15  1  0.250000  0.626508  0.349067  1
  Ir  Ir16  1  0.750000  0.253112  0.815002  1
  Ir  Ir17  1  0.250000  0.246448  0.313375  1
  Ir  Ir18  1  0.250000  0.739670  0.933777  1
  Ir  Ir19  1  0.250000  0.240590  0.565634  1
  Ir  Ir20  1  0.250000  0.746922  0.186646  1
  Pd  Pd21  1  0.750000  0.758687  0.435138  1
  Pd  Pd22  1  0.750000  0.260523  0.065823  1
  Pd  Pd23  1  0.750000  0.752826  0.684531  1
