# generated using pymatgen
data_Sr3HoPb12
_symmetry_space_group_name_H-M   'P 1'
_cell_length_a   12.74078490
_cell_length_b   12.74078516
_cell_length_c   12.74078449
_cell_angle_alpha   31.61711313
_cell_angle_beta   31.61710958
_cell_angle_gamma   31.61711734
_symmetry_Int_Tables_number   1
_chemical_formula_structural   Sr3HoPb12
_chemical_formula_sum   'Sr3 Ho1 Pb12'
_cell_volume   504.71176104
_cell_formula_units_Z   1
loop_
 _symmetry_equiv_pos_site_id
 _symmetry_equiv_pos_as_xyz
  1  'x, y, z'
loop_
 _atom_site_type_symbol
 _atom_site_label
 _atom_site_symmetry_multiplicity
 _atom_site_fract_x
 _atom_site_fract_y
 _atom_site_fract_z
 _atom_site_occupancy
  Sr  Sr0  1  0.124503  0.124503  0.124503  1
  Sr  Sr1  1  0.705768  0.705768  0.705768  1
  Sr  Sr2  1  0.292357  0.292357  0.292357  1
  Ho  Ho3  1  0.876846  0.876846  0.876846  1
  Pb  Pb4  1  0.282664  0.793193  0.793193  1
  Pb  Pb5  1  0.793193  0.793193  0.282664  1
  Pb  Pb6  1  0.870138  0.378184  0.378184  1
  Pb  Pb7  1  0.378184  0.378184  0.870138  1
  Pb  Pb8  1  0.378184  0.870138  0.378184  1
  Pb  Pb9  1  0.625781  0.129229  0.625781  1
  Pb  Pb10  1  0.129229  0.625781  0.625781  1
  Pb  Pb11  1  0.625781  0.625781  0.129229  1
  Pb  Pb12  1  0.793193  0.282664  0.793193  1
  Pb  Pb13  1  0.206556  0.711068  0.206556  1
  Pb  Pb14  1  0.206556  0.206556  0.711068  1
  Pb  Pb15  1  0.711068  0.206556  0.206556  1
