# generated using pymatgen
data_Dy8ErTm3Ga20
_symmetry_space_group_name_H-M   'P 1'
_cell_length_a   6.05351211
_cell_length_b   9.59979300
_cell_length_c   11.51961900
_cell_angle_alpha   90.00000000
_cell_angle_beta   90.01107391
_cell_angle_gamma   90.00000000
_symmetry_Int_Tables_number   1
_chemical_formula_structural   Dy8ErTm3Ga20
_chemical_formula_sum   'Dy8 Er1 Tm3 Ga20'
_cell_volume   669.43342281
_cell_formula_units_Z   1
loop_
 _symmetry_equiv_pos_site_id
 _symmetry_equiv_pos_as_xyz
  1  'x, y, z'
loop_
 _atom_site_type_symbol
 _atom_site_label
 _atom_site_symmetry_multiplicity
 _atom_site_fract_x
 _atom_site_fract_y
 _atom_site_fract_z
 _atom_site_occupancy
  Dy  Dy0  1  0.890314  0.506494  0.351393  1
  Dy  Dy1  1  0.609660  0.993633  0.851175  1
  Dy  Dy2  1  0.109801  0.006696  0.648624  1
  Dy  Dy3  1  0.390076  0.493358  0.148662  1
  Dy  Dy4  1  0.109801  0.493304  0.648624  1
  Dy  Dy5  1  0.390076  0.006642  0.148662  1
  Dy  Dy6  1  0.890314  0.993506  0.351393  1
  Dy  Dy7  1  0.609660  0.506367  0.851175  1
  Er  Er8  1  0.849621  0.750000  0.073871  1
  Tm  Tm9  1  0.650618  0.750000  0.573825  1
  Tm  Tm10  1  0.150528  0.250000  0.926062  1
  Tm  Tm11  1  0.349414  0.250000  0.426063  1
  Ga  Ga12  1  0.875511  0.053529  0.089848  1
  Ga  Ga13  1  0.624414  0.446926  0.589757  1
  Ga  Ga14  1  0.124500  0.552844  0.910043  1
  Ga  Ga15  1  0.375650  0.947020  0.410330  1
  Ga  Ga16  1  0.124500  0.947156  0.910043  1
  Ga  Ga17  1  0.375650  0.552980  0.410330  1
  Ga  Ga18  1  0.875511  0.446471  0.089848  1
  Ga  Ga19  1  0.624414  0.053074  0.589757  1
  Ga  Ga20  1  0.168455  0.750000  0.254387  1
  Ga  Ga21  1  0.332396  0.750000  0.753841  1
  Ga  Ga22  1  0.832385  0.250000  0.745932  1
  Ga  Ga23  1  0.667681  0.250000  0.246022  1
  Ga  Ga24  1  0.376889  0.750000  0.001639  1
  Ga  Ga25  1  0.122228  0.750000  0.501974  1
  Ga  Ga26  1  0.621896  0.250000  0.998206  1
  Ga  Ga27  1  0.877808  0.250000  0.498216  1
  Ga  Ga28  1  0.604292  0.750000  0.299279  1
  Ga  Ga29  1  0.895696  0.750000  0.798461  1
  Ga  Ga30  1  0.395750  0.250000  0.701254  1
  Ga  Ga31  1  0.104493  0.250000  0.201301  1
