# generated using pymatgen
data_Ho7Lu3Si5Pb
_symmetry_space_group_name_H-M   'P 1'
_cell_length_a   8.45306520
_cell_length_b   8.47997605
_cell_length_c   6.30571015
_cell_angle_alpha   90.02069826
_cell_angle_beta   90.00139510
_cell_angle_gamma   119.91998659
_symmetry_Int_Tables_number   1
_chemical_formula_structural   Ho7Lu3Si5Pb
_chemical_formula_sum   'Ho7 Lu3 Si5 Pb1'
_cell_volume   391.76265369
_cell_formula_units_Z   1
loop_
 _symmetry_equiv_pos_site_id
 _symmetry_equiv_pos_as_xyz
  1  'x, y, z'
loop_
 _atom_site_type_symbol
 _atom_site_label
 _atom_site_symmetry_multiplicity
 _atom_site_fract_x
 _atom_site_fract_y
 _atom_site_fract_z
 _atom_site_occupancy
  Ho  Ho0  1  0.987630  0.747064  0.749765  1
  Ho  Ho1  1  0.998001  0.242700  0.250571  1
  Ho  Ho2  1  0.755493  0.756814  0.250482  1
  Ho  Ho3  1  0.766848  0.000159  0.749691  1
  Ho  Ho4  1  0.240566  0.252742  0.749527  1
  Ho  Ho5  1  0.240646  0.000183  0.250327  1
  Ho  Ho6  1  0.331175  0.656414  0.003777  1
  Lu  Lu7  1  0.331071  0.655992  0.496273  1
  Lu  Lu8  1  0.675086  0.343980  0.003897  1
  Lu  Lu9  1  0.675205  0.343983  0.496150  1
  Si  Si10  1  0.394960  0.392412  0.251352  1
  Si  Si11  1  0.000322  0.606439  0.251125  1
  Si  Si12  1  0.997306  0.394676  0.748910  1
  Si  Si13  1  0.603618  0.604206  0.748883  1
  Si  Si14  1  0.605528  0.000838  0.250979  1
  Pb  Pb15  1  0.396548  0.001400  0.748293  1
