# generated using pymatgen
data_Nd3Mg2CdIrAu2
_symmetry_space_group_name_H-M   'P 1'
_cell_length_a   7.79657807
_cell_length_b   7.83765051
_cell_length_c   4.04504600
_cell_angle_alpha   90.00000000
_cell_angle_beta   90.00000000
_cell_angle_gamma   119.62374705
_symmetry_Int_Tables_number   1
_chemical_formula_structural   Nd3Mg2CdIrAu2
_chemical_formula_sum   'Nd3 Mg2 Cd1 Ir1 Au2'
_cell_volume   214.87116610
_cell_formula_units_Z   1
loop_
 _symmetry_equiv_pos_site_id
 _symmetry_equiv_pos_as_xyz
  1  'x, y, z'
loop_
 _atom_site_type_symbol
 _atom_site_label
 _atom_site_symmetry_multiplicity
 _atom_site_fract_x
 _atom_site_fract_y
 _atom_site_fract_z
 _atom_site_occupancy
  Nd  Nd0  1  0.575117  0.971466  0.000000  1
  Nd  Nd1  1  0.016031  0.599450  0.000000  1
  Nd  Nd2  1  0.406104  0.429212  0.000000  1
  Mg  Mg3  1  0.250784  0.000351  0.500000  1
  Mg  Mg4  1  0.000716  0.251800  0.500000  1
  Cd  Cd5  1  0.747394  0.745321  0.500000  1
  Ir  Ir6  1  0.324018  0.665139  0.500000  1
  Au  Au7  1  0.664460  0.321147  0.500000  1
  Au  Au8  1  0.015377  0.016112  0.000000  1
