# generated using pymatgen
data_Tm4Ta2B4Ir3Ru7
_symmetry_space_group_name_H-M   'P 1'
_cell_length_a   9.63829154
_cell_length_b   9.66141954
_cell_length_c   3.12282400
_cell_angle_alpha   90.00000000
_cell_angle_beta   90.00000000
_cell_angle_gamma   89.96166750
_symmetry_Int_Tables_number   1
_chemical_formula_structural   Tm4Ta2B4Ir3Ru7
_chemical_formula_sum   'Tm4 Ta2 B4 Ir3 Ru7'
_cell_volume   290.79598864
_cell_formula_units_Z   1
loop_
 _symmetry_equiv_pos_site_id
 _symmetry_equiv_pos_as_xyz
  1  'x, y, z'
loop_
 _atom_site_type_symbol
 _atom_site_label
 _atom_site_symmetry_multiplicity
 _atom_site_fract_x
 _atom_site_fract_y
 _atom_site_fract_z
 _atom_site_occupancy
  Tm  Tm0  1  0.825787  0.674196  0.000000  1
  Tm  Tm1  1  0.171732  0.324044  0.000000  1
  Tm  Tm2  1  0.325023  0.825755  0.000000  1
  Tm  Tm3  1  0.678074  0.174811  0.000000  1
  Ta  Ta4  1  0.500342  0.499256  0.000000  1
  Ta  Ta5  1  0.998536  0.004867  0.000000  1
  B  B6  1  0.624545  0.885657  0.000000  1
  B  B7  1  0.376207  0.114127  0.000000  1
  B  B8  1  0.122559  0.615778  0.000000  1
  B  B9  1  0.877882  0.380371  0.000000  1
  Ir  Ir10  1  0.570472  0.720367  0.500000  1
  Ir  Ir11  1  0.428426  0.279234  0.500000  1
  Ir  Ir12  1  0.071540  0.781007  0.500000  1
  Ru  Ru13  1  0.928334  0.220179  0.500000  1
  Ru  Ru14  1  0.282411  0.570293  0.500000  1
  Ru  Ru15  1  0.716610  0.431008  0.500000  1
  Ru  Ru16  1  0.218170  0.069556  0.500000  1
  Ru  Ru17  1  0.782637  0.927868  0.500000  1
  Ru  Ru18  1  0.501016  0.000431  0.500000  1
  Ru  Ru19  1  0.999698  0.501193  0.500000  1
