# generated using pymatgen
data_Sc4Al6TcRh
_symmetry_space_group_name_H-M   'P 1'
_cell_length_a   5.30737100
_cell_length_b   5.30737252
_cell_length_c   8.60149100
_cell_angle_alpha   90.00000000
_cell_angle_beta   90.00000000
_cell_angle_gamma   120.00000924
_symmetry_Int_Tables_number   1
_chemical_formula_structural   Sc4Al6TcRh
_chemical_formula_sum   'Sc4 Al6 Tc1 Rh1'
_cell_volume   209.82795545
_cell_formula_units_Z   1
loop_
 _symmetry_equiv_pos_site_id
 _symmetry_equiv_pos_as_xyz
  1  'x, y, z'
loop_
 _atom_site_type_symbol
 _atom_site_label
 _atom_site_symmetry_multiplicity
 _atom_site_fract_x
 _atom_site_fract_y
 _atom_site_fract_z
 _atom_site_occupancy
  Sc  Sc0  1  0.333333  0.666667  0.056973  1
  Sc  Sc1  1  0.666667  0.333333  0.552772  1
  Sc  Sc2  1  0.333333  0.666667  0.447228  1
  Sc  Sc3  1  0.666667  0.333333  0.943027  1
  Al  Al4  1  0.834438  0.668875  0.252055  1
  Al  Al5  1  0.165562  0.834438  0.747945  1
  Al  Al6  1  0.668875  0.834438  0.747945  1
  Al  Al7  1  0.331125  0.165562  0.252055  1
  Al  Al8  1  0.834438  0.165562  0.252055  1
  Al  Al9  1  0.165562  0.331125  0.747945  1
  Tc  Tc10  1  0.000000  0.000000  0.000000  1
  Rh  Rh11  1  0.000000  0.000000  0.500000  1
