# generated using pymatgen
data_Er10Hg3Bi2Au
_symmetry_space_group_name_H-M   'P 1'
_cell_length_a   8.70723326
_cell_length_b   8.70723269
_cell_length_c   8.72993447
_cell_angle_alpha   123.85693636
_cell_angle_beta   123.85693484
_cell_angle_gamma   83.27250923
_symmetry_Int_Tables_number   1
_chemical_formula_structural   Er10Hg3Bi2Au
_chemical_formula_sum   'Er10 Hg3 Bi2 Au1'
_cell_volume   438.14950759
_cell_formula_units_Z   1
loop_
 _symmetry_equiv_pos_site_id
 _symmetry_equiv_pos_as_xyz
  1  'x, y, z'
loop_
 _atom_site_type_symbol
 _atom_site_label
 _atom_site_symmetry_multiplicity
 _atom_site_fract_x
 _atom_site_fract_y
 _atom_site_fract_z
 _atom_site_occupancy
  Er  Er0  1  0.498072  0.495634  0.993706  1
  Er  Er1  1  0.004366  0.001928  0.006294  1
  Er  Er2  1  0.502572  0.008848  0.800303  1
  Er  Er3  1  0.202267  0.708543  0.199697  1
  Er  Er4  1  0.014920  0.198393  0.500000  1
  Er  Er5  1  0.701981  0.507259  0.500000  1
  Er  Er6  1  0.491152  0.997428  0.199697  1
  Er  Er7  1  0.791457  0.297733  0.800303  1
  Er  Er8  1  0.992741  0.798019  0.500000  1
  Er  Er9  1  0.301607  0.485080  0.500000  1
  Hg  Hg10  1  0.140551  0.640823  0.781374  1
  Hg  Hg11  1  0.859177  0.359449  0.218626  1
  Hg  Hg12  1  0.640397  0.859603  0.500000  1
  Bi  Bi13  1  0.248512  0.251488  0.000000  1
  Bi  Bi14  1  0.748512  0.751488  0.000000  1
  Au  Au15  1  0.361715  0.138285  0.500000  1
