# generated using pymatgen
data_Ti5Si2AsN
_symmetry_space_group_name_H-M   'P 1'
_cell_length_a   7.47175900
_cell_length_b   7.42981279
_cell_length_c   5.20892200
_cell_angle_alpha   90.00000000
_cell_angle_beta   90.00000000
_cell_angle_gamma   120.18692002
_symmetry_Int_Tables_number   1
_chemical_formula_structural   Ti5Si2AsN
_chemical_formula_sum   'Ti10 Si4 As2 N2'
_cell_volume   249.95286546
_cell_formula_units_Z   2
loop_
 _symmetry_equiv_pos_site_id
 _symmetry_equiv_pos_as_xyz
  1  'x, y, z'
loop_
 _atom_site_type_symbol
 _atom_site_label
 _atom_site_symmetry_multiplicity
 _atom_site_fract_x
 _atom_site_fract_y
 _atom_site_fract_z
 _atom_site_occupancy
  Ti  Ti0  1  0.222985  0.000000  0.750000  1
  Ti  Ti1  1  0.777015  0.000000  0.250000  1
  Ti  Ti2  1  0.004262  0.232452  0.750000  1
  Ti  Ti3  1  0.995738  0.767548  0.250000  1
  Ti  Ti4  1  0.771810  0.767548  0.750000  1
  Ti  Ti5  1  0.228190  0.232452  0.250000  1
  Ti  Ti6  1  0.332655  0.665310  0.500000  1
  Ti  Ti7  1  0.667345  0.334690  0.500000  1
  Ti  Ti8  1  0.667345  0.334690  0.000000  1
  Ti  Ti9  1  0.332655  0.665310  0.000000  1
  Si  Si10  1  0.000063  0.589624  0.750000  1
  Si  Si11  1  0.999937  0.410376  0.250000  1
  Si  Si12  1  0.410439  0.410376  0.750000  1
  Si  Si13  1  0.589561  0.589624  0.250000  1
  As  As14  1  0.598524  0.000000  0.750000  1
  As  As15  1  0.401476  0.000000  0.250000  1
  N  N16  1  0.000000  0.000000  0.500000  1
  N  N17  1  0.000000  0.000000  0.000000  1
