# generated using pymatgen
data_SmDyHoSbO7
_symmetry_space_group_name_H-M   'P 1'
_cell_length_a   6.49520768
_cell_length_b   6.49520771
_cell_length_c   7.57971400
_cell_angle_alpha   90.00000000
_cell_angle_beta   90.00000000
_cell_angle_gamma   109.29464061
_symmetry_Int_Tables_number   1
_chemical_formula_structural   SmDyHoSbO7
_chemical_formula_sum   'Sm2 Dy2 Ho2 Sb2 O14'
_cell_volume   301.80994065
_cell_formula_units_Z   2
loop_
 _symmetry_equiv_pos_site_id
 _symmetry_equiv_pos_as_xyz
  1  'x, y, z'
loop_
 _atom_site_type_symbol
 _atom_site_label
 _atom_site_symmetry_multiplicity
 _atom_site_fract_x
 _atom_site_fract_y
 _atom_site_fract_z
 _atom_site_occupancy
  Sm  Sm0  1  0.500371  0.500371  0.500000  1
  Sm  Sm1  1  0.500371  0.500371  0.000000  1
  Dy  Dy2  1  0.468579  0.999410  0.250000  1
  Dy  Dy3  1  0.999410  0.468579  0.750000  1
  Ho  Ho4  1  0.531215  0.000775  0.750000  1
  Ho  Ho5  1  0.000775  0.531215  0.250000  1
  Sb  Sb6  1  0.999944  0.999944  0.500000  1
  Sb  Sb7  1  0.999944  0.999944  0.000000  1
  O  O8  1  0.678035  0.929623  0.471208  1
  O  O9  1  0.929623  0.678035  0.528792  1
  O  O10  1  0.678035  0.929623  0.028792  1
  O  O11  1  0.929623  0.678035  0.971208  1
  O  O12  1  0.321707  0.070205  0.530075  1
  O  O13  1  0.070205  0.321707  0.469925  1
  O  O14  1  0.321707  0.070205  0.969925  1
  O  O15  1  0.070205  0.321707  0.030075  1
  O  O16  1  0.930656  0.068887  0.750000  1
  O  O17  1  0.068887  0.930656  0.250000  1
  O  O18  1  0.366659  0.635514  0.750000  1
  O  O19  1  0.635514  0.366659  0.250000  1
  O  O20  1  0.639651  0.358883  0.750000  1
  O  O21  1  0.358883  0.639651  0.250000  1
