# generated using pymatgen
data_Zr4Al24Ir2Pt7
_symmetry_space_group_name_H-M   'P 1'
_cell_length_a   7.46297597
_cell_length_b   7.46506675
_cell_length_c   12.97361895
_cell_angle_alpha   84.44031650
_cell_angle_beta   101.05415292
_cell_angle_gamma   119.92116048
_symmetry_Int_Tables_number   1
_chemical_formula_structural   Zr4Al24Ir2Pt7
_chemical_formula_sum   'Zr4 Al24 Ir2 Pt7'
_cell_volume   614.82016843
_cell_formula_units_Z   1
loop_
 _symmetry_equiv_pos_site_id
 _symmetry_equiv_pos_as_xyz
  1  'x, y, z'
loop_
 _atom_site_type_symbol
 _atom_site_label
 _atom_site_symmetry_multiplicity
 _atom_site_fract_x
 _atom_site_fract_y
 _atom_site_fract_z
 _atom_site_occupancy
  Zr  Zr0  1  0.731213  0.999290  0.188460  1
  Zr  Zr1  1  0.268456  0.001997  0.811429  1
  Zr  Zr2  1  0.059732  0.668407  0.188445  1
  Zr  Zr3  1  0.939171  0.331684  0.811828  1
  Al  Al4  1  0.814800  0.875000  0.817286  1
  Al  Al5  1  0.186440  0.124731  0.182678  1
  Al  Al6  1  0.987582  0.669865  0.943069  1
  Al  Al7  1  0.017863  0.333799  0.055689  1
  Al  Al8  1  0.391546  0.662858  0.818786  1
  Al  Al9  1  0.606772  0.336135  0.182706  1
  Al  Al10  1  0.886884  0.665228  0.677721  1
  Al  Al11  1  0.113845  0.334657  0.322135  1
  Al  Al12  1  0.602663  0.452744  0.816631  1
  Al  Al13  1  0.397843  0.548254  0.181858  1
  Al  Al14  1  0.230202  0.338001  0.675877  1
  Al  Al15  1  0.769874  0.661857  0.324431  1
  Al  Al16  1  0.852642  0.332666  0.561575  1
  Al  Al17  1  0.187479  0.999757  0.561279  1
  Al  Al18  1  0.813484  0.000412  0.438859  1
  Al  Al19  1  0.348953  0.993580  0.056313  1
  Al  Al20  1  0.647512  0.000808  0.943778  1
  Al  Al21  1  0.558281  0.994646  0.678190  1
  Al  Al22  1  0.442059  0.004715  0.322650  1
  Al  Al23  1  0.521716  0.667359  0.563775  1
  Al  Al24  1  0.478319  0.332620  0.435992  1
  Al  Al25  1  0.685279  0.673195  0.046842  1
  Al  Al26  1  0.311024  0.330438  0.952924  1
  Al  Al27  1  0.147289  0.666448  0.438904  1
  Ir  Ir28  1  0.328419  0.671939  0.000353  1
  Ir  Ir29  1  0.999757  0.000294  0.000015  1
  Pt  Pt30  1  0.545609  0.323155  0.637496  1
  Pt  Pt31  1  0.454567  0.676354  0.361896  1
  Pt  Pt32  1  0.889192  0.009266  0.639218  1
  Pt  Pt33  1  0.111189  0.990288  0.360726  1
  Pt  Pt34  1  0.671715  0.327922  0.999623  1
  Pt  Pt35  1  0.203049  0.666285  0.639326  1
  Pt  Pt36  1  0.797576  0.333343  0.361240  1
