# generated using pymatgen
data_La5TmAl24Os5Pt3
_symmetry_space_group_name_H-M   'P 1'
_cell_length_a   8.93819845
_cell_length_b   8.95943739
_cell_length_c   9.68953168
_cell_angle_alpha   90.05352676
_cell_angle_beta   89.85717767
_cell_angle_gamma   119.60887584
_symmetry_Int_Tables_number   1
_chemical_formula_structural   La5TmAl24Os5Pt3
_chemical_formula_sum   'La5 Tm1 Al24 Os5 Pt3'
_cell_volume   674.62273282
_cell_formula_units_Z   1
loop_
 _symmetry_equiv_pos_site_id
 _symmetry_equiv_pos_as_xyz
  1  'x, y, z'
loop_
 _atom_site_type_symbol
 _atom_site_label
 _atom_site_symmetry_multiplicity
 _atom_site_fract_x
 _atom_site_fract_y
 _atom_site_fract_z
 _atom_site_occupancy
  La  La0  1  0.187781  0.378867  0.250900  1
  La  La1  1  0.813301  0.621730  0.749934  1
  La  La2  1  0.619670  0.814162  0.251728  1
  La  La3  1  0.380363  0.185391  0.748214  1
  La  La4  1  0.192926  0.810344  0.250758  1
  Tm  Tm5  1  0.800750  0.192577  0.747847  1
  Al  Al6  1  0.336524  0.671336  0.016993  1
  Al  Al7  1  0.666375  0.327752  0.973885  1
  Al  Al8  1  0.670366  0.329960  0.523484  1
  Al  Al9  1  0.331304  0.668355  0.484152  1
  Al  Al10  1  0.154108  0.323148  0.576096  1
  Al  Al11  1  0.841208  0.673321  0.427413  1
  Al  Al12  1  0.675540  0.844280  0.576826  1
  Al  Al13  1  0.836367  0.675174  0.075411  1
  Al  Al14  1  0.327532  0.159530  0.426293  1
  Al  Al15  1  0.159738  0.322438  0.921879  1
  Al  Al16  1  0.164311  0.834574  0.577190  1
  Al  Al17  1  0.327184  0.159099  0.074171  1
  Al  Al18  1  0.835575  0.164607  0.428216  1
  Al  Al19  1  0.676442  0.845433  0.922514  1
  Al  Al20  1  0.832025  0.159688  0.073510  1
  Al  Al21  1  0.168778  0.841035  0.921131  1
  Al  Al22  1  0.564580  0.128478  0.249575  1
  Al  Al23  1  0.440572  0.875022  0.750296  1
  Al  Al24  1  0.870524  0.434224  0.253560  1
  Al  Al25  1  0.125243  0.559845  0.747663  1
  Al  Al26  1  0.564538  0.435241  0.249612  1
  Al  Al27  1  0.435791  0.564373  0.750571  1
  Al  Al28  1  0.999268  0.003308  0.250106  1
  Al  Al29  1  0.995821  0.002181  0.749796  1
  Os  Os30  1  0.502551  0.000937  0.998170  1
  Os  Os31  1  0.502255  0.000583  0.501672  1
  Os  Os32  1  0.999352  0.497671  0.501707  1
  Os  Os33  1  0.000291  0.000133  0.999301  1
  Os  Os34  1  0.000059  0.999593  0.500271  1
  Pt  Pt35  1  0.999487  0.497616  0.998867  1
  Pt  Pt36  1  0.500740  0.498909  0.999212  1
  Pt  Pt37  1  0.500759  0.499087  0.501074  1
