# generated using pymatgen
data_ErZr4Sn3S
_symmetry_space_group_name_H-M   'P 1'
_cell_length_a   8.68172576
_cell_length_b   8.66972740
_cell_length_c   6.07629600
_cell_angle_alpha   90.00000000
_cell_angle_beta   90.00000000
_cell_angle_gamma   119.95429356
_symmetry_Int_Tables_number   1
_chemical_formula_structural   ErZr4Sn3S
_chemical_formula_sum   'Er2 Zr8 Sn6 S2'
_cell_volume   396.26060410
_cell_formula_units_Z   2
loop_
 _symmetry_equiv_pos_site_id
 _symmetry_equiv_pos_as_xyz
  1  'x, y, z'
loop_
 _atom_site_type_symbol
 _atom_site_label
 _atom_site_symmetry_multiplicity
 _atom_site_fract_x
 _atom_site_fract_y
 _atom_site_fract_z
 _atom_site_occupancy
  Er  Er0  1  0.748787  0.748461  0.750000  1
  Er  Er1  1  0.251213  0.999674  0.750000  1
  Zr  Zr2  1  0.667903  0.333067  0.001037  1
  Zr  Zr3  1  0.332097  0.665165  0.001037  1
  Zr  Zr4  1  0.332097  0.665165  0.498963  1
  Zr  Zr5  1  0.667903  0.333067  0.498963  1
  Zr  Zr6  1  0.000000  0.250744  0.750000  1
  Zr  Zr7  1  0.252310  0.252613  0.250000  1
  Zr  Zr8  1  0.747690  0.000303  0.250000  1
  Zr  Zr9  1  0.000000  0.746926  0.250000  1
  Sn  Sn10  1  0.396800  0.398679  0.750000  1
  Sn  Sn11  1  0.603200  0.001879  0.750000  1
  Sn  Sn12  1  0.000000  0.595419  0.750000  1
  Sn  Sn13  1  0.600901  0.601008  0.250000  1
  Sn  Sn14  1  0.399099  0.000107  0.250000  1
  Sn  Sn15  1  0.000000  0.399085  0.250000  1
  S  S16  1  0.000000  0.004319  0.005963  1
  S  S17  1  0.000000  0.004319  0.494037  1
