# generated using pymatgen
data_Tm6Al24Ir3Ru4Au
_symmetry_space_group_name_H-M   'P 1'
_cell_length_a   8.83666305
_cell_length_b   8.84379041
_cell_length_c   9.49176030
_cell_angle_alpha   89.74820627
_cell_angle_beta   90.15611528
_cell_angle_gamma   120.05077687
_symmetry_Int_Tables_number   1
_chemical_formula_structural   Tm6Al24Ir3Ru4Au
_chemical_formula_sum   'Tm6 Al24 Ir3 Ru4 Au1'
_cell_volume   642.06266687
_cell_formula_units_Z   1
loop_
 _symmetry_equiv_pos_site_id
 _symmetry_equiv_pos_as_xyz
  1  'x, y, z'
loop_
 _atom_site_type_symbol
 _atom_site_label
 _atom_site_symmetry_multiplicity
 _atom_site_fract_x
 _atom_site_fract_y
 _atom_site_fract_z
 _atom_site_occupancy
  Tm  Tm0  1  0.804602  0.194112  0.746427  1
  Tm  Tm1  1  0.195398  0.805888  0.253573  1
  Tm  Tm2  1  0.388934  0.193570  0.749384  1
  Tm  Tm3  1  0.611066  0.806430  0.250616  1
  Tm  Tm4  1  0.806126  0.611264  0.749096  1
  Tm  Tm5  1  0.193874  0.388736  0.250904  1
  Al  Al6  1  0.669620  0.326419  0.969372  1
  Al  Al7  1  0.330380  0.673581  0.030628  1
  Al  Al8  1  0.334697  0.665326  0.473882  1
  Al  Al9  1  0.665303  0.334674  0.526118  1
  Al  Al10  1  0.837065  0.162395  0.423302  1
  Al  Al11  1  0.162935  0.837605  0.576698  1
  Al  Al12  1  0.325502  0.163080  0.424692  1
  Al  Al13  1  0.164367  0.838534  0.922745  1
  Al  Al14  1  0.674498  0.836920  0.575308  1
  Al  Al15  1  0.835633  0.161466  0.077255  1
  Al  Al16  1  0.836956  0.674907  0.424072  1
  Al  Al17  1  0.677347  0.849055  0.920410  1
  Al  Al18  1  0.163044  0.325093  0.575928  1
  Al  Al19  1  0.322653  0.150945  0.079590  1
  Al  Al20  1  0.152081  0.321650  0.919795  1
  Al  Al21  1  0.847919  0.678350  0.080205  1
  Al  Al22  1  0.435694  0.563986  0.742349  1
  Al  Al23  1  0.564306  0.436014  0.257651  1
  Al  Al24  1  0.124461  0.563007  0.750190  1
  Al  Al25  1  0.875539  0.436993  0.249810  1
  Al  Al26  1  0.437715  0.877136  0.751840  1
  Al  Al27  1  0.562285  0.122864  0.248160  1
  Al  Al28  1  0.999579  0.999212  0.749597  1
  Al  Al29  1  0.000421  0.000788  0.250403  1
  Ir  Ir30  1  0.000000  0.500000  0.000000  1
  Ir  Ir31  1  0.000000  0.500000  0.500000  1
  Ir  Ir32  1  0.500000  0.000000  0.500000  1
  Ru  Ru33  1  0.500000  0.500000  0.500000  1
  Ru  Ru34  1  0.500000  0.000000  0.000000  1
  Ru  Ru35  1  0.000000  0.000000  0.000000  1
  Ru  Ru36  1  0.000000  0.000000  0.500000  1
  Au  Au37  1  0.500000  0.500000  0.000000  1
