# generated using pymatgen
data_ErTh2Sn3Ir2Ru
_symmetry_space_group_name_H-M   'P 1'
_cell_length_a   7.53540400
_cell_length_b   7.49913685
_cell_length_c   4.08900600
_cell_angle_alpha   90.00000000
_cell_angle_beta   90.00000000
_cell_angle_gamma   119.84091439
_symmetry_Int_Tables_number   1
_chemical_formula_structural   ErTh2Sn3Ir2Ru
_chemical_formula_sum   'Er1 Th2 Sn3 Ir2 Ru1'
_cell_volume   200.42881879
_cell_formula_units_Z   1
loop_
 _symmetry_equiv_pos_site_id
 _symmetry_equiv_pos_as_xyz
  1  'x, y, z'
loop_
 _atom_site_type_symbol
 _atom_site_label
 _atom_site_symmetry_multiplicity
 _atom_site_fract_x
 _atom_site_fract_y
 _atom_site_fract_z
 _atom_site_occupancy
  Er  Er0  1  0.000000  0.593261  0.500000  1
  Th  Th1  1  0.412376  0.411748  0.500000  1
  Th  Th2  1  0.587624  0.999372  0.500000  1
  Sn  Sn3  1  0.759410  0.748431  0.000000  1
  Sn  Sn4  1  0.240590  0.989021  0.000000  1
  Sn  Sn5  1  0.000000  0.260111  0.000000  1
  Ir  Ir6  1  0.656542  0.324661  0.000000  1
  Ir  Ir7  1  0.343458  0.668120  0.000000  1
  Ru  Ru8  1  0.000000  0.005275  0.500000  1
