# generated using pymatgen
data_TbY19Co3Bi8Ru
_symmetry_space_group_name_H-M   'P 1'
_cell_length_a   8.02617798
_cell_length_b   8.94055510
_cell_length_c   12.43786175
_cell_angle_alpha   89.98398474
_cell_angle_beta   90.18496659
_cell_angle_gamma   90.00631299
_symmetry_Int_Tables_number   1
_chemical_formula_structural   TbY19Co3Bi8Ru
_chemical_formula_sum   'Tb1 Y19 Co3 Bi8 Ru1'
_cell_volume   892.51744380
_cell_formula_units_Z   1
loop_
 _symmetry_equiv_pos_site_id
 _symmetry_equiv_pos_as_xyz
  1  'x, y, z'
loop_
 _atom_site_type_symbol
 _atom_site_label
 _atom_site_symmetry_multiplicity
 _atom_site_fract_x
 _atom_site_fract_y
 _atom_site_fract_z
 _atom_site_occupancy
  Tb  Tb0  1  0.175682  0.533515  0.936834  1
  Y  Y1  1  0.846868  0.749849  0.799232  1
  Y  Y2  1  0.152388  0.249990  0.199934  1
  Y  Y3  1  0.347277  0.249974  0.700670  1
  Y  Y4  1  0.653837  0.750035  0.294931  1
  Y  Y5  1  0.378268  0.749719  0.693909  1
  Y  Y6  1  0.619475  0.249935  0.309002  1
  Y  Y7  1  0.880035  0.249951  0.809471  1
  Y  Y8  1  0.118797  0.750362  0.188728  1
  Y  Y9  1  0.949940  0.750036  0.503561  1
  Y  Y10  1  0.049890  0.249913  0.496852  1
  Y  Y11  1  0.452539  0.250509  0.997330  1
  Y  Y12  1  0.546666  0.749542  0.001955  1
  Y  Y13  1  0.678053  0.042209  0.565748  1
  Y  Y14  1  0.323958  0.965610  0.435560  1
  Y  Y15  1  0.176149  0.966216  0.936128  1
  Y  Y16  1  0.323853  0.534313  0.435736  1
  Y  Y17  1  0.822734  0.036143  0.063828  1
  Y  Y18  1  0.678227  0.457705  0.565597  1
  Y  Y19  1  0.822180  0.464261  0.064130  1
  Co  Co20  1  0.433180  0.249951  0.490506  1
  Co  Co21  1  0.060259  0.250805  0.991925  1
  Co  Co22  1  0.938170  0.749853  0.007215  1
  Bi  Bi23  1  0.571717  0.491424  0.827040  1
  Bi  Bi24  1  0.428171  0.508054  0.173057  1
  Bi  Bi25  1  0.071359  0.507795  0.673674  1
  Bi  Bi26  1  0.428455  0.992068  0.172525  1
  Bi  Bi27  1  0.930036  0.492212  0.326455  1
  Bi  Bi28  1  0.570891  0.008288  0.827449  1
  Bi  Bi29  1  0.930032  0.007808  0.326442  1
  Bi  Bi30  1  0.071347  0.992005  0.673910  1
  Ru  Ru31  1  0.569566  0.749949  0.510668  1
