# generated using pymatgen
data_DyTm5TcTe2
_symmetry_space_group_name_H-M   'P 1'
_cell_length_a   8.12754300
_cell_length_b   8.21696821
_cell_length_c   4.06861100
_cell_angle_alpha   90.00000000
_cell_angle_beta   90.00000000
_cell_angle_gamma   120.36464262
_symmetry_Int_Tables_number   1
_chemical_formula_structural   DyTm5TcTe2
_chemical_formula_sum   'Dy1 Tm5 Tc1 Te2'
_cell_volume   234.44456220
_cell_formula_units_Z   1
loop_
 _symmetry_equiv_pos_site_id
 _symmetry_equiv_pos_as_xyz
  1  'x, y, z'
loop_
 _atom_site_type_symbol
 _atom_site_label
 _atom_site_symmetry_multiplicity
 _atom_site_fract_x
 _atom_site_fract_y
 _atom_site_fract_z
 _atom_site_occupancy
  Dy  Dy0  1  0.000000  0.610288  0.500000  1
  Tm  Tm1  1  0.613663  0.999439  0.500000  1
  Tm  Tm2  1  0.386337  0.385776  0.500000  1
  Tm  Tm3  1  0.000000  0.238823  0.000000  1
  Tm  Tm4  1  0.762199  0.761971  0.000000  1
  Tm  Tm5  1  0.237801  0.999771  0.000000  1
  Tc  Tc6  1  0.000000  0.005307  0.500000  1
  Te  Te7  1  0.333367  0.665998  0.000000  1
  Te  Te8  1  0.666633  0.332628  0.000000  1
