# generated using pymatgen
data_LaGd2Tm(NiP)4
_symmetry_space_group_name_H-M   'P 1'
_cell_length_a   3.94333100
_cell_length_b   3.94333054
_cell_length_c   15.56661500
_cell_angle_alpha   90.00000000
_cell_angle_beta   90.00000000
_cell_angle_gamma   120.00001226
_symmetry_Int_Tables_number   1
_chemical_formula_structural   LaGd2Tm(NiP)4
_chemical_formula_sum   'La1 Gd2 Tm1 Ni4 P4'
_cell_volume   209.62891064
_cell_formula_units_Z   1
loop_
 _symmetry_equiv_pos_site_id
 _symmetry_equiv_pos_as_xyz
  1  'x, y, z'
loop_
 _atom_site_type_symbol
 _atom_site_label
 _atom_site_symmetry_multiplicity
 _atom_site_fract_x
 _atom_site_fract_y
 _atom_site_fract_z
 _atom_site_occupancy
  La  La0  1  0.000000  0.000000  0.750000  1
  Gd  Gd1  1  0.000000  0.000000  0.493286  1
  Gd  Gd2  1  0.000000  0.000000  0.006714  1
  Tm  Tm3  1  0.000000  0.000000  0.250000  1
  Ni  Ni4  1  0.333333  0.666667  0.362060  1
  Ni  Ni5  1  0.666667  0.333333  0.615359  1
  Ni  Ni6  1  0.666667  0.333333  0.884641  1
  Ni  Ni7  1  0.333333  0.666667  0.137940  1
  P  P8  1  0.333333  0.666667  0.881850  1
  P  P9  1  0.666667  0.333333  0.126570  1
  P  P10  1  0.666667  0.333333  0.373430  1
  P  P11  1  0.333333  0.666667  0.618150  1
