# generated using pymatgen
data_ScMn5FeP4
_symmetry_space_group_name_H-M   'P 1'
_cell_length_a   6.81249400
_cell_length_b   6.75603710
_cell_length_c   3.37684500
_cell_angle_alpha   90.00000000
_cell_angle_beta   90.00000000
_cell_angle_gamma   120.27681835
_symmetry_Int_Tables_number   1
_chemical_formula_structural   ScMn5FeP4
_chemical_formula_sum   'Sc1 Mn5 Fe1 P4'
_cell_volume   134.22138700
_cell_formula_units_Z   1
loop_
 _symmetry_equiv_pos_site_id
 _symmetry_equiv_pos_as_xyz
  1  'x, y, z'
loop_
 _atom_site_type_symbol
 _atom_site_label
 _atom_site_symmetry_multiplicity
 _atom_site_fract_x
 _atom_site_fract_y
 _atom_site_fract_z
 _atom_site_occupancy
  Sc  Sc0  1  0.999977  0.999955  0.000000  1
  Mn  Mn1  1  0.406503  0.203518  0.500000  1
  Mn  Mn2  1  0.797015  0.203518  0.500000  1
  Mn  Mn3  1  0.464918  0.929836  0.000000  1
  Mn  Mn4  1  0.073875  0.531678  0.000000  1
  Mn  Mn5  1  0.457804  0.531678  0.000000  1
  Fe  Fe6  1  0.799212  0.598425  0.500000  1
  P  P7  1  0.182670  0.365341  0.500000  1
  P  P8  1  0.634295  0.812964  0.500000  1
  P  P9  1  0.178669  0.812964  0.500000  1
  P  P10  1  0.671728  0.343455  0.000000  1
