# generated using pymatgen
data_Sc6Ti2Al14SnOs2Rh5
_symmetry_space_group_name_H-M   'P 1'
_cell_length_a   8.82417517
_cell_length_b   8.83846602
_cell_length_c   8.82417500
_cell_angle_alpha   119.94050881
_cell_angle_beta   119.79979581
_cell_angle_gamma   90.17863463
_symmetry_Int_Tables_number   1
_chemical_formula_structural   Sc6Ti2Al14SnOs2Rh5
_chemical_formula_sum   'Sc6 Ti2 Al14 Sn1 Os2 Rh5'
_cell_volume   487.79082986
_cell_formula_units_Z   1
loop_
 _symmetry_equiv_pos_site_id
 _symmetry_equiv_pos_as_xyz
  1  'x, y, z'
loop_
 _atom_site_type_symbol
 _atom_site_label
 _atom_site_symmetry_multiplicity
 _atom_site_fract_x
 _atom_site_fract_y
 _atom_site_fract_z
 _atom_site_occupancy
  Sc  Sc0  1  0.776417  0.271024  0.052558  1
  Sc  Sc1  1  0.218481  0.271113  0.494640  1
  Sc  Sc2  1  0.217991  0.727802  0.509793  1
  Sc  Sc3  1  0.228292  0.735174  0.946698  1
  Sc  Sc4  1  0.788382  0.735144  0.506863  1
  Sc  Sc5  1  0.771931  0.262235  0.490133  1
  Ti  Ti6  1  0.376398  0.121681  0.745254  1
  Ti  Ti7  1  0.379321  0.635402  0.256300  1
  Al  Al8  1  0.159879  0.342406  0.182559  1
  Al  Al9  1  0.163079  0.992462  0.829401  1
  Al  Al10  1  0.158046  0.343239  0.818686  1
  Al  Al11  1  0.524596  0.343275  0.185256  1
  Al  Al12  1  0.840331  0.656674  0.816382  1
  Al  Al13  1  0.837404  0.011340  0.173971  1
  Al  Al14  1  0.837303  0.658540  0.174512  1
  Al  Al15  1  0.484072  0.658566  0.821300  1
  Al  Al16  1  0.380218  0.126597  0.258898  1
  Al  Al17  1  0.867642  0.126608  0.746316  1
  Al  Al18  1  0.621068  0.871715  0.250738  1
  Al  Al19  1  0.620635  0.364444  0.743949  1
  Al  Al20  1  0.617846  0.874358  0.739960  1
  Al  Al21  1  0.134455  0.874300  0.256539  1
  Sn  Sn22  1  0.994382  0.494355  0.499845  1
  Os  Os23  1  0.003514  0.000668  0.502369  1
  Os  Os24  1  0.498224  0.000650  0.997085  1
  Rh  Rh25  1  0.498467  0.498575  0.000029  1
  Rh  Rh26  1  0.499442  0.501210  0.498884  1
  Rh  Rh27  1  0.002406  0.501298  0.001826  1
  Rh  Rh28  1  0.001168  0.002449  0.001184  1
  Rh  Rh29  1  0.498603  0.996694  0.498079  1
