# generated using pymatgen
data_Ho10Ag3Pt
_symmetry_space_group_name_H-M   'P 1'
_cell_length_a   9.50672022
_cell_length_b   9.50831476
_cell_length_c   9.62225501
_cell_angle_alpha   90.00242218
_cell_angle_beta   89.99261644
_cell_angle_gamma   119.98727613
_symmetry_Int_Tables_number   1
_chemical_formula_structural   Ho10Ag3Pt
_chemical_formula_sum   'Ho20 Ag6 Pt2'
_cell_volume   753.35109082
_cell_formula_units_Z   2
loop_
 _symmetry_equiv_pos_site_id
 _symmetry_equiv_pos_as_xyz
  1  'x, y, z'
loop_
 _atom_site_type_symbol
 _atom_site_label
 _atom_site_symmetry_multiplicity
 _atom_site_fract_x
 _atom_site_fract_y
 _atom_site_fract_z
 _atom_site_occupancy
  Ho  Ho0  1  0.999996  0.000015  0.499935  1
  Ho  Ho1  1  0.999997  0.000020  0.000058  1
  Ho  Ho2  1  0.207772  0.792208  0.445131  1
  Ho  Ho3  1  0.207832  0.415657  0.445115  1
  Ho  Ho4  1  0.584497  0.792234  0.445034  1
  Ho  Ho5  1  0.792223  0.207787  0.554786  1
  Ho  Ho6  1  0.792174  0.584355  0.554786  1
  Ho  Ho7  1  0.415492  0.207756  0.554868  1
  Ho  Ho8  1  0.792262  0.207738  0.945135  1
  Ho  Ho9  1  0.792203  0.584397  0.945200  1
  Ho  Ho10  1  0.415605  0.207799  0.945242  1
  Ho  Ho11  1  0.207735  0.792260  0.054946  1
  Ho  Ho12  1  0.207805  0.415620  0.054910  1
  Ho  Ho13  1  0.584384  0.792196  0.054854  1
  Ho  Ho14  1  0.543017  0.456946  0.250012  1
  Ho  Ho15  1  0.543061  0.086102  0.250017  1
  Ho  Ho16  1  0.913902  0.456920  0.249962  1
  Ho  Ho17  1  0.456969  0.543054  0.749990  1
  Ho  Ho18  1  0.456940  0.913861  0.749983  1
  Ho  Ho19  1  0.086119  0.543058  0.750040  1
  Ag  Ag20  1  0.883424  0.116599  0.250014  1
  Ag  Ag21  1  0.883437  0.766860  0.249997  1
  Ag  Ag22  1  0.233159  0.116584  0.249989  1
  Ag  Ag23  1  0.116574  0.883394  0.749985  1
  Ag  Ag24  1  0.116587  0.233158  0.749998  1
  Ag  Ag25  1  0.766833  0.883402  0.750011  1
  Pt  Pt26  1  0.333329  0.666614  0.249990  1
  Pt  Pt27  1  0.666671  0.333406  0.750011  1
