# generated using pymatgen
data_Er16Lu3ThSn16
_symmetry_space_group_name_H-M   'P 1'
_cell_length_a   7.98731761
_cell_length_b   8.10418195
_cell_length_c   15.32290200
_cell_angle_alpha   90.03483341
_cell_angle_beta   89.70816557
_cell_angle_gamma   89.85941734
_symmetry_Int_Tables_number   1
_chemical_formula_structural   Er16Lu3ThSn16
_chemical_formula_sum   'Er16 Lu3 Th1 Sn16'
_cell_volume   991.84575035
_cell_formula_units_Z   1
loop_
 _symmetry_equiv_pos_site_id
 _symmetry_equiv_pos_as_xyz
  1  'x, y, z'
loop_
 _atom_site_type_symbol
 _atom_site_label
 _atom_site_symmetry_multiplicity
 _atom_site_fract_x
 _atom_site_fract_y
 _atom_site_fract_z
 _atom_site_occupancy
  Er  Er0  1  0.366508  0.836715  0.877108  1
  Er  Er1  1  0.868332  0.663741  0.621113  1
  Er  Er2  1  0.630729  0.161845  0.376978  1
  Er  Er3  1  0.133170  0.337928  0.123901  1
  Er  Er4  1  0.633809  0.161949  0.123880  1
  Er  Er5  1  0.131359  0.338477  0.377363  1
  Er  Er6  1  0.370121  0.837905  0.622143  1
  Er  Er7  1  0.866984  0.661694  0.877596  1
  Er  Er8  1  0.524183  0.322466  0.903503  1
  Er  Er9  1  0.025519  0.178267  0.598048  1
  Er  Er10  1  0.476364  0.678307  0.402236  1
  Er  Er11  1  0.978633  0.821264  0.097917  1
  Er  Er12  1  0.478257  0.677969  0.097770  1
  Er  Er13  1  0.976673  0.821631  0.402385  1
  Er  Er14  1  0.522922  0.323313  0.595528  1
  Er  Er15  1  0.198130  0.501814  0.748871  1
  Lu  Lu16  1  0.697929  0.995865  0.748678  1
  Lu  Lu17  1  0.801719  0.496785  0.250923  1
  Lu  Lu18  1  0.302188  0.003080  0.250389  1
  Th  Th19  1  0.017664  0.179942  0.904103  1
  Sn  Sn20  1  0.295081  0.034803  0.043772  1
  Sn  Sn21  1  0.790869  0.463894  0.457336  1
  Sn  Sn22  1  0.709793  0.966724  0.542180  1
  Sn  Sn23  1  0.208802  0.536343  0.958345  1
  Sn  Sn24  1  0.701730  0.958475  0.959179  1
  Sn  Sn25  1  0.208364  0.537899  0.541388  1
  Sn  Sn26  1  0.291363  0.036252  0.457680  1
  Sn  Sn27  1  0.793286  0.462203  0.042266  1
  Sn  Sn28  1  0.565200  0.620502  0.749779  1
  Sn  Sn29  1  0.063926  0.879400  0.750326  1
  Sn  Sn30  1  0.435889  0.381884  0.250249  1
  Sn  Sn31  1  0.936078  0.118361  0.250787  1
  Sn  Sn32  1  0.335204  0.149306  0.749572  1
  Sn  Sn33  1  0.827822  0.353222  0.746965  1
  Sn  Sn34  1  0.668195  0.849270  0.249755  1
  Sn  Sn35  1  0.167206  0.650502  0.249992  1
