# generated using pymatgen
data_TbPa3(CdPt2)2
_symmetry_space_group_name_H-M   'P 1'
_cell_length_a   7.85809723
_cell_length_b   7.85809723
_cell_length_c   3.64321400
_cell_angle_alpha   90.00000000
_cell_angle_beta   90.00000000
_cell_angle_gamma   91.15366427
_symmetry_Int_Tables_number   1
_chemical_formula_structural   TbPa3(CdPt2)2
_chemical_formula_sum   'Tb1 Pa3 Cd2 Pt4'
_cell_volume   224.92174037
_cell_formula_units_Z   1
loop_
 _symmetry_equiv_pos_site_id
 _symmetry_equiv_pos_as_xyz
  1  'x, y, z'
loop_
 _atom_site_type_symbol
 _atom_site_label
 _atom_site_symmetry_multiplicity
 _atom_site_fract_x
 _atom_site_fract_y
 _atom_site_fract_z
 _atom_site_occupancy
  Tb  Tb0  1  0.172510  0.327490  0.500000  1
  Pa  Pa1  1  0.328789  0.829468  0.500000  1
  Pa  Pa2  1  0.831964  0.668036  0.500000  1
  Pa  Pa3  1  0.670532  0.171211  0.500000  1
  Cd  Cd4  1  0.493982  0.498729  0.000000  1
  Cd  Cd5  1  0.001271  0.006018  0.000000  1
  Pt  Pt6  1  0.637486  0.862514  0.000000  1
  Pt  Pt7  1  0.125583  0.642962  0.000000  1
  Pt  Pt8  1  0.857038  0.374417  0.000000  1
  Pt  Pt9  1  0.380845  0.119155  0.000000  1
