# generated using pymatgen
data_Y2Tm2ZnCo
_symmetry_space_group_name_H-M   'P 1'
_cell_length_a   9.32776817
_cell_length_b   9.32743911
_cell_length_c   9.33799002
_cell_angle_alpha   59.96129069
_cell_angle_beta   59.96253273
_cell_angle_gamma   60.06397908
_symmetry_Int_Tables_number   1
_chemical_formula_structural   Y2Tm2ZnCo
_chemical_formula_sum   'Y8 Tm8 Zn4 Co4'
_cell_volume   574.43066595
_cell_formula_units_Z   4
loop_
 _symmetry_equiv_pos_site_id
 _symmetry_equiv_pos_as_xyz
  1  'x, y, z'
loop_
 _atom_site_type_symbol
 _atom_site_label
 _atom_site_symmetry_multiplicity
 _atom_site_fract_x
 _atom_site_fract_y
 _atom_site_fract_z
 _atom_site_occupancy
  Y  Y0  1  0.439358  0.439323  0.060685  1
  Y  Y1  1  0.060724  0.060656  0.439306  1
  Y  Y2  1  0.189156  0.810821  0.810882  1
  Y  Y3  1  0.810836  0.189135  0.189148  1
  Y  Y4  1  0.810847  0.189127  0.810891  1
  Y  Y5  1  0.189156  0.810816  0.189155  1
  Y  Y6  1  0.810707  0.810689  0.189307  1
  Y  Y7  1  0.189340  0.189321  0.810669  1
  Tm  Tm8  1  0.599570  0.599648  0.598536  1
  Tm  Tm9  1  0.599575  0.599654  0.202235  1
  Tm  Tm10  1  0.598723  0.202156  0.599561  1
  Tm  Tm11  1  0.202149  0.598785  0.599535  1
  Tm  Tm12  1  0.059409  0.440555  0.440553  1
  Tm  Tm13  1  0.440547  0.059350  0.059554  1
  Tm  Tm14  1  0.440548  0.059364  0.440536  1
  Tm  Tm15  1  0.059397  0.440552  0.059489  1
  Zn  Zn16  1  0.826482  0.826500  0.827027  1
  Zn  Zn17  1  0.826476  0.826495  0.519999  1
  Zn  Zn18  1  0.827022  0.519977  0.826495  1
  Zn  Zn19  1  0.520006  0.827021  0.826481  1
  Co  Co20  1  0.390926  0.390978  0.394968  1
  Co  Co21  1  0.390913  0.390962  0.823134  1
  Co  Co22  1  0.395009  0.823086  0.390942  1
  Co  Co23  1  0.823121  0.395031  0.390913  1
