# generated using pymatgen
data_Er3NiSn2Pd2Pb
_symmetry_space_group_name_H-M   'P 1'
_cell_length_a   7.66322732
_cell_length_b   7.66322802
_cell_length_c   3.76501500
_cell_angle_alpha   90.00000000
_cell_angle_beta   90.00000000
_cell_angle_gamma   119.79449435
_symmetry_Int_Tables_number   1
_chemical_formula_structural   Er3NiSn2Pd2Pb
_chemical_formula_sum   'Er3 Ni1 Sn2 Pd2 Pb1'
_cell_volume   191.87412907
_cell_formula_units_Z   1
loop_
 _symmetry_equiv_pos_site_id
 _symmetry_equiv_pos_as_xyz
  1  'x, y, z'
loop_
 _atom_site_type_symbol
 _atom_site_label
 _atom_site_symmetry_multiplicity
 _atom_site_fract_x
 _atom_site_fract_y
 _atom_site_fract_z
 _atom_site_occupancy
  Er  Er0  1  0.395164  0.395164  0.500000  1
  Er  Er1  1  0.601336  0.002667  0.500000  1
  Er  Er2  1  0.002667  0.601336  0.500000  1
  Ni  Ni3  1  0.010224  0.010224  0.500000  1
  Sn  Sn4  1  0.255767  0.000778  0.000000  1
  Sn  Sn5  1  0.000778  0.255767  0.000000  1
  Pd  Pd6  1  0.664930  0.325692  0.000000  1
  Pd  Pd7  1  0.325692  0.664930  0.000000  1
  Pb  Pb8  1  0.743443  0.743443  0.000000  1
