# generated using pymatgen
data_Tm3P4Rh7
_symmetry_space_group_name_H-M   'P 1'
_cell_length_a   7.71741516
_cell_length_b   7.71741429
_cell_length_c   9.14362282
_cell_angle_alpha   56.89703202
_cell_angle_beta   56.89703562
_cell_angle_gamma   29.46249607
_symmetry_Int_Tables_number   1
_chemical_formula_structural   Tm3P4Rh7
_chemical_formula_sum   'Tm3 P4 Rh7'
_cell_volume   221.05740310
_cell_formula_units_Z   1
loop_
 _symmetry_equiv_pos_site_id
 _symmetry_equiv_pos_as_xyz
  1  'x, y, z'
loop_
 _atom_site_type_symbol
 _atom_site_label
 _atom_site_symmetry_multiplicity
 _atom_site_fract_x
 _atom_site_fract_y
 _atom_site_fract_z
 _atom_site_occupancy
  Tm  Tm0  1  0.500000  0.500000  0.500000  1
  Tm  Tm1  1  0.830111  0.830111  0.166218  1
  Tm  Tm2  1  0.169889  0.169889  0.833782  1
  P  P3  1  0.391248  0.391248  0.325909  1
  P  P4  1  0.608752  0.608752  0.674091  1
  P  P5  1  0.832210  0.832210  0.773230  1
  P  P6  1  0.167790  0.167790  0.226770  1
  Rh  Rh7  1  0.668345  0.668345  0.079558  1
  Rh  Rh8  1  0.006236  0.006236  0.232738  1
  Rh  Rh9  1  0.993764  0.993764  0.767262  1
  Rh  Rh10  1  0.500000  0.500000  0.000000  1
  Rh  Rh11  1  0.199406  0.199406  0.452187  1
  Rh  Rh12  1  0.800594  0.800594  0.547813  1
  Rh  Rh13  1  0.331655  0.331655  0.920442  1
