# generated using pymatgen
data_Dy10Y10Ir11Ru
_symmetry_space_group_name_H-M   'P 1'
_cell_length_a   10.90019339
_cell_length_b   10.90037600
_cell_length_c   6.41165782
_cell_angle_alpha   89.99848381
_cell_angle_beta   90.05783664
_cell_angle_gamma   89.99882296
_symmetry_Int_Tables_number   1
_chemical_formula_structural   Dy10Y10Ir11Ru
_chemical_formula_sum   'Dy10 Y10 Ir11 Ru1'
_cell_volume   761.80847020
_cell_formula_units_Z   1
loop_
 _symmetry_equiv_pos_site_id
 _symmetry_equiv_pos_as_xyz
  1  'x, y, z'
loop_
 _atom_site_type_symbol
 _atom_site_label
 _atom_site_symmetry_multiplicity
 _atom_site_fract_x
 _atom_site_fract_y
 _atom_site_fract_z
 _atom_site_occupancy
  Dy  Dy0  1  0.791334  0.411667  0.120745  1
  Dy  Dy1  1  0.791325  0.588517  0.621063  1
  Dy  Dy2  1  0.911731  0.708696  0.120660  1
  Dy  Dy3  1  0.911549  0.291304  0.620985  1
  Dy  Dy4  1  0.088414  0.708677  0.620963  1
  Dy  Dy5  1  0.088231  0.291333  0.120633  1
  Dy  Dy6  1  0.999997  0.000041  0.499266  1
  Dy  Dy7  1  0.999999  0.999960  0.999234  1
  Dy  Dy8  1  0.500049  0.500010  0.999066  1
  Dy  Dy9  1  0.500055  0.499989  0.499095  1
  Y  Y10  1  0.292044  0.087454  0.377637  1
  Y  Y11  1  0.292475  0.912471  0.880401  1
  Y  Y12  1  0.707574  0.087529  0.880262  1
  Y  Y13  1  0.707992  0.912550  0.377505  1
  Y  Y14  1  0.587518  0.792461  0.880351  1
  Y  Y15  1  0.587442  0.207951  0.377586  1
  Y  Y16  1  0.412603  0.792163  0.377397  1
  Y  Y17  1  0.412538  0.207410  0.880143  1
  Y  Y18  1  0.209047  0.411489  0.621343  1
  Y  Y19  1  0.209049  0.588319  0.120977  1
  Ir  Ir20  1  0.848290  0.154088  0.250301  1
  Ir  Ir21  1  0.848319  0.846310  0.750097  1
  Ir  Ir22  1  0.151566  0.153123  0.750494  1
  Ir  Ir23  1  0.151594  0.846480  0.250684  1
  Ir  Ir24  1  0.653754  0.348359  0.750186  1
  Ir  Ir25  1  0.654157  0.651674  0.250388  1
  Ir  Ir26  1  0.346534  0.347830  0.249514  1
  Ir  Ir27  1  0.346932  0.652137  0.749273  1
  Ir  Ir28  1  0.500012  0.999988  0.624772  1
  Ir  Ir29  1  0.998936  0.499932  0.876613  1
  Ir  Ir30  1  0.998932  0.500069  0.376803  1
  Ru  Ru31  1  0.500011  0.000020  0.125565  1
