# generated using pymatgen
data_TcTeBr
_symmetry_space_group_name_H-M   'P 1'
_cell_length_a   10.26900806
_cell_length_b   10.26900924
_cell_length_c   11.90744000
_cell_angle_alpha   90.00000000
_cell_angle_beta   90.00000000
_cell_angle_gamma   106.78762641
_symmetry_Int_Tables_number   1
_chemical_formula_structural   TcTeBr
_chemical_formula_sum   'Tc12 Te12 Br12'
_cell_volume   1202.15550977
_cell_formula_units_Z   12
loop_
 _symmetry_equiv_pos_site_id
 _symmetry_equiv_pos_as_xyz
  1  'x, y, z'
loop_
 _atom_site_type_symbol
 _atom_site_label
 _atom_site_symmetry_multiplicity
 _atom_site_fract_x
 _atom_site_fract_y
 _atom_site_fract_z
 _atom_site_occupancy
  Tc  Tc0  1  0.360782  0.639218  0.250000  1
  Tc  Tc1  1  0.319402  0.825737  0.109721  1
  Tc  Tc2  1  0.382163  0.889968  0.324897  1
  Tc  Tc3  1  0.639218  0.360782  0.750000  1
  Tc  Tc4  1  0.617837  0.110032  0.824897  1
  Tc  Tc5  1  0.680598  0.174263  0.609721  1
  Tc  Tc6  1  0.825737  0.319402  0.890279  1
  Tc  Tc7  1  0.889968  0.382163  0.675103  1
  Tc  Tc8  1  0.868712  0.131288  0.750000  1
  Tc  Tc9  1  0.110032  0.617837  0.175103  1
  Tc  Tc10  1  0.174263  0.680598  0.390279  1
  Tc  Tc11  1  0.131288  0.868712  0.250000  1
  Te  Te12  1  0.295047  0.573615  0.032888  1
  Te  Te13  1  0.426385  0.704953  0.467112  1
  Te  Te14  1  0.340041  0.078888  0.182743  1
  Te  Te15  1  0.573615  0.295047  0.967112  1
  Te  Te16  1  0.704953  0.426385  0.532888  1
  Te  Te17  1  0.659959  0.921112  0.682743  1
  Te  Te18  1  0.921112  0.659959  0.317257  1
  Te  Te19  1  0.804258  0.070921  0.966461  1
  Te  Te20  1  0.929079  0.195742  0.533539  1
  Te  Te21  1  0.078888  0.340041  0.817257  1
  Te  Te22  1  0.070921  0.804258  0.033539  1
  Te  Te23  1  0.195742  0.929079  0.466461  1
  Br  Br24  1  0.483948  0.516052  0.750000  1
  Br  Br25  1  0.437421  0.159442  0.687615  1
  Br  Br26  1  0.419997  0.902749  0.905462  1
  Br  Br27  1  0.516052  0.483948  0.250000  1
  Br  Br28  1  0.580003  0.097251  0.405462  1
  Br  Br29  1  0.562579  0.840558  0.187615  1
  Br  Br30  1  0.840558  0.562579  0.812385  1
  Br  Br31  1  0.902749  0.419997  0.094538  1
  Br  Br32  1  0.972906  0.027093  0.250000  1
  Br  Br33  1  0.097251  0.580003  0.594538  1
  Br  Br34  1  0.027093  0.972906  0.750000  1
  Br  Br35  1  0.159442  0.437421  0.312385  1
