# generated using pymatgen
data_Tb12Nd8Si15Ge
_symmetry_space_group_name_H-M   'P 1'
_cell_length_a   7.78652256
_cell_length_b   7.79102420
_cell_length_c   14.56316969
_cell_angle_alpha   89.94092547
_cell_angle_beta   90.03679571
_cell_angle_gamma   90.02346839
_symmetry_Int_Tables_number   1
_chemical_formula_structural   Tb12Nd8Si15Ge
_chemical_formula_sum   'Tb12 Nd8 Si15 Ge1'
_cell_volume   883.47375538
_cell_formula_units_Z   1
loop_
 _symmetry_equiv_pos_site_id
 _symmetry_equiv_pos_as_xyz
  1  'x, y, z'
loop_
 _atom_site_type_symbol
 _atom_site_label
 _atom_site_symmetry_multiplicity
 _atom_site_fract_x
 _atom_site_fract_y
 _atom_site_fract_z
 _atom_site_occupancy
  Tb  Tb0  1  0.488611  0.365020  0.124840  1
  Tb  Tb1  1  0.986798  0.136191  0.625765  1
  Tb  Tb2  1  0.865075  0.011484  0.874965  1
  Tb  Tb3  1  0.135013  0.988341  0.374492  1
  Tb  Tb4  1  0.511831  0.633932  0.625014  1
  Tb  Tb5  1  0.365227  0.488543  0.875099  1
  Tb  Tb6  1  0.635797  0.511059  0.374892  1
  Tb  Tb7  1  0.011313  0.865157  0.124861  1
  Tb  Tb8  1  0.314183  0.316505  0.499538  1
  Tb  Tb9  1  0.185195  0.813589  0.751163  1
  Tb  Tb10  1  0.814249  0.185742  0.249862  1
  Tb  Tb11  1  0.685618  0.685687  0.999967  1
  Nd  Nd12  1  0.636279  0.990328  0.454380  1
  Nd  Nd13  1  0.364810  0.009495  0.954837  1
  Nd  Nd14  1  0.989681  0.634147  0.545024  1
  Nd  Nd15  1  0.490416  0.864624  0.204830  1
  Nd  Nd16  1  0.510881  0.136643  0.705840  1
  Nd  Nd17  1  0.864704  0.490318  0.795229  1
  Nd  Nd18  1  0.135054  0.509305  0.294960  1
  Nd  Nd19  1  0.009547  0.364648  0.045126  1
  Si  Si20  1  0.711516  0.068809  0.060860  1
  Si  Si21  1  0.931239  0.288434  0.439095  1
  Si  Si22  1  0.431127  0.211125  0.310969  1
  Si  Si23  1  0.568593  0.788498  0.810826  1
  Si  Si24  1  0.211492  0.431245  0.689011  1
  Si  Si25  1  0.788433  0.568959  0.189005  1
  Si  Si26  1  0.068742  0.711457  0.939194  1
  Si  Si27  1  0.799833  0.840783  0.693291  1
  Si  Si28  1  0.200061  0.159308  0.193185  1
  Si  Si29  1  0.840875  0.799766  0.306591  1
  Si  Si30  1  0.341145  0.697021  0.441447  1
  Si  Si31  1  0.659191  0.299907  0.943225  1
  Si  Si32  1  0.699877  0.340556  0.556771  1
  Si  Si33  1  0.299941  0.659217  0.056651  1
  Si  Si34  1  0.159258  0.199853  0.806699  1
  Ge  Ge35  1  0.288396  0.934304  0.562498  1
