# generated using pymatgen
data_BaSrEr2(Si4N7)2
_symmetry_space_group_name_H-M   'P 1'
_cell_length_a   6.06431100
_cell_length_b   6.06431178
_cell_length_c   9.87969800
_cell_angle_alpha   90.00000000
_cell_angle_beta   90.00000000
_cell_angle_gamma   120.00000117
_symmetry_Int_Tables_number   1
_chemical_formula_structural   BaSrEr2(Si4N7)2
_chemical_formula_sum   'Ba1 Sr1 Er2 Si8 N14'
_cell_volume   314.65691687
_cell_formula_units_Z   1
loop_
 _symmetry_equiv_pos_site_id
 _symmetry_equiv_pos_as_xyz
  1  'x, y, z'
loop_
 _atom_site_type_symbol
 _atom_site_label
 _atom_site_symmetry_multiplicity
 _atom_site_fract_x
 _atom_site_fract_y
 _atom_site_fract_z
 _atom_site_occupancy
  Ba  Ba0  1  0.666667  0.333333  0.863022  1
  Sr  Sr1  1  0.333333  0.666667  0.364260  1
  Er  Er2  1  0.333333  0.666667  0.735843  1
  Er  Er3  1  0.666667  0.333333  0.237305  1
  Si  Si4  1  0.826054  0.652108  0.545503  1
  Si  Si5  1  0.174264  0.825736  0.047171  1
  Si  Si6  1  0.651472  0.825736  0.047171  1
  Si  Si7  1  0.347892  0.173946  0.545503  1
  Si  Si8  1  0.826054  0.173946  0.545503  1
  Si  Si9  1  0.174264  0.348528  0.047171  1
  Si  Si10  1  0.000000  0.000000  0.814492  1
  Si  Si11  1  0.000000  0.000000  0.313463  1
  N  N12  1  0.000000  0.000000  0.622627  1
  N  N13  1  0.000000  0.000000  0.122670  1
  N  N14  1  0.153770  0.307541  0.873598  1
  N  N15  1  0.846547  0.153453  0.372605  1
  N  N16  1  0.306906  0.153453  0.372605  1
  N  N17  1  0.692459  0.846230  0.873598  1
  N  N18  1  0.153770  0.846230  0.873598  1
  N  N19  1  0.846547  0.693094  0.372605  1
  N  N20  1  0.978436  0.489218  0.597899  1
  N  N21  1  0.488005  0.976009  0.101264  1
  N  N22  1  0.488005  0.511995  0.101264  1
  N  N23  1  0.510782  0.489218  0.597899  1
  N  N24  1  0.023991  0.511995  0.101264  1
  N  N25  1  0.510782  0.021564  0.597899  1
