# generated using pymatgen
data_LiU2(TlSe2)3
_symmetry_space_group_name_H-M   'P 1'
_cell_length_a   7.32053823
_cell_length_b   7.32053870
_cell_length_c   8.12569400
_cell_angle_alpha   81.41378314
_cell_angle_beta   81.41378258
_cell_angle_gamma   120.07720444
_symmetry_Int_Tables_number   1
_chemical_formula_structural   LiU2(TlSe2)3
_chemical_formula_sum   'Li1 U2 Tl3 Se6'
_cell_volume   359.59226566
_cell_formula_units_Z   1
loop_
 _symmetry_equiv_pos_site_id
 _symmetry_equiv_pos_as_xyz
  1  'x, y, z'
loop_
 _atom_site_type_symbol
 _atom_site_label
 _atom_site_symmetry_multiplicity
 _atom_site_fract_x
 _atom_site_fract_y
 _atom_site_fract_z
 _atom_site_occupancy
  Li  Li0  1  0.500000  0.500000  0.000000  1
  U  U1  1  0.832417  0.167583  0.000000  1
  U  U2  1  0.167583  0.832417  0.000000  1
  Tl  Tl3  1  0.659467  0.340533  0.500000  1
  Tl  Tl4  1  0.340533  0.659467  0.500000  1
  Tl  Tl5  1  0.000000  0.000000  0.500000  1
  Se  Se6  1  0.781819  0.781819  0.195077  1
  Se  Se7  1  0.218181  0.218181  0.804923  1
  Se  Se8  1  0.431160  0.081035  0.204231  1
  Se  Se9  1  0.568840  0.918965  0.795769  1
  Se  Se10  1  0.918965  0.568840  0.795769  1
  Se  Se11  1  0.081035  0.431160  0.204231  1
