# generated using pymatgen
data_Lu2Ta2C3O
_symmetry_space_group_name_H-M   'P 1'
_cell_length_a   10.82560240
_cell_length_b   10.82560194
_cell_length_c   10.82560317
_cell_angle_alpha   17.41681251
_cell_angle_beta   17.41681819
_cell_angle_gamma   17.41681224
_symmetry_Int_Tables_number   1
_chemical_formula_structural   Lu2Ta2C3O
_chemical_formula_sum   'Lu2 Ta2 C3 O1'
_cell_volume   99.19541301
_cell_formula_units_Z   1
loop_
 _symmetry_equiv_pos_site_id
 _symmetry_equiv_pos_as_xyz
  1  'x, y, z'
loop_
 _atom_site_type_symbol
 _atom_site_label
 _atom_site_symmetry_multiplicity
 _atom_site_fract_x
 _atom_site_fract_y
 _atom_site_fract_z
 _atom_site_occupancy
  Lu  Lu0  1  0.379965  0.379965  0.379965  1
  Lu  Lu1  1  0.620035  0.620035  0.620035  1
  Ta  Ta2  1  0.871585  0.871585  0.871585  1
  Ta  Ta3  1  0.128415  0.128415  0.128415  1
  C  C4  1  0.245033  0.245033  0.245033  1
  C  C5  1  0.500000  0.500000  0.500000  1
  C  C6  1  0.754967  0.754967  0.754967  1
  O  O7  1  0.000000  0.000000  0.000000  1
