# generated using pymatgen
data_TbZr(Ga3Ni)6
_symmetry_space_group_name_H-M   'P 1'
_cell_length_a   10.09647920
_cell_length_b   10.09647941
_cell_length_c   10.09647700
_cell_angle_alpha   42.26456624
_cell_angle_beta   42.26455649
_cell_angle_gamma   42.26456756
_symmetry_Int_Tables_number   1
_chemical_formula_structural   TbZr(Ga3Ni)6
_chemical_formula_sum   'Tb1 Zr1 Ga18 Ni6'
_cell_volume   421.34552181
_cell_formula_units_Z   1
loop_
 _symmetry_equiv_pos_site_id
 _symmetry_equiv_pos_as_xyz
  1  'x, y, z'
loop_
 _atom_site_type_symbol
 _atom_site_label
 _atom_site_symmetry_multiplicity
 _atom_site_fract_x
 _atom_site_fract_y
 _atom_site_fract_z
 _atom_site_occupancy
  Tb  Tb0  1  0.832851  0.832851  0.832851  1
  Zr  Zr1  1  0.167548  0.167548  0.167548  1
  Ga  Ga2  1  0.051655  0.051655  0.051655  1
  Ga  Ga3  1  0.715389  0.493122  0.291477  1
  Ga  Ga4  1  0.666024  0.333381  0.000626  1
  Ga  Ga5  1  0.104863  0.432612  0.767742  1
  Ga  Ga6  1  0.432612  0.767742  0.104863  1
  Ga  Ga7  1  0.386315  0.386315  0.386315  1
  Ga  Ga8  1  0.333381  0.000626  0.666024  1
  Ga  Ga9  1  0.613957  0.613957  0.613957  1
  Ga  Ga10  1  0.234550  0.563156  0.896848  1
  Ga  Ga11  1  0.563156  0.896848  0.234550  1
  Ga  Ga12  1  0.493122  0.291477  0.715389  1
  Ga  Ga13  1  0.767742  0.104863  0.432612  1
  Ga  Ga14  1  0.948607  0.948607  0.948607  1
  Ga  Ga15  1  0.291477  0.715389  0.493122  1
  Ga  Ga16  1  0.000626  0.666024  0.333381  1
  Ga  Ga17  1  0.716999  0.716999  0.716999  1
  Ga  Ga18  1  0.282220  0.282220  0.282220  1
  Ga  Ga19  1  0.896848  0.234550  0.563156  1
  Ni  Ni20  1  0.241545  0.921170  0.582183  1
  Ni  Ni21  1  0.921170  0.582183  0.241545  1
  Ni  Ni22  1  0.757734  0.418675  0.078749  1
  Ni  Ni23  1  0.078749  0.757734  0.418675  1
  Ni  Ni24  1  0.418675  0.078749  0.757734  1
  Ni  Ni25  1  0.582183  0.241545  0.921170  1
