# generated using pymatgen
data_Lu3Hf5Zr2(In2Pt)4
_symmetry_space_group_name_H-M   'P 1'
_cell_length_a   3.51693400
_cell_length_b   7.72187903
_cell_length_c   17.52416124
_cell_angle_alpha   89.86273458
_cell_angle_beta   90.00000000
_cell_angle_gamma   90.00000000
_symmetry_Int_Tables_number   1
_chemical_formula_structural   Lu3Hf5Zr2(In2Pt)4
_chemical_formula_sum   'Lu3 Hf5 Zr2 In8 Pt4'
_cell_volume   475.90822012
_cell_formula_units_Z   1
loop_
 _symmetry_equiv_pos_site_id
 _symmetry_equiv_pos_as_xyz
  1  'x, y, z'
loop_
 _atom_site_type_symbol
 _atom_site_label
 _atom_site_symmetry_multiplicity
 _atom_site_fract_x
 _atom_site_fract_y
 _atom_site_fract_z
 _atom_site_occupancy
  Lu  Lu0  1  0.000000  0.743632  0.780993  1
  Lu  Lu1  1  0.000000  0.244247  0.719626  1
  Lu  Lu2  1  0.000000  0.754568  0.279582  1
  Hf  Hf3  1  0.000000  0.135837  0.418714  1
  Hf  Hf4  1  0.000000  0.866866  0.579129  1
  Hf  Hf5  1  0.000000  0.366881  0.921745  1
  Hf  Hf6  1  0.000000  0.633265  0.080694  1
  Hf  Hf7  1  0.000000  0.254365  0.220839  1
  Zr  Zr8  1  0.000000  0.000822  0.001444  1
  Zr  Zr9  1  0.000000  0.501552  0.498699  1
  In  In10  1  0.500000  0.433106  0.351554  1
  In  In11  1  0.500000  0.566156  0.647219  1
  In  In12  1  0.500000  0.066130  0.853035  1
  In  In13  1  0.500000  0.935594  0.147250  1
  In  In14  1  0.500000  0.298188  0.064363  1
  In  In15  1  0.500000  0.700364  0.938994  1
  In  In16  1  0.500000  0.199165  0.561321  1
  In  In17  1  0.500000  0.804854  0.436445  1
  Pt  Pt18  1  0.500000  0.052724  0.305655  1
  Pt  Pt19  1  0.500000  0.953216  0.689908  1
  Pt  Pt20  1  0.500000  0.452979  0.810753  1
  Pt  Pt21  1  0.500000  0.535491  0.192036  1
