# generated using pymatgen
data_BaHo2TcH12Ir
_symmetry_space_group_name_H-M   'P 1'
_cell_length_a   5.00843200
_cell_length_b   5.00843480
_cell_length_c   8.59896100
_cell_angle_alpha   90.00000000
_cell_angle_beta   90.00000000
_cell_angle_gamma   119.99999472
_symmetry_Int_Tables_number   1
_chemical_formula_structural   BaHo2TcH12Ir
_chemical_formula_sum   'Ba1 Ho2 Tc1 H12 Ir1'
_cell_volume   186.80153479
_cell_formula_units_Z   1
loop_
 _symmetry_equiv_pos_site_id
 _symmetry_equiv_pos_as_xyz
  1  'x, y, z'
loop_
 _atom_site_type_symbol
 _atom_site_label
 _atom_site_symmetry_multiplicity
 _atom_site_fract_x
 _atom_site_fract_y
 _atom_site_fract_z
 _atom_site_occupancy
  Ba  Ba0  1  0.000000  0.000000  0.971118  1
  Ho  Ho1  1  0.666667  0.333333  0.387083  1
  Ho  Ho2  1  0.333333  0.666667  0.644880  1
  Tc  Tc3  1  0.666667  0.333333  0.717666  1
  H  H4  1  0.169443  0.830557  0.387913  1
  H  H5  1  0.661115  0.830557  0.387913  1
  H  H6  1  0.169443  0.338885  0.387913  1
  H  H7  1  0.835579  0.164421  0.602848  1
  H  H8  1  0.328842  0.164421  0.602848  1
  H  H9  1  0.835579  0.671158  0.602848  1
  H  H10  1  0.501309  0.002616  0.842108  1
  H  H11  1  0.501309  0.498691  0.842108  1
  H  H12  1  0.997384  0.498691  0.842108  1
  H  H13  1  0.488131  0.976262  0.165953  1
  H  H14  1  0.488131  0.511869  0.165953  1
  H  H15  1  0.023738  0.511869  0.165953  1
  Ir  Ir16  1  0.333333  0.666667  0.282789  1
