# generated using pymatgen
data_AcPr7(CrN3)4
_symmetry_space_group_name_H-M   'P 1'
_cell_length_a   6.16017317
_cell_length_b   6.16017329
_cell_length_c   12.22889204
_cell_angle_alpha   90.68424131
_cell_angle_beta   89.31576085
_cell_angle_gamma   127.14590919
_symmetry_Int_Tables_number   1
_chemical_formula_structural   AcPr7(CrN3)4
_chemical_formula_sum   'Ac1 Pr7 Cr4 N12'
_cell_volume   369.86849239
_cell_formula_units_Z   1
loop_
 _symmetry_equiv_pos_site_id
 _symmetry_equiv_pos_as_xyz
  1  'x, y, z'
loop_
 _atom_site_type_symbol
 _atom_site_label
 _atom_site_symmetry_multiplicity
 _atom_site_fract_x
 _atom_site_fract_y
 _atom_site_fract_z
 _atom_site_occupancy
  Ac  Ac0  1  0.551942  0.448058  0.648479  1
  Pr  Pr1  1  0.439051  0.560949  0.356258  1
  Pr  Pr2  1  0.941921  0.058079  0.141868  1
  Pr  Pr3  1  0.064863  0.935137  0.863780  1
  Pr  Pr4  1  0.854579  0.145421  0.568992  1
  Pr  Pr5  1  0.139426  0.860574  0.424893  1
  Pr  Pr6  1  0.643758  0.356242  0.073615  1
  Pr  Pr7  1  0.361764  0.638236  0.930564  1
  Cr  Cr8  1  0.745884  0.254116  0.841109  1
  Cr  Cr9  1  0.261177  0.738823  0.159770  1
  Cr  Cr10  1  0.759262  0.240738  0.339437  1
  Cr  Cr11  1  0.236167  0.763833  0.657981  1
  N  N12  1  0.853095  0.146905  0.960120  1
  N  N13  1  0.152839  0.847161  0.042030  1
  N  N14  1  0.648675  0.351325  0.457477  1
  N  N15  1  0.341381  0.658619  0.535875  1
  N  N16  1  0.575015  0.424985  0.873966  1
  N  N17  1  0.431261  0.568739  0.131290  1
  N  N18  1  0.928048  0.071952  0.367571  1
  N  N19  1  0.068368  0.931632  0.627562  1
  N  N20  1  0.509129  0.987846  0.748315  1
  N  N21  1  0.990737  0.510494  0.250367  1
  N  N22  1  0.489506  0.009263  0.250367  1
  N  N23  1  0.012154  0.490871  0.748315  1
