# generated using pymatgen
data_LaEr9(Si3Pt)2
_symmetry_space_group_name_H-M   'P 1'
_cell_length_a   7.26899300
_cell_length_b   7.88554689
_cell_length_c   14.53477962
_cell_angle_alpha   89.87965024
_cell_angle_beta   90.00000000
_cell_angle_gamma   90.00000000
_symmetry_Int_Tables_number   1
_chemical_formula_structural   LaEr9(Si3Pt)2
_chemical_formula_sum   'La2 Er18 Si12 Pt4'
_cell_volume   833.13151437
_cell_formula_units_Z   2
loop_
 _symmetry_equiv_pos_site_id
 _symmetry_equiv_pos_as_xyz
  1  'x, y, z'
loop_
 _atom_site_type_symbol
 _atom_site_label
 _atom_site_symmetry_multiplicity
 _atom_site_fract_x
 _atom_site_fract_y
 _atom_site_fract_z
 _atom_site_occupancy
  La  La0  1  0.513443  0.573497  0.337731  1
  La  La1  1  0.013443  0.426503  0.662269  1
  Er  Er2  1  0.811163  0.578277  0.877516  1
  Er  Er3  1  0.311163  0.421723  0.122484  1
  Er  Er4  1  0.185928  0.925854  0.375972  1
  Er  Er5  1  0.685928  0.074146  0.624028  1
  Er  Er6  1  0.187618  0.923552  0.625384  1
  Er  Er7  1  0.687618  0.076448  0.374616  1
  Er  Er8  1  0.814481  0.575502  0.123228  1
  Er  Er9  1  0.314481  0.424498  0.876772  1
  Er  Er10  1  0.660805  0.233611  0.999555  1
  Er  Er11  1  0.160805  0.766389  0.000445  1
  Er  Er12  1  0.341071  0.266418  0.499343  1
  Er  Er13  1  0.841071  0.733582  0.500657  1
  Er  Er14  1  0.482926  0.934245  0.843255  1
  Er  Er15  1  0.982926  0.065755  0.156745  1
  Er  Er16  1  0.479803  0.937425  0.154316  1
  Er  Er17  1  0.979803  0.062575  0.845684  1
  Er  Er18  1  0.518013  0.566555  0.658001  1
  Er  Er19  1  0.018013  0.433445  0.341999  1
  Si  Si20  1  0.651102  0.275663  0.791010  1
  Si  Si21  1  0.151102  0.724337  0.208990  1
  Si  Si22  1  0.347199  0.216894  0.286865  1
  Si  Si23  1  0.847199  0.783106  0.713135  1
  Si  Si24  1  0.357493  0.219854  0.711642  1
  Si  Si25  1  0.857493  0.780146  0.288358  1
  Si  Si26  1  0.650197  0.272842  0.207760  1
  Si  Si27  1  0.150197  0.727158  0.792240  1
  Si  Si28  1  0.767080  0.882223  0.000429  1
  Si  Si29  1  0.267080  0.117777  0.999571  1
  Si  Si30  1  0.231563  0.619848  0.502488  1
  Si  Si31  1  0.731563  0.380152  0.497512  1
  Pt  Pt32  1  0.516943  0.654481  0.001067  1
  Pt  Pt33  1  0.016943  0.345519  0.998933  1
  Pt  Pt34  1  0.483173  0.847925  0.501831  1
  Pt  Pt35  1  0.983173  0.152075  0.498169  1
