# generated using pymatgen
data_Y4Ho12Cd4OsPt3
_symmetry_space_group_name_H-M   'P 1'
_cell_length_a   9.67898504
_cell_length_b   9.67946006
_cell_length_c   9.67945928
_cell_angle_alpha   59.57910568
_cell_angle_beta   59.56291105
_cell_angle_gamma   59.56291046
_symmetry_Int_Tables_number   1
_chemical_formula_structural   Y4Ho12Cd4OsPt3
_chemical_formula_sum   'Y4 Ho12 Cd4 Os1 Pt3'
_cell_volume   634.94181054
_cell_formula_units_Z   1
loop_
 _symmetry_equiv_pos_site_id
 _symmetry_equiv_pos_as_xyz
  1  'x, y, z'
loop_
 _atom_site_type_symbol
 _atom_site_label
 _atom_site_symmetry_multiplicity
 _atom_site_fract_x
 _atom_site_fract_y
 _atom_site_fract_z
 _atom_site_occupancy
  Y  Y0  1  0.565194  0.935716  0.565171  1
  Y  Y1  1  0.937657  0.558846  0.937597  1
  Y  Y2  1  0.565194  0.565171  0.935716  1
  Y  Y3  1  0.937657  0.937597  0.558846  1
  Ho  Ho4  1  0.351370  0.351771  0.351771  1
  Ho  Ho5  1  0.350015  0.349688  0.947704  1
  Ho  Ho6  1  0.350015  0.947704  0.349688  1
  Ho  Ho7  1  0.947639  0.350016  0.350016  1
  Ho  Ho8  1  0.814590  0.188896  0.188896  1
  Ho  Ho9  1  0.188859  0.809964  0.809964  1
  Ho  Ho10  1  0.188960  0.814531  0.188930  1
  Ho  Ho11  1  0.809996  0.188836  0.809948  1
  Ho  Ho12  1  0.188960  0.188930  0.814531  1
  Ho  Ho13  1  0.809996  0.809948  0.188836  1
  Ho  Ho14  1  0.936192  0.564772  0.564772  1
  Ho  Ho15  1  0.558213  0.938111  0.938111  1
  Cd  Cd16  1  0.580568  0.580451  0.580451  1
  Cd  Cd17  1  0.581030  0.581230  0.254617  1
  Cd  Cd18  1  0.581030  0.254617  0.581230  1
  Cd  Cd19  1  0.254573  0.581072  0.581072  1
  Os  Os20  1  0.143419  0.143080  0.143080  1
  Pt  Pt21  1  0.143330  0.143528  0.572191  1
  Pt  Pt22  1  0.143330  0.572191  0.143528  1
  Pt  Pt23  1  0.572217  0.143338  0.143338  1
