# generated using pymatgen
data_ZnHg(CO3)2
_symmetry_space_group_name_H-M   'P 1'
_cell_length_a   6.07179836
_cell_length_b   6.07179789
_cell_length_c   6.07179865
_cell_angle_alpha   47.65936442
_cell_angle_beta   47.65936649
_cell_angle_gamma   47.65936291
_symmetry_Int_Tables_number   1
_chemical_formula_structural   ZnHg(CO3)2
_chemical_formula_sum   'Zn1 Hg1 C2 O6'
_cell_volume   111.95654159
_cell_formula_units_Z   1
loop_
 _symmetry_equiv_pos_site_id
 _symmetry_equiv_pos_as_xyz
  1  'x, y, z'
loop_
 _atom_site_type_symbol
 _atom_site_label
 _atom_site_symmetry_multiplicity
 _atom_site_fract_x
 _atom_site_fract_y
 _atom_site_fract_z
 _atom_site_occupancy
  Zn  Zn0  1  0.500000  0.500000  0.500000  1
  Hg  Hg1  1  0.000000  0.000000  0.000000  1
  C  C2  1  0.243318  0.243318  0.243318  1
  C  C3  1  0.756682  0.756682  0.756682  1
  O  O4  1  0.964243  0.277659  0.490300  1
  O  O5  1  0.277659  0.490300  0.964243  1
  O  O6  1  0.490300  0.964243  0.277659  1
  O  O7  1  0.035757  0.722341  0.509700  1
  O  O8  1  0.722341  0.509700  0.035757  1
  O  O9  1  0.509700  0.035757  0.722341  1
