# generated using pymatgen
data_Yb10CdNi4Hg
_symmetry_space_group_name_H-M   'P 1'
_cell_length_a   8.96218625
_cell_length_b   8.96218673
_cell_length_c   8.96218588
_cell_angle_alpha   130.40746841
_cell_angle_beta   130.40746930
_cell_angle_gamma   72.75619141
_symmetry_Int_Tables_number   1
_chemical_formula_structural   Yb10CdNi4Hg
_chemical_formula_sum   'Yb10 Cd1 Ni4 Hg1'
_cell_volume   407.76036571
_cell_formula_units_Z   1
loop_
 _symmetry_equiv_pos_site_id
 _symmetry_equiv_pos_as_xyz
  1  'x, y, z'
loop_
 _atom_site_type_symbol
 _atom_site_label
 _atom_site_symmetry_multiplicity
 _atom_site_fract_x
 _atom_site_fract_y
 _atom_site_fract_z
 _atom_site_occupancy
  Yb  Yb0  1  0.499913  0.499913  0.000000  1
  Yb  Yb1  1  0.000087  0.000087  0.000000  1
  Yb  Yb2  1  0.538857  0.040320  0.837161  1
  Yb  Yb3  1  0.203160  0.701697  0.162839  1
  Yb  Yb4  1  0.040320  0.203160  0.501463  1
  Yb  Yb5  1  0.701697  0.538857  0.498537  1
  Yb  Yb6  1  0.459680  0.961143  0.162839  1
  Yb  Yb7  1  0.798303  0.296840  0.837161  1
  Yb  Yb8  1  0.961143  0.798303  0.501463  1
  Yb  Yb9  1  0.296840  0.459680  0.498537  1
  Cd  Cd10  1  0.750000  0.750000  0.000000  1
  Ni  Ni11  1  0.117094  0.617094  0.734189  1
  Ni  Ni12  1  0.882906  0.382906  0.265811  1
  Ni  Ni13  1  0.617094  0.882906  0.500000  1
  Ni  Ni14  1  0.382906  0.117094  0.500000  1
  Hg  Hg15  1  0.250000  0.250000  0.000000  1
