# generated using pymatgen
data_EuTm(SeO3)3
_symmetry_space_group_name_H-M   'P 1'
_cell_length_a   7.14902822
_cell_length_b   8.19274830
_cell_length_c   9.11268300
_cell_angle_alpha   71.06880190
_cell_angle_beta   70.15381643
_cell_angle_gamma   66.15584638
_symmetry_Int_Tables_number   1
_chemical_formula_structural   EuTm(SeO3)3
_chemical_formula_sum   'Eu2 Tm2 Se6 O18'
_cell_volume   448.18159582
_cell_formula_units_Z   2
loop_
 _symmetry_equiv_pos_site_id
 _symmetry_equiv_pos_as_xyz
  1  'x, y, z'
loop_
 _atom_site_type_symbol
 _atom_site_label
 _atom_site_symmetry_multiplicity
 _atom_site_fract_x
 _atom_site_fract_y
 _atom_site_fract_z
 _atom_site_occupancy
  Eu  Eu0  1  0.329583  0.724563  0.601797  1
  Eu  Eu1  1  0.670417  0.275437  0.398203  1
  Tm  Tm2  1  0.738477  0.734828  0.804161  1
  Tm  Tm3  1  0.261523  0.265172  0.195839  1
  Se  Se4  1  0.421682  0.784120  0.195055  1
  Se  Se5  1  0.578318  0.215880  0.804945  1
  Se  Se6  1  0.144644  0.748466  0.975116  1
  Se  Se7  1  0.855356  0.251534  0.024884  1
  Se  Se8  1  0.882718  0.756430  0.424564  1
  Se  Se9  1  0.117282  0.243570  0.575436  1
  O  O10  1  0.645886  0.790346  0.049109  1
  O  O11  1  0.354114  0.209654  0.950891  1
  O  O12  1  0.363312  0.954965  0.292590  1
  O  O13  1  0.636688  0.045035  0.707410  1
  O  O14  1  0.508430  0.603146  0.348509  1
  O  O15  1  0.491570  0.396854  0.651491  1
  O  O16  1  0.165282  0.564514  0.130851  1
  O  O17  1  0.834718  0.435486  0.869149  1
  O  O18  1  0.403470  0.710348  0.860876  1
  O  O19  1  0.596530  0.289652  0.139124  1
  O  O20  1  0.348657  0.243459  0.428560  1
  O  O21  1  0.651343  0.756541  0.571440  1
  O  O22  1  0.976871  0.295431  0.433532  1
  O  O23  1  0.023129  0.704569  0.566468  1
  O  O24  1  0.147283  0.020173  0.657709  1
  O  O25  1  0.852717  0.979827  0.342291  1
  O  O26  1  0.943348  0.305706  0.153447  1
  O  O27  1  0.056652  0.694294  0.846553  1
