# generated using pymatgen
data_Tb2Y2Ga16Co3
_symmetry_space_group_name_H-M   'P 1'
_cell_length_a   6.03867800
_cell_length_b   6.03867800
_cell_length_c   11.17333300
_cell_angle_alpha   90.00000000
_cell_angle_beta   90.00000000
_cell_angle_gamma   90.00000000
_symmetry_Int_Tables_number   1
_chemical_formula_structural   Tb2Y2Ga16Co3
_chemical_formula_sum   'Tb2 Y2 Ga16 Co3'
_cell_volume   407.44264925
_cell_formula_units_Z   1
loop_
 _symmetry_equiv_pos_site_id
 _symmetry_equiv_pos_as_xyz
  1  'x, y, z'
loop_
 _atom_site_type_symbol
 _atom_site_label
 _atom_site_symmetry_multiplicity
 _atom_site_fract_x
 _atom_site_fract_y
 _atom_site_fract_z
 _atom_site_occupancy
  Tb  Tb0  1  0.500000  0.000000  0.194563  1
  Tb  Tb1  1  0.000000  0.500000  0.194563  1
  Y  Y2  1  0.500000  0.000000  0.805332  1
  Y  Y3  1  0.000000  0.500000  0.805332  1
  Ga  Ga4  1  0.249807  0.249807  0.614733  1
  Ga  Ga5  1  0.750193  0.750193  0.614733  1
  Ga  Ga6  1  0.750193  0.249807  0.614733  1
  Ga  Ga7  1  0.249807  0.750193  0.614733  1
  Ga  Ga8  1  0.750145  0.750145  0.385305  1
  Ga  Ga9  1  0.249855  0.249855  0.385305  1
  Ga  Ga10  1  0.249855  0.750145  0.385305  1
  Ga  Ga11  1  0.750145  0.249855  0.385305  1
  Ga  Ga12  1  0.280250  0.280250  0.999923  1
  Ga  Ga13  1  0.719750  0.719750  0.999923  1
  Ga  Ga14  1  0.719750  0.280250  0.999923  1
  Ga  Ga15  1  0.280250  0.719750  0.999923  1
  Ga  Ga16  1  0.500000  0.500000  0.805461  1
  Ga  Ga17  1  0.500000  0.500000  0.194624  1
  Ga  Ga18  1  0.000000  0.000000  0.782288  1
  Ga  Ga19  1  0.000000  0.000000  0.217810  1
  Co  Co20  1  0.500000  0.000000  0.500078  1
  Co  Co21  1  0.000000  0.500000  0.500078  1
  Co  Co22  1  0.000000  0.000000  0.000025  1
