# generated using pymatgen
data_Dy3Ta(Co4P3)2
_symmetry_space_group_name_H-M   'P 1'
_cell_length_a   3.69705000
_cell_length_b   10.60906300
_cell_length_c   12.29854500
_cell_angle_alpha   90.00000000
_cell_angle_beta   90.00000000
_cell_angle_gamma   90.00000000
_symmetry_Int_Tables_number   1
_chemical_formula_structural   Dy3Ta(Co4P3)2
_chemical_formula_sum   'Dy6 Ta2 Co16 P12'
_cell_volume   482.37643893
_cell_formula_units_Z   2
loop_
 _symmetry_equiv_pos_site_id
 _symmetry_equiv_pos_as_xyz
  1  'x, y, z'
loop_
 _atom_site_type_symbol
 _atom_site_label
 _atom_site_symmetry_multiplicity
 _atom_site_fract_x
 _atom_site_fract_y
 _atom_site_fract_z
 _atom_site_occupancy
  Dy  Dy0  1  0.000000  0.500000  0.526922  1
  Dy  Dy1  1  0.500000  0.000000  0.473078  1
  Dy  Dy2  1  0.500000  0.820760  0.205359  1
  Dy  Dy3  1  0.500000  0.179240  0.205359  1
  Dy  Dy4  1  0.000000  0.679240  0.794641  1
  Dy  Dy5  1  0.000000  0.320760  0.794641  1
  Ta  Ta6  1  0.500000  0.500000  0.156913  1
  Ta  Ta7  1  0.000000  0.000000  0.843087  1
  Co  Co8  1  0.500000  0.500000  0.702250  1
  Co  Co9  1  0.000000  0.000000  0.297750  1
  Co  Co10  1  0.000000  0.500000  0.987049  1
  Co  Co11  1  0.500000  0.000000  0.012951  1
  Co  Co12  1  0.500000  0.332703  0.992597  1
  Co  Co13  1  0.500000  0.667297  0.992597  1
  Co  Co14  1  0.000000  0.167297  0.007403  1
  Co  Co15  1  0.000000  0.832703  0.007403  1
  Co  Co16  1  0.500000  0.295609  0.432353  1
  Co  Co17  1  0.500000  0.704391  0.432353  1
  Co  Co18  1  0.000000  0.204391  0.567647  1
  Co  Co19  1  0.000000  0.795609  0.567647  1
  Co  Co20  1  0.500000  0.877849  0.705120  1
  Co  Co21  1  0.500000  0.122151  0.705120  1
  Co  Co22  1  0.000000  0.622151  0.294880  1
  Co  Co23  1  0.000000  0.377849  0.294880  1
  P  P24  1  0.500000  0.500000  0.882058  1
  P  P25  1  0.000000  0.000000  0.117942  1
  P  P26  1  0.500000  0.500000  0.356924  1
  P  P27  1  0.000000  0.000000  0.643076  1
  P  P28  1  0.500000  0.311027  0.615512  1
  P  P29  1  0.500000  0.688973  0.615512  1
  P  P30  1  0.000000  0.188973  0.384488  1
  P  P31  1  0.000000  0.811027  0.384488  1
  P  P32  1  0.500000  0.841028  0.892532  1
  P  P33  1  0.500000  0.158972  0.892532  1
  P  P34  1  0.000000  0.658972  0.107468  1
  P  P35  1  0.000000  0.341028  0.107468  1
