# generated using pymatgen
data_Dy3Cr2P6Rh7
_symmetry_space_group_name_H-M   'P 1'
_cell_length_a   3.89118900
_cell_length_b   11.22580100
_cell_length_c   12.71384700
_cell_angle_alpha   90.00000000
_cell_angle_beta   90.00000000
_cell_angle_gamma   90.00000000
_symmetry_Int_Tables_number   1
_chemical_formula_structural   Dy3Cr2P6Rh7
_chemical_formula_sum   'Dy6 Cr4 P12 Rh14'
_cell_volume   555.36262045
_cell_formula_units_Z   2
loop_
 _symmetry_equiv_pos_site_id
 _symmetry_equiv_pos_as_xyz
  1  'x, y, z'
loop_
 _atom_site_type_symbol
 _atom_site_label
 _atom_site_symmetry_multiplicity
 _atom_site_fract_x
 _atom_site_fract_y
 _atom_site_fract_z
 _atom_site_occupancy
  Dy  Dy0  1  0.000000  0.500000  0.519872  1
  Dy  Dy1  1  0.500000  0.000000  0.480128  1
  Dy  Dy2  1  0.500000  0.817404  0.201308  1
  Dy  Dy3  1  0.500000  0.182596  0.201308  1
  Dy  Dy4  1  0.000000  0.682596  0.798692  1
  Dy  Dy5  1  0.000000  0.317404  0.798692  1
  Cr  Cr6  1  0.500000  0.500000  0.161906  1
  Cr  Cr7  1  0.000000  0.000000  0.838094  1
  Cr  Cr8  1  0.000000  0.500000  0.987801  1
  Cr  Cr9  1  0.500000  0.000000  0.012199  1
  P  P10  1  0.500000  0.500000  0.880240  1
  P  P11  1  0.000000  0.000000  0.119760  1
  P  P12  1  0.500000  0.500000  0.345712  1
  P  P13  1  0.000000  0.000000  0.654288  1
  P  P14  1  0.500000  0.313662  0.619109  1
  P  P15  1  0.500000  0.686338  0.619109  1
  P  P16  1  0.000000  0.186338  0.380891  1
  P  P17  1  0.000000  0.813662  0.380891  1
  P  P18  1  0.500000  0.850592  0.893438  1
  P  P19  1  0.500000  0.149408  0.893438  1
  P  P20  1  0.000000  0.649408  0.106562  1
  P  P21  1  0.000000  0.350592  0.106562  1
  Rh  Rh22  1  0.500000  0.500000  0.697899  1
  Rh  Rh23  1  0.000000  0.000000  0.302101  1
  Rh  Rh24  1  0.500000  0.334703  0.992382  1
  Rh  Rh25  1  0.500000  0.665297  0.992382  1
  Rh  Rh26  1  0.000000  0.165297  0.007618  1
  Rh  Rh27  1  0.000000  0.834703  0.007618  1
  Rh  Rh28  1  0.500000  0.293674  0.430546  1
  Rh  Rh29  1  0.500000  0.706326  0.430546  1
  Rh  Rh30  1  0.000000  0.206326  0.569454  1
  Rh  Rh31  1  0.000000  0.793674  0.569454  1
  Rh  Rh32  1  0.500000  0.875187  0.711330  1
  Rh  Rh33  1  0.500000  0.124813  0.711330  1
  Rh  Rh34  1  0.000000  0.624813  0.288670  1
  Rh  Rh35  1  0.000000  0.375187  0.288670  1
