# generated using pymatgen
data_TbDy5(Er2Sn3)2
_symmetry_space_group_name_H-M   'P 1'
_cell_length_a   8.94483200
_cell_length_b   8.94748549
_cell_length_c   6.51046500
_cell_angle_alpha   90.00000000
_cell_angle_beta   90.00000000
_cell_angle_gamma   119.99019767
_symmetry_Int_Tables_number   1
_chemical_formula_structural   TbDy5(Er2Sn3)2
_chemical_formula_sum   'Tb1 Dy5 Er4 Sn6'
_cell_volume   451.29312744
_cell_formula_units_Z   1
loop_
 _symmetry_equiv_pos_site_id
 _symmetry_equiv_pos_as_xyz
  1  'x, y, z'
loop_
 _atom_site_type_symbol
 _atom_site_label
 _atom_site_symmetry_multiplicity
 _atom_site_fract_x
 _atom_site_fract_y
 _atom_site_fract_z
 _atom_site_occupancy
  Tb  Tb0  1  0.238782  0.000000  0.250000  1
  Dy  Dy1  1  0.000022  0.761245  0.750000  1
  Dy  Dy2  1  0.999944  0.238776  0.250000  1
  Dy  Dy3  1  0.761168  0.761224  0.250000  1
  Dy  Dy4  1  0.761118  0.000000  0.750000  1
  Dy  Dy5  1  0.238778  0.238755  0.750000  1
  Er  Er6  1  0.333321  0.666574  0.499977  1
  Er  Er7  1  0.666747  0.333426  0.000023  1
  Er  Er8  1  0.666747  0.333426  0.499977  1
  Er  Er9  1  0.333321  0.666574  0.000023  1
  Sn  Sn10  1  0.395911  0.000000  0.750000  1
  Sn  Sn11  1  0.395827  0.395665  0.250000  1
  Sn  Sn12  1  0.000162  0.604335  0.250000  1
  Sn  Sn13  1  0.000018  0.395898  0.750000  1
  Sn  Sn14  1  0.604120  0.604102  0.750000  1
  Sn  Sn15  1  0.604017  0.000000  0.250000  1
