# generated using pymatgen
data_Dy4Al11Si7(IrOs2)2
_symmetry_space_group_name_H-M   'P 1'
_cell_length_a   7.44631435
_cell_length_b   7.43417446
_cell_length_c   9.38706732
_cell_angle_alpha   90.03602556
_cell_angle_beta   90.04454503
_cell_angle_gamma   119.90869243
_symmetry_Int_Tables_number   1
_chemical_formula_structural   Dy4Al11Si7(IrOs2)2
_chemical_formula_sum   'Dy4 Al11 Si7 Ir2 Os4'
_cell_volume   450.43600471
_cell_formula_units_Z   1
loop_
 _symmetry_equiv_pos_site_id
 _symmetry_equiv_pos_as_xyz
  1  'x, y, z'
loop_
 _atom_site_type_symbol
 _atom_site_label
 _atom_site_symmetry_multiplicity
 _atom_site_fract_x
 _atom_site_fract_y
 _atom_site_fract_z
 _atom_site_occupancy
  Dy  Dy0  1  0.999113  0.665236  0.752227  1
  Dy  Dy1  1  0.995459  0.330614  0.249906  1
  Dy  Dy2  1  0.673478  0.004539  0.752036  1
  Dy  Dy3  1  0.330522  0.995456  0.246585  1
  Al  Al4  1  0.128828  0.130022  0.750493  1
  Al  Al5  1  0.869371  0.870434  0.250572  1
  Al  Al6  1  0.335663  0.005771  0.572836  1
  Al  Al7  1  0.337673  0.337040  0.060215  1
  Al  Al8  1  0.661984  0.662208  0.939314  1
  Al  Al9  1  0.662425  0.662493  0.559568  1
  Al  Al10  1  0.337613  0.334510  0.439379  1
  Al  Al11  1  0.340314  0.550460  0.749850  1
  Al  Al12  1  0.661360  0.452379  0.250121  1
  Al  Al13  1  0.549485  0.340389  0.749432  1
  Al  Al14  1  0.451818  0.658603  0.249011  1
  Si  Si15  1  0.009346  0.337475  0.569277  1
  Si  Si16  1  0.997602  0.668539  0.432392  1
  Si  Si17  1  0.991459  0.663208  0.070912  1
  Si  Si18  1  0.337199  0.008375  0.924092  1
  Si  Si19  1  0.009426  0.337656  0.929741  1
  Si  Si20  1  0.662395  0.991369  0.071122  1
  Si  Si21  1  0.656260  0.991956  0.432188  1
  Ir  Ir22  1  0.992534  0.001504  0.500074  1
  Ir  Ir23  1  0.999745  0.000184  0.000813  1
  Os  Os24  1  0.689096  0.327263  0.499715  1
  Os  Os25  1  0.319127  0.671862  0.497707  1
  Os  Os26  1  0.319103  0.681110  0.000170  1
  Os  Os27  1  0.681602  0.319343  0.000251  1
