# generated using pymatgen
data_Y8Al3Co
_symmetry_space_group_name_H-M   'P 1'
_cell_length_a   10.22162000
_cell_length_b   10.22161343
_cell_length_c   6.87301700
_cell_angle_alpha   90.00000000
_cell_angle_beta   90.00000000
_cell_angle_gamma   120.00002127
_symmetry_Int_Tables_number   1
_chemical_formula_structural   Y8Al3Co
_chemical_formula_sum   'Y16 Al6 Co2'
_cell_volume   621.89510812
_cell_formula_units_Z   2
loop_
 _symmetry_equiv_pos_site_id
 _symmetry_equiv_pos_as_xyz
  1  'x, y, z'
loop_
 _atom_site_type_symbol
 _atom_site_label
 _atom_site_symmetry_multiplicity
 _atom_site_fract_x
 _atom_site_fract_y
 _atom_site_fract_z
 _atom_site_occupancy
  Y  Y0  1  0.824919  0.649838  0.496584  1
  Y  Y1  1  0.350162  0.175082  0.496581  1
  Y  Y2  1  0.824920  0.175081  0.496582  1
  Y  Y3  1  0.175081  0.350162  0.996584  1
  Y  Y4  1  0.649838  0.824918  0.996581  1
  Y  Y5  1  0.175080  0.824919  0.996582  1
  Y  Y6  1  0.666666  0.333334  0.170168  1
  Y  Y7  1  0.333334  0.666666  0.670168  1
  Y  Y8  1  0.533346  0.066692  0.789913  1
  Y  Y9  1  0.933307  0.466653  0.789914  1
  Y  Y10  1  0.533346  0.466653  0.789913  1
  Y  Y11  1  0.466654  0.933308  0.289913  1
  Y  Y12  1  0.066693  0.533347  0.289914  1
  Y  Y13  1  0.466654  0.533347  0.289913  1
  Y  Y14  1  0.000002  0.000001  0.772803  1
  Y  Y15  1  0.999998  0.999999  0.272803  1
  Al  Al16  1  0.837326  0.674652  0.031955  1
  Al  Al17  1  0.325347  0.162673  0.031956  1
  Al  Al18  1  0.837326  0.162673  0.031956  1
  Al  Al19  1  0.162674  0.325348  0.531955  1
  Al  Al20  1  0.674653  0.837327  0.531956  1
  Al  Al21  1  0.162674  0.837327  0.531956  1
  Co  Co22  1  0.666667  0.333333  0.564796  1
  Co  Co23  1  0.333333  0.666667  0.064796  1
