# generated using pymatgen
data_Pa4Zn3Au5
_symmetry_space_group_name_H-M   'P 1'
_cell_length_a   4.73319500
_cell_length_b   6.36911153
_cell_length_c   8.19595094
_cell_angle_alpha   90.00586145
_cell_angle_beta   90.00000000
_cell_angle_gamma   90.00000000
_symmetry_Int_Tables_number   1
_chemical_formula_structural   Pa4Zn3Au5
_chemical_formula_sum   'Pa4 Zn3 Au5'
_cell_volume   247.07715905
_cell_formula_units_Z   1
loop_
 _symmetry_equiv_pos_site_id
 _symmetry_equiv_pos_as_xyz
  1  'x, y, z'
loop_
 _atom_site_type_symbol
 _atom_site_label
 _atom_site_symmetry_multiplicity
 _atom_site_fract_x
 _atom_site_fract_y
 _atom_site_fract_z
 _atom_site_occupancy
  Pa  Pa0  1  0.500000  0.502090  0.755466  1
  Pa  Pa1  1  0.500000  0.998257  0.751135  1
  Pa  Pa2  1  0.000000  0.495994  0.244526  1
  Pa  Pa3  1  0.000000  0.003641  0.249151  1
  Zn  Zn4  1  0.500000  0.744235  0.417814  1
  Zn  Zn5  1  0.000000  0.753853  0.915478  1
  Zn  Zn6  1  0.000000  0.256127  0.580250  1
  Au  Au7  1  0.500000  0.752046  0.085335  1
  Au  Au8  1  0.500000  0.250120  0.430200  1
  Au  Au9  1  0.000000  0.248080  0.902585  1
  Au  Au10  1  0.000000  0.746360  0.581017  1
  Au  Au11  1  0.500000  0.249198  0.087041  1
