# generated using pymatgen
data_Zr2VW3
_symmetry_space_group_name_H-M   'P 1'
_cell_length_a   5.38429007
_cell_length_b   5.38429061
_cell_length_c   5.35128704
_cell_angle_alpha   59.79578225
_cell_angle_beta   59.79577459
_cell_angle_gamma   60.00000008
_symmetry_Int_Tables_number   1
_chemical_formula_structural   Zr2VW3
_chemical_formula_sum   'Zr2 V1 W3'
_cell_volume   109.35853594
_cell_formula_units_Z   1
loop_
 _symmetry_equiv_pos_site_id
 _symmetry_equiv_pos_as_xyz
  1  'x, y, z'
loop_
 _atom_site_type_symbol
 _atom_site_label
 _atom_site_symmetry_multiplicity
 _atom_site_fract_x
 _atom_site_fract_y
 _atom_site_fract_z
 _atom_site_occupancy
  Zr  Zr0  1  0.750079  0.750079  0.749763  1
  Zr  Zr1  1  0.499921  0.499921  0.500237  1
  V  V2  1  0.125000  0.125000  0.625000  1
  W  W3  1  0.125000  0.625000  0.125000  1
  W  W4  1  0.625000  0.125000  0.125000  1
  W  W5  1  0.125000  0.125000  0.125000  1
