# generated using pymatgen
data_Nd2Y3Er(RuO7)2
_symmetry_space_group_name_H-M   'P 1'
_cell_length_a   6.44706413
_cell_length_b   6.45272768
_cell_length_c   7.51622800
_cell_angle_alpha   90.00000000
_cell_angle_beta   90.00000000
_cell_angle_gamma   110.13162199
_symmetry_Int_Tables_number   1
_chemical_formula_structural   Nd2Y3Er(RuO7)2
_chemical_formula_sum   'Nd2 Y3 Er1 Ru2 O14'
_cell_volume   293.58013507
_cell_formula_units_Z   1
loop_
 _symmetry_equiv_pos_site_id
 _symmetry_equiv_pos_as_xyz
  1  'x, y, z'
loop_
 _atom_site_type_symbol
 _atom_site_label
 _atom_site_symmetry_multiplicity
 _atom_site_fract_x
 _atom_site_fract_y
 _atom_site_fract_z
 _atom_site_occupancy
  Nd  Nd0  1  0.000331  0.999938  0.499490  1
  Nd  Nd1  1  0.000331  0.999938  0.000510  1
  Y  Y2  1  0.482519  0.931312  0.750000  1
  Y  Y3  1  0.517593  0.068188  0.250000  1
  Y  Y4  1  0.931344  0.482211  0.750000  1
  Er  Er5  1  0.066529  0.516667  0.250000  1
  Ru  Ru6  1  0.500013  0.500322  0.499373  1
  Ru  Ru7  1  0.500013  0.500322  0.000627  1
  O  O8  1  0.588419  0.587540  0.750000  1
  O  O9  1  0.409988  0.412527  0.250000  1
  O  O10  1  0.840011  0.117655  0.750000  1
  O  O11  1  0.160652  0.879025  0.250000  1
  O  O12  1  0.116878  0.839045  0.750000  1
  O  O13  1  0.883670  0.163120  0.250000  1
  O  O14  1  0.439004  0.181627  0.963860  1
  O  O15  1  0.562125  0.819070  0.463602  1
  O  O16  1  0.180966  0.441035  0.966008  1
  O  O17  1  0.818760  0.559363  0.461602  1
  O  O18  1  0.439004  0.181627  0.536140  1
  O  O19  1  0.562125  0.819070  0.036398  1
  O  O20  1  0.818760  0.559363  0.038398  1
  O  O21  1  0.180966  0.441035  0.533992  1
