# generated using pymatgen
data_TbYbDy2(Mo2O7)2
_symmetry_space_group_name_H-M   'P 1'
_cell_length_a   7.30858724
_cell_length_b   7.31441573
_cell_length_c   7.42201210
_cell_angle_alpha   60.52746668
_cell_angle_beta   60.50425695
_cell_angle_gamma   60.02636197
_symmetry_Int_Tables_number   1
_chemical_formula_structural   TbYbDy2(Mo2O7)2
_chemical_formula_sum   'Tb1 Yb1 Dy2 Mo4 O14'
_cell_volume   282.78093728
_cell_formula_units_Z   1
loop_
 _symmetry_equiv_pos_site_id
 _symmetry_equiv_pos_as_xyz
  1  'x, y, z'
loop_
 _atom_site_type_symbol
 _atom_site_label
 _atom_site_symmetry_multiplicity
 _atom_site_fract_x
 _atom_site_fract_y
 _atom_site_fract_z
 _atom_site_occupancy
  Tb  Tb0  1  0.125000  0.625000  0.125000  1
  Yb  Yb1  1  0.125000  0.125000  0.625000  1
  Dy  Dy2  1  0.625000  0.125000  0.125000  1
  Dy  Dy3  1  0.125000  0.125000  0.125000  1
  Mo  Mo4  1  0.125000  0.625000  0.625000  1
  Mo  Mo5  1  0.625000  0.125000  0.625000  1
  Mo  Mo6  1  0.625000  0.625000  0.125000  1
  Mo  Mo7  1  0.625000  0.625000  0.625000  1
  O  O8  1  0.708410  0.708883  0.285682  1
  O  O9  1  0.288219  0.288218  0.724482  1
  O  O10  1  0.699080  0.288218  0.724482  1
  O  O11  1  0.297025  0.708883  0.285682  1
  O  O12  1  0.288418  0.699202  0.723960  1
  O  O13  1  0.708797  0.296813  0.285593  1
  O  O14  1  0.541590  0.541117  0.964318  1
  O  O15  1  0.961781  0.961782  0.525518  1
  O  O16  1  0.550920  0.961782  0.525518  1
  O  O17  1  0.952975  0.541117  0.964318  1
  O  O18  1  0.961582  0.550798  0.526040  1
  O  O19  1  0.541203  0.953187  0.964407  1
  O  O20  1  0.252575  0.250814  0.244035  1
  O  O21  1  0.997425  0.999186  0.005965  1
