# generated using pymatgen
data_Tm2Lu8(InSb)3
_symmetry_space_group_name_H-M   'P 1'
_cell_length_a   6.38448301
_cell_length_b   8.78940058
_cell_length_c   8.79472600
_cell_angle_alpha   120.04688962
_cell_angle_beta   89.99800819
_cell_angle_gamma   90.00210921
_symmetry_Int_Tables_number   1
_chemical_formula_structural   Tm2Lu8(InSb)3
_chemical_formula_sum   'Tm2 Lu8 In3 Sb3'
_cell_volume   427.20127920
_cell_formula_units_Z   1
loop_
 _symmetry_equiv_pos_site_id
 _symmetry_equiv_pos_as_xyz
  1  'x, y, z'
loop_
 _atom_site_type_symbol
 _atom_site_label
 _atom_site_symmetry_multiplicity
 _atom_site_fract_x
 _atom_site_fract_y
 _atom_site_fract_z
 _atom_site_occupancy
  Tm  Tm0  1  0.750142  0.237335  0.000198  1
  Tm  Tm1  1  0.750020  0.763109  0.763080  1
  Lu  Lu2  1  0.496905  0.333627  0.666859  1
  Lu  Lu3  1  0.496924  0.666544  0.333211  1
  Lu  Lu4  1  0.003014  0.666741  0.333234  1
  Lu  Lu5  1  0.003057  0.333351  0.666701  1
  Lu  Lu6  1  0.750173  0.000241  0.237420  1
  Lu  Lu7  1  0.250042  0.763083  0.999961  1
  Lu  Lu8  1  0.249983  0.236477  0.236754  1
  Lu  Lu9  1  0.250046  0.999764  0.763109  1
  In  In10  1  0.249835  0.393554  0.999914  1
  In  In11  1  0.249748  0.605928  0.605608  1
  In  In12  1  0.250200  0.999956  0.393909  1
  Sb  Sb13  1  0.750036  0.603675  0.000107  1
  Sb  Sb14  1  0.749943  0.396631  0.396735  1
  Sb  Sb15  1  0.749933  0.999985  0.603200  1
