# generated using pymatgen
data_Dy8Y4InCo5
_symmetry_space_group_name_H-M   'P 1'
_cell_length_a   8.32165046
_cell_length_b   8.32164856
_cell_length_c   8.32164935
_cell_angle_alpha   110.58650052
_cell_angle_beta   110.65711899
_cell_angle_gamma   107.19378168
_symmetry_Int_Tables_number   1
_chemical_formula_structural   Dy8Y4InCo5
_chemical_formula_sum   'Dy8 Y4 In1 Co5'
_cell_volume   443.09186474
_cell_formula_units_Z   1
loop_
 _symmetry_equiv_pos_site_id
 _symmetry_equiv_pos_as_xyz
  1  'x, y, z'
loop_
 _atom_site_type_symbol
 _atom_site_label
 _atom_site_symmetry_multiplicity
 _atom_site_fract_x
 _atom_site_fract_y
 _atom_site_fract_z
 _atom_site_occupancy
  Dy  Dy0  1  0.685886  0.379295  0.693409  1
  Dy  Dy1  1  0.314114  0.620705  0.306591  1
  Dy  Dy2  1  0.685886  0.992477  0.306591  1
  Dy  Dy3  1  0.314114  0.007523  0.693409  1
  Dy  Dy4  1  0.601545  0.792883  0.808662  1
  Dy  Dy5  1  0.398455  0.207117  0.191338  1
  Dy  Dy6  1  0.984221  0.792883  0.191338  1
  Dy  Dy7  1  0.015779  0.207117  0.808662  1
  Y  Y8  1  0.813014  0.706765  0.519780  1
  Y  Y9  1  0.186986  0.293235  0.480220  1
  Y  Y10  1  0.186986  0.706765  0.893750  1
  Y  Y11  1  0.813014  0.293235  0.106250  1
  In  In12  1  0.500000  0.500000  0.000000  1
  Co  Co13  1  0.620080  0.000000  0.620080  1
  Co  Co14  1  0.379920  0.000000  0.379920  1
  Co  Co15  1  0.112160  0.612159  0.500000  1
  Co  Co16  1  0.887840  0.387841  0.500000  1
  Co  Co17  1  0.000000  0.000000  0.000000  1
