# generated using pymatgen
data_Ca2Pr4Zr2Ga7FeO24
_symmetry_space_group_name_H-M   'P 1'
_cell_length_a   11.00739546
_cell_length_b   11.08727008
_cell_length_c   11.10256800
_cell_angle_alpha   109.27729315
_cell_angle_beta   109.40869228
_cell_angle_gamma   109.25721155
_symmetry_Int_Tables_number   1
_chemical_formula_structural   Ca2Pr4Zr2Ga7FeO24
_chemical_formula_sum   'Ca4 Pr8 Zr4 Ga14 Fe2 O48'
_cell_volume   1049.07436682
_cell_formula_units_Z   2
loop_
 _symmetry_equiv_pos_site_id
 _symmetry_equiv_pos_as_xyz
  1  'x, y, z'
loop_
 _atom_site_type_symbol
 _atom_site_label
 _atom_site_symmetry_multiplicity
 _atom_site_fract_x
 _atom_site_fract_y
 _atom_site_fract_z
 _atom_site_occupancy
  Ca  Ca0  1  0.621795  0.234651  0.369627  1
  Ca  Ca1  1  0.872268  0.120021  0.241746  1
  Ca  Ca2  1  0.127732  0.879979  0.758254  1
  Ca  Ca3  1  0.378205  0.765349  0.630373  1
  Pr  Pr4  1  0.249771  0.624345  0.875791  1
  Pr  Pr5  1  0.628461  0.371054  0.749036  1
  Pr  Pr6  1  0.126412  0.251097  0.880802  1
  Pr  Pr7  1  0.250167  0.122896  0.369422  1
  Pr  Pr8  1  0.873588  0.748903  0.119198  1
  Pr  Pr9  1  0.749833  0.877104  0.630578  1
  Pr  Pr10  1  0.371539  0.628946  0.250964  1
  Pr  Pr11  1  0.750229  0.375655  0.124209  1
  Zr  Zr12  1  0.000000  0.000000  0.500000  1
  Zr  Zr13  1  0.500000  0.000000  0.000000  1
  Zr  Zr14  1  0.000000  0.500000  0.500000  1
  Zr  Zr15  1  0.500000  0.500000  0.500000  1
  Ga  Ga16  1  0.885095  0.636619  0.761779  1
  Ga  Ga17  1  0.622450  0.748229  0.872291  1
  Ga  Ga18  1  0.868609  0.253294  0.628165  1
  Ga  Ga19  1  0.245788  0.869638  0.127497  1
  Ga  Ga20  1  0.255122  0.374876  0.632947  1
  Ga  Ga21  1  0.500000  0.500000  0.000000  1
  Ga  Ga22  1  0.625498  0.874377  0.249232  1
  Ga  Ga23  1  0.374502  0.125623  0.750768  1
  Ga  Ga24  1  0.754212  0.130362  0.872502  1
  Ga  Ga25  1  0.744878  0.625124  0.367053  1
  Ga  Ga26  1  0.131391  0.746706  0.371835  1
  Ga  Ga27  1  0.000000  0.500000  0.000000  1
  Ga  Ga28  1  0.377550  0.251771  0.127709  1
  Ga  Ga29  1  0.114905  0.363381  0.238221  1
  Fe  Fe30  1  0.000000  0.000000  0.000000  1
  Fe  Fe31  1  0.500000  0.000000  0.500000  1
  O  O32  1  0.296072  0.877945  0.983668  1
  O  O33  1  0.420668  0.292678  0.320729  1
  O  O34  1  0.690723  0.491093  0.610565  1
  O  O35  1  0.029042  0.627376  0.710059  1
  O  O36  1  0.473141  0.792013  0.876447  1
  O  O37  1  0.205332  0.517759  0.623420  1
  O  O38  1  0.877096  0.297622  0.482493  1
  O  O39  1  0.020199  0.403272  0.821061  1
  O  O40  1  0.673482  0.203125  0.581359  1
  O  O41  1  0.397747  0.015026  0.318179  1
  O  O42  1  0.623931  0.021626  0.204151  1
  O  O43  1  0.616565  0.595081  0.914666  1
  O  O44  1  0.079731  0.174561  0.200605  1
  O  O45  1  0.404650  0.377533  0.586797  1
  O  O46  1  0.300085  0.417544  0.825661  1
  O  O47  1  0.105417  0.185130  0.483085  1
  O  O48  1  0.883819  0.584646  0.907078  1
  O  O49  1  0.816160  0.897805  0.015483  1
  O  O50  1  0.914432  0.100899  0.623166  1
  O  O51  1  0.198874  0.674879  0.081409  1
  O  O52  1  0.586539  0.880880  0.403236  1
  O  O53  1  0.819399  0.915430  0.291940  1
  O  O54  1  0.522732  0.320403  0.902151  1
  O  O55  1  0.094331  0.914447  0.119585  1
  O  O56  1  0.905669  0.085553  0.880415  1
  O  O57  1  0.477268  0.679597  0.097849  1
  O  O58  1  0.180601  0.084570  0.708060  1
  O  O59  1  0.413461  0.119120  0.596764  1
  O  O60  1  0.801126  0.325121  0.918591  1
  O  O61  1  0.085568  0.899101  0.376834  1
  O  O62  1  0.183840  0.102195  0.984517  1
  O  O63  1  0.116181  0.415354  0.092922  1
  O  O64  1  0.894583  0.814870  0.516915  1
  O  O65  1  0.699915  0.582456  0.174339  1
  O  O66  1  0.595350  0.622467  0.413203  1
  O  O67  1  0.920269  0.825439  0.799395  1
  O  O68  1  0.383435  0.404919  0.085334  1
  O  O69  1  0.376069  0.978374  0.795849  1
  O  O70  1  0.602253  0.984974  0.681821  1
  O  O71  1  0.326518  0.796875  0.418641  1
  O  O72  1  0.979801  0.596728  0.178939  1
  O  O73  1  0.122904  0.702378  0.517507  1
  O  O74  1  0.794668  0.482241  0.376580  1
  O  O75  1  0.526859  0.207987  0.123553  1
  O  O76  1  0.970958  0.372624  0.289941  1
  O  O77  1  0.309277  0.508907  0.389435  1
  O  O78  1  0.579332  0.707322  0.679271  1
  O  O79  1  0.703928  0.122055  0.016332  1
