# generated using pymatgen
data_Tb2CeDy5(ReB6)4
_symmetry_space_group_name_H-M   'P 1'
_cell_length_a   3.70296400
_cell_length_b   9.19766305
_cell_length_c   11.58444401
_cell_angle_alpha   90.04871669
_cell_angle_beta   90.00000000
_cell_angle_gamma   90.00000000
_symmetry_Int_Tables_number   1
_chemical_formula_structural   Tb2CeDy5(ReB6)4
_chemical_formula_sum   'Tb2 Ce1 Dy5 Re4 B24'
_cell_volume   394.54997754
_cell_formula_units_Z   1
loop_
 _symmetry_equiv_pos_site_id
 _symmetry_equiv_pos_as_xyz
  1  'x, y, z'
loop_
 _atom_site_type_symbol
 _atom_site_label
 _atom_site_symmetry_multiplicity
 _atom_site_fract_x
 _atom_site_fract_y
 _atom_site_fract_z
 _atom_site_occupancy
  Tb  Tb0  1  0.000000  0.677367  0.586642  1
  Tb  Tb1  1  0.000000  0.823275  0.085507  1
  Ce  Ce2  1  0.000000  0.323074  0.414070  1
  Dy  Dy3  1  0.000000  0.176204  0.914001  1
  Dy  Dy4  1  0.000000  0.942202  0.369826  1
  Dy  Dy5  1  0.000000  0.057056  0.630491  1
  Dy  Dy6  1  0.000000  0.442707  0.129203  1
  Dy  Dy7  1  0.000000  0.557528  0.870188  1
  Re  Re8  1  0.000000  0.637337  0.321185  1
  Re  Re9  1  0.000000  0.362049  0.678669  1
  Re  Re10  1  0.000000  0.138669  0.179491  1
  Re  Re11  1  0.000000  0.862103  0.820922  1
  B  B12  1  0.500000  0.553465  0.432158  1
  B  B13  1  0.500000  0.446356  0.567847  1
  B  B14  1  0.500000  0.053188  0.066927  1
  B  B15  1  0.500000  0.947055  0.932845  1
  B  B16  1  0.500000  0.748928  0.417973  1
  B  B17  1  0.500000  0.251634  0.582762  1
  B  B18  1  0.500000  0.248257  0.081109  1
  B  B19  1  0.500000  0.751474  0.918133  1
  B  B20  1  0.500000  0.791219  0.265569  1
  B  B21  1  0.500000  0.208843  0.735127  1
  B  B22  1  0.500000  0.290673  0.233836  1
  B  B23  1  0.500000  0.708734  0.765701  1
  B  B24  1  0.500000  0.630964  0.185355  1
  B  B25  1  0.500000  0.369751  0.814455  1
  B  B26  1  0.500000  0.130478  0.313629  1
  B  B27  1  0.500000  0.869461  0.686185  1
  B  B28  1  0.500000  0.982356  0.211613  1
  B  B29  1  0.500000  0.017734  0.788382  1
  B  B30  1  0.500000  0.483374  0.287480  1
  B  B31  1  0.500000  0.517830  0.712699  1
  B  B32  1  0.500000  0.600869  0.027969  1
  B  B33  1  0.500000  0.399252  0.971442  1
  B  B34  1  0.500000  0.099856  0.472086  1
  B  B35  1  0.500000  0.898678  0.528523  1
