# generated using pymatgen
data_Ca2Pr18Si15Os
_symmetry_space_group_name_H-M   'P 1'
_cell_length_a   7.93381505
_cell_length_b   7.92079381
_cell_length_c   15.23458900
_cell_angle_alpha   90.07404305
_cell_angle_beta   89.66817462
_cell_angle_gamma   90.19821396
_symmetry_Int_Tables_number   1
_chemical_formula_structural   Ca2Pr18Si15Os
_chemical_formula_sum   'Ca2 Pr18 Si15 Os1'
_cell_volume   957.35120658
_cell_formula_units_Z   1
loop_
 _symmetry_equiv_pos_site_id
 _symmetry_equiv_pos_as_xyz
  1  'x, y, z'
loop_
 _atom_site_type_symbol
 _atom_site_label
 _atom_site_symmetry_multiplicity
 _atom_site_fract_x
 _atom_site_fract_y
 _atom_site_fract_z
 _atom_site_occupancy
  Ca  Ca0  1  0.310499  0.309521  0.999651  1
  Ca  Ca1  1  0.189680  0.810159  0.250479  1
  Pr  Pr2  1  0.825365  0.189037  0.747266  1
  Pr  Pr3  1  0.693128  0.687964  0.501675  1
  Pr  Pr4  1  0.374882  0.009753  0.448287  1
  Pr  Pr5  1  0.485601  0.877735  0.698644  1
  Pr  Pr6  1  0.510119  0.124048  0.198248  1
  Pr  Pr7  1  0.874219  0.489430  0.299441  1
  Pr  Pr8  1  0.127633  0.505472  0.799364  1
  Pr  Pr9  1  0.625934  0.990432  0.948997  1
  Pr  Pr10  1  0.007807  0.375572  0.550324  1
  Pr  Pr11  1  0.990796  0.623963  0.051803  1
  Pr  Pr12  1  0.132063  0.986540  0.873924  1
  Pr  Pr13  1  0.514450  0.628611  0.126039  1
  Pr  Pr14  1  0.470810  0.360401  0.629291  1
  Pr  Pr15  1  0.627980  0.512664  0.875251  1
  Pr  Pr16  1  0.374829  0.483502  0.373438  1
  Pr  Pr17  1  0.873704  0.017429  0.375971  1
  Pr  Pr18  1  0.986784  0.126348  0.124065  1
  Pr  Pr19  1  0.027326  0.881572  0.626035  1
  Si  Si20  1  0.334436  0.698366  0.950273  1
  Si  Si21  1  0.663704  0.300237  0.450131  1
  Si  Si22  1  0.701574  0.334803  0.052026  1
  Si  Si23  1  0.304787  0.669545  0.546689  1
  Si  Si24  1  0.800567  0.835200  0.200527  1
  Si  Si25  1  0.165348  0.201819  0.298139  1
  Si  Si26  1  0.832681  0.800624  0.800812  1
  Si  Si27  1  0.286675  0.917774  0.059225  1
  Si  Si28  1  0.581771  0.786442  0.309538  1
  Si  Si29  1  0.422440  0.207478  0.812975  1
  Si  Si30  1  0.780245  0.582393  0.691462  1
  Si  Si31  1  0.212328  0.421047  0.189937  1
  Si  Si32  1  0.702308  0.073351  0.558245  1
  Si  Si33  1  0.918488  0.286782  0.942070  1
  Si  Si34  1  0.079628  0.715315  0.440466  1
  Os  Os35  1  0.189402  0.178670  0.699293  1
