# generated using pymatgen
data_CaErSiN3
_symmetry_space_group_name_H-M   'P 1'
_cell_length_a   5.79096000
_cell_length_b   5.79095806
_cell_length_c   11.20504400
_cell_angle_alpha   90.00000000
_cell_angle_beta   90.00000000
_cell_angle_gamma   125.37336183
_symmetry_Int_Tables_number   1
_chemical_formula_structural   CaErSiN3
_chemical_formula_sum   'Ca4 Er4 Si4 N12'
_cell_volume   306.39641253
_cell_formula_units_Z   4
loop_
 _symmetry_equiv_pos_site_id
 _symmetry_equiv_pos_as_xyz
  1  'x, y, z'
loop_
 _atom_site_type_symbol
 _atom_site_label
 _atom_site_symmetry_multiplicity
 _atom_site_fract_x
 _atom_site_fract_y
 _atom_site_fract_z
 _atom_site_occupancy
  Ca  Ca0  1  0.044036  0.955964  0.854830  1
  Ca  Ca1  1  0.955964  0.044036  0.145170  1
  Ca  Ca2  1  0.455964  0.544036  0.354830  1
  Ca  Ca3  1  0.544036  0.455964  0.645170  1
  Er  Er4  1  0.641729  0.358271  0.077492  1
  Er  Er5  1  0.358271  0.641729  0.922508  1
  Er  Er6  1  0.858271  0.141729  0.577492  1
  Er  Er7  1  0.141729  0.858271  0.422508  1
  Si  Si8  1  0.738448  0.261552  0.838662  1
  Si  Si9  1  0.261552  0.738448  0.161338  1
  Si  Si10  1  0.761552  0.238448  0.338662  1
  Si  Si11  1  0.238448  0.761552  0.661338  1
  N  N12  1  0.572218  0.427782  0.871421  1
  N  N13  1  0.427782  0.572218  0.128579  1
  N  N14  1  0.927782  0.072218  0.371421  1
  N  N15  1  0.072218  0.927782  0.628579  1
  N  N16  1  0.534499  0.965501  0.750000  1
  N  N17  1  0.965501  0.534499  0.250000  1
  N  N18  1  0.465501  0.034499  0.250000  1
  N  N19  1  0.034499  0.465501  0.750000  1
  N  N20  1  0.837698  0.162302  0.963544  1
  N  N21  1  0.162302  0.837698  0.036456  1
  N  N22  1  0.662302  0.337698  0.463544  1
  N  N23  1  0.337698  0.662302  0.536456  1
