# generated using pymatgen
data_Y4Si3Ir4
_symmetry_space_group_name_H-M   'P 1'
_cell_length_a   10.72013312
_cell_length_b   10.72013390
_cell_length_c   7.74806483
_cell_angle_alpha   71.90635339
_cell_angle_beta   71.90634989
_cell_angle_gamma   30.07077547
_symmetry_Int_Tables_number   1
_chemical_formula_structural   Y4Si3Ir4
_chemical_formula_sum   'Y8 Si6 Ir8'
_cell_volume   422.46189310
_cell_formula_units_Z   2
loop_
 _symmetry_equiv_pos_site_id
 _symmetry_equiv_pos_as_xyz
  1  'x, y, z'
loop_
 _atom_site_type_symbol
 _atom_site_label
 _atom_site_symmetry_multiplicity
 _atom_site_fract_x
 _atom_site_fract_y
 _atom_site_fract_z
 _atom_site_occupancy
  Y  Y0  1  0.210018  0.448976  0.403250  1
  Y  Y1  1  0.551024  0.789982  0.096750  1
  Y  Y2  1  0.448976  0.210018  0.903250  1
  Y  Y3  1  0.931249  0.207810  0.326769  1
  Y  Y4  1  0.792190  0.068751  0.173231  1
  Y  Y5  1  0.068751  0.792190  0.673231  1
  Y  Y6  1  0.207810  0.931249  0.826769  1
  Y  Y7  1  0.789982  0.551024  0.596750  1
  Si  Si8  1  0.599734  0.400266  0.750000  1
  Si  Si9  1  0.400266  0.599734  0.250000  1
  Si  Si10  1  0.303477  0.041216  0.439083  1
  Si  Si11  1  0.958784  0.696523  0.060917  1
  Si  Si12  1  0.696523  0.958784  0.560917  1
  Si  Si13  1  0.041216  0.303477  0.939083  1
  Ir  Ir14  1  0.286811  0.590368  0.027166  1
  Ir  Ir15  1  0.590368  0.286811  0.527166  1
  Ir  Ir16  1  0.713189  0.409632  0.972834  1
  Ir  Ir17  1  0.073469  0.365410  0.189411  1
  Ir  Ir18  1  0.634590  0.926531  0.310589  1
  Ir  Ir19  1  0.409632  0.713189  0.472834  1
  Ir  Ir20  1  0.926531  0.634590  0.810589  1
  Ir  Ir21  1  0.365410  0.073469  0.689411  1
