# generated using pymatgen
data_HfZr4BeSn3
_symmetry_space_group_name_H-M   'P 1'
_cell_length_a   8.63675100
_cell_length_b   8.63675181
_cell_length_c   5.81212100
_cell_angle_alpha   90.00000000
_cell_angle_beta   90.00000000
_cell_angle_gamma   119.99999305
_symmetry_Int_Tables_number   1
_chemical_formula_structural   HfZr4BeSn3
_chemical_formula_sum   'Hf2 Zr8 Be2 Sn6'
_cell_volume   375.46213727
_cell_formula_units_Z   2
loop_
 _symmetry_equiv_pos_site_id
 _symmetry_equiv_pos_as_xyz
  1  'x, y, z'
loop_
 _atom_site_type_symbol
 _atom_site_label
 _atom_site_symmetry_multiplicity
 _atom_site_fract_x
 _atom_site_fract_y
 _atom_site_fract_z
 _atom_site_occupancy
  Hf  Hf0  1  0.666667  0.333333  0.000000  1
  Hf  Hf1  1  0.333333  0.666667  0.000000  1
  Zr  Zr2  1  0.333333  0.666667  0.500000  1
  Zr  Zr3  1  0.666667  0.333333  0.500000  1
  Zr  Zr4  1  0.749059  0.749059  0.748249  1
  Zr  Zr5  1  0.250941  0.000000  0.748249  1
  Zr  Zr6  1  0.000000  0.250941  0.748249  1
  Zr  Zr7  1  0.250941  0.250941  0.251751  1
  Zr  Zr8  1  0.749059  0.000000  0.251751  1
  Zr  Zr9  1  0.000000  0.749059  0.251751  1
  Be  Be10  1  0.000000  0.000000  0.000000  1
  Be  Be11  1  0.000000  0.000000  0.500000  1
  Sn  Sn12  1  0.389631  0.389631  0.751514  1
  Sn  Sn13  1  0.610369  0.000000  0.751514  1
  Sn  Sn14  1  0.000000  0.610369  0.751514  1
  Sn  Sn15  1  0.610369  0.610369  0.248486  1
  Sn  Sn16  1  0.389631  0.000000  0.248486  1
  Sn  Sn17  1  0.000000  0.389631  0.248486  1
