# generated using pymatgen
data_HoPu11(PBr3)4
_symmetry_space_group_name_H-M   'P 1'
_cell_length_a   10.15305366
_cell_length_b   10.21819036
_cell_length_c   10.15090428
_cell_angle_alpha   109.19152078
_cell_angle_beta   109.54068460
_cell_angle_gamma   109.80860323
_symmetry_Int_Tables_number   1
_chemical_formula_structural   HoPu11(PBr3)4
_chemical_formula_sum   'Ho1 Pu11 P4 Br12'
_cell_volume   809.39527815
_cell_formula_units_Z   1
loop_
 _symmetry_equiv_pos_site_id
 _symmetry_equiv_pos_as_xyz
  1  'x, y, z'
loop_
 _atom_site_type_symbol
 _atom_site_label
 _atom_site_symmetry_multiplicity
 _atom_site_fract_x
 _atom_site_fract_y
 _atom_site_fract_z
 _atom_site_occupancy
  Ho  Ho0  1  0.473567  0.486783  0.236783  1
  Pu  Pu1  1  0.751013  0.237565  0.260649  1
  Pu  Pu2  1  0.751013  0.013448  0.490363  1
  Pu  Pu3  1  0.238192  0.476147  0.487683  1
  Pu  Pu4  1  0.261644  0.749398  0.238421  1
  Pu  Pu5  1  0.021880  0.260940  0.010940  1
  Pu  Pu6  1  0.012403  0.024929  0.261935  1
  Pu  Pu7  1  0.488926  0.750453  0.012360  1
  Pu  Pu8  1  0.488926  0.238473  0.476566  1
  Pu  Pu9  1  0.012403  0.487474  0.750468  1
  Pu  Pu10  1  0.261644  0.012246  0.023223  1
  Pu  Pu11  1  0.238192  0.262045  0.750509  1
  P  P12  1  0.252545  0.253446  0.249302  1
  P  P13  1  0.500448  0.000224  0.250224  1
  P  P14  1  0.000406  0.250203  0.500203  1
  P  P15  1  0.252545  0.499100  0.003244  1
  Br  Br16  1  0.250246  0.755515  0.744583  1
  Br  Br17  1  0.511041  0.505520  0.755520  1
  Br  Br18  1  0.989363  0.744681  0.994681  1
  Br  Br19  1  0.743725  0.249104  0.755159  1
  Br  Br20  1  0.994352  0.989762  0.745435  1
  Br  Br21  1  0.250246  0.994731  0.505663  1
  Br  Br22  1  0.750717  0.511707  0.498851  1
  Br  Br23  1  0.507886  0.260305  0.002752  1
  Br  Br24  1  0.750717  0.739010  0.251866  1
  Br  Br25  1  0.743725  0.994621  0.988566  1
  Br  Br26  1  0.994352  0.504590  0.248917  1
  Br  Br27  1  0.507886  0.747581  0.505133  1
