# generated using pymatgen
data_Er16Tl2ZnInRh4
_symmetry_space_group_name_H-M   'P 1'
_cell_length_a   9.54792958
_cell_length_b   9.53764163
_cell_length_c   9.54792944
_cell_angle_alpha   59.99898138
_cell_angle_beta   60.00815600
_cell_angle_gamma   59.99898356
_symmetry_Int_Tables_number   1
_chemical_formula_structural   Er16Tl2ZnInRh4
_chemical_formula_sum   'Er16 Tl2 Zn1 In1 Rh4'
_cell_volume   614.84336744
_cell_formula_units_Z   1
loop_
 _symmetry_equiv_pos_site_id
 _symmetry_equiv_pos_as_xyz
  1  'x, y, z'
loop_
 _atom_site_type_symbol
 _atom_site_label
 _atom_site_symmetry_multiplicity
 _atom_site_fract_x
 _atom_site_fract_y
 _atom_site_fract_z
 _atom_site_occupancy
  Er  Er0  1  0.190061  0.189791  0.810665  1
  Er  Er1  1  0.438484  0.054785  0.067165  1
  Er  Er2  1  0.435337  0.057284  0.435337  1
  Er  Er3  1  0.060867  0.437097  0.060867  1
  Er  Er4  1  0.647391  0.052338  0.647391  1
  Er  Er5  1  0.189647  0.811786  0.809857  1
  Er  Er6  1  0.067165  0.054785  0.438484  1
  Er  Er7  1  0.810665  0.189791  0.190061  1
  Er  Er8  1  0.809857  0.811786  0.189647  1
  Er  Er9  1  0.646550  0.648089  0.052368  1
  Er  Er10  1  0.652387  0.651502  0.652387  1
  Er  Er11  1  0.065749  0.432921  0.436523  1
  Er  Er12  1  0.052368  0.648089  0.646550  1
  Er  Er13  1  0.810525  0.190427  0.810525  1
  Er  Er14  1  0.436523  0.432921  0.065749  1
  Er  Er15  1  0.189240  0.812506  0.189240  1
  Tl  Tl16  1  0.413977  0.422034  0.751742  1
  Tl  Tl17  1  0.751742  0.422034  0.413977  1
  Zn  Zn18  1  0.415169  0.754767  0.415169  1
  In  In19  1  0.415901  0.422721  0.415901  1
  Rh  Rh20  1  0.859406  0.426813  0.859406  1
  Rh  Rh21  1  0.857968  0.859084  0.427021  1
  Rh  Rh22  1  0.427021  0.859084  0.857968  1
  Rh  Rh23  1  0.856002  0.857568  0.856002  1
