# generated using pymatgen
data_Tb7Tm(Sc3Si4)4
_symmetry_space_group_name_H-M   'P 1'
_cell_length_a   7.10074491
_cell_length_b   7.39568355
_cell_length_c   14.00632910
_cell_angle_alpha   89.94485313
_cell_angle_beta   90.02990315
_cell_angle_gamma   90.04966551
_symmetry_Int_Tables_number   1
_chemical_formula_structural   Tb7Tm(Sc3Si4)4
_chemical_formula_sum   'Tb7 Tm1 Sc12 Si16'
_cell_volume   735.53972724
_cell_formula_units_Z   1
loop_
 _symmetry_equiv_pos_site_id
 _symmetry_equiv_pos_as_xyz
  1  'x, y, z'
loop_
 _atom_site_type_symbol
 _atom_site_label
 _atom_site_symmetry_multiplicity
 _atom_site_fract_x
 _atom_site_fract_y
 _atom_site_fract_z
 _atom_site_occupancy
  Tb  Tb0  1  0.011678  0.175318  0.096815  1
  Tb  Tb1  1  0.988352  0.824617  0.902901  1
  Tb  Tb2  1  0.488255  0.675281  0.903498  1
  Tb  Tb3  1  0.988119  0.824171  0.596816  1
  Tb  Tb4  1  0.511803  0.324778  0.096778  1
  Tb  Tb5  1  0.011993  0.175239  0.403494  1
  Tb  Tb6  1  0.511530  0.324842  0.403640  1
  Tm  Tm7  1  0.488061  0.676296  0.597399  1
  Sc  Sc8  1  0.160711  0.502167  0.749644  1
  Sc  Sc9  1  0.839799  0.498463  0.250065  1
  Sc  Sc10  1  0.339535  0.001796  0.250158  1
  Sc  Sc11  1  0.660044  0.997901  0.749448  1
  Sc  Sc12  1  0.331474  0.176790  0.625534  1
  Sc  Sc13  1  0.668283  0.822944  0.374633  1
  Sc  Sc14  1  0.169260  0.676447  0.374679  1
  Sc  Sc15  1  0.668708  0.823712  0.125575  1
  Sc  Sc16  1  0.830656  0.324317  0.625479  1
  Sc  Sc17  1  0.331035  0.176451  0.874233  1
  Sc  Sc18  1  0.831118  0.323519  0.874195  1
  Sc  Sc19  1  0.168966  0.676425  0.125566  1
  Si  Si20  1  0.033459  0.117392  0.749918  1
  Si  Si21  1  0.966423  0.882687  0.250104  1
  Si  Si22  1  0.466475  0.617190  0.250079  1
  Si  Si23  1  0.533293  0.383855  0.749546  1
  Si  Si24  1  0.286355  0.873395  0.749253  1
  Si  Si25  1  0.714647  0.125305  0.249989  1
  Si  Si26  1  0.214647  0.374527  0.250003  1
  Si  Si27  1  0.784062  0.625823  0.749195  1
  Si  Si28  1  0.159391  0.465529  0.539746  1
  Si  Si29  1  0.842120  0.535672  0.460816  1
  Si  Si30  1  0.343358  0.963189  0.461108  1
  Si  Si31  1  0.842851  0.535547  0.039349  1
  Si  Si32  1  0.656517  0.034002  0.539789  1
  Si  Si33  1  0.156928  0.464378  0.960572  1
  Si  Si34  1  0.657346  0.035518  0.960620  1
  Si  Si35  1  0.342748  0.964519  0.039361  1
