# generated using pymatgen
data_Dy3HoTmCoBi2
_symmetry_space_group_name_H-M   'P 1'
_cell_length_a   7.96127800
_cell_length_b   8.87958347
_cell_length_c   12.40515822
_cell_angle_alpha   90.03720697
_cell_angle_beta   89.94253163
_cell_angle_gamma   90.00098911
_symmetry_Int_Tables_number   1
_chemical_formula_structural   Dy3HoTmCoBi2
_chemical_formula_sum   'Dy12 Ho4 Tm4 Co4 Bi8'
_cell_volume   876.95514596
_cell_formula_units_Z   4
loop_
 _symmetry_equiv_pos_site_id
 _symmetry_equiv_pos_as_xyz
  1  'x, y, z'
loop_
 _atom_site_type_symbol
 _atom_site_label
 _atom_site_symmetry_multiplicity
 _atom_site_fract_x
 _atom_site_fract_y
 _atom_site_fract_z
 _atom_site_occupancy
  Dy  Dy0  1  0.847457  0.749815  0.801342  1
  Dy  Dy1  1  0.152242  0.250074  0.198705  1
  Dy  Dy2  1  0.347368  0.250181  0.698973  1
  Dy  Dy3  1  0.652968  0.749921  0.301021  1
  Dy  Dy4  1  0.379298  0.749872  0.688193  1
  Dy  Dy5  1  0.621182  0.250261  0.311868  1
  Dy  Dy6  1  0.879056  0.250124  0.812272  1
  Dy  Dy7  1  0.120425  0.749743  0.187724  1
  Dy  Dy8  1  0.950199  0.749768  0.502584  1
  Dy  Dy9  1  0.049141  0.250149  0.497413  1
  Dy  Dy10  1  0.450550  0.250229  0.997360  1
  Dy  Dy11  1  0.550112  0.749854  0.002645  1
  Ho  Ho12  1  0.674601  0.035336  0.563453  1
  Ho  Ho13  1  0.325308  0.964894  0.436614  1
  Ho  Ho14  1  0.174184  0.964946  0.936785  1
  Ho  Ho15  1  0.325739  0.535109  0.436701  1
  Tm  Tm16  1  0.826866  0.035222  0.063181  1
  Tm  Tm17  1  0.673250  0.464609  0.563261  1
  Tm  Tm18  1  0.827273  0.464744  0.063089  1
  Tm  Tm19  1  0.172805  0.535157  0.936961  1
  Co  Co20  1  0.561307  0.749607  0.507670  1
  Co  Co21  1  0.439745  0.250423  0.492526  1
  Co  Co22  1  0.059903  0.250393  0.992695  1
  Co  Co23  1  0.939018  0.749566  0.007526  1
  Bi  Bi24  1  0.568065  0.492528  0.826208  1
  Bi  Bi25  1  0.431996  0.507397  0.173628  1
  Bi  Bi26  1  0.068244  0.507414  0.673843  1
  Bi  Bi27  1  0.431913  0.992592  0.173663  1
  Bi  Bi28  1  0.931442  0.492482  0.326049  1
  Bi  Bi29  1  0.568411  0.007526  0.826219  1
  Bi  Bi30  1  0.931335  0.007534  0.326012  1
  Bi  Bi31  1  0.068595  0.992531  0.673817  1
