# generated using pymatgen
data_Pb(S8Cl)3
_symmetry_space_group_name_H-M   'P 1'
_cell_length_a   15.05661578
_cell_length_b   15.05661558
_cell_length_c   15.05661626
_cell_angle_alpha   118.81888383
_cell_angle_beta   118.81888525
_cell_angle_gamma   118.81887806
_symmetry_Int_Tables_number   1
_chemical_formula_structural   Pb(S8Cl)3
_chemical_formula_sum   'Pb1 S24 Cl3'
_cell_volume   958.69701479
_cell_formula_units_Z   1
loop_
 _symmetry_equiv_pos_site_id
 _symmetry_equiv_pos_as_xyz
  1  'x, y, z'
loop_
 _atom_site_type_symbol
 _atom_site_label
 _atom_site_symmetry_multiplicity
 _atom_site_fract_x
 _atom_site_fract_y
 _atom_site_fract_z
 _atom_site_occupancy
  Pb  Pb0  1  0.254329  0.254329  0.254329  1
  S  S1  1  0.010136  0.606680  0.606680  1
  S  S2  1  0.606680  0.606680  0.010136  1
  S  S3  1  0.606680  0.010136  0.606680  1
  S  S4  1  0.235238  0.846818  0.717951  1
  S  S5  1  0.846818  0.717951  0.235238  1
  S  S6  1  0.717951  0.235238  0.846818  1
  S  S7  1  0.846818  0.235238  0.717951  1
  S  S8  1  0.235238  0.717951  0.846818  1
  S  S9  1  0.717951  0.846818  0.235238  1
  S  S10  1  0.099344  0.627626  0.445150  1
  S  S11  1  0.627626  0.445150  0.099344  1
  S  S12  1  0.445150  0.099344  0.627626  1
  S  S13  1  0.627626  0.099344  0.445150  1
  S  S14  1  0.099344  0.445150  0.627626  1
  S  S15  1  0.445150  0.627626  0.099344  1
  S  S16  1  0.360156  0.747395  0.618051  1
  S  S17  1  0.747395  0.618051  0.360156  1
  S  S18  1  0.618051  0.360156  0.747395  1
  S  S19  1  0.747395  0.360156  0.618051  1
  S  S20  1  0.360156  0.618051  0.747395  1
  S  S21  1  0.618051  0.747395  0.360156  1
  S  S22  1  0.186259  0.464799  0.464799  1
  S  S23  1  0.464799  0.464799  0.186259  1
  S  S24  1  0.464799  0.186259  0.464799  1
  Cl  Cl25  1  0.120678  0.968640  0.968640  1
  Cl  Cl26  1  0.968640  0.968640  0.120678  1
  Cl  Cl27  1  0.968640  0.120678  0.968640  1
