# generated using pymatgen
data_Ho4Ga4RuAu3
_symmetry_space_group_name_H-M   'P 1'
_cell_length_a   4.46850200
_cell_length_b   7.02535629
_cell_length_c   7.78819174
_cell_angle_alpha   89.72789812
_cell_angle_beta   90.00000000
_cell_angle_gamma   90.00000000
_symmetry_Int_Tables_number   1
_chemical_formula_structural   Ho4Ga4RuAu3
_chemical_formula_sum   'Ho4 Ga4 Ru1 Au3'
_cell_volume   244.49053354
_cell_formula_units_Z   1
loop_
 _symmetry_equiv_pos_site_id
 _symmetry_equiv_pos_as_xyz
  1  'x, y, z'
loop_
 _atom_site_type_symbol
 _atom_site_label
 _atom_site_symmetry_multiplicity
 _atom_site_fract_x
 _atom_site_fract_y
 _atom_site_fract_z
 _atom_site_occupancy
  Ho  Ho0  1  0.250000  0.008005  0.793319  1
  Ho  Ho1  1  0.250000  0.521413  0.693636  1
  Ho  Ho2  1  0.750000  0.986730  0.214362  1
  Ho  Ho3  1  0.750000  0.500411  0.292873  1
  Ga  Ga4  1  0.250000  0.171246  0.422388  1
  Ga  Ga5  1  0.250000  0.698168  0.088266  1
  Ga  Ga6  1  0.750000  0.807075  0.572793  1
  Ga  Ga7  1  0.750000  0.315300  0.919139  1
  Ru  Ru8  1  0.250000  0.773765  0.410448  1
  Au  Au9  1  0.250000  0.278679  0.093737  1
  Au  Au10  1  0.750000  0.223154  0.591202  1
  Au  Au11  1  0.750000  0.716054  0.907837  1
