# generated using pymatgen
data_Na4GdUSe6
_symmetry_space_group_name_H-M   'P 1'
_cell_length_a   7.44688767
_cell_length_b   7.44688785
_cell_length_c   7.47576700
_cell_angle_alpha   80.37204898
_cell_angle_beta   80.37204875
_cell_angle_gamma   120.03113064
_symmetry_Int_Tables_number   1
_chemical_formula_structural   Na4GdUSe6
_chemical_formula_sum   'Na4 Gd1 U1 Se6'
_cell_volume   338.22625943
_cell_formula_units_Z   1
loop_
 _symmetry_equiv_pos_site_id
 _symmetry_equiv_pos_as_xyz
  1  'x, y, z'
loop_
 _atom_site_type_symbol
 _atom_site_label
 _atom_site_symmetry_multiplicity
 _atom_site_fract_x
 _atom_site_fract_y
 _atom_site_fract_z
 _atom_site_occupancy
  Na  Na0  1  0.000012  0.999988  0.000000  1
  Na  Na1  1  0.499214  0.500786  0.500000  1
  Na  Na2  1  0.837866  0.162134  0.500000  1
  Na  Na3  1  0.161951  0.838049  0.500000  1
  Gd  Gd4  1  0.667254  0.332746  0.000000  1
  U  U5  1  0.332716  0.667284  0.000000  1
  Se  Se6  1  0.276364  0.289345  0.226284  1
  Se  Se7  1  0.426784  0.061205  0.774775  1
  Se  Se8  1  0.088521  0.440132  0.778302  1
  Se  Se9  1  0.710655  0.723636  0.773716  1
  Se  Se10  1  0.559868  0.911479  0.221698  1
  Se  Se11  1  0.938795  0.573216  0.225225  1
