# generated using pymatgen
data_NaErSc3Ni9As7
_symmetry_space_group_name_H-M   'P 1'
_cell_length_a   9.71440300
_cell_length_b   9.71440231
_cell_length_c   3.87324900
_cell_angle_alpha   90.00000000
_cell_angle_beta   90.00000000
_cell_angle_gamma   120.00000212
_symmetry_Int_Tables_number   1
_chemical_formula_structural   NaErSc3Ni9As7
_chemical_formula_sum   'Na1 Er1 Sc3 Ni9 As7'
_cell_volume   316.54702852
_cell_formula_units_Z   1
loop_
 _symmetry_equiv_pos_site_id
 _symmetry_equiv_pos_as_xyz
  1  'x, y, z'
loop_
 _atom_site_type_symbol
 _atom_site_label
 _atom_site_symmetry_multiplicity
 _atom_site_fract_x
 _atom_site_fract_y
 _atom_site_fract_z
 _atom_site_occupancy
  Na  Na0  1  0.666667  0.333333  0.500000  1
  Er  Er1  1  0.333333  0.666667  0.000000  1
  Sc  Sc2  1  0.233046  0.119333  0.500000  1
  Sc  Sc3  1  0.880667  0.113712  0.500000  1
  Sc  Sc4  1  0.886288  0.766954  0.500000  1
  Ni  Ni5  1  0.125994  0.286493  0.000000  1
  Ni  Ni6  1  0.713507  0.839501  0.000000  1
  Ni  Ni7  1  0.160499  0.874006  0.000000  1
  Ni  Ni8  1  0.418366  0.359830  0.000000  1
  Ni  Ni9  1  0.640170  0.058538  0.000000  1
  Ni  Ni10  1  0.941462  0.581634  0.000000  1
  Ni  Ni11  1  0.054528  0.443361  0.500000  1
  Ni  Ni12  1  0.556639  0.611166  0.500000  1
  Ni  Ni13  1  0.388834  0.945472  0.500000  1
  As  As14  1  0.287262  0.417642  0.500000  1
  As  As15  1  0.582358  0.869621  0.500000  1
  As  As16  1  0.130379  0.712738  0.500000  1
  As  As17  1  0.427046  0.108488  0.000000  1
  As  As18  1  0.891512  0.318558  0.000000  1
  As  As19  1  0.681442  0.572954  0.000000  1
  As  As20  1  0.000000  0.000000  0.000000  1
