# generated using pymatgen
data_CaPa(Ga3Ir)3
_symmetry_space_group_name_H-M   'P 1'
_cell_length_a   7.64094169
_cell_length_b   7.64055938
_cell_length_c   9.43722300
_cell_angle_alpha   90.00000000
_cell_angle_beta   90.00000000
_cell_angle_gamma   119.83222985
_symmetry_Int_Tables_number   1
_chemical_formula_structural   CaPa(Ga3Ir)3
_chemical_formula_sum   'Ca2 Pa2 Ga18 Ir6'
_cell_volume   477.94575924
_cell_formula_units_Z   2
loop_
 _symmetry_equiv_pos_site_id
 _symmetry_equiv_pos_as_xyz
  1  'x, y, z'
loop_
 _atom_site_type_symbol
 _atom_site_label
 _atom_site_symmetry_multiplicity
 _atom_site_fract_x
 _atom_site_fract_y
 _atom_site_fract_z
 _atom_site_occupancy
  Ca  Ca0  1  0.669436  0.995254  0.750000  1
  Ca  Ca1  1  0.330564  0.004746  0.250000  1
  Pa  Pa2  1  0.000645  0.669141  0.750000  1
  Pa  Pa3  1  0.999355  0.330859  0.250000  1
  Ga  Ga4  1  0.132034  0.127252  0.750000  1
  Ga  Ga5  1  0.867966  0.872748  0.250000  1
  Ga  Ga6  1  0.997875  0.329058  0.583669  1
  Ga  Ga7  1  0.002125  0.670942  0.416331  1
  Ga  Ga8  1  0.002125  0.670942  0.083669  1
  Ga  Ga9  1  0.340615  0.003067  0.920631  1
  Ga  Ga10  1  0.997875  0.329058  0.916331  1
  Ga  Ga11  1  0.659385  0.996933  0.079369  1
  Ga  Ga12  1  0.659385  0.996933  0.420631  1
  Ga  Ga13  1  0.340615  0.003067  0.579369  1
  Ga  Ga14  1  0.334233  0.330693  0.066465  1
  Ga  Ga15  1  0.665767  0.669307  0.933535  1
  Ga  Ga16  1  0.665767  0.669307  0.566465  1
  Ga  Ga17  1  0.334233  0.330693  0.433535  1
  Ga  Ga18  1  0.340420  0.544710  0.750000  1
  Ga  Ga19  1  0.659580  0.455290  0.250000  1
  Ga  Ga20  1  0.548170  0.340773  0.750000  1
  Ga  Ga21  1  0.451830  0.659227  0.250000  1
  Ir  Ir22  1  0.678627  0.334786  0.499306  1
  Ir  Ir23  1  0.321373  0.665214  0.500694  1
  Ir  Ir24  1  0.321373  0.665214  0.999306  1
  Ir  Ir25  1  0.678627  0.334786  0.000694  1
  Ir  Ir26  1  0.000000  0.000000  0.500000  1
  Ir  Ir27  1  0.000000  0.000000  0.000000  1
