# generated using pymatgen
data_Ce2IrRu3
_symmetry_space_group_name_H-M   'P 1'
_cell_length_a   5.44861120
_cell_length_b   5.44861128
_cell_length_c   5.44861122
_cell_angle_alpha   58.17464027
_cell_angle_beta   58.17464186
_cell_angle_gamma   58.17463538
_symmetry_Int_Tables_number   1
_chemical_formula_structural   Ce2IrRu3
_chemical_formula_sum   'Ce2 Ir1 Ru3'
_cell_volume   109.59332908
_cell_formula_units_Z   1
loop_
 _symmetry_equiv_pos_site_id
 _symmetry_equiv_pos_as_xyz
  1  'x, y, z'
loop_
 _atom_site_type_symbol
 _atom_site_label
 _atom_site_symmetry_multiplicity
 _atom_site_fract_x
 _atom_site_fract_y
 _atom_site_fract_z
 _atom_site_occupancy
  Ce  Ce0  1  0.748850  0.748850  0.748850  1
  Ce  Ce1  1  0.501150  0.501150  0.501150  1
  Ir  Ir2  1  0.125000  0.125000  0.125000  1
  Ru  Ru3  1  0.125000  0.125000  0.625000  1
  Ru  Ru4  1  0.125000  0.625000  0.125000  1
  Ru  Ru5  1  0.625000  0.125000  0.125000  1
