# generated using pymatgen
data_La14Nd6Si15Rh
_symmetry_space_group_name_H-M   'P 1'
_cell_length_a   8.00419973
_cell_length_b   8.00023719
_cell_length_c   15.42777000
_cell_angle_alpha   90.06941180
_cell_angle_beta   89.89386509
_cell_angle_gamma   90.03301533
_symmetry_Int_Tables_number   1
_chemical_formula_structural   La14Nd6Si15Rh
_chemical_formula_sum   'La14 Nd6 Si15 Rh1'
_cell_volume   987.92232711
_cell_formula_units_Z   1
loop_
 _symmetry_equiv_pos_site_id
 _symmetry_equiv_pos_as_xyz
  1  'x, y, z'
loop_
 _atom_site_type_symbol
 _atom_site_label
 _atom_site_symmetry_multiplicity
 _atom_site_fract_x
 _atom_site_fract_y
 _atom_site_fract_z
 _atom_site_occupancy
  La  La0  1  0.516777  0.625941  0.127619  1
  La  La1  1  0.126215  0.982698  0.875914  1
  La  La2  1  0.990579  0.621014  0.054409  1
  La  La3  1  0.013110  0.377514  0.547841  1
  La  La4  1  0.623534  0.987607  0.948690  1
  La  La5  1  0.124221  0.510103  0.800845  1
  La  La6  1  0.875058  0.487639  0.304589  1
  La  La7  1  0.510957  0.124683  0.199089  1
  La  La8  1  0.491411  0.879585  0.695501  1
  La  La9  1  0.380213  0.015031  0.450504  1
  La  La10  1  0.698047  0.695683  0.497553  1
  La  La11  1  0.810768  0.189312  0.748647  1
  La  La12  1  0.187325  0.799012  0.262116  1
  La  La13  1  0.303426  0.307958  0.999727  1
  Nd  Nd14  1  0.371135  0.482165  0.377047  1
  Nd  Nd15  1  0.871605  0.017923  0.375334  1
  Nd  Nd16  1  0.981763  0.128901  0.125743  1
  Nd  Nd17  1  0.022613  0.869815  0.621641  1
  Nd  Nd18  1  0.628422  0.517319  0.873652  1
  Nd  Nd19  1  0.484967  0.374237  0.624040  1
  Si  Si20  1  0.918271  0.289321  0.940316  1
  Si  Si21  1  0.711957  0.081253  0.558804  1
  Si  Si22  1  0.213434  0.416799  0.192346  1
  Si  Si23  1  0.789259  0.578136  0.689606  1
  Si  Si24  1  0.422586  0.214534  0.807481  1
  Si  Si25  1  0.577131  0.792473  0.309532  1
  Si  Si26  1  0.287902  0.922256  0.061275  1
  Si  Si27  1  0.831368  0.800922  0.797099  1
  Si  Si28  1  0.165823  0.198499  0.301114  1
  Si  Si29  1  0.800426  0.837496  0.200765  1
  Si  Si30  1  0.304018  0.669031  0.546923  1
  Si  Si31  1  0.697295  0.331415  0.047307  1
  Si  Si32  1  0.665155  0.302092  0.450902  1
  Si  Si33  1  0.332023  0.695418  0.953357  1
  Si  Si34  1  0.200755  0.168669  0.697178  1
  Rh  Rh35  1  0.070451  0.707547  0.435495  1
