# generated using pymatgen
data_Tb12AlSi4Hg
_symmetry_space_group_name_H-M   'P 1'
_cell_length_a   8.53147404
_cell_length_b   8.53147223
_cell_length_c   8.53147300
_cell_angle_alpha   111.81413141
_cell_angle_beta   111.16943499
_cell_angle_gamma   105.50223812
_symmetry_Int_Tables_number   1
_chemical_formula_structural   Tb12AlSi4Hg
_chemical_formula_sum   'Tb12 Al1 Si4 Hg1'
_cell_volume   476.30339199
_cell_formula_units_Z   1
loop_
 _symmetry_equiv_pos_site_id
 _symmetry_equiv_pos_as_xyz
  1  'x, y, z'
loop_
 _atom_site_type_symbol
 _atom_site_label
 _atom_site_symmetry_multiplicity
 _atom_site_fract_x
 _atom_site_fract_y
 _atom_site_fract_z
 _atom_site_occupancy
  Tb  Tb0  1  0.440474  0.241810  0.198664  1
  Tb  Tb1  1  0.559526  0.758190  0.801336  1
  Tb  Tb2  1  0.043147  0.241810  0.801336  1
  Tb  Tb3  1  0.956853  0.758190  0.198664  1
  Tb  Tb4  1  0.180499  0.271479  0.451978  1
  Tb  Tb5  1  0.819501  0.728521  0.548022  1
  Tb  Tb6  1  0.180499  0.728521  0.909019  1
  Tb  Tb7  1  0.819501  0.271479  0.090981  1
  Tb  Tb8  1  0.321550  0.618896  0.297347  1
  Tb  Tb9  1  0.678450  0.381104  0.702653  1
  Tb  Tb10  1  0.321550  0.024204  0.702653  1
  Tb  Tb11  1  0.678450  0.975796  0.297347  1
  Al  Al12  1  0.000000  0.000000  0.000000  1
  Si  Si13  1  0.365537  0.000000  0.365537  1
  Si  Si14  1  0.634463  0.000000  0.634463  1
  Si  Si15  1  0.116097  0.616097  0.500000  1
  Si  Si16  1  0.883903  0.383903  0.500000  1
  Hg  Hg17  1  0.500000  0.500000  0.000000  1
