# generated using pymatgen
data_Y4BeCo3Br2
_symmetry_space_group_name_H-M   'P 1'
_cell_length_a   3.89608800
_cell_length_b   3.89608734
_cell_length_c   16.35985400
_cell_angle_alpha   90.00000000
_cell_angle_beta   90.00000000
_cell_angle_gamma   119.99998861
_symmetry_Int_Tables_number   1
_chemical_formula_structural   Y4BeCo3Br2
_chemical_formula_sum   'Y4 Be1 Co3 Br2'
_cell_volume   215.06391477
_cell_formula_units_Z   1
loop_
 _symmetry_equiv_pos_site_id
 _symmetry_equiv_pos_as_xyz
  1  'x, y, z'
loop_
 _atom_site_type_symbol
 _atom_site_label
 _atom_site_symmetry_multiplicity
 _atom_site_fract_x
 _atom_site_fract_y
 _atom_site_fract_z
 _atom_site_occupancy
  Y  Y0  1  0.000000  0.000000  0.108801  1
  Y  Y1  1  0.000000  0.000000  0.891104  1
  Y  Y2  1  0.000000  0.000000  0.605623  1
  Y  Y3  1  0.000000  0.000000  0.394411  1
  Be  Be4  1  0.333333  0.666667  0.500480  1
  Co  Co5  1  0.666667  0.333333  0.499087  1
  Co  Co6  1  0.666667  0.333333  0.002411  1
  Co  Co7  1  0.333333  0.666667  0.997676  1
  Br  Br8  1  0.333333  0.666667  0.249669  1
  Br  Br9  1  0.666667  0.333333  0.750738  1
