# generated using pymatgen
data_Hf4Zr6Zn2Sn5Sb
_symmetry_space_group_name_H-M   'P 1'
_cell_length_a   8.68191200
_cell_length_b   8.68302197
_cell_length_c   5.86731800
_cell_angle_alpha   90.00000000
_cell_angle_beta   90.00000000
_cell_angle_gamma   119.99577144
_symmetry_Int_Tables_number   1
_chemical_formula_structural   Hf4Zr6Zn2Sn5Sb
_chemical_formula_sum   'Hf4 Zr6 Zn2 Sn5 Sb1'
_cell_volume   383.06726561
_cell_formula_units_Z   1
loop_
 _symmetry_equiv_pos_site_id
 _symmetry_equiv_pos_as_xyz
  1  'x, y, z'
loop_
 _atom_site_type_symbol
 _atom_site_label
 _atom_site_symmetry_multiplicity
 _atom_site_fract_x
 _atom_site_fract_y
 _atom_site_fract_z
 _atom_site_occupancy
  Hf  Hf0  1  0.333695  0.667057  0.500296  1
  Hf  Hf1  1  0.666638  0.332943  0.999704  1
  Hf  Hf2  1  0.666638  0.332943  0.500296  1
  Hf  Hf3  1  0.333695  0.667057  0.999704  1
  Zr  Zr4  1  0.731731  0.732422  0.250000  1
  Zr  Zr5  1  0.731415  0.000000  0.750000  1
  Zr  Zr6  1  0.999310  0.267578  0.250000  1
  Zr  Zr7  1  0.000200  0.731982  0.750000  1
  Zr  Zr8  1  0.268219  0.268018  0.750000  1
  Zr  Zr9  1  0.268870  0.000000  0.250000  1
  Zn  Zn10  1  0.000616  0.000000  0.999422  1
  Zn  Zn11  1  0.000616  0.000000  0.500578  1
  Sn  Sn12  1  0.384342  0.000000  0.750000  1
  Sn  Sn13  1  0.385051  0.385203  0.250000  1
  Sn  Sn14  1  0.999848  0.614797  0.250000  1
  Sn  Sn15  1  0.000270  0.385585  0.750000  1
  Sn  Sn16  1  0.614685  0.614415  0.750000  1
  Sb  Sb17  1  0.614161  0.000000  0.250000  1
