# generated using pymatgen
data_Lu8Si12Ir3Rh
_symmetry_space_group_name_H-M   'P 1'
_cell_length_a   8.10634600
_cell_length_b   8.10634601
_cell_length_c   7.70756900
_cell_angle_alpha   90.00000000
_cell_angle_beta   90.00000000
_cell_angle_gamma   120.00000813
_symmetry_Int_Tables_number   1
_chemical_formula_structural   Lu8Si12Ir3Rh
_chemical_formula_sum   'Lu8 Si12 Ir3 Rh1'
_cell_volume   438.62995890
_cell_formula_units_Z   1
loop_
 _symmetry_equiv_pos_site_id
 _symmetry_equiv_pos_as_xyz
  1  'x, y, z'
loop_
 _atom_site_type_symbol
 _atom_site_label
 _atom_site_symmetry_multiplicity
 _atom_site_fract_x
 _atom_site_fract_y
 _atom_site_fract_z
 _atom_site_occupancy
  Lu  Lu0  1  0.000000  0.000000  0.248716  1
  Lu  Lu1  1  0.000000  0.000000  0.750483  1
  Lu  Lu2  1  0.510739  0.489261  0.250269  1
  Lu  Lu3  1  0.510739  0.021478  0.250269  1
  Lu  Lu4  1  0.978522  0.489261  0.250269  1
  Lu  Lu5  1  0.490385  0.509615  0.749777  1
  Lu  Lu6  1  0.490385  0.980770  0.749777  1
  Lu  Lu7  1  0.019230  0.509615  0.749777  1
  Si  Si8  1  0.166343  0.833657  0.498529  1
  Si  Si9  1  0.166343  0.332686  0.498529  1
  Si  Si10  1  0.667314  0.833657  0.498529  1
  Si  Si11  1  0.833791  0.166209  0.501001  1
  Si  Si12  1  0.833791  0.667584  0.501001  1
  Si  Si13  1  0.332416  0.166209  0.501001  1
  Si  Si14  1  0.833844  0.166156  0.999282  1
  Si  Si15  1  0.833844  0.667688  0.999282  1
  Si  Si16  1  0.332312  0.166156  0.999282  1
  Si  Si17  1  0.167061  0.832939  0.000102  1
  Si  Si18  1  0.167061  0.334121  0.000102  1
  Si  Si19  1  0.665879  0.832939  0.000102  1
  Ir  Ir20  1  0.333333  0.666667  0.467513  1
  Ir  Ir21  1  0.666667  0.333333  0.534435  1
  Ir  Ir22  1  0.666667  0.333333  0.964239  1
  Rh  Rh23  1  0.333333  0.666667  0.037740  1
