# generated using pymatgen
data_Yb3ThCoOs7
_symmetry_space_group_name_H-M   'P 1'
_cell_length_a   5.31314592
_cell_length_b   5.31314720
_cell_length_c   8.81115427
_cell_angle_alpha   89.64780631
_cell_angle_beta   90.35219474
_cell_angle_gamma   121.15814802
_symmetry_Int_Tables_number   1
_chemical_formula_structural   Yb3ThCoOs7
_chemical_formula_sum   'Yb3 Th1 Co1 Os7'
_cell_volume   212.84754588
_cell_formula_units_Z   1
loop_
 _symmetry_equiv_pos_site_id
 _symmetry_equiv_pos_as_xyz
  1  'x, y, z'
loop_
 _atom_site_type_symbol
 _atom_site_label
 _atom_site_symmetry_multiplicity
 _atom_site_fract_x
 _atom_site_fract_y
 _atom_site_fract_z
 _atom_site_occupancy
  Yb  Yb0  1  0.667045  0.332955  0.569779  1
  Yb  Yb1  1  0.669972  0.330028  0.937999  1
  Yb  Yb2  1  0.335007  0.664993  0.060223  1
  Th  Th3  1  0.334277  0.665723  0.430748  1
  Co  Co4  1  0.824126  0.175874  0.248968  1
  Os  Os5  1  0.005660  0.994340  0.498450  1
  Os  Os6  1  0.007738  0.992262  0.004549  1
  Os  Os7  1  0.823386  0.657476  0.245673  1
  Os  Os8  1  0.342524  0.176614  0.245673  1
  Os  Os9  1  0.166236  0.833764  0.753671  1
  Os  Os10  1  0.170871  0.346843  0.752134  1
  Os  Os11  1  0.653157  0.829129  0.752134  1
