# generated using pymatgen
data_Er3Tm5Al8
_symmetry_space_group_name_H-M   'P 1'
_cell_length_a   5.55913200
_cell_length_b   5.80213004
_cell_length_c   11.29783107
_cell_angle_alpha   89.98741098
_cell_angle_beta   89.99968814
_cell_angle_gamma   89.99920303
_symmetry_Int_Tables_number   1
_chemical_formula_structural   Er3Tm5Al8
_chemical_formula_sum   'Er3 Tm5 Al8'
_cell_volume   364.40934893
_cell_formula_units_Z   1
loop_
 _symmetry_equiv_pos_site_id
 _symmetry_equiv_pos_as_xyz
  1  'x, y, z'
loop_
 _atom_site_type_symbol
 _atom_site_label
 _atom_site_symmetry_multiplicity
 _atom_site_fract_x
 _atom_site_fract_y
 _atom_site_fract_z
 _atom_site_occupancy
  Er  Er0  1  0.249998  0.161212  0.017139  1
  Er  Er1  1  0.750001  0.838709  0.982776  1
  Er  Er2  1  0.749992  0.160875  0.482900  1
  Tm  Tm3  1  0.250003  0.838990  0.517367  1
  Tm  Tm4  1  0.250007  0.397741  0.331103  1
  Tm  Tm5  1  0.750001  0.602422  0.668859  1
  Tm  Tm6  1  0.749999  0.397721  0.169011  1
  Tm  Tm7  1  0.250001  0.602340  0.830930  1
  Al  Al8  1  0.000048  0.930974  0.250047  1
  Al  Al9  1  0.500018  0.068976  0.749932  1
  Al  Al10  1  0.999980  0.068975  0.749935  1
  Al  Al11  1  0.499952  0.930969  0.250046  1
  Al  Al12  1  0.249999  0.658907  0.097244  1
  Al  Al13  1  0.750002  0.341102  0.902769  1
  Al  Al14  1  0.750000  0.658998  0.402877  1
  Al  Al15  1  0.249999  0.341091  0.597064  1
