# generated using pymatgen
data_Er7Tm(Sc3Ga4)4
_symmetry_space_group_name_H-M   'P 1'
_cell_length_a   7.23537800
_cell_length_b   7.54572300
_cell_length_c   14.40685700
_cell_angle_alpha   89.99852772
_cell_angle_beta   89.99982540
_cell_angle_gamma   89.99962012
_symmetry_Int_Tables_number   1
_chemical_formula_structural   Er7Tm(Sc3Ga4)4
_chemical_formula_sum   'Er7 Tm1 Sc12 Ga16'
_cell_volume   786.55904363
_cell_formula_units_Z   1
loop_
 _symmetry_equiv_pos_site_id
 _symmetry_equiv_pos_as_xyz
  1  'x, y, z'
loop_
 _atom_site_type_symbol
 _atom_site_label
 _atom_site_symmetry_multiplicity
 _atom_site_fract_x
 _atom_site_fract_y
 _atom_site_fract_z
 _atom_site_occupancy
  Er  Er0  1  0.989454  0.819673  0.905665  1
  Er  Er1  1  0.489446  0.680316  0.905659  1
  Er  Er2  1  0.989460  0.819663  0.594344  1
  Er  Er3  1  0.510543  0.319667  0.094351  1
  Er  Er4  1  0.010551  0.180336  0.405661  1
  Er  Er5  1  0.510545  0.319671  0.405656  1
  Er  Er6  1  0.489448  0.680318  0.594345  1
  Tm  Tm7  1  0.010546  0.180346  0.094346  1
  Sc  Sc8  1  0.162329  0.503220  0.749998  1
  Sc  Sc9  1  0.837677  0.496765  0.249994  1
  Sc  Sc10  1  0.337656  0.003233  0.249993  1
  Sc  Sc11  1  0.662334  0.996778  0.749999  1
  Sc  Sc12  1  0.330000  0.173050  0.624696  1
  Sc  Sc13  1  0.670002  0.826955  0.375300  1
  Sc  Sc14  1  0.169999  0.673044  0.375297  1
  Sc  Sc15  1  0.670014  0.826964  0.124698  1
  Sc  Sc16  1  0.829998  0.326957  0.624697  1
  Sc  Sc17  1  0.329996  0.173048  0.875302  1
  Sc  Sc18  1  0.830010  0.326955  0.875308  1
  Sc  Sc19  1  0.169998  0.673046  0.124697  1
  Ga  Ga20  1  0.030624  0.115710  0.749999  1
  Ga  Ga21  1  0.969375  0.884305  0.249996  1
  Ga  Ga22  1  0.469377  0.615709  0.250000  1
  Ga  Ga23  1  0.530622  0.384296  0.749999  1
  Ga  Ga24  1  0.283196  0.869998  0.750001  1
  Ga  Ga25  1  0.716821  0.130004  0.249991  1
  Ga  Ga26  1  0.216788  0.369983  0.249991  1
  Ga  Ga27  1  0.783195  0.630004  0.749998  1
  Ga  Ga28  1  0.162940  0.465407  0.540410  1
  Ga  Ga29  1  0.837060  0.534597  0.459588  1
  Ga  Ga30  1  0.337059  0.965411  0.459588  1
  Ga  Ga31  1  0.837072  0.534571  0.040416  1
  Ga  Ga32  1  0.662945  0.034595  0.540410  1
  Ga  Ga33  1  0.162935  0.465393  0.959597  1
  Ga  Ga34  1  0.662953  0.034592  0.959591  1
  Ga  Ga35  1  0.337032  0.965422  0.040418  1
