# generated using pymatgen
data_RbDyTe3O8
_symmetry_space_group_name_H-M   'P 1'
_cell_length_a   6.06531066
_cell_length_b   7.82484372
_cell_length_c   11.56837237
_cell_angle_alpha   100.89292533
_cell_angle_beta   89.26491055
_cell_angle_gamma   109.01246364
_symmetry_Int_Tables_number   1
_chemical_formula_structural   RbDyTe3O8
_chemical_formula_sum   'Rb2 Dy2 Te6 O16'
_cell_volume   509.02946299
_cell_formula_units_Z   2
loop_
 _symmetry_equiv_pos_site_id
 _symmetry_equiv_pos_as_xyz
  1  'x, y, z'
loop_
 _atom_site_type_symbol
 _atom_site_label
 _atom_site_symmetry_multiplicity
 _atom_site_fract_x
 _atom_site_fract_y
 _atom_site_fract_z
 _atom_site_occupancy
  Rb  Rb0  1  0.840712  0.120294  0.168963  1
  Rb  Rb1  1  0.159288  0.879706  0.831037  1
  Dy  Dy2  1  0.500000  0.500000  0.000000  1
  Dy  Dy3  1  0.000000  0.500000  0.500000  1
  Te  Te4  1  0.216284  0.993675  0.419383  1
  Te  Te5  1  0.783716  0.006325  0.580617  1
  Te  Te6  1  0.072667  0.685829  0.151145  1
  Te  Te7  1  0.927333  0.314171  0.848855  1
  Te  Te8  1  0.513027  0.521477  0.335755  1
  Te  Te9  1  0.486973  0.478523  0.664245  1
  O  O10  1  0.182552  0.745495  0.420194  1
  O  O11  1  0.817448  0.254505  0.579806  1
  O  O12  1  0.233698  0.936477  0.233300  1
  O  O13  1  0.766302  0.063523  0.766700  1
  O  O14  1  0.891732  0.966920  0.397703  1
  O  O15  1  0.108268  0.033080  0.602297  1
  O  O16  1  0.267243  0.684678  0.022490  1
  O  O17  1  0.732757  0.315322  0.977510  1
  O  O18  1  0.828116  0.736234  0.080593  1
  O  O19  1  0.171884  0.263766  0.919407  1
  O  O20  1  0.396721  0.432559  0.177361  1
  O  O21  1  0.603279  0.567441  0.822639  1
  O  O22  1  0.256265  0.368271  0.406146  1
  O  O23  1  0.743735  0.631729  0.593854  1
  O  O24  1  0.729689  0.395536  0.342233  1
  O  O25  1  0.270311  0.604464  0.657767  1
