# generated using pymatgen
data_Nd2BeCoSi4
_symmetry_space_group_name_H-M   'P 1'
_cell_length_a   8.49772499
_cell_length_b   8.49772497
_cell_length_c   4.02362300
_cell_angle_alpha   90.00000000
_cell_angle_beta   90.00000000
_cell_angle_gamma   151.87828090
_symmetry_Int_Tables_number   1
_chemical_formula_structural   Nd2BeCoSi4
_chemical_formula_sum   'Nd2 Be1 Co1 Si4'
_cell_volume   136.95019896
_cell_formula_units_Z   1
loop_
 _symmetry_equiv_pos_site_id
 _symmetry_equiv_pos_as_xyz
  1  'x, y, z'
loop_
 _atom_site_type_symbol
 _atom_site_label
 _atom_site_symmetry_multiplicity
 _atom_site_fract_x
 _atom_site_fract_y
 _atom_site_fract_z
 _atom_site_occupancy
  Nd  Nd0  1  0.112550  0.887450  0.250000  1
  Nd  Nd1  1  0.898327  0.101673  0.750000  1
  Be  Be2  1  0.673843  0.326157  0.750000  1
  Co  Co3  1  0.316037  0.683963  0.250000  1
  Si  Si4  1  0.754145  0.245855  0.250000  1
  Si  Si5  1  0.252820  0.747180  0.750000  1
  Si  Si6  1  0.537380  0.462620  0.750000  1
  Si  Si7  1  0.454897  0.545103  0.250000  1
