# generated using pymatgen
data_PrNd3Co14(P2Ru)6
_symmetry_space_group_name_H-M   'P 1'
_cell_length_a   3.76450800
_cell_length_b   10.55803904
_cell_length_c   11.96922404
_cell_angle_alpha   90.00963938
_cell_angle_beta   90.00000000
_cell_angle_gamma   90.00000000
_symmetry_Int_Tables_number   1
_chemical_formula_structural   PrNd3Co14(P2Ru)6
_chemical_formula_sum   'Pr1 Nd3 Co14 P12 Ru6'
_cell_volume   475.72664656
_cell_formula_units_Z   1
loop_
 _symmetry_equiv_pos_site_id
 _symmetry_equiv_pos_as_xyz
  1  'x, y, z'
loop_
 _atom_site_type_symbol
 _atom_site_label
 _atom_site_symmetry_multiplicity
 _atom_site_fract_x
 _atom_site_fract_y
 _atom_site_fract_z
 _atom_site_occupancy
  Pr  Pr0  1  0.750000  0.414982  0.292872  1
  Nd  Nd1  1  0.250000  0.587053  0.704765  1
  Nd  Nd2  1  0.250000  0.912942  0.204752  1
  Nd  Nd3  1  0.750000  0.085038  0.792901  1
  Co  Co4  1  0.750000  0.599566  0.510173  1
  Co  Co5  1  0.750000  0.900527  0.010108  1
  Co  Co6  1  0.250000  0.224467  0.178536  1
  Co  Co7  1  0.250000  0.275209  0.678709  1
  Co  Co8  1  0.750000  0.777824  0.823394  1
  Co  Co9  1  0.750000  0.722289  0.323411  1
  Co  Co10  1  0.250000  0.883982  0.699700  1
  Co  Co11  1  0.250000  0.616314  0.199538  1
  Co  Co12  1  0.750000  0.114063  0.299373  1
  Co  Co13  1  0.750000  0.385787  0.799359  1
  Co  Co14  1  0.250000  0.465554  0.931907  1
  Co  Co15  1  0.250000  0.034355  0.432032  1
  Co  Co16  1  0.750000  0.536837  0.066522  1
  Co  Co17  1  0.750000  0.963255  0.566746  1
  P  P18  1  0.250000  0.422453  0.109146  1
  P  P19  1  0.250000  0.077547  0.609672  1
  P  P20  1  0.750000  0.579266  0.889244  1
  P  P21  1  0.750000  0.920749  0.389284  1
  P  P22  1  0.250000  0.276464  0.866832  1
  P  P23  1  0.250000  0.222988  0.366996  1
  P  P24  1  0.750000  0.725259  0.132551  1
  P  P25  1  0.750000  0.774740  0.632552  1
  P  P26  1  0.250000  0.603267  0.389457  1
  P  P27  1  0.250000  0.897139  0.889243  1
  P  P28  1  0.750000  0.398468  0.611487  1
  P  P29  1  0.750000  0.101547  0.111487  1
  Ru  Ru30  1  0.250000  0.711905  0.989112  1
  Ru  Ru31  1  0.250000  0.788206  0.489162  1
  Ru  Ru32  1  0.750000  0.291303  0.013207  1
  Ru  Ru33  1  0.750000  0.208628  0.513321  1
  Ru  Ru34  1  0.250000  0.407941  0.491459  1
  Ru  Ru35  1  0.250000  0.092083  0.990991  1
