# generated using pymatgen
data_Na4AgSn6Au
_symmetry_space_group_name_H-M   'P 1'
_cell_length_a   9.92218900
_cell_length_b   9.92218948
_cell_length_c   7.50064300
_cell_angle_alpha   90.00000000
_cell_angle_beta   90.00000000
_cell_angle_gamma   120.00000174
_symmetry_Int_Tables_number   1
_chemical_formula_structural   Na4AgSn6Au
_chemical_formula_sum   'Na8 Ag2 Sn12 Au2'
_cell_volume   639.50527483
_cell_formula_units_Z   2
loop_
 _symmetry_equiv_pos_site_id
 _symmetry_equiv_pos_as_xyz
  1  'x, y, z'
loop_
 _atom_site_type_symbol
 _atom_site_label
 _atom_site_symmetry_multiplicity
 _atom_site_fract_x
 _atom_site_fract_y
 _atom_site_fract_z
 _atom_site_occupancy
  Na  Na0  1  0.531812  0.063624  0.250020  1
  Na  Na1  1  0.063624  0.531812  0.749980  1
  Na  Na2  1  0.468188  0.531812  0.749980  1
  Na  Na3  1  0.531812  0.468188  0.250020  1
  Na  Na4  1  0.468188  0.936376  0.749980  1
  Na  Na5  1  0.936376  0.468188  0.250020  1
  Na  Na6  1  0.000000  0.000000  0.748105  1
  Na  Na7  1  0.000000  0.000000  0.251895  1
  Ag  Ag8  1  0.333333  0.666667  0.444624  1
  Ag  Ag9  1  0.666667  0.333333  0.555376  1
  Sn  Sn10  1  0.171680  0.828320  0.055249  1
  Sn  Sn11  1  0.829578  0.659157  0.548177  1
  Sn  Sn12  1  0.340843  0.170422  0.548177  1
  Sn  Sn13  1  0.828320  0.171680  0.944751  1
  Sn  Sn14  1  0.828320  0.656640  0.944751  1
  Sn  Sn15  1  0.829578  0.170422  0.548177  1
  Sn  Sn16  1  0.343360  0.171680  0.944751  1
  Sn  Sn17  1  0.656640  0.828320  0.055249  1
  Sn  Sn18  1  0.659157  0.829578  0.451823  1
  Sn  Sn19  1  0.170422  0.340843  0.451823  1
  Sn  Sn20  1  0.170422  0.829578  0.451823  1
  Sn  Sn21  1  0.171680  0.343360  0.055249  1
  Au  Au22  1  0.666667  0.333333  0.955358  1
  Au  Au23  1  0.333333  0.666667  0.044642  1
