# generated using pymatgen
data_HoLuInGa2
_symmetry_space_group_name_H-M   'P 1'
_cell_length_a   7.15328124
_cell_length_b   7.15328124
_cell_length_c   4.39080200
_cell_angle_alpha   90.00000000
_cell_angle_beta   90.00000000
_cell_angle_gamma   89.11933864
_symmetry_Int_Tables_number   1
_chemical_formula_structural   HoLuInGa2
_chemical_formula_sum   'Ho2 Lu2 In2 Ga4'
_cell_volume   224.64830761
_cell_formula_units_Z   2
loop_
 _symmetry_equiv_pos_site_id
 _symmetry_equiv_pos_as_xyz
  1  'x, y, z'
loop_
 _atom_site_type_symbol
 _atom_site_label
 _atom_site_symmetry_multiplicity
 _atom_site_fract_x
 _atom_site_fract_y
 _atom_site_fract_z
 _atom_site_occupancy
  Ho  Ho0  1  0.672268  0.172268  0.500000  1
  Ho  Ho1  1  0.327732  0.827732  0.500000  1
  Lu  Lu2  1  0.170763  0.329237  0.500000  1
  Lu  Lu3  1  0.829237  0.670763  0.500000  1
  In  In4  1  0.500000  0.500000  0.000000  1
  In  In5  1  0.000000  0.000000  0.000000  1
  Ga  Ga6  1  0.125674  0.625674  0.000000  1
  Ga  Ga7  1  0.874326  0.374326  0.000000  1
  Ga  Ga8  1  0.628081  0.871919  0.000000  1
  Ga  Ga9  1  0.371919  0.128081  0.000000  1
