# generated using pymatgen
data_Li8Ac7YSi8
_symmetry_space_group_name_H-M   'P 1'
_cell_length_a   9.25648800
_cell_length_b   9.25648771
_cell_length_c   7.89697500
_cell_angle_alpha   90.00000000
_cell_angle_beta   90.00000000
_cell_angle_gamma   119.99999389
_symmetry_Int_Tables_number   1
_chemical_formula_structural   Li8Ac7YSi8
_chemical_formula_sum   'Li8 Ac7 Y1 Si8'
_cell_volume   585.98148344
_cell_formula_units_Z   1
loop_
 _symmetry_equiv_pos_site_id
 _symmetry_equiv_pos_as_xyz
  1  'x, y, z'
loop_
 _atom_site_type_symbol
 _atom_site_label
 _atom_site_symmetry_multiplicity
 _atom_site_fract_x
 _atom_site_fract_y
 _atom_site_fract_z
 _atom_site_occupancy
  Li  Li0  1  0.164987  0.329973  0.277433  1
  Li  Li1  1  0.164987  0.835013  0.277433  1
  Li  Li2  1  0.670027  0.835013  0.277433  1
  Li  Li3  1  0.836641  0.673281  0.798585  1
  Li  Li4  1  0.836641  0.163359  0.798585  1
  Li  Li5  1  0.326719  0.163359  0.798585  1
  Li  Li6  1  0.333333  0.666667  0.671613  1
  Li  Li7  1  0.666667  0.333333  0.161917  1
  Ac  Ac8  1  0.512836  0.025671  0.496658  1
  Ac  Ac9  1  0.512836  0.487164  0.496658  1
  Ac  Ac10  1  0.974329  0.487164  0.496658  1
  Ac  Ac11  1  0.486504  0.973007  0.995659  1
  Ac  Ac12  1  0.486504  0.513496  0.995659  1
  Ac  Ac13  1  0.026993  0.513496  0.995659  1
  Ac  Ac14  1  0.000000  0.000000  0.505203  1
  Y  Y15  1  0.000000  0.000000  0.010858  1
  Si  Si16  1  0.164835  0.329669  0.729764  1
  Si  Si17  1  0.164835  0.835165  0.729764  1
  Si  Si18  1  0.670331  0.835165  0.729764  1
  Si  Si19  1  0.837973  0.675947  0.211680  1
  Si  Si20  1  0.837973  0.162027  0.211680  1
  Si  Si21  1  0.324053  0.162027  0.211680  1
  Si  Si22  1  0.333333  0.666667  0.285695  1
  Si  Si23  1  0.666667  0.333333  0.777378  1
