# generated using pymatgen
data_Tb4Dy3Ho(WO6)4
_symmetry_space_group_name_H-M   'P 1'
_cell_length_a   5.41423802
_cell_length_b   7.72669961
_cell_length_c   11.48406509
_cell_angle_alpha   75.55126161
_cell_angle_beta   90.00010216
_cell_angle_gamma   89.98994359
_symmetry_Int_Tables_number   1
_chemical_formula_structural   Tb4Dy3Ho(WO6)4
_chemical_formula_sum   'Tb4 Dy3 Ho1 W4 O24'
_cell_volume   465.23127749
_cell_formula_units_Z   1
loop_
 _symmetry_equiv_pos_site_id
 _symmetry_equiv_pos_as_xyz
  1  'x, y, z'
loop_
 _atom_site_type_symbol
 _atom_site_label
 _atom_site_symmetry_multiplicity
 _atom_site_fract_x
 _atom_site_fract_y
 _atom_site_fract_z
 _atom_site_occupancy
  Tb  Tb0  1  0.739789  0.000074  0.749863  1
  Tb  Tb1  1  0.260203  0.000119  0.250139  1
  Tb  Tb2  1  0.683411  0.499989  0.749991  1
  Tb  Tb3  1  0.316635  0.499842  0.250116  1
  Dy  Dy4  1  0.185157  0.794870  0.577971  1
  Dy  Dy5  1  0.814756  0.794705  0.078017  1
  Dy  Dy6  1  0.185215  0.205298  0.921958  1
  Ho  Ho7  1  0.814724  0.205532  0.421797  1
  W  W8  1  0.254719  0.723135  0.885805  1
  W  W9  1  0.745289  0.722982  0.385843  1
  W  W10  1  0.254836  0.276693  0.613968  1
  W  W11  1  0.745387  0.276828  0.114319  1
  O  O12  1  0.044262  0.939016  0.896140  1
  O  O13  1  0.531042  0.846872  0.931414  1
  O  O14  1  0.955120  0.939704  0.396194  1
  O  O15  1  0.457598  0.789210  0.728043  1
  O  O16  1  0.468864  0.846716  0.431405  1
  O  O17  1  0.982188  0.710587  0.771898  1
  O  O18  1  0.542369  0.789120  0.228081  1
  O  O19  1  0.850451  0.635073  0.548273  1
  O  O20  1  0.360374  0.490354  0.886677  1
  O  O21  1  0.017823  0.710695  0.271973  1
  O  O22  1  0.360255  0.509543  0.613244  1
  O  O23  1  0.850421  0.364950  0.951739  1
  O  O24  1  0.149578  0.635008  0.048322  1
  O  O25  1  0.640211  0.489978  0.386735  1
  O  O26  1  0.982302  0.289415  0.728086  1
  O  O27  1  0.639602  0.509596  0.113323  1
  O  O28  1  0.148608  0.364526  0.451647  1
  O  O29  1  0.457607  0.210739  0.771866  1
  O  O30  1  0.017556  0.289290  0.228426  1
  O  O31  1  0.531761  0.153499  0.568123  1
  O  O32  1  0.543098  0.210646  0.272403  1
  O  O33  1  0.044035  0.061184  0.603631  1
  O  O34  1  0.468970  0.153195  0.068717  1
  O  O35  1  0.955783  0.061019  0.103854  1
