# generated using pymatgen
data_BrNF10
_symmetry_space_group_name_H-M   'P 1'
_cell_length_a   5.54418178
_cell_length_b   5.54418207
_cell_length_c   6.31308154
_cell_angle_alpha   90.83761790
_cell_angle_beta   89.16239687
_cell_angle_gamma   101.11245848
_symmetry_Int_Tables_number   1
_chemical_formula_structural   BrNF10
_chemical_formula_sum   'Br1 N1 F10'
_cell_volume   190.37877678
_cell_formula_units_Z   1
loop_
 _symmetry_equiv_pos_site_id
 _symmetry_equiv_pos_as_xyz
  1  'x, y, z'
loop_
 _atom_site_type_symbol
 _atom_site_label
 _atom_site_symmetry_multiplicity
 _atom_site_fract_x
 _atom_site_fract_y
 _atom_site_fract_z
 _atom_site_occupancy
  Br  Br0  1  0.309589  0.690412  0.241157  1
  N  N1  1  0.765486  0.234515  0.737254  1
  F  F2  1  0.147272  0.852729  0.038500  1
  F  F3  1  0.040907  0.421500  0.244429  1
  F  F4  1  0.578501  0.959094  0.244429  1
  F  F5  1  0.161320  0.838681  0.471604  1
  F  F6  1  0.472722  0.527279  0.440331  1
  F  F7  1  0.871374  0.128627  0.577950  1
  F  F8  1  0.520877  0.166888  0.724648  1
  F  F9  1  0.833113  0.479124  0.724648  1
  F  F10  1  0.840161  0.159840  0.921559  1
  F  F11  1  0.458682  0.541319  0.013487  1
