# generated using pymatgen
data_Ba4Np2NiO12
_symmetry_space_group_name_H-M   'P 1'
_cell_length_a   6.02337291
_cell_length_b   6.02336680
_cell_length_c   10.37223013
_cell_angle_alpha   89.99926625
_cell_angle_beta   73.11852079
_cell_angle_gamma   119.99981347
_symmetry_Int_Tables_number   1
_chemical_formula_structural   Ba4Np2NiO12
_chemical_formula_sum   'Ba4 Np2 Ni1 O12'
_cell_volume   307.03016637
_cell_formula_units_Z   1
loop_
 _symmetry_equiv_pos_site_id
 _symmetry_equiv_pos_as_xyz
  1  'x, y, z'
loop_
 _atom_site_type_symbol
 _atom_site_label
 _atom_site_symmetry_multiplicity
 _atom_site_fract_x
 _atom_site_fract_y
 _atom_site_fract_z
 _atom_site_occupancy
  Ba  Ba0  1  0.559857  0.279933  0.160236  1
  Ba  Ba1  1  0.423235  0.711615  0.865184  1
  Ba  Ba2  1  0.255408  0.127705  0.616889  1
  Ba  Ba3  1  0.750746  0.875381  0.373898  1
  Np  Np4  1  0.003140  0.001568  0.995292  1
  Np  Np5  1  0.008164  0.504083  0.487784  1
  Ni  Ni6  1  0.816424  0.408214  0.775368  1
  O  O7  1  0.765886  0.614288  0.619795  1
  O  O8  1  0.228575  0.614292  0.619807  1
  O  O9  1  0.765894  0.151599  0.619799  1
  O  O10  1  0.242689  0.372603  0.384752  1
  O  O11  1  0.745213  0.372600  0.384746  1
  O  O12  1  0.242683  0.870090  0.384749  1
  O  O13  1  0.077759  0.808650  0.113526  1
  O  O14  1  0.617361  0.808675  0.113521  1
  O  O15  1  0.077755  0.269086  0.113536  1
  O  O16  1  0.921464  0.205144  0.873384  1
  O  O17  1  0.410292  0.205150  0.873355  1
  O  O18  1  0.921457  0.716323  0.873381  1
