# generated using pymatgen
data_Pr3CdCu(PtPb)2
_symmetry_space_group_name_H-M   'P 1'
_cell_length_a   7.99410740
_cell_length_b   7.99410637
_cell_length_c   3.96218200
_cell_angle_alpha   90.00000000
_cell_angle_beta   90.00000000
_cell_angle_gamma   120.72590821
_symmetry_Int_Tables_number   1
_chemical_formula_structural   Pr3CdCu(PtPb)2
_chemical_formula_sum   'Pr3 Cd1 Cu1 Pt2 Pb2'
_cell_volume   217.66144198
_cell_formula_units_Z   1
loop_
 _symmetry_equiv_pos_site_id
 _symmetry_equiv_pos_as_xyz
  1  'x, y, z'
loop_
 _atom_site_type_symbol
 _atom_site_label
 _atom_site_symmetry_multiplicity
 _atom_site_fract_x
 _atom_site_fract_y
 _atom_site_fract_z
 _atom_site_occupancy
  Pr  Pr0  1  0.411159  0.005110  0.500000  1
  Pr  Pr1  1  0.005110  0.411159  0.500000  1
  Pr  Pr2  1  0.579268  0.579268  0.500000  1
  Cd  Cd3  1  0.249393  0.249393  0.000000  1
  Cu  Cu4  1  0.006616  0.006616  0.500000  1
  Pt  Pt5  1  0.331944  0.660102  0.000000  1
  Pt  Pt6  1  0.660102  0.331944  0.000000  1
  Pb  Pb7  1  0.753772  0.002637  0.000000  1
  Pb  Pb8  1  0.002637  0.753772  0.000000  1
