# generated using pymatgen
data_Mn3V2CoSi2
_symmetry_space_group_name_H-M   'P 1'
_cell_length_a   3.99850000
_cell_length_b   3.99849919
_cell_length_c   6.91463356
_cell_angle_alpha   73.19393416
_cell_angle_beta   90.00000000
_cell_angle_gamma   119.99999012
_symmetry_Int_Tables_number   1
_chemical_formula_structural   Mn3V2CoSi2
_chemical_formula_sum   'Mn3 V2 Co1 Si2'
_cell_volume   90.24673221
_cell_formula_units_Z   1
loop_
 _symmetry_equiv_pos_site_id
 _symmetry_equiv_pos_as_xyz
  1  'x, y, z'
loop_
 _atom_site_type_symbol
 _atom_site_label
 _atom_site_symmetry_multiplicity
 _atom_site_fract_x
 _atom_site_fract_y
 _atom_site_fract_z
 _atom_site_occupancy
  Mn  Mn0  1  0.499161  0.998322  0.502517  1
  Mn  Mn1  1  0.251594  0.503188  0.245218  1
  Mn  Mn2  1  0.747651  0.495303  0.757046  1
  V  V3  1  0.873888  0.747776  0.378336  1
  V  V4  1  0.377708  0.755414  0.866878  1
  Co  Co5  1  0.000108  0.000216  0.999676  1
  Si  Si6  1  0.623975  0.247950  0.128075  1
  Si  Si7  1  0.125916  0.251831  0.622253  1
