# generated using pymatgen
data_LaNd2Mg3Sn2Pt
_symmetry_space_group_name_H-M   'P 1'
_cell_length_a   7.67549263
_cell_length_b   7.67549362
_cell_length_c   4.62502500
_cell_angle_alpha   90.00000000
_cell_angle_beta   90.00000000
_cell_angle_gamma   120.48457733
_symmetry_Int_Tables_number   1
_chemical_formula_structural   LaNd2Mg3Sn2Pt
_chemical_formula_sum   'La1 Nd2 Mg3 Sn2 Pt1'
_cell_volume   234.80962033
_cell_formula_units_Z   1
loop_
 _symmetry_equiv_pos_site_id
 _symmetry_equiv_pos_as_xyz
  1  'x, y, z'
loop_
 _atom_site_type_symbol
 _atom_site_label
 _atom_site_symmetry_multiplicity
 _atom_site_fract_x
 _atom_site_fract_y
 _atom_site_fract_z
 _atom_site_occupancy
  La  La0  1  0.398345  0.398345  0.000000  1
  Nd  Nd1  1  0.602276  0.000506  0.000000  1
  Nd  Nd2  1  0.000506  0.602276  0.000000  1
  Mg  Mg3  1  0.998174  0.228370  0.500000  1
  Mg  Mg4  1  0.771919  0.771919  0.500000  1
  Mg  Mg5  1  0.228370  0.998174  0.500000  1
  Sn  Sn6  1  0.668381  0.332285  0.500000  1
  Sn  Sn7  1  0.332285  0.668381  0.500000  1
  Pt  Pt8  1  0.999745  0.999745  0.000000  1
