# generated using pymatgen
data_Li5(AcAs2)4
_symmetry_space_group_name_H-M   'P 1'
_cell_length_a   11.17997384
_cell_length_b   11.17997337
_cell_length_c   5.95647600
_cell_angle_alpha   90.00000000
_cell_angle_beta   90.00000000
_cell_angle_gamma   148.20492898
_symmetry_Int_Tables_number   1
_chemical_formula_structural   Li5(AcAs2)4
_chemical_formula_sum   'Li5 Ac4 As8'
_cell_volume   392.26980102
_cell_formula_units_Z   1
loop_
 _symmetry_equiv_pos_site_id
 _symmetry_equiv_pos_as_xyz
  1  'x, y, z'
loop_
 _atom_site_type_symbol
 _atom_site_label
 _atom_site_symmetry_multiplicity
 _atom_site_fract_x
 _atom_site_fract_y
 _atom_site_fract_z
 _atom_site_occupancy
  Li  Li0  1  0.997403  0.499479  0.248164  1
  Li  Li1  1  0.500521  0.002597  0.751836  1
  Li  Li2  1  0.500521  0.002597  0.248164  1
  Li  Li3  1  0.997403  0.499479  0.751836  1
  Li  Li4  1  0.455183  0.544817  0.500000  1
  Ac  Ac5  1  0.617785  0.382215  0.000000  1
  Ac  Ac6  1  0.116279  0.883721  0.500000  1
  Ac  Ac7  1  0.879181  0.120819  0.500000  1
  Ac  Ac8  1  0.378410  0.621590  0.000000  1
  As  As9  1  0.822826  0.177174  0.000000  1
  As  As10  1  0.327095  0.672905  0.500000  1
  As  As11  1  0.674851  0.325149  0.500000  1
  As  As12  1  0.176205  0.823795  0.000000  1
  As  As13  1  0.781151  0.782884  0.793538  1
  As  As14  1  0.217116  0.218849  0.206462  1
  As  As15  1  0.781151  0.782884  0.206462  1
  As  As16  1  0.217116  0.218849  0.793538  1
