# generated using pymatgen
data_Pr16Dy4Ru5Pt7
_symmetry_space_group_name_H-M   'P 1'
_cell_length_a   11.43874520
_cell_length_b   11.43874531
_cell_length_c   6.53340200
_cell_angle_alpha   90.06426949
_cell_angle_beta   90.06426949
_cell_angle_gamma   90.04222823
_symmetry_Int_Tables_number   1
_chemical_formula_structural   Pr16Dy4Ru5Pt7
_chemical_formula_sum   'Pr16 Dy4 Ru5 Pt7'
_cell_volume   854.86097708
_cell_formula_units_Z   1
loop_
 _symmetry_equiv_pos_site_id
 _symmetry_equiv_pos_as_xyz
  1  'x, y, z'
loop_
 _atom_site_type_symbol
 _atom_site_label
 _atom_site_symmetry_multiplicity
 _atom_site_fract_x
 _atom_site_fract_y
 _atom_site_fract_z
 _atom_site_occupancy
  Pr  Pr0  1  0.295245  0.085375  0.375274  1
  Pr  Pr1  1  0.294026  0.908570  0.874927  1
  Pr  Pr2  1  0.705056  0.085667  0.874343  1
  Pr  Pr3  1  0.704477  0.912912  0.373636  1
  Pr  Pr4  1  0.581912  0.791430  0.875730  1
  Pr  Pr5  1  0.586232  0.207444  0.376546  1
  Pr  Pr6  1  0.410861  0.789810  0.382462  1
  Pr  Pr7  1  0.413040  0.204044  0.876227  1
  Pr  Pr8  1  0.208570  0.418088  0.624270  1
  Pr  Pr9  1  0.210190  0.589139  0.117538  1
  Pr  Pr10  1  0.792556  0.413768  0.123454  1
  Pr  Pr11  1  0.795956  0.586960  0.623773  1
  Pr  Pr12  1  0.914625  0.704755  0.124726  1
  Pr  Pr13  1  0.914333  0.294944  0.625657  1
  Pr  Pr14  1  0.091430  0.705974  0.625073  1
  Pr  Pr15  1  0.087088  0.295523  0.126364  1
  Dy  Dy16  1  0.999717  0.999910  0.500661  1
  Dy  Dy17  1  0.000090  0.000283  0.999339  1
  Dy  Dy18  1  0.497443  0.501217  0.998817  1
  Dy  Dy19  1  0.498783  0.502557  0.501183  1
  Ru  Ru20  1  0.353106  0.646894  0.750000  1
  Ru  Ru21  1  0.500529  0.000772  0.121298  1
  Ru  Ru22  1  0.500396  0.001666  0.618248  1
  Ru  Ru23  1  0.998334  0.499604  0.881752  1
  Ru  Ru24  1  0.999228  0.499471  0.378702  1
  Pt  Pt25  1  0.853993  0.146007  0.250000  1
  Pt  Pt26  1  0.852749  0.854296  0.750380  1
  Pt  Pt27  1  0.145704  0.147251  0.749620  1
  Pt  Pt28  1  0.145779  0.854221  0.250000  1
  Pt  Pt29  1  0.646906  0.353094  0.750000  1
  Pt  Pt30  1  0.649445  0.647799  0.250221  1
  Pt  Pt31  1  0.352201  0.350555  0.249779  1
