# generated using pymatgen
data_Dy8In2NiIr
_symmetry_space_group_name_H-M   'P 1'
_cell_length_a   9.61649081
_cell_length_b   9.61649066
_cell_length_c   9.59394700
_cell_angle_alpha   60.07751417
_cell_angle_beta   60.07751467
_cell_angle_gamma   60.34067112
_symmetry_Int_Tables_number   1
_chemical_formula_structural   Dy8In2NiIr
_chemical_formula_sum   'Dy16 In4 Ni2 Ir2'
_cell_volume   629.69711556
_cell_formula_units_Z   2
loop_
 _symmetry_equiv_pos_site_id
 _symmetry_equiv_pos_as_xyz
  1  'x, y, z'
loop_
 _atom_site_type_symbol
 _atom_site_label
 _atom_site_symmetry_multiplicity
 _atom_site_fract_x
 _atom_site_fract_y
 _atom_site_fract_z
 _atom_site_occupancy
  Dy  Dy0  1  0.598009  0.598009  0.599168  1
  Dy  Dy1  1  0.598009  0.598009  0.204813  1
  Dy  Dy2  1  0.597654  0.202727  0.599810  1
  Dy  Dy3  1  0.202727  0.597654  0.599810  1
  Dy  Dy4  1  0.061198  0.440760  0.438905  1
  Dy  Dy5  1  0.440760  0.061198  0.059137  1
  Dy  Dy6  1  0.440760  0.061198  0.438905  1
  Dy  Dy7  1  0.061198  0.440760  0.059137  1
  Dy  Dy8  1  0.439553  0.439553  0.060447  1
  Dy  Dy9  1  0.059199  0.059199  0.440801  1
  Dy  Dy10  1  0.188892  0.813454  0.808947  1
  Dy  Dy11  1  0.813454  0.188892  0.188707  1
  Dy  Dy12  1  0.813454  0.188892  0.808947  1
  Dy  Dy13  1  0.188892  0.813454  0.188707  1
  Dy  Dy14  1  0.810497  0.810497  0.189503  1
  Dy  Dy15  1  0.187874  0.187874  0.812126  1
  In  In16  1  0.832655  0.832655  0.832337  1
  In  In17  1  0.832655  0.832655  0.502352  1
  In  In18  1  0.832463  0.502563  0.832487  1
  In  In19  1  0.502563  0.832463  0.832487  1
  Ni  Ni20  1  0.391261  0.391261  0.392841  1
  Ni  Ni21  1  0.391261  0.391261  0.824638  1
  Ir  Ir22  1  0.390911  0.824102  0.392494  1
  Ir  Ir23  1  0.824102  0.390911  0.392494  1
