# generated using pymatgen
data_Ac3GaSe6
_symmetry_space_group_name_H-M   'P 1'
_cell_length_a   9.61349439
_cell_length_b   9.61349522
_cell_length_c   7.23269200
_cell_angle_alpha   90.00000000
_cell_angle_beta   90.00000000
_cell_angle_gamma   102.47866645
_symmetry_Int_Tables_number   1
_chemical_formula_structural   Ac3GaSe6
_chemical_formula_sum   'Ac6 Ga2 Se12'
_cell_volume   652.64932655
_cell_formula_units_Z   2
loop_
 _symmetry_equiv_pos_site_id
 _symmetry_equiv_pos_as_xyz
  1  'x, y, z'
loop_
 _atom_site_type_symbol
 _atom_site_label
 _atom_site_symmetry_multiplicity
 _atom_site_fract_x
 _atom_site_fract_y
 _atom_site_fract_z
 _atom_site_occupancy
  Ac  Ac0  1  0.286690  0.083192  0.220845  1
  Ac  Ac1  1  0.916808  0.713310  0.220845  1
  Ac  Ac2  1  0.713310  0.916808  0.720845  1
  Ac  Ac3  1  0.083192  0.286690  0.720845  1
  Ac  Ac4  1  0.396917  0.603083  0.145893  1
  Ac  Ac5  1  0.603083  0.396917  0.645893  1
  Ga  Ga6  1  0.196097  0.803903  0.769769  1
  Ga  Ga7  1  0.803903  0.196097  0.269769  1
  Se  Se8  1  0.578127  0.100727  0.428538  1
  Se  Se9  1  0.899273  0.421873  0.428538  1
  Se  Se10  1  0.421873  0.899273  0.928538  1
  Se  Se11  1  0.100727  0.578127  0.928538  1
  Se  Se12  1  0.637800  0.684464  0.433449  1
  Se  Se13  1  0.315536  0.362200  0.433449  1
  Se  Se14  1  0.362200  0.315536  0.933449  1
  Se  Se15  1  0.684464  0.637800  0.933449  1
  Se  Se16  1  0.214947  0.785053  0.433443  1
  Se  Se17  1  0.785053  0.214947  0.933443  1
  Se  Se18  1  0.957809  0.042191  0.400232  1
  Se  Se19  1  0.042191  0.957809  0.900232  1
