# generated using pymatgen
data_Na2Pd3Pt
_symmetry_space_group_name_H-M   'P 1'
_cell_length_a   5.42650596
_cell_length_b   5.42650541
_cell_length_c   5.36131241
_cell_angle_alpha   59.59691936
_cell_angle_beta   59.59692452
_cell_angle_gamma   60.00000003
_symmetry_Int_Tables_number   1
_chemical_formula_structural   Na2Pd3Pt
_chemical_formula_sum   'Na2 Pd3 Pt1'
_cell_volume   110.94906556
_cell_formula_units_Z   1
loop_
 _symmetry_equiv_pos_site_id
 _symmetry_equiv_pos_as_xyz
  1  'x, y, z'
loop_
 _atom_site_type_symbol
 _atom_site_label
 _atom_site_symmetry_multiplicity
 _atom_site_fract_x
 _atom_site_fract_y
 _atom_site_fract_z
 _atom_site_occupancy
  Na  Na0  1  0.499892  0.499892  0.500323  1
  Na  Na1  1  0.750108  0.750108  0.749677  1
  Pd  Pd2  1  0.125000  0.125000  0.125000  1
  Pd  Pd3  1  0.625000  0.125000  0.125000  1
  Pd  Pd4  1  0.125000  0.625000  0.125000  1
  Pt  Pt5  1  0.125000  0.125000  0.625000  1
