# generated using pymatgen
data_Pr6Nd6Os3Pt
_symmetry_space_group_name_H-M   'P 1'
_cell_length_a   6.58053326
_cell_length_b   7.49069800
_cell_length_c   9.81226142
_cell_angle_alpha   89.97327727
_cell_angle_beta   90.32096649
_cell_angle_gamma   90.22006504
_symmetry_Int_Tables_number   1
_chemical_formula_structural   Pr6Nd6Os3Pt
_chemical_formula_sum   'Pr6 Nd6 Os3 Pt1'
_cell_volume   483.66251078
_cell_formula_units_Z   1
loop_
 _symmetry_equiv_pos_site_id
 _symmetry_equiv_pos_as_xyz
  1  'x, y, z'
loop_
 _atom_site_type_symbol
 _atom_site_label
 _atom_site_symmetry_multiplicity
 _atom_site_fract_x
 _atom_site_fract_y
 _atom_site_fract_z
 _atom_site_occupancy
  Pr  Pr0  1  0.335612  0.671730  0.063853  1
  Pr  Pr1  1  0.169937  0.181810  0.437235  1
  Pr  Pr2  1  0.856351  0.532846  0.250185  1
  Pr  Pr3  1  0.634930  0.042677  0.249947  1
  Pr  Pr4  1  0.138848  0.463600  0.750111  1
  Pr  Pr5  1  0.356481  0.960937  0.749868  1
  Nd  Nd6  1  0.672598  0.322967  0.568116  1
  Nd  Nd7  1  0.825529  0.825160  0.929407  1
  Nd  Nd8  1  0.672537  0.322930  0.931693  1
  Nd  Nd9  1  0.825775  0.825107  0.570663  1
  Nd  Nd10  1  0.336058  0.671376  0.435990  1
  Nd  Nd11  1  0.169932  0.181233  0.062968  1
  Os  Os12  1  0.442673  0.384208  0.250426  1
  Os  Os13  1  0.946997  0.114211  0.751474  1
  Os  Os14  1  0.555046  0.614531  0.748592  1
  Pt  Pt15  1  0.060697  0.884677  0.249472  1
