# generated using pymatgen
data_Dy4HoIr3
_symmetry_space_group_name_H-M   'P 1'
_cell_length_a   10.87671200
_cell_length_b   10.87671200
_cell_length_c   6.36031000
_cell_angle_alpha   90.00000000
_cell_angle_beta   90.00000000
_cell_angle_gamma   90.00000000
_symmetry_Int_Tables_number   1
_chemical_formula_structural   Dy4HoIr3
_chemical_formula_sum   'Dy16 Ho4 Ir12'
_cell_volume   752.44288849
_cell_formula_units_Z   4
loop_
 _symmetry_equiv_pos_site_id
 _symmetry_equiv_pos_as_xyz
  1  'x, y, z'
loop_
 _atom_site_type_symbol
 _atom_site_label
 _atom_site_symmetry_multiplicity
 _atom_site_fract_x
 _atom_site_fract_y
 _atom_site_fract_z
 _atom_site_occupancy
  Dy  Dy0  1  0.291034  0.087917  0.377964  1
  Dy  Dy1  1  0.291034  0.912083  0.877964  1
  Dy  Dy2  1  0.708966  0.087917  0.877964  1
  Dy  Dy3  1  0.708966  0.912083  0.377964  1
  Dy  Dy4  1  0.587917  0.791034  0.877964  1
  Dy  Dy5  1  0.587917  0.208966  0.377964  1
  Dy  Dy6  1  0.412083  0.791034  0.377964  1
  Dy  Dy7  1  0.412083  0.208966  0.877964  1
  Dy  Dy8  1  0.208966  0.412083  0.622036  1
  Dy  Dy9  1  0.208966  0.587917  0.122036  1
  Dy  Dy10  1  0.791034  0.412083  0.122036  1
  Dy  Dy11  1  0.791034  0.587917  0.622036  1
  Dy  Dy12  1  0.912083  0.708966  0.122036  1
  Dy  Dy13  1  0.912083  0.291034  0.622036  1
  Dy  Dy14  1  0.087917  0.708966  0.622036  1
  Dy  Dy15  1  0.087917  0.291034  0.122036  1
  Ho  Ho16  1  0.000000  0.000000  0.500000  1
  Ho  Ho17  1  0.000000  0.000000  0.000000  1
  Ho  Ho18  1  0.500000  0.500000  0.000000  1
  Ho  Ho19  1  0.500000  0.500000  0.500000  1
  Ir  Ir20  1  0.847019  0.152981  0.250000  1
  Ir  Ir21  1  0.847019  0.847019  0.750000  1
  Ir  Ir22  1  0.152981  0.152981  0.750000  1
  Ir  Ir23  1  0.152981  0.847019  0.250000  1
  Ir  Ir24  1  0.652981  0.347019  0.750000  1
  Ir  Ir25  1  0.652981  0.652981  0.250000  1
  Ir  Ir26  1  0.347019  0.347019  0.250000  1
  Ir  Ir27  1  0.347019  0.652981  0.750000  1
  Ir  Ir28  1  0.500000  0.000000  0.121696  1
  Ir  Ir29  1  0.500000  0.000000  0.621696  1
  Ir  Ir30  1  0.000000  0.500000  0.878304  1
  Ir  Ir31  1  0.000000  0.500000  0.378304  1
