# generated using pymatgen
data_Pa3Ta(Ni4P3)2
_symmetry_space_group_name_H-M   'P 1'
_cell_length_a   3.79045400
_cell_length_b   10.74144900
_cell_length_c   12.38747000
_cell_angle_alpha   90.00000000
_cell_angle_beta   90.00000000
_cell_angle_gamma   90.00000000
_symmetry_Int_Tables_number   1
_chemical_formula_structural   Pa3Ta(Ni4P3)2
_chemical_formula_sum   'Pa6 Ta2 Ni16 P12'
_cell_volume   504.35544871
_cell_formula_units_Z   2
loop_
 _symmetry_equiv_pos_site_id
 _symmetry_equiv_pos_as_xyz
  1  'x, y, z'
loop_
 _atom_site_type_symbol
 _atom_site_label
 _atom_site_symmetry_multiplicity
 _atom_site_fract_x
 _atom_site_fract_y
 _atom_site_fract_z
 _atom_site_occupancy
  Pa  Pa0  1  0.751859  0.000000  0.475540  1
  Pa  Pa1  1  0.251859  0.500000  0.524460  1
  Pa  Pa2  1  0.251837  0.679763  0.792749  1
  Pa  Pa3  1  0.251837  0.320237  0.792749  1
  Pa  Pa4  1  0.751837  0.820237  0.207251  1
  Pa  Pa5  1  0.751837  0.179763  0.207251  1
  Ta  Ta6  1  0.251801  0.000000  0.847779  1
  Ta  Ta7  1  0.751801  0.500000  0.152221  1
  Ni  Ni8  1  0.751797  0.000000  0.016877  1
  Ni  Ni9  1  0.251797  0.500000  0.983123  1
  Ni  Ni10  1  0.251700  0.199965  0.571420  1
  Ni  Ni11  1  0.251700  0.800035  0.571420  1
  Ni  Ni12  1  0.751700  0.300035  0.428580  1
  Ni  Ni13  1  0.751700  0.699965  0.428580  1
  Ni  Ni14  1  0.251812  0.619554  0.292838  1
  Ni  Ni15  1  0.251812  0.380446  0.292838  1
  Ni  Ni16  1  0.751812  0.880446  0.707162  1
  Ni  Ni17  1  0.751812  0.119554  0.707162  1
  Ni  Ni18  1  0.251796  0.167008  0.010492  1
  Ni  Ni19  1  0.251796  0.832992  0.010492  1
  Ni  Ni20  1  0.751796  0.332992  0.989508  1
  Ni  Ni21  1  0.751796  0.667008  0.989508  1
  Ni  Ni22  1  0.252477  0.000000  0.302482  1
  Ni  Ni23  1  0.752477  0.500000  0.697518  1
  P  P24  1  0.251705  0.187826  0.386454  1
  P  P25  1  0.251705  0.812174  0.386454  1
  P  P26  1  0.751705  0.312174  0.613546  1
  P  P27  1  0.751705  0.687826  0.613546  1
  P  P28  1  0.251735  0.000000  0.121782  1
  P  P29  1  0.751735  0.500000  0.878218  1
  P  P30  1  0.251820  0.657457  0.107887  1
  P  P31  1  0.251820  0.342543  0.107887  1
  P  P32  1  0.751820  0.842543  0.892113  1
  P  P33  1  0.751820  0.157457  0.892113  1
  P  P34  1  0.251794  0.000000  0.650804  1
  P  P35  1  0.751794  0.500000  0.349196  1
