# generated using pymatgen
data_RbNa3RuO5
_symmetry_space_group_name_H-M   'P 1'
_cell_length_a   5.96949206
_cell_length_b   5.96951340
_cell_length_c   9.21943035
_cell_angle_alpha   79.27589364
_cell_angle_beta   79.26723562
_cell_angle_gamma   79.68784322
_symmetry_Int_Tables_number   1
_chemical_formula_structural   RbNa3RuO5
_chemical_formula_sum   'Rb2 Na6 Ru2 O10'
_cell_volume   313.58312180
_cell_formula_units_Z   2
loop_
 _symmetry_equiv_pos_site_id
 _symmetry_equiv_pos_as_xyz
  1  'x, y, z'
loop_
 _atom_site_type_symbol
 _atom_site_label
 _atom_site_symmetry_multiplicity
 _atom_site_fract_x
 _atom_site_fract_y
 _atom_site_fract_z
 _atom_site_occupancy
  Rb  Rb0  1  0.250906  0.749097  0.500004  1
  Rb  Rb1  1  0.749094  0.250903  0.499996  1
  Na  Na2  1  0.352567  0.840414  0.114447  1
  Na  Na3  1  0.159579  0.647432  0.885548  1
  Na  Na4  1  0.647433  0.159586  0.885553  1
  Na  Na5  1  0.811409  0.811439  0.273848  1
  Na  Na6  1  0.840421  0.352568  0.114452  1
  Na  Na7  1  0.188591  0.188561  0.726152  1
  Ru  Ru8  1  0.309414  0.309454  0.254339  1
  Ru  Ru9  1  0.690586  0.690546  0.745661  1
  O  O10  1  0.743403  0.743409  0.542230  1
  O  O11  1  0.256597  0.256591  0.457770  1
  O  O12  1  0.550019  0.120281  0.156399  1
  O  O13  1  0.903567  0.903498  0.755622  1
  O  O14  1  0.524793  0.524831  0.253737  1
  O  O15  1  0.120287  0.550044  0.156379  1
  O  O16  1  0.879713  0.449956  0.843621  1
  O  O17  1  0.475207  0.475169  0.746263  1
  O  O18  1  0.096433  0.096502  0.244378  1
  O  O19  1  0.449981  0.879719  0.843601  1
