# generated using pymatgen
data_Yb12Ho7LuSn16
_symmetry_space_group_name_H-M   'P 1'
_cell_length_a   7.83212005
_cell_length_b   8.41689930
_cell_length_c   16.00951237
_cell_angle_alpha   90.01634609
_cell_angle_beta   90.00985962
_cell_angle_gamma   90.11996677
_symmetry_Int_Tables_number   1
_chemical_formula_structural   Yb12Ho7LuSn16
_chemical_formula_sum   'Yb12 Ho7 Lu1 Sn16'
_cell_volume   1055.37935647
_cell_formula_units_Z   1
loop_
 _symmetry_equiv_pos_site_id
 _symmetry_equiv_pos_as_xyz
  1  'x, y, z'
loop_
 _atom_site_type_symbol
 _atom_site_label
 _atom_site_symmetry_multiplicity
 _atom_site_fract_x
 _atom_site_fract_y
 _atom_site_fract_z
 _atom_site_occupancy
  Yb  Yb0  1  0.178811  0.334832  0.620707  1
  Yb  Yb1  1  0.503764  0.687619  0.593558  1
  Yb  Yb2  1  0.003820  0.813784  0.908630  1
  Yb  Yb3  1  0.492902  0.311390  0.092486  1
  Yb  Yb4  1  0.995970  0.188993  0.407289  1
  Yb  Yb5  1  0.493779  0.311673  0.407894  1
  Yb  Yb6  1  0.994972  0.187717  0.092601  1
  Yb  Yb7  1  0.503275  0.687431  0.906937  1
  Yb  Yb8  1  0.005607  0.812811  0.591614  1
  Yb  Yb9  1  0.336440  0.990437  0.749216  1
  Yb  Yb10  1  0.162149  0.488299  0.249673  1
  Yb  Yb11  1  0.663484  0.010520  0.250553  1
  Ho  Ho12  1  0.674122  0.163981  0.622426  1
  Ho  Ho13  1  0.174714  0.333568  0.878536  1
  Ho  Ho14  1  0.325628  0.833860  0.121730  1
  Ho  Ho15  1  0.826673  0.663771  0.377983  1
  Ho  Ho16  1  0.325110  0.834637  0.377736  1
  Ho  Ho17  1  0.825522  0.664724  0.121210  1
  Ho  Ho18  1  0.673657  0.164091  0.878672  1
  Lu  Lu19  1  0.841141  0.508708  0.748416  1
  Sn  Sn20  1  0.673983  0.962281  0.459557  1
  Sn  Sn21  1  0.169682  0.535546  0.040444  1
  Sn  Sn22  1  0.329361  0.036031  0.959136  1
  Sn  Sn23  1  0.826017  0.467229  0.543587  1
  Sn  Sn24  1  0.335554  0.034317  0.540717  1
  Sn  Sn25  1  0.828415  0.466886  0.955143  1
  Sn  Sn26  1  0.670566  0.963448  0.041134  1
  Sn  Sn27  1  0.167670  0.537812  0.457398  1
  Sn  Sn28  1  0.479425  0.384137  0.753630  1
  Sn  Sn29  1  0.969787  0.127097  0.750608  1
  Sn  Sn30  1  0.527258  0.626768  0.249603  1
  Sn  Sn31  1  0.027106  0.872898  0.248617  1
  Sn  Sn32  1  0.721583  0.864596  0.751245  1
  Sn  Sn33  1  0.211093  0.628499  0.752737  1
  Sn  Sn34  1  0.281551  0.126748  0.249470  1
  Sn  Sn35  1  0.779407  0.372862  0.249105  1
