# generated using pymatgen
data_Tb15DyCd4Ru3Rh
_symmetry_space_group_name_H-M   'P 1'
_cell_length_a   9.62254174
_cell_length_b   9.71202490
_cell_length_c   9.71202600
_cell_angle_alpha   59.99999624
_cell_angle_beta   59.69189719
_cell_angle_gamma   59.69189595
_symmetry_Int_Tables_number   1
_chemical_formula_structural   Tb15DyCd4Ru3Rh
_chemical_formula_sum   'Tb15 Dy1 Cd4 Ru3 Rh1'
_cell_volume   638.78710243
_cell_formula_units_Z   1
loop_
 _symmetry_equiv_pos_site_id
 _symmetry_equiv_pos_as_xyz
  1  'x, y, z'
loop_
 _atom_site_type_symbol
 _atom_site_label
 _atom_site_symmetry_multiplicity
 _atom_site_fract_x
 _atom_site_fract_y
 _atom_site_fract_z
 _atom_site_occupancy
  Tb  Tb0  1  0.689101  0.312372  0.686153  1
  Tb  Tb1  1  0.313731  0.687595  0.311079  1
  Tb  Tb2  1  0.062156  0.439072  0.439072  1
  Tb  Tb3  1  0.689101  0.312372  0.312372  1
  Tb  Tb4  1  0.437690  0.060601  0.441108  1
  Tb  Tb5  1  0.437690  0.060601  0.060601  1
  Tb  Tb6  1  0.904462  0.901376  0.901376  1
  Tb  Tb7  1  0.062156  0.439072  0.059700  1
  Tb  Tb8  1  0.904462  0.292788  0.901376  1
  Tb  Tb9  1  0.313731  0.687595  0.687595  1
  Tb  Tb10  1  0.904462  0.901376  0.292788  1
  Tb  Tb11  1  0.437690  0.441108  0.060601  1
  Tb  Tb12  1  0.313731  0.311079  0.687595  1
  Tb  Tb13  1  0.689101  0.686153  0.312372  1
  Tb  Tb14  1  0.062156  0.059700  0.439072  1
  Dy  Dy15  1  0.284346  0.905218  0.905218  1
  Cd  Cd16  1  0.992139  0.669287  0.669287  1
  Cd  Cd17  1  0.669441  0.989382  0.670588  1
  Cd  Cd18  1  0.669441  0.670588  0.989382  1
  Cd  Cd19  1  0.669441  0.670588  0.670588  1
  Ru  Ru20  1  0.107309  0.111584  0.669524  1
  Ru  Ru21  1  0.107309  0.669524  0.111584  1
  Ru  Ru22  1  0.107309  0.111584  0.111584  1
  Rh  Rh23  1  0.671844  0.109386  0.109386  1
