# generated using pymatgen
data_Er3Zr5Pt4
_symmetry_space_group_name_H-M   'P 1'
_cell_length_a   4.66325300
_cell_length_b   6.97646951
_cell_length_c   8.23549255
_cell_angle_alpha   90.41887461
_cell_angle_beta   90.00000000
_cell_angle_gamma   90.00000000
_symmetry_Int_Tables_number   1
_chemical_formula_structural   Er3Zr5Pt4
_chemical_formula_sum   'Er3 Zr5 Pt4'
_cell_volume   267.91846837
_cell_formula_units_Z   1
loop_
 _symmetry_equiv_pos_site_id
 _symmetry_equiv_pos_as_xyz
  1  'x, y, z'
loop_
 _atom_site_type_symbol
 _atom_site_label
 _atom_site_symmetry_multiplicity
 _atom_site_fract_x
 _atom_site_fract_y
 _atom_site_fract_z
 _atom_site_occupancy
  Er  Er0  1  0.250000  0.486689  0.176211  1
  Er  Er1  1  0.750000  0.015785  0.680937  1
  Er  Er2  1  0.250000  0.986506  0.319047  1
  Zr  Zr3  1  0.750000  0.652782  0.422436  1
  Zr  Zr4  1  0.250000  0.353389  0.584601  1
  Zr  Zr5  1  0.750000  0.153321  0.080532  1
  Zr  Zr6  1  0.250000  0.843185  0.917451  1
  Zr  Zr7  1  0.750000  0.511170  0.827222  1
  Pt  Pt8  1  0.750000  0.267592  0.407281  1
  Pt  Pt9  1  0.250000  0.736085  0.591142  1
  Pt  Pt10  1  0.750000  0.760835  0.089997  1
  Pt  Pt11  1  0.250000  0.232661  0.903142  1
