# generated using pymatgen
data_YbCe2LuH11
_symmetry_space_group_name_H-M   'P 1'
_cell_length_a   6.58299737
_cell_length_b   6.58299487
_cell_length_c   6.58299500
_cell_angle_alpha   133.05587877
_cell_angle_beta   132.87550917
_cell_angle_gamma   68.70812319
_symmetry_Int_Tables_number   1
_chemical_formula_structural   YbCe2LuH11
_chemical_formula_sum   'Yb1 Ce2 Lu1 H11'
_cell_volume   149.99545312
_cell_formula_units_Z   1
loop_
 _symmetry_equiv_pos_site_id
 _symmetry_equiv_pos_as_xyz
  1  'x, y, z'
loop_
 _atom_site_type_symbol
 _atom_site_label
 _atom_site_symmetry_multiplicity
 _atom_site_fract_x
 _atom_site_fract_y
 _atom_site_fract_z
 _atom_site_occupancy
  Yb  Yb0  1  0.000000  0.500000  0.500000  1
  Ce  Ce1  1  0.260079  0.260079  0.000000  1
  Ce  Ce2  1  0.739921  0.739921  0.000000  1
  Lu  Lu3  1  0.500000  0.000000  0.500000  1
  H  H4  1  0.643424  0.108283  0.982105  1
  H  H5  1  0.356576  0.338681  0.464858  1
  H  H6  1  0.126178  0.661319  0.017895  1
  H  H7  1  0.873822  0.891717  0.535142  1
  H  H8  1  0.873822  0.338681  0.982105  1
  H  H9  1  0.643424  0.661319  0.535142  1
  H  H10  1  0.356576  0.891717  0.017895  1
  H  H11  1  0.126178  0.108283  0.464858  1
  H  H12  1  0.753134  0.253134  0.500000  1
  H  H13  1  0.500000  0.500000  0.000000  1
  H  H14  1  0.246866  0.746866  0.500000  1
