# generated using pymatgen
data_AcSi2TcIr
_symmetry_space_group_name_H-M   'P 1'
_cell_length_a   5.99328208
_cell_length_b   5.99328356
_cell_length_c   5.99328108
_cell_angle_alpha   137.84519817
_cell_angle_beta   137.84521208
_cell_angle_gamma   61.14015503
_symmetry_Int_Tables_number   1
_chemical_formula_structural   AcSi2TcIr
_chemical_formula_sum   'Ac1 Si2 Tc1 Ir1'
_cell_volume   95.88927338
_cell_formula_units_Z   1
loop_
 _symmetry_equiv_pos_site_id
 _symmetry_equiv_pos_as_xyz
  1  'x, y, z'
loop_
 _atom_site_type_symbol
 _atom_site_label
 _atom_site_symmetry_multiplicity
 _atom_site_fract_x
 _atom_site_fract_y
 _atom_site_fract_z
 _atom_site_occupancy
  Ac  Ac0  1  0.000000  0.000000  0.000000  1
  Si  Si1  1  0.357648  0.357648  0.000000  1
  Si  Si2  1  0.642352  0.642352  0.000000  1
  Tc  Tc3  1  0.750000  0.250000  0.500001  1
  Ir  Ir4  1  0.250000  0.750000  0.500001  1
