# generated using pymatgen
data_Cs8Sc2Se7
_symmetry_space_group_name_H-M   'P 1'
_cell_length_a   9.18723546
_cell_length_b   22.78081800
_cell_length_c   8.97340679
_cell_angle_alpha   90.00000000
_cell_angle_beta   120.86555839
_cell_angle_gamma   90.00000000
_symmetry_Int_Tables_number   1
_chemical_formula_structural   Cs8Sc2Se7
_chemical_formula_sum   'Cs16 Sc4 Se14'
_cell_volume   1612.08446826
_cell_formula_units_Z   2
loop_
 _symmetry_equiv_pos_site_id
 _symmetry_equiv_pos_as_xyz
  1  'x, y, z'
loop_
 _atom_site_type_symbol
 _atom_site_label
 _atom_site_symmetry_multiplicity
 _atom_site_fract_x
 _atom_site_fract_y
 _atom_site_fract_z
 _atom_site_occupancy
  Cs  Cs0  1  0.636311  0.420880  0.142549  1
  Cs  Cs1  1  0.766238  0.786440  0.213065  1
  Cs  Cs2  1  0.773768  0.995313  0.227057  1
  Cs  Cs3  1  0.783281  0.188114  0.228481  1
  Cs  Cs4  1  0.216715  0.688114  0.271512  1
  Cs  Cs5  1  0.226231  0.495312  0.272948  1
  Cs  Cs6  1  0.233760  0.286440  0.286937  1
  Cs  Cs7  1  0.363693  0.920881  0.357452  1
  Cs  Cs8  1  0.636311  0.079120  0.642549  1
  Cs  Cs9  1  0.766238  0.713559  0.713065  1
  Cs  Cs10  1  0.773768  0.504687  0.727057  1
  Cs  Cs11  1  0.783281  0.311886  0.728481  1
  Cs  Cs12  1  0.216715  0.811886  0.771511  1
  Cs  Cs13  1  0.226231  0.004688  0.772947  1
  Cs  Cs14  1  0.233759  0.213559  0.786937  1
  Cs  Cs15  1  0.363693  0.579119  0.857452  1
  Sc  Sc16  1  0.146255  0.098971  0.144582  1
  Sc  Sc17  1  0.853742  0.598974  0.355390  1
  Sc  Sc18  1  0.146255  0.401029  0.644582  1
  Sc  Sc19  1  0.853741  0.901026  0.855390  1
  Se  Se20  1  0.000000  0.000000  0.000000  1
  Se  Se21  1  0.049904  0.819602  0.056351  1
  Se  Se22  1  0.828018  0.606686  0.056618  1
  Se  Se23  1  0.436125  0.100196  0.165822  1
  Se  Se24  1  0.563873  0.600197  0.334183  1
  Se  Se25  1  0.171980  0.106687  0.443391  1
  Se  Se26  1  0.950106  0.319607  0.443663  1
  Se  Se27  1  0.000000  0.500000  0.500000  1
  Se  Se28  1  0.049905  0.680398  0.556351  1
  Se  Se29  1  0.828018  0.893314  0.556618  1
  Se  Se30  1  0.436125  0.399804  0.665822  1
  Se  Se31  1  0.563873  0.899804  0.834183  1
  Se  Se32  1  0.171981  0.393313  0.943392  1
  Se  Se33  1  0.950106  0.180393  0.943663  1
