# generated using pymatgen
data_LaPr(PPt3)4
_symmetry_space_group_name_H-M   'P 1'
_cell_length_a   8.57307055
_cell_length_b   8.57247500
_cell_length_c   8.57226455
_cell_angle_alpha   90.00000000
_cell_angle_beta   89.95902989
_cell_angle_gamma   90.00000000
_symmetry_Int_Tables_number   1
_chemical_formula_structural   LaPr(PPt3)4
_chemical_formula_sum   'La2 Pr2 P8 Pt24'
_cell_volume   629.99641641
_cell_formula_units_Z   2
loop_
 _symmetry_equiv_pos_site_id
 _symmetry_equiv_pos_as_xyz
  1  'x, y, z'
loop_
 _atom_site_type_symbol
 _atom_site_label
 _atom_site_symmetry_multiplicity
 _atom_site_fract_x
 _atom_site_fract_y
 _atom_site_fract_z
 _atom_site_occupancy
  La  La0  1  0.500000  0.500000  0.000000  1
  La  La1  1  0.500000  0.000000  0.500000  1
  Pr  Pr2  1  0.000000  0.500000  0.500000  1
  Pr  Pr3  1  0.000000  0.000000  0.000000  1
  P  P4  1  0.805662  0.305584  0.194572  1
  P  P5  1  0.194338  0.805584  0.305428  1
  P  P6  1  0.694685  0.694608  0.694454  1
  P  P7  1  0.305315  0.194608  0.805546  1
  P  P8  1  0.194338  0.694416  0.805428  1
  P  P9  1  0.805662  0.194416  0.694572  1
  P  P10  1  0.305315  0.305392  0.305546  1
  P  P11  1  0.694685  0.805392  0.194454  1
  Pt  Pt12  1  0.422334  0.843091  0.157621  1
  Pt  Pt13  1  0.577666  0.343091  0.342379  1
  Pt  Pt14  1  0.077898  0.156739  0.658090  1
  Pt  Pt15  1  0.922102  0.656739  0.841910  1
  Pt  Pt16  1  0.157321  0.422320  0.843045  1
  Pt  Pt17  1  0.341654  0.577898  0.343305  1
  Pt  Pt18  1  0.658346  0.077898  0.156695  1
  Pt  Pt19  1  0.842679  0.922320  0.656955  1
  Pt  Pt20  1  0.843490  0.158352  0.422266  1
  Pt  Pt21  1  0.342867  0.342670  0.577833  1
  Pt  Pt22  1  0.156510  0.658352  0.077734  1
  Pt  Pt23  1  0.657133  0.842670  0.922167  1
  Pt  Pt24  1  0.577666  0.156909  0.842379  1
  Pt  Pt25  1  0.422334  0.656909  0.657621  1
  Pt  Pt26  1  0.922102  0.843261  0.341910  1
  Pt  Pt27  1  0.077898  0.343261  0.158090  1
  Pt  Pt28  1  0.842679  0.577680  0.156955  1
  Pt  Pt29  1  0.658346  0.422102  0.656695  1
  Pt  Pt30  1  0.341654  0.922102  0.843305  1
  Pt  Pt31  1  0.157321  0.077680  0.343045  1
  Pt  Pt32  1  0.156510  0.841648  0.577734  1
  Pt  Pt33  1  0.657133  0.657330  0.422167  1
  Pt  Pt34  1  0.843490  0.341648  0.922266  1
  Pt  Pt35  1  0.342867  0.157330  0.077833  1
