# generated using pymatgen
data_YEr7Re3B24Ir
_symmetry_space_group_name_H-M   'P 1'
_cell_length_a   3.65505800
_cell_length_b   9.13137415
_cell_length_c   11.51191607
_cell_angle_alpha   90.12008572
_cell_angle_beta   90.00000000
_cell_angle_gamma   90.00000000
_symmetry_Int_Tables_number   1
_chemical_formula_structural   YEr7Re3B24Ir
_chemical_formula_sum   'Y1 Er7 Re3 B24 Ir1'
_cell_volume   384.21743788
_cell_formula_units_Z   1
loop_
 _symmetry_equiv_pos_site_id
 _symmetry_equiv_pos_as_xyz
  1  'x, y, z'
loop_
 _atom_site_type_symbol
 _atom_site_label
 _atom_site_symmetry_multiplicity
 _atom_site_fract_x
 _atom_site_fract_y
 _atom_site_fract_z
 _atom_site_occupancy
  Y  Y0  1  0.000000  0.317641  0.415489  1
  Er  Er1  1  0.000000  0.678981  0.591760  1
  Er  Er2  1  0.000000  0.827227  0.080982  1
  Er  Er3  1  0.000000  0.177772  0.912513  1
  Er  Er4  1  0.000000  0.943612  0.370456  1
  Er  Er5  1  0.000000  0.055945  0.629018  1
  Er  Er6  1  0.000000  0.440864  0.127986  1
  Er  Er7  1  0.000000  0.557121  0.871958  1
  Re  Re8  1  0.000000  0.363005  0.678103  1
  Re  Re9  1  0.000000  0.137688  0.179468  1
  Re  Re10  1  0.000000  0.862163  0.821009  1
  B  B11  1  0.500000  0.553945  0.433955  1
  B  B12  1  0.500000  0.447338  0.567051  1
  B  B13  1  0.500000  0.053045  0.066129  1
  B  B14  1  0.500000  0.947538  0.932805  1
  B  B15  1  0.500000  0.749104  0.420339  1
  B  B16  1  0.500000  0.250309  0.581564  1
  B  B17  1  0.500000  0.249065  0.080661  1
  B  B18  1  0.500000  0.751869  0.919237  1
  B  B19  1  0.500000  0.791187  0.264906  1
  B  B20  1  0.500000  0.208448  0.734625  1
  B  B21  1  0.500000  0.291287  0.234528  1
  B  B22  1  0.500000  0.708278  0.765962  1
  B  B23  1  0.500000  0.631532  0.183932  1
  B  B24  1  0.500000  0.369799  0.814704  1
  B  B25  1  0.500000  0.129804  0.314581  1
  B  B26  1  0.500000  0.868750  0.685232  1
  B  B27  1  0.500000  0.981809  0.211748  1
  B  B28  1  0.500000  0.018160  0.787032  1
  B  B29  1  0.500000  0.482594  0.287471  1
  B  B30  1  0.500000  0.519080  0.712810  1
  B  B31  1  0.500000  0.603966  0.029409  1
  B  B32  1  0.500000  0.397448  0.971868  1
  B  B33  1  0.500000  0.100590  0.471390  1
  B  B34  1  0.500000  0.895290  0.528283  1
  Ir  Ir35  1  0.000000  0.637747  0.321038  1
