# generated using pymatgen
data_Tb3Dy(Ho2Rh)4
_symmetry_space_group_name_H-M   'P 1'
_cell_length_a   6.27346001
_cell_length_b   7.15557728
_cell_length_c   9.45915400
_cell_angle_alpha   90.00000000
_cell_angle_beta   90.00000000
_cell_angle_gamma   89.98772800
_symmetry_Int_Tables_number   1
_chemical_formula_structural   Tb3Dy(Ho2Rh)4
_chemical_formula_sum   'Tb3 Dy1 Ho8 Rh4'
_cell_volume   424.62356936
_cell_formula_units_Z   1
loop_
 _symmetry_equiv_pos_site_id
 _symmetry_equiv_pos_as_xyz
  1  'x, y, z'
loop_
 _atom_site_type_symbol
 _atom_site_label
 _atom_site_symmetry_multiplicity
 _atom_site_fract_x
 _atom_site_fract_y
 _atom_site_fract_z
 _atom_site_occupancy
  Tb  Tb0  1  0.865906  0.533007  0.250000  1
  Tb  Tb1  1  0.634218  0.032809  0.250000  1
  Tb  Tb2  1  0.134344  0.466987  0.750000  1
  Dy  Dy3  1  0.365507  0.966677  0.750000  1
  Ho  Ho4  1  0.329760  0.677631  0.063236  1
  Ho  Ho5  1  0.170531  0.177279  0.436860  1
  Ho  Ho6  1  0.670254  0.322501  0.563405  1
  Ho  Ho7  1  0.829369  0.822767  0.936493  1
  Ho  Ho8  1  0.670254  0.322501  0.936595  1
  Ho  Ho9  1  0.829369  0.822767  0.563507  1
  Ho  Ho10  1  0.329760  0.677631  0.436764  1
  Ho  Ho11  1  0.170531  0.177279  0.063140  1
  Rh  Rh12  1  0.061391  0.881716  0.250000  1
  Rh  Rh13  1  0.438630  0.381618  0.250000  1
  Rh  Rh14  1  0.939531  0.118101  0.750000  1
  Rh  Rh15  1  0.560645  0.618728  0.750000  1
