# generated using pymatgen
data_Nd3In3BiIr2
_symmetry_space_group_name_H-M   'P 1'
_cell_length_a   7.86329100
_cell_length_b   7.86329045
_cell_length_c   4.19721500
_cell_angle_alpha   90.00000000
_cell_angle_beta   90.00000000
_cell_angle_gamma   119.99998967
_symmetry_Int_Tables_number   1
_chemical_formula_structural   Nd3In3BiIr2
_chemical_formula_sum   'Nd3 In3 Bi1 Ir2'
_cell_volume   224.75044444
_cell_formula_units_Z   1
loop_
 _symmetry_equiv_pos_site_id
 _symmetry_equiv_pos_as_xyz
  1  'x, y, z'
loop_
 _atom_site_type_symbol
 _atom_site_label
 _atom_site_symmetry_multiplicity
 _atom_site_fract_x
 _atom_site_fract_y
 _atom_site_fract_z
 _atom_site_occupancy
  Nd  Nd0  1  0.581941  0.610582  0.000000  1
  Nd  Nd1  1  0.389418  0.971359  0.000000  1
  Nd  Nd2  1  0.028641  0.418059  0.000000  1
  In  In3  1  0.019912  0.768590  0.500000  1
  In  In4  1  0.231410  0.251323  0.500000  1
  In  In5  1  0.748677  0.980088  0.500000  1
  Bi  Bi6  1  0.666667  0.333333  0.500000  1
  Ir  Ir7  1  0.000000  0.000000  0.000000  1
  Ir  Ir8  1  0.333333  0.666667  0.500000  1
