# generated using pymatgen
data_YPa3(SnRh2)2
_symmetry_space_group_name_H-M   'P 1'
_cell_length_a   7.67343231
_cell_length_b   7.67343218
_cell_length_c   3.64984600
_cell_angle_alpha   90.00000000
_cell_angle_beta   90.00000000
_cell_angle_gamma   87.67336512
_symmetry_Int_Tables_number   1
_chemical_formula_structural   YPa3(SnRh2)2
_chemical_formula_sum   'Y1 Pa3 Sn2 Rh4'
_cell_volume   214.73147100
_cell_formula_units_Z   1
loop_
 _symmetry_equiv_pos_site_id
 _symmetry_equiv_pos_as_xyz
  1  'x, y, z'
loop_
 _atom_site_type_symbol
 _atom_site_label
 _atom_site_symmetry_multiplicity
 _atom_site_fract_x
 _atom_site_fract_y
 _atom_site_fract_z
 _atom_site_occupancy
  Y  Y0  1  0.325819  0.825819  0.500000  1
  Pa  Pa1  1  0.669537  0.169537  0.500000  1
  Pa  Pa2  1  0.174025  0.329101  0.500000  1
  Pa  Pa3  1  0.829101  0.674025  0.500000  1
  Sn  Sn4  1  0.007703  0.997637  0.000000  1
  Sn  Sn5  1  0.497637  0.507703  0.000000  1
  Rh  Rh6  1  0.857178  0.357178  0.000000  1
  Rh  Rh7  1  0.375551  0.150812  0.000000  1
  Rh  Rh8  1  0.650812  0.875551  0.000000  1
  Rh  Rh9  1  0.112636  0.612636  0.000000  1
