# generated using pymatgen
data_Dy2Co3P7Ru9
_symmetry_space_group_name_H-M   'P 1'
_cell_length_a   9.32310500
_cell_length_b   9.32310458
_cell_length_c   3.82820500
_cell_angle_alpha   90.00000000
_cell_angle_beta   90.00000000
_cell_angle_gamma   120.00000503
_symmetry_Int_Tables_number   1
_chemical_formula_structural   Dy2Co3P7Ru9
_chemical_formula_sum   'Dy2 Co3 P7 Ru9'
_cell_volume   288.16877953
_cell_formula_units_Z   1
loop_
 _symmetry_equiv_pos_site_id
 _symmetry_equiv_pos_as_xyz
  1  'x, y, z'
loop_
 _atom_site_type_symbol
 _atom_site_label
 _atom_site_symmetry_multiplicity
 _atom_site_fract_x
 _atom_site_fract_y
 _atom_site_fract_z
 _atom_site_occupancy
  Dy  Dy0  1  0.333333  0.666667  0.000000  1
  Dy  Dy1  1  0.666667  0.333333  0.500000  1
  Co  Co2  1  0.157988  0.888881  0.000000  1
  Co  Co3  1  0.111119  0.269107  0.000000  1
  Co  Co4  1  0.730893  0.842012  0.000000  1
  P  P5  1  0.411017  0.109748  0.000000  1
  P  P6  1  0.890252  0.301269  0.000000  1
  P  P7  1  0.698731  0.588983  0.000000  1
  P  P8  1  0.115174  0.714055  0.500000  1
  P  P9  1  0.285945  0.401119  0.500000  1
  P  P10  1  0.598881  0.884826  0.500000  1
  P  P11  1  0.000000  0.000000  0.000000  1
  Ru  Ru12  1  0.425132  0.364011  0.000000  1
  Ru  Ru13  1  0.635989  0.061121  0.000000  1
  Ru  Ru14  1  0.938879  0.574868  0.000000  1
  Ru  Ru15  1  0.382233  0.947366  0.500000  1
  Ru  Ru16  1  0.052634  0.434867  0.500000  1
  Ru  Ru17  1  0.565133  0.617767  0.500000  1
  Ru  Ru18  1  0.205675  0.120802  0.500000  1
  Ru  Ru19  1  0.879198  0.084873  0.500000  1
  Ru  Ru20  1  0.915127  0.794325  0.500000  1
