# generated using pymatgen
data_YbSmCuPt3
_symmetry_space_group_name_H-M   'P 1'
_cell_length_a   5.51062470
_cell_length_b   5.51062421
_cell_length_c   5.24398607
_cell_angle_alpha   58.30324806
_cell_angle_beta   58.30325678
_cell_angle_gamma   59.99999808
_symmetry_Int_Tables_number   1
_chemical_formula_structural   YbSmCuPt3
_chemical_formula_sum   'Yb1 Sm1 Cu1 Pt3'
_cell_volume   109.62772252
_cell_formula_units_Z   1
loop_
 _symmetry_equiv_pos_site_id
 _symmetry_equiv_pos_as_xyz
  1  'x, y, z'
loop_
 _atom_site_type_symbol
 _atom_site_label
 _atom_site_symmetry_multiplicity
 _atom_site_fract_x
 _atom_site_fract_y
 _atom_site_fract_z
 _atom_site_occupancy
  Yb  Yb0  1  0.252975  0.252975  0.241076  1
  Sm  Sm1  1  0.001432  0.001432  0.995705  1
  Cu  Cu2  1  0.623320  0.623320  0.130040  1
  Pt  Pt3  1  0.623637  0.124999  0.627726  1
  Pt  Pt4  1  0.124999  0.623637  0.627726  1
  Pt  Pt5  1  0.623637  0.623637  0.627726  1
