# generated using pymatgen
data_Nd4PdPt3F28
_symmetry_space_group_name_H-M   'P 1'
_cell_length_a   5.72121809
_cell_length_b   9.17765022
_cell_length_c   12.28402101
_cell_angle_alpha   61.94815257
_cell_angle_beta   90.00069176
_cell_angle_gamma   89.98227105
_symmetry_Int_Tables_number   1
_chemical_formula_structural   Nd4PdPt3F28
_chemical_formula_sum   'Nd4 Pd1 Pt3 F28'
_cell_volume   569.22801581
_cell_formula_units_Z   1
loop_
 _symmetry_equiv_pos_site_id
 _symmetry_equiv_pos_as_xyz
  1  'x, y, z'
loop_
 _atom_site_type_symbol
 _atom_site_label
 _atom_site_symmetry_multiplicity
 _atom_site_fract_x
 _atom_site_fract_y
 _atom_site_fract_z
 _atom_site_occupancy
  Nd  Nd0  1  0.760956  0.811399  0.265674  1
  Nd  Nd1  1  0.260367  0.187891  0.235234  1
  Nd  Nd2  1  0.239405  0.189091  0.734849  1
  Nd  Nd3  1  0.739685  0.811620  0.763908  1
  Pd  Pd4  1  0.243276  0.726275  0.543277  1
  Pt  Pt5  1  0.743312  0.273811  0.956696  1
  Pt  Pt6  1  0.756536  0.273810  0.456740  1
  Pt  Pt7  1  0.256823  0.726279  0.043247  1
  F  F8  1  0.960712  0.713348  0.458908  1
  F  F9  1  0.457966  0.286596  0.041807  1
  F  F10  1  0.041959  0.286742  0.541621  1
  F  F11  1  0.542016  0.713534  0.957955  1
  F  F12  1  0.057955  0.705710  0.920290  1
  F  F13  1  0.557897  0.294472  0.579630  1
  F  F14  1  0.942066  0.294347  0.079696  1
  F  F15  1  0.440269  0.705946  0.421597  1
  F  F16  1  0.737039  0.515829  0.858981  1
  F  F17  1  0.236554  0.486376  0.640283  1
  F  F18  1  0.263011  0.484194  0.140884  1
  F  F19  1  0.762525  0.515813  0.359473  1
  F  F20  1  0.741041  0.031074  0.049461  1
  F  F21  1  0.241220  0.966524  0.451580  1
  F  F22  1  0.258930  0.969008  0.950617  1
  F  F23  1  0.758951  0.031185  0.549106  1
  F  F24  1  0.049901  0.741803  0.668459  1
  F  F25  1  0.548589  0.257880  0.830537  1
  F  F26  1  0.951616  0.257486  0.330783  1
  F  F27  1  0.451665  0.742240  0.169529  1
  F  F28  1  0.023529  0.269827  0.865532  1
  F  F29  1  0.520617  0.729861  0.633815  1
  F  F30  1  0.976574  0.730287  0.134540  1
  F  F31  1  0.476125  0.269294  0.365826  1
  F  F32  1  0.089523  0.968171  0.231174  1
  F  F33  1  0.589951  0.032090  0.268444  1
  F  F34  1  0.910657  0.031724  0.768278  1
  F  F35  1  0.410782  0.968465  0.731572  1
