# generated using pymatgen
data_Lu2TcC2
_symmetry_space_group_name_H-M   'P 1'
_cell_length_a   4.97075100
_cell_length_b   6.46182400
_cell_length_c   9.66673100
_cell_angle_alpha   90.00000000
_cell_angle_beta   90.00000000
_cell_angle_gamma   90.00000000
_symmetry_Int_Tables_number   1
_chemical_formula_structural   Lu2TcC2
_chemical_formula_sum   'Lu8 Tc4 C8'
_cell_volume   310.49654146
_cell_formula_units_Z   4
loop_
 _symmetry_equiv_pos_site_id
 _symmetry_equiv_pos_as_xyz
  1  'x, y, z'
loop_
 _atom_site_type_symbol
 _atom_site_label
 _atom_site_symmetry_multiplicity
 _atom_site_fract_x
 _atom_site_fract_y
 _atom_site_fract_z
 _atom_site_occupancy
  Lu  Lu0  1  0.250000  0.826337  0.940644  1
  Lu  Lu1  1  0.250000  0.326337  0.559356  1
  Lu  Lu2  1  0.750000  0.173663  0.059356  1
  Lu  Lu3  1  0.750000  0.673663  0.440644  1
  Lu  Lu4  1  0.250000  0.463689  0.217919  1
  Lu  Lu5  1  0.250000  0.963689  0.282081  1
  Lu  Lu6  1  0.750000  0.536311  0.782081  1
  Lu  Lu7  1  0.750000  0.036311  0.717919  1
  Tc  Tc8  1  0.250000  0.286789  0.870516  1
  Tc  Tc9  1  0.250000  0.786789  0.629484  1
  Tc  Tc10  1  0.750000  0.713211  0.129484  1
  Tc  Tc11  1  0.750000  0.213211  0.370516  1
  C  C12  1  0.250000  0.054565  0.741106  1
  C  C13  1  0.250000  0.554565  0.758894  1
  C  C14  1  0.750000  0.945435  0.258894  1
  C  C15  1  0.750000  0.445435  0.241106  1
  C  C16  1  0.250000  0.672777  0.444651  1
  C  C17  1  0.250000  0.172777  0.055349  1
  C  C18  1  0.750000  0.327223  0.555349  1
  C  C19  1  0.750000  0.827223  0.944651  1
