# generated using pymatgen
data_Lu6Ir(WO9)2
_symmetry_space_group_name_H-M   'P 1'
_cell_length_a   9.00935400
_cell_length_b   9.00935312
_cell_length_c   5.05391100
_cell_angle_alpha   90.00000000
_cell_angle_beta   90.00000000
_cell_angle_gamma   120.00000224
_symmetry_Int_Tables_number   1
_chemical_formula_structural   Lu6Ir(WO9)2
_chemical_formula_sum   'Lu6 Ir1 W2 O18'
_cell_volume   355.25931398
_cell_formula_units_Z   1
loop_
 _symmetry_equiv_pos_site_id
 _symmetry_equiv_pos_as_xyz
  1  'x, y, z'
loop_
 _atom_site_type_symbol
 _atom_site_label
 _atom_site_symmetry_multiplicity
 _atom_site_fract_x
 _atom_site_fract_y
 _atom_site_fract_z
 _atom_site_occupancy
  Lu  Lu0  1  0.000492  0.626644  0.000043  1
  Lu  Lu1  1  0.997485  0.289051  0.500858  1
  Lu  Lu2  1  0.373356  0.373847  0.000043  1
  Lu  Lu3  1  0.291566  0.002515  0.500858  1
  Lu  Lu4  1  0.710949  0.708434  0.500858  1
  Lu  Lu5  1  0.626153  0.999508  0.000043  1
  Ir  Ir6  1  0.666667  0.333333  0.500954  1
  W  W7  1  0.333333  0.666667  0.499243  1
  W  W8  1  0.000000  0.000000  0.998950  1
  O  O9  1  0.081508  0.876733  0.780976  1
  O  O10  1  0.224499  0.764360  0.280110  1
  O  O11  1  0.128306  0.541587  0.718754  1
  O  O12  1  0.413282  0.871694  0.718754  1
  O  O13  1  0.235640  0.460138  0.280110  1
  O  O14  1  0.123267  0.204774  0.780976  1
  O  O15  1  0.205249  0.122277  0.215678  1
  O  O16  1  0.539862  0.775501  0.280110  1
  O  O17  1  0.458413  0.586718  0.718754  1
  O  O18  1  0.795226  0.918492  0.780976  1
  O  O19  1  0.460653  0.238453  0.722030  1
  O  O20  1  0.585156  0.456990  0.281835  1
  O  O21  1  0.543010  0.128166  0.281835  1
  O  O22  1  0.777801  0.539347  0.722030  1
  O  O23  1  0.917029  0.794751  0.215678  1
  O  O24  1  0.761547  0.222199  0.722030  1
  O  O25  1  0.871834  0.414844  0.281835  1
  O  O26  1  0.877723  0.082971  0.215678  1
