# generated using pymatgen
data_Er3Th(Si3Pd)2
_symmetry_space_group_name_H-M   'P 1'
_cell_length_a   8.15169200
_cell_length_b   8.15169206
_cell_length_c   8.20900100
_cell_angle_alpha   90.00000000
_cell_angle_beta   90.00000000
_cell_angle_gamma   119.99999165
_symmetry_Int_Tables_number   1
_chemical_formula_structural   Er3Th(Si3Pd)2
_chemical_formula_sum   'Er6 Th2 Si12 Pd4'
_cell_volume   472.40719566
_cell_formula_units_Z   2
loop_
 _symmetry_equiv_pos_site_id
 _symmetry_equiv_pos_as_xyz
  1  'x, y, z'
loop_
 _atom_site_type_symbol
 _atom_site_label
 _atom_site_symmetry_multiplicity
 _atom_site_fract_x
 _atom_site_fract_y
 _atom_site_fract_z
 _atom_site_occupancy
  Er  Er0  1  0.499731  0.500269  0.750000  1
  Er  Er1  1  0.500269  0.499731  0.250000  1
  Er  Er2  1  0.000538  0.500269  0.750000  1
  Er  Er3  1  0.999462  0.499731  0.250000  1
  Er  Er4  1  0.499731  0.999462  0.750000  1
  Er  Er5  1  0.500269  0.000538  0.250000  1
  Th  Th6  1  0.000000  0.000000  0.750000  1
  Th  Th7  1  0.000000  0.000000  0.250000  1
  Si  Si8  1  0.832872  0.167128  0.999696  1
  Si  Si9  1  0.167128  0.832872  0.000304  1
  Si  Si10  1  0.334256  0.167128  0.999696  1
  Si  Si11  1  0.167128  0.832872  0.499696  1
  Si  Si12  1  0.665744  0.832872  0.000304  1
  Si  Si13  1  0.832872  0.167128  0.500304  1
  Si  Si14  1  0.832872  0.665744  0.999696  1
  Si  Si15  1  0.665744  0.832872  0.499696  1
  Si  Si16  1  0.167128  0.334256  0.000304  1
  Si  Si17  1  0.334256  0.167128  0.500304  1
  Si  Si18  1  0.167128  0.334256  0.499696  1
  Si  Si19  1  0.832872  0.665744  0.500304  1
  Pd  Pd20  1  0.666667  0.333333  0.999722  1
  Pd  Pd21  1  0.333333  0.666667  0.000278  1
  Pd  Pd22  1  0.333333  0.666667  0.499722  1
  Pd  Pd23  1  0.666667  0.333333  0.500278  1
