# generated using pymatgen
data_Dy8Ho8Sc3Si16Ag
_symmetry_space_group_name_H-M   'P 1'
_cell_length_a   7.16764375
_cell_length_b   7.63813790
_cell_length_c   14.44134200
_cell_angle_alpha   90.00000000
_cell_angle_beta   90.00000000
_cell_angle_gamma   89.86065690
_symmetry_Int_Tables_number   1
_chemical_formula_structural   Dy8Ho8Sc3Si16Ag
_chemical_formula_sum   'Dy8 Ho8 Sc3 Si16 Ag1'
_cell_volume   790.62433065
_cell_formula_units_Z   1
loop_
 _symmetry_equiv_pos_site_id
 _symmetry_equiv_pos_as_xyz
  1  'x, y, z'
loop_
 _atom_site_type_symbol
 _atom_site_label
 _atom_site_symmetry_multiplicity
 _atom_site_fract_x
 _atom_site_fract_y
 _atom_site_fract_z
 _atom_site_occupancy
  Dy  Dy0  1  0.016815  0.182697  0.097618  1
  Dy  Dy1  1  0.983868  0.807245  0.900754  1
  Dy  Dy2  1  0.478583  0.678563  0.901681  1
  Dy  Dy3  1  0.983868  0.807245  0.599246  1
  Dy  Dy4  1  0.514550  0.318563  0.096499  1
  Dy  Dy5  1  0.016815  0.182697  0.402382  1
  Dy  Dy6  1  0.514550  0.318563  0.403501  1
  Dy  Dy7  1  0.478583  0.678563  0.598319  1
  Ho  Ho8  1  0.319637  0.184199  0.628113  1
  Ho  Ho9  1  0.676364  0.823890  0.374302  1
  Ho  Ho10  1  0.175543  0.681944  0.372868  1
  Ho  Ho11  1  0.676364  0.823890  0.125698  1
  Ho  Ho12  1  0.833952  0.325456  0.627625  1
  Ho  Ho13  1  0.319637  0.184199  0.871887  1
  Ho  Ho14  1  0.833952  0.325456  0.872375  1
  Ho  Ho15  1  0.175543  0.681944  0.127132  1
  Sc  Sc16  1  0.841533  0.486067  0.250000  1
  Sc  Sc17  1  0.344089  0.015460  0.250000  1
  Sc  Sc18  1  0.652829  0.984692  0.750000  1
  Si  Si19  1  0.015840  0.074161  0.750000  1
  Si  Si20  1  0.978676  0.910544  0.250000  1
  Si  Si21  1  0.478638  0.595653  0.250000  1
  Si  Si22  1  0.527964  0.404265  0.750000  1
  Si  Si23  1  0.282009  0.872346  0.750000  1
  Si  Si24  1  0.718087  0.137006  0.250000  1
  Si  Si25  1  0.218099  0.364979  0.250000  1
  Si  Si26  1  0.767338  0.634999  0.750000  1
  Si  Si27  1  0.159969  0.463229  0.529538  1
  Si  Si28  1  0.846007  0.530434  0.460808  1
  Si  Si29  1  0.346539  0.969843  0.463553  1
  Si  Si30  1  0.846007  0.530434  0.039192  1
  Si  Si31  1  0.654557  0.029519  0.541157  1
  Si  Si32  1  0.159969  0.463229  0.970462  1
  Si  Si33  1  0.654557  0.029519  0.958843  1
  Si  Si34  1  0.346539  0.969843  0.036447  1
  Ag  Ag35  1  0.162129  0.528660  0.750000  1
