# generated using pymatgen
data_Ba4Pr3Nd(DySe4)4
_symmetry_space_group_name_H-M   'P 1'
_cell_length_a   4.29400600
_cell_length_b   12.97596667
_cell_length_c   15.45835180
_cell_angle_alpha   90.03672758
_cell_angle_beta   90.00000000
_cell_angle_gamma   90.00000000
_symmetry_Int_Tables_number   1
_chemical_formula_structural   Ba4Pr3Nd(DySe4)4
_chemical_formula_sum   'Ba4 Pr3 Nd1 Dy4 Se16'
_cell_volume   861.32185189
_cell_formula_units_Z   1
loop_
 _symmetry_equiv_pos_site_id
 _symmetry_equiv_pos_as_xyz
  1  'x, y, z'
loop_
 _atom_site_type_symbol
 _atom_site_label
 _atom_site_symmetry_multiplicity
 _atom_site_fract_x
 _atom_site_fract_y
 _atom_site_fract_z
 _atom_site_occupancy
  Ba  Ba0  1  0.250000  0.758619  0.339246  1
  Ba  Ba1  1  0.250000  0.258869  0.160873  1
  Ba  Ba2  1  0.750000  0.241280  0.660705  1
  Ba  Ba3  1  0.750000  0.741260  0.839233  1
  Pr  Pr4  1  0.250000  0.928255  0.109939  1
  Pr  Pr5  1  0.750000  0.571648  0.609836  1
  Pr  Pr6  1  0.750000  0.071765  0.890055  1
  Nd  Nd7  1  0.250000  0.428733  0.389944  1
  Dy  Dy8  1  0.250000  0.423893  0.900543  1
  Dy  Dy9  1  0.250000  0.923942  0.599457  1
  Dy  Dy10  1  0.750000  0.576031  0.099564  1
  Dy  Dy11  1  0.750000  0.076179  0.400577  1
  Se  Se12  1  0.250000  0.215525  0.828448  1
  Se  Se13  1  0.250000  0.715533  0.671567  1
  Se  Se14  1  0.750000  0.784482  0.171558  1
  Se  Se15  1  0.750000  0.285388  0.328955  1
  Se  Se16  1  0.250000  0.126438  0.522521  1
  Se  Se17  1  0.250000  0.626497  0.977562  1
  Se  Se18  1  0.750000  0.873464  0.477491  1
  Se  Se19  1  0.750000  0.373497  0.022480  1
  Se  Se20  1  0.250000  0.521559  0.212180  1
  Se  Se21  1  0.250000  0.021874  0.288277  1
  Se  Se22  1  0.750000  0.478156  0.788251  1
  Se  Se23  1  0.750000  0.978152  0.711732  1
  Se  Se24  1  0.250000  0.415027  0.579856  1
  Se  Se25  1  0.250000  0.915104  0.919358  1
  Se  Se26  1  0.750000  0.583933  0.419144  1
  Se  Se27  1  0.750000  0.084898  0.080644  1
