# generated using pymatgen
data_K3Co2Cl9
_symmetry_space_group_name_H-M   'P 1'
_cell_length_a   6.85553122
_cell_length_b   6.85778142
_cell_length_c   17.57374400
_cell_angle_alpha   90.00000000
_cell_angle_beta   90.00000000
_cell_angle_gamma   120.01842584
_symmetry_Int_Tables_number   1
_chemical_formula_structural   K3Co2Cl9
_chemical_formula_sum   'K6 Co4 Cl18'
_cell_volume   715.38365573
_cell_formula_units_Z   2
loop_
 _symmetry_equiv_pos_site_id
 _symmetry_equiv_pos_as_xyz
  1  'x, y, z'
loop_
 _atom_site_type_symbol
 _atom_site_label
 _atom_site_symmetry_multiplicity
 _atom_site_fract_x
 _atom_site_fract_y
 _atom_site_fract_z
 _atom_site_occupancy
  K  K0  1  0.666697  0.333369  0.937640  1
  K  K1  1  0.333303  0.666631  0.437640  1
  K  K2  1  0.666697  0.333369  0.562360  1
  K  K3  1  0.333303  0.666631  0.062360  1
  K  K4  1  0.999977  0.999871  0.750000  1
  K  K5  1  0.000023  0.000129  0.250000  1
  Co  Co6  1  0.333332  0.666666  0.834152  1
  Co  Co7  1  0.666668  0.333334  0.334152  1
  Co  Co8  1  0.666668  0.333334  0.165848  1
  Co  Co9  1  0.333332  0.666666  0.665848  1
  Cl  Cl10  1  0.642958  0.821485  0.594919  1
  Cl  Cl11  1  0.642958  0.821485  0.905081  1
  Cl  Cl12  1  0.178504  0.357067  0.594913  1
  Cl  Cl13  1  0.178518  0.821440  0.905090  1
  Cl  Cl14  1  0.821482  0.178560  0.405090  1
  Cl  Cl15  1  0.821496  0.642933  0.405087  1
  Cl  Cl16  1  0.517793  0.035672  0.250000  1
  Cl  Cl17  1  0.482187  0.517862  0.750000  1
  Cl  Cl18  1  0.035663  0.517817  0.750000  1
  Cl  Cl19  1  0.964337  0.482183  0.250000  1
  Cl  Cl20  1  0.178504  0.357067  0.905087  1
  Cl  Cl21  1  0.482207  0.964328  0.750000  1
  Cl  Cl22  1  0.821496  0.642933  0.094913  1
  Cl  Cl23  1  0.178518  0.821440  0.594910  1
  Cl  Cl24  1  0.517813  0.482138  0.250000  1
  Cl  Cl25  1  0.357042  0.178515  0.094919  1
  Cl  Cl26  1  0.821482  0.178560  0.094910  1
  Cl  Cl27  1  0.357042  0.178515  0.405081  1
