# generated using pymatgen
data_Ba2Co(SeO3)3
_symmetry_space_group_name_H-M   'P 1'
_cell_length_a   7.63198484
_cell_length_b   7.97688273
_cell_length_c   9.22388256
_cell_angle_alpha   102.41728075
_cell_angle_beta   105.18318092
_cell_angle_gamma   94.38820471
_symmetry_Int_Tables_number   1
_chemical_formula_structural   Ba2Co(SeO3)3
_chemical_formula_sum   'Ba4 Co2 Se6 O18'
_cell_volume   523.98334742
_cell_formula_units_Z   2
loop_
 _symmetry_equiv_pos_site_id
 _symmetry_equiv_pos_as_xyz
  1  'x, y, z'
loop_
 _atom_site_type_symbol
 _atom_site_label
 _atom_site_symmetry_multiplicity
 _atom_site_fract_x
 _atom_site_fract_y
 _atom_site_fract_z
 _atom_site_occupancy
  Ba  Ba0  1  0.374332  0.518813  0.196070  1
  Ba  Ba1  1  0.625684  0.481191  0.803952  1
  Ba  Ba2  1  0.240717  0.078335  0.385371  1
  Ba  Ba3  1  0.759302  0.921651  0.614619  1
  Co  Co4  1  0.903095  0.654069  0.247345  1
  Co  Co5  1  0.096949  0.345921  0.752647  1
  Se  Se6  1  0.773444  0.363154  0.414743  1
  Se  Se7  1  0.226554  0.636850  0.585270  1
  Se  Se8  1  0.904210  0.217358  0.039325  1
  Se  Se9  1  0.095781  0.782636  0.960662  1
  Se  Se10  1  0.651556  0.912922  0.205546  1
  Se  Se11  1  0.348434  0.087059  0.794442  1
  O  O12  1  0.834605  0.365900  0.610089  1
  O  O13  1  0.165415  0.634209  0.389945  1
  O  O14  1  0.772466  0.582064  0.407710  1
  O  O15  1  0.227513  0.417922  0.592245  1
  O  O16  1  0.542080  0.294351  0.361019  1
  O  O17  1  0.457917  0.705641  0.639004  1
  O  O18  1  0.926607  0.216260  0.857382  1
  O  O19  1  0.073425  0.783729  0.142618  1
  O  O20  1  0.832242  0.417799  0.088005  1
  O  O21  1  0.167672  0.582157  0.911993  1
  O  O22  1  0.122741  0.241017  0.158445  1
  O  O23  1  0.877236  0.759030  0.841578  1
  O  O24  1  0.645894  0.701631  0.103192  1
  O  O25  1  0.354059  0.298340  0.896804  1
  O  O26  1  0.863614  0.930265  0.340900  1
  O  O27  1  0.136406  0.069734  0.659047  1
  O  O28  1  0.504595  0.881735  0.314158  1
  O  O29  1  0.495447  0.118259  0.685878  1
