# generated using pymatgen
data_NaEr(Cu2P)4
_symmetry_space_group_name_H-M   'P 1'
_cell_length_a   7.26928645
_cell_length_b   7.26928623
_cell_length_c   3.76904900
_cell_angle_alpha   90.00000000
_cell_angle_beta   90.00000000
_cell_angle_gamma   88.69568176
_symmetry_Int_Tables_number   1
_chemical_formula_structural   NaEr(Cu2P)4
_chemical_formula_sum   'Na1 Er1 Cu8 P4'
_cell_volume   199.11445714
_cell_formula_units_Z   1
loop_
 _symmetry_equiv_pos_site_id
 _symmetry_equiv_pos_as_xyz
  1  'x, y, z'
loop_
 _atom_site_type_symbol
 _atom_site_label
 _atom_site_symmetry_multiplicity
 _atom_site_fract_x
 _atom_site_fract_y
 _atom_site_fract_z
 _atom_site_occupancy
  Na  Na0  1  0.500000  0.500000  0.500000  1
  Er  Er1  1  0.000000  0.000000  0.000000  1
  Cu  Cu2  1  0.664820  0.915588  0.500000  1
  Cu  Cu3  1  0.164026  0.585175  0.000000  1
  Cu  Cu4  1  0.414825  0.835974  0.000000  1
  Cu  Cu5  1  0.915588  0.664820  0.500000  1
  Cu  Cu6  1  0.835974  0.414825  0.000000  1
  Cu  Cu7  1  0.585175  0.164026  0.000000  1
  Cu  Cu8  1  0.084412  0.335180  0.500000  1
  Cu  Cu9  1  0.335180  0.084412  0.500000  1
  P  P10  1  0.277531  0.277531  0.000000  1
  P  P11  1  0.722469  0.722469  0.000000  1
  P  P12  1  0.787227  0.212773  0.500000  1
  P  P13  1  0.212773  0.787227  0.500000  1
