# generated using pymatgen
data_Y3ErAl18(CoNi2)2
_symmetry_space_group_name_H-M   'P 1'
_cell_length_a   7.40839728
_cell_length_b   7.40707002
_cell_length_c   9.27146700
_cell_angle_alpha   90.00000000
_cell_angle_beta   90.00000000
_cell_angle_gamma   119.39117126
_symmetry_Int_Tables_number   1
_chemical_formula_structural   Y3ErAl18(CoNi2)2
_chemical_formula_sum   'Y3 Er1 Al18 Co2 Ni4'
_cell_volume   443.28355798
_cell_formula_units_Z   1
loop_
 _symmetry_equiv_pos_site_id
 _symmetry_equiv_pos_as_xyz
  1  'x, y, z'
loop_
 _atom_site_type_symbol
 _atom_site_label
 _atom_site_symmetry_multiplicity
 _atom_site_fract_x
 _atom_site_fract_y
 _atom_site_fract_z
 _atom_site_occupancy
  Y  Y0  1  0.007535  0.331844  0.750000  1
  Y  Y1  1  0.668607  0.992861  0.250000  1
  Y  Y2  1  0.331495  0.007015  0.750000  1
  Er  Er3  1  0.992669  0.668900  0.250000  1
  Al  Al4  1  0.121794  0.121433  0.250000  1
  Al  Al5  1  0.878206  0.877871  0.750000  1
  Al  Al6  1  0.330250  0.330074  0.546346  1
  Al  Al7  1  0.670240  0.669918  0.048094  1
  Al  Al8  1  0.330250  0.330074  0.953654  1
  Al  Al9  1  0.670240  0.669918  0.451906  1
  Al  Al10  1  0.339170  0.552063  0.250000  1
  Al  Al11  1  0.660315  0.448412  0.750000  1
  Al  Al12  1  0.552251  0.340678  0.250000  1
  Al  Al13  1  0.448781  0.659939  0.750000  1
  Al  Al14  1  0.997685  0.332226  0.072793  1
  Al  Al15  1  0.002213  0.668505  0.571286  1
  Al  Al16  1  0.331149  0.996969  0.427241  1
  Al  Al17  1  0.668626  0.002345  0.928099  1
  Al  Al18  1  0.002213  0.668505  0.928714  1
  Al  Al19  1  0.997685  0.332226  0.427207  1
  Al  Al20  1  0.668626  0.002345  0.571901  1
  Al  Al21  1  0.331149  0.996969  0.072759  1
  Co  Co22  1  0.999915  0.999640  0.000511  1
  Co  Co23  1  0.999915  0.999640  0.499489  1
  Ni  Ni24  1  0.671426  0.328986  0.000580  1
  Ni  Ni25  1  0.328085  0.670827  0.499747  1
  Ni  Ni26  1  0.328085  0.670827  0.000253  1
  Ni  Ni27  1  0.671426  0.328986  0.499420  1
