# generated using pymatgen
data_Ac3LaPd4
_symmetry_space_group_name_H-M   'P 1'
_cell_length_a   4.71759200
_cell_length_b   6.06927440
_cell_length_c   7.80599777
_cell_angle_alpha   89.42568193
_cell_angle_beta   90.00000000
_cell_angle_gamma   90.00000000
_symmetry_Int_Tables_number   1
_chemical_formula_structural   Ac3LaPd4
_chemical_formula_sum   'Ac3 La1 Pd4'
_cell_volume   223.49291295
_cell_formula_units_Z   1
loop_
 _symmetry_equiv_pos_site_id
 _symmetry_equiv_pos_as_xyz
  1  'x, y, z'
loop_
 _atom_site_type_symbol
 _atom_site_label
 _atom_site_symmetry_multiplicity
 _atom_site_fract_x
 _atom_site_fract_y
 _atom_site_fract_z
 _atom_site_occupancy
  Ac  Ac0  1  0.250000  0.357054  0.684382  1
  Ac  Ac1  1  0.250000  0.143206  0.181378  1
  Ac  Ac2  1  0.750000  0.643761  0.315819  1
  La  La3  1  0.750000  0.857241  0.816909  1
  Pd  Pd4  1  0.250000  0.852283  0.550918  1
  Pd  Pd5  1  0.250000  0.653243  0.035128  1
  Pd  Pd6  1  0.750000  0.142557  0.460603  1
  Pd  Pd7  1  0.750000  0.350655  0.954863  1
