# generated using pymatgen
data_Nd3Si4Ni29B10
_symmetry_space_group_name_H-M   'P 1'
_cell_length_a   11.15799900
_cell_length_b   11.15799900
_cell_length_c   7.83892000
_cell_angle_alpha   90.00000000
_cell_angle_beta   90.00000000
_cell_angle_gamma   90.00000000
_symmetry_Int_Tables_number   1
_chemical_formula_structural   Nd3Si4Ni29B10
_chemical_formula_sum   'Nd6 Si8 Ni58 B20'
_cell_volume   975.95292179
_cell_formula_units_Z   2
loop_
 _symmetry_equiv_pos_site_id
 _symmetry_equiv_pos_as_xyz
  1  'x, y, z'
loop_
 _atom_site_type_symbol
 _atom_site_label
 _atom_site_symmetry_multiplicity
 _atom_site_fract_x
 _atom_site_fract_y
 _atom_site_fract_z
 _atom_site_occupancy
  Nd  Nd0  1  0.250000  0.750000  0.000000  1
  Nd  Nd1  1  0.250000  0.250000  0.000000  1
  Nd  Nd2  1  0.750000  0.750000  0.000000  1
  Nd  Nd3  1  0.750000  0.250000  0.000000  1
  Nd  Nd4  1  0.000000  0.000000  0.500000  1
  Nd  Nd5  1  0.500000  0.500000  0.500000  1
  Si  Si6  1  0.500000  0.683840  0.822188  1
  Si  Si7  1  0.316160  0.500000  0.177812  1
  Si  Si8  1  0.000000  0.183840  0.177812  1
  Si  Si9  1  0.000000  0.816160  0.177812  1
  Si  Si10  1  0.683840  0.500000  0.177812  1
  Si  Si11  1  0.183840  0.000000  0.822188  1
  Si  Si12  1  0.816160  0.000000  0.822188  1
  Si  Si13  1  0.500000  0.316160  0.822188  1
  Ni  Ni14  1  0.339881  0.673224  0.333556  1
  Ni  Ni15  1  0.271803  0.000000  0.525550  1
  Ni  Ni16  1  0.500000  0.771803  0.525550  1
  Ni  Ni17  1  0.500000  0.228197  0.525550  1
  Ni  Ni18  1  0.832601  0.500000  0.972794  1
  Ni  Ni19  1  0.000000  0.667399  0.972794  1
  Ni  Ni20  1  0.000000  0.332601  0.972794  1
  Ni  Ni21  1  0.167399  0.500000  0.972794  1
  Ni  Ni22  1  0.667399  0.000000  0.027206  1
  Ni  Ni23  1  0.332601  0.000000  0.027206  1
  Ni  Ni24  1  0.500000  0.832601  0.027206  1
  Ni  Ni25  1  0.500000  0.167399  0.027206  1
  Ni  Ni26  1  0.883744  0.383744  0.249275  1
  Ni  Ni27  1  0.883744  0.616256  0.249275  1
  Ni  Ni28  1  0.116256  0.383744  0.249275  1
  Ni  Ni29  1  0.116256  0.616256  0.249275  1
  Ni  Ni30  1  0.616256  0.883744  0.750725  1
  Ni  Ni31  1  0.383744  0.116256  0.750725  1
  Ni  Ni32  1  0.383744  0.883744  0.750725  1
  Ni  Ni33  1  0.616256  0.116256  0.750725  1
  Ni  Ni34  1  0.889819  0.389819  0.700239  1
  Ni  Ni35  1  0.889819  0.610181  0.700239  1
  Ni  Ni36  1  0.110181  0.389819  0.700239  1
  Ni  Ni37  1  0.110181  0.610181  0.700239  1
  Ni  Ni38  1  0.610181  0.889819  0.299761  1
  Ni  Ni39  1  0.389819  0.110181  0.299761  1
  Ni  Ni40  1  0.389819  0.889819  0.299761  1
  Ni  Ni41  1  0.610181  0.110181  0.299761  1
  Ni  Ni42  1  0.339881  0.326776  0.333556  1
  Ni  Ni43  1  0.826776  0.160119  0.333556  1
  Ni  Ni44  1  0.173224  0.839881  0.333556  1
  Ni  Ni45  1  0.660119  0.673224  0.333556  1
  Ni  Ni46  1  0.160119  0.826776  0.666444  1
  Ni  Ni47  1  0.839881  0.173224  0.666444  1
  Ni  Ni48  1  0.326776  0.339881  0.666444  1
  Ni  Ni49  1  0.610232  0.500000  0.887593  1
  Ni  Ni50  1  0.160119  0.173224  0.666444  1
  Ni  Ni51  1  0.673224  0.339881  0.666444  1
  Ni  Ni52  1  0.326776  0.660119  0.666444  1
  Ni  Ni53  1  0.839881  0.826776  0.666444  1
  Ni  Ni54  1  0.728197  0.000000  0.525550  1
  Ni  Ni55  1  0.000000  0.889768  0.887593  1
  Ni  Ni56  1  0.173224  0.160119  0.333556  1
  Ni  Ni57  1  0.826776  0.839881  0.333556  1
  Ni  Ni58  1  0.000000  0.110232  0.887593  1
  Ni  Ni59  1  0.389768  0.500000  0.887593  1
  Ni  Ni60  1  0.500000  0.000000  0.533721  1
  Ni  Ni61  1  0.000000  0.500000  0.466279  1
  Ni  Ni62  1  0.110232  0.000000  0.112407  1
  Ni  Ni63  1  0.228197  0.500000  0.474450  1
  Ni  Ni64  1  0.000000  0.271803  0.474450  1
  Ni  Ni65  1  0.000000  0.728197  0.474450  1
  Ni  Ni66  1  0.771803  0.500000  0.474450  1
  Ni  Ni67  1  0.500000  0.610232  0.112407  1
  Ni  Ni68  1  0.500000  0.389768  0.112407  1
  Ni  Ni69  1  0.889768  0.000000  0.112407  1
  Ni  Ni70  1  0.673224  0.660119  0.666444  1
  Ni  Ni71  1  0.660119  0.326776  0.333556  1
  B  B72  1  0.688124  0.188124  0.517496  1
  B  B73  1  0.311876  0.811876  0.517496  1
  B  B74  1  0.311876  0.188124  0.517496  1
  B  B75  1  0.688124  0.811876  0.517496  1
  B  B76  1  0.188124  0.688124  0.482504  1
  B  B77  1  0.188124  0.311876  0.482504  1
  B  B78  1  0.500000  0.254139  0.262331  1
  B  B79  1  0.500000  0.745861  0.262331  1
  B  B80  1  0.245861  0.000000  0.262331  1
  B  B81  1  0.754139  0.000000  0.262331  1
  B  B82  1  0.254139  0.500000  0.737669  1
  B  B83  1  0.000000  0.245861  0.737669  1
  B  B84  1  0.000000  0.754139  0.737669  1
  B  B85  1  0.745861  0.500000  0.737669  1
  B  B86  1  0.500000  0.000000  0.141948  1
  B  B87  1  0.000000  0.500000  0.858052  1
  B  B88  1  0.500000  0.000000  0.896826  1
  B  B89  1  0.000000  0.500000  0.103174  1
  B  B90  1  0.811876  0.688124  0.482504  1
  B  B91  1  0.811876  0.311876  0.482504  1
