# generated using pymatgen
data_Mn2GaCo4Si
_symmetry_space_group_name_H-M   'P 1'
_cell_length_a   6.94828983
_cell_length_b   6.94828985
_cell_length_c   6.94829009
_cell_angle_alpha   33.54566278
_cell_angle_beta   33.54566596
_cell_angle_gamma   33.54566965
_symmetry_Int_Tables_number   1
_chemical_formula_structural   Mn2GaCo4Si
_chemical_formula_sum   'Mn2 Ga1 Co4 Si1'
_cell_volume   91.24150319
_cell_formula_units_Z   1
loop_
 _symmetry_equiv_pos_site_id
 _symmetry_equiv_pos_as_xyz
  1  'x, y, z'
loop_
 _atom_site_type_symbol
 _atom_site_label
 _atom_site_symmetry_multiplicity
 _atom_site_fract_x
 _atom_site_fract_y
 _atom_site_fract_z
 _atom_site_occupancy
  Mn  Mn0  1  0.250794  0.250794  0.250794  1
  Mn  Mn1  1  0.749206  0.749206  0.749206  1
  Ga  Ga2  1  0.000000  0.000000  0.000000  1
  Co  Co3  1  0.872277  0.872277  0.872277  1
  Co  Co4  1  0.378583  0.378583  0.378583  1
  Co  Co5  1  0.127723  0.127723  0.127723  1
  Co  Co6  1  0.621417  0.621417  0.621417  1
  Si  Si7  1  0.500000  0.500000  0.500000  1
