# generated using pymatgen
data_CaTb5NdCoI12
_symmetry_space_group_name_H-M   'P 1'
_cell_length_a   9.84824322
_cell_length_b   9.85501878
_cell_length_c   9.75428891
_cell_angle_alpha   107.07250199
_cell_angle_beta   106.59852545
_cell_angle_gamma   106.70809236
_symmetry_Int_Tables_number   1
_chemical_formula_structural   CaTb5NdCoI12
_chemical_formula_sum   'Ca1 Tb5 Nd1 Co1 I12'
_cell_volume   792.81731122
_cell_formula_units_Z   1
loop_
 _symmetry_equiv_pos_site_id
 _symmetry_equiv_pos_as_xyz
  1  'x, y, z'
loop_
 _atom_site_type_symbol
 _atom_site_label
 _atom_site_symmetry_multiplicity
 _atom_site_fract_x
 _atom_site_fract_y
 _atom_site_fract_z
 _atom_site_occupancy
  Ca  Ca0  1  0.499990  0.499910  0.499781  1
  Tb  Tb1  1  0.096209  0.295742  0.023557  1
  Tb  Tb2  1  0.295858  0.023864  0.094831  1
  Tb  Tb3  1  0.976793  0.907667  0.717607  1
  Tb  Tb4  1  0.903795  0.703757  0.975434  1
  Tb  Tb5  1  0.703680  0.975311  0.902384  1
  Nd  Nd6  1  0.023073  0.093937  0.288856  1
  Co  Co7  1  0.999540  0.999898  0.000044  1
  I  I8  1  0.153972  0.462848  0.378655  1
  I  I9  1  0.455070  0.376782  0.148737  1
  I  I10  1  0.383712  0.151999  0.457781  1
  I  I11  1  0.849900  0.545322  0.621644  1
  I  I12  1  0.544757  0.623269  0.850904  1
  I  I13  1  0.623872  0.849044  0.543263  1
  I  I14  1  0.673104  0.071300  0.220714  1
  I  I15  1  0.071927  0.221736  0.682006  1
  I  I16  1  0.222544  0.679787  0.071873  1
  I  I17  1  0.318812  0.927021  0.774562  1
  I  I18  1  0.926067  0.770714  0.319534  1
  I  I19  1  0.777325  0.320093  0.927834  1
