# generated using pymatgen
data_Dy6Ho6ZnCo4Sn
_symmetry_space_group_name_H-M   'P 1'
_cell_length_a   8.28129288
_cell_length_b   8.28129340
_cell_length_c   8.29102643
_cell_angle_alpha   112.05381280
_cell_angle_beta   109.25603661
_cell_angle_gamma   107.09181524
_symmetry_Int_Tables_number   1
_chemical_formula_structural   Dy6Ho6ZnCo4Sn
_chemical_formula_sum   'Dy6 Ho6 Zn1 Co4 Sn1'
_cell_volume   437.15036993
_cell_formula_units_Z   1
loop_
 _symmetry_equiv_pos_site_id
 _symmetry_equiv_pos_as_xyz
  1  'x, y, z'
loop_
 _atom_site_type_symbol
 _atom_site_label
 _atom_site_symmetry_multiplicity
 _atom_site_fract_x
 _atom_site_fract_y
 _atom_site_fract_z
 _atom_site_occupancy
  Dy  Dy0  1  0.428798  0.227733  0.200461  1
  Dy  Dy1  1  0.571202  0.772267  0.799539  1
  Dy  Dy2  1  0.027271  0.228336  0.799539  1
  Dy  Dy3  1  0.972729  0.771664  0.200461  1
  Dy  Dy4  1  0.181706  0.284105  0.465809  1
  Dy  Dy5  1  0.818294  0.715895  0.534191  1
  Ho  Ho6  1  0.181769  0.715843  0.897612  1
  Ho  Ho7  1  0.818231  0.284157  0.102388  1
  Ho  Ho8  1  0.322864  0.634069  0.310604  1
  Ho  Ho9  1  0.677136  0.365931  0.689396  1
  Ho  Ho10  1  0.323466  0.012260  0.689396  1
  Ho  Ho11  1  0.676534  0.987740  0.310604  1
  Zn  Zn12  1  0.000000  0.000000  0.000000  1
  Co  Co13  1  0.348011  0.999804  0.347814  1
  Co  Co14  1  0.651989  0.000196  0.652186  1
  Co  Co15  1  0.114451  0.614451  0.500000  1
  Co  Co16  1  0.885549  0.385549  0.500000  1
  Sn  Sn17  1  0.500000  0.500000  0.000000  1
