# generated using pymatgen
data_K2BeI4
_symmetry_space_group_name_H-M   'P 1'
_cell_length_a   8.13310800
_cell_length_b   7.81439060
_cell_length_c   9.71788767
_cell_angle_alpha   71.95236397
_cell_angle_beta   90.00000000
_cell_angle_gamma   90.00000000
_symmetry_Int_Tables_number   1
_chemical_formula_structural   K2BeI4
_chemical_formula_sum   'K4 Be2 I8'
_cell_volume   587.23559063
_cell_formula_units_Z   2
loop_
 _symmetry_equiv_pos_site_id
 _symmetry_equiv_pos_as_xyz
  1  'x, y, z'
loop_
 _atom_site_type_symbol
 _atom_site_label
 _atom_site_symmetry_multiplicity
 _atom_site_fract_x
 _atom_site_fract_y
 _atom_site_fract_z
 _atom_site_occupancy
  K  K0  1  0.750000  0.783118  0.550752  1
  K  K1  1  0.250000  0.216882  0.449248  1
  K  K2  1  0.750000  0.731471  0.069243  1
  K  K3  1  0.250000  0.268529  0.930757  1
  Be  Be4  1  0.750000  0.215864  0.701761  1
  Be  Be5  1  0.250000  0.784136  0.298239  1
  I  I6  1  0.750000  0.383180  0.446093  1
  I  I7  1  0.250000  0.616820  0.553907  1
  I  I8  1  0.011270  0.983014  0.242185  1
  I  I9  1  0.988730  0.016986  0.757815  1
  I  I10  1  0.511270  0.016986  0.757815  1
  I  I11  1  0.488730  0.983014  0.242185  1
  I  I12  1  0.750000  0.402885  0.861765  1
  I  I13  1  0.250000  0.597115  0.138235  1
