# generated using pymatgen
data_NdErCd2(Ir2O7)2
_symmetry_space_group_name_H-M   'P 1'
_cell_length_a   7.27638008
_cell_length_b   7.27638026
_cell_length_c   7.40640108
_cell_angle_alpha   59.41975711
_cell_angle_beta   59.41976185
_cell_angle_gamma   59.22718198
_symmetry_Int_Tables_number   1
_chemical_formula_structural   NdErCd2(Ir2O7)2
_chemical_formula_sum   'Nd1 Er1 Cd2 Ir4 O14'
_cell_volume   273.21330550
_cell_formula_units_Z   1
loop_
 _symmetry_equiv_pos_site_id
 _symmetry_equiv_pos_as_xyz
  1  'x, y, z'
loop_
 _atom_site_type_symbol
 _atom_site_label
 _atom_site_symmetry_multiplicity
 _atom_site_fract_x
 _atom_site_fract_y
 _atom_site_fract_z
 _atom_site_occupancy
  Nd  Nd0  1  0.125000  0.125000  0.625000  1
  Er  Er1  1  0.125000  0.125000  0.125000  1
  Cd  Cd2  1  0.625000  0.125000  0.125000  1
  Cd  Cd3  1  0.125000  0.625000  0.125000  1
  Ir  Ir4  1  0.125000  0.625000  0.625000  1
  Ir  Ir5  1  0.625000  0.125000  0.625000  1
  Ir  Ir6  1  0.625000  0.625000  0.125000  1
  Ir  Ir7  1  0.625000  0.625000  0.625000  1
  O  O8  1  0.698621  0.698621  0.300128  1
  O  O9  1  0.289556  0.289556  0.717362  1
  O  O10  1  0.703171  0.294855  0.702873  1
  O  O11  1  0.295839  0.714118  0.298336  1
  O  O12  1  0.294855  0.703171  0.702873  1
  O  O13  1  0.714118  0.295839  0.298336  1
  O  O14  1  0.551379  0.551379  0.949872  1
  O  O15  1  0.960444  0.960444  0.532638  1
  O  O16  1  0.546829  0.955145  0.547127  1
  O  O17  1  0.954161  0.535882  0.951664  1
  O  O18  1  0.955145  0.546829  0.547127  1
  O  O19  1  0.535882  0.954161  0.951664  1
  O  O20  1  0.252787  0.252787  0.236586  1
  O  O21  1  0.997213  0.997213  0.013414  1
