# generated using pymatgen
data_Sc3SnSb3Au4
_symmetry_space_group_name_H-M   'P 1'
_cell_length_a   7.95057208
_cell_length_b   7.95057200
_cell_length_c   7.92887000
_cell_angle_alpha   131.55419772
_cell_angle_beta   131.55419933
_cell_angle_gamma   71.15341452
_symmetry_Int_Tables_number   1
_chemical_formula_structural   Sc3SnSb3Au4
_chemical_formula_sum   'Sc3 Sn1 Sb3 Au4'
_cell_volume   274.47701507
_cell_formula_units_Z   1
loop_
 _symmetry_equiv_pos_site_id
 _symmetry_equiv_pos_as_xyz
  1  'x, y, z'
loop_
 _atom_site_type_symbol
 _atom_site_label
 _atom_site_symmetry_multiplicity
 _atom_site_fract_x
 _atom_site_fract_y
 _atom_site_fract_z
 _atom_site_occupancy
  Sc  Sc0  1  0.000301  0.000301  0.000000  1
  Sc  Sc1  1  0.749129  0.249128  0.500001  1
  Sc  Sc2  1  0.249128  0.749129  0.500001  1
  Sn  Sn3  1  0.255677  0.255677  0.000000  1
  Sb  Sb4  1  0.746984  0.746984  0.000000  1
  Sb  Sb5  1  0.499285  0.999284  0.500001  1
  Sb  Sb6  1  0.999284  0.499285  0.500001  1
  Au  Au7  1  0.622807  0.126201  0.000000  1
  Au  Au8  1  0.126201  0.622807  0.000000  1
  Au  Au9  1  0.879919  0.879919  0.508633  1
  Au  Au10  1  0.371287  0.371287  0.491368  1
