# generated using pymatgen
data_Ho8Tm2Ir5Au
_symmetry_space_group_name_H-M   'P 1'
_cell_length_a   10.98026123
_cell_length_b   10.92001000
_cell_length_c   6.30202116
_cell_angle_alpha   90.00000000
_cell_angle_beta   89.85499514
_cell_angle_gamma   90.00000000
_symmetry_Int_Tables_number   1
_chemical_formula_structural   Ho8Tm2Ir5Au
_chemical_formula_sum   'Ho16 Tm4 Ir10 Au2'
_cell_volume   755.63866911
_cell_formula_units_Z   2
loop_
 _symmetry_equiv_pos_site_id
 _symmetry_equiv_pos_as_xyz
  1  'x, y, z'
loop_
 _atom_site_type_symbol
 _atom_site_label
 _atom_site_symmetry_multiplicity
 _atom_site_fract_x
 _atom_site_fract_y
 _atom_site_fract_z
 _atom_site_occupancy
  Ho  Ho0  1  0.291443  0.087873  0.371728  1
  Ho  Ho1  1  0.291443  0.912127  0.871728  1
  Ho  Ho2  1  0.698488  0.091805  0.865964  1
  Ho  Ho3  1  0.698488  0.908195  0.365964  1
  Ho  Ho4  1  0.577792  0.788722  0.876947  1
  Ho  Ho5  1  0.577792  0.211278  0.376947  1
  Ho  Ho6  1  0.408958  0.789945  0.376253  1
  Ho  Ho7  1  0.408958  0.210055  0.876253  1
  Ho  Ho8  1  0.210411  0.411658  0.621787  1
  Ho  Ho9  1  0.210411  0.588342  0.121787  1
  Ho  Ho10  1  0.788885  0.419859  0.123466  1
  Ho  Ho11  1  0.788885  0.580141  0.623466  1
  Ho  Ho12  1  0.917616  0.705847  0.138601  1
  Ho  Ho13  1  0.917616  0.294153  0.638601  1
  Ho  Ho14  1  0.095637  0.703732  0.624183  1
  Ho  Ho15  1  0.095637  0.296268  0.124183  1
  Tm  Tm16  1  0.009254  0.997919  0.500124  1
  Tm  Tm17  1  0.009254  0.002081  0.000124  1
  Tm  Tm18  1  0.500063  0.498721  0.000717  1
  Tm  Tm19  1  0.500063  0.501279  0.500717  1
  Ir  Ir20  1  0.152953  0.153083  0.750061  1
  Ir  Ir21  1  0.152953  0.846917  0.250061  1
  Ir  Ir22  1  0.654969  0.346933  0.748100  1
  Ir  Ir23  1  0.654969  0.653067  0.248100  1
  Ir  Ir24  1  0.348228  0.346971  0.251742  1
  Ir  Ir25  1  0.348228  0.653029  0.751742  1
  Ir  Ir26  1  0.499411  0.999813  0.120919  1
  Ir  Ir27  1  0.499411  0.000187  0.620919  1
  Ir  Ir28  1  0.000195  0.500888  0.878886  1
  Ir  Ir29  1  0.000195  0.499112  0.378886  1
  Au  Au30  1  0.845698  0.154146  0.250521  1
  Au  Au31  1  0.845698  0.845854  0.750521  1
