# generated using pymatgen
data_Dy4ReTc3B16
_symmetry_space_group_name_H-M   'P 1'
_cell_length_a   3.60401300
_cell_length_b   5.97186941
_cell_length_c   11.56481279
_cell_angle_alpha   89.95760670
_cell_angle_beta   90.00000000
_cell_angle_gamma   90.00000000
_symmetry_Int_Tables_number   1
_chemical_formula_structural   Dy4ReTc3B16
_chemical_formula_sum   'Dy4 Re1 Tc3 B16'
_cell_volume   248.90587011
_cell_formula_units_Z   1
loop_
 _symmetry_equiv_pos_site_id
 _symmetry_equiv_pos_as_xyz
  1  'x, y, z'
loop_
 _atom_site_type_symbol
 _atom_site_label
 _atom_site_symmetry_multiplicity
 _atom_site_fract_x
 _atom_site_fract_y
 _atom_site_fract_z
 _atom_site_occupancy
  Dy  Dy0  1  0.000000  0.627127  0.349822  1
  Dy  Dy1  1  0.000000  0.372769  0.650192  1
  Dy  Dy2  1  0.000000  0.126940  0.149557  1
  Dy  Dy3  1  0.000000  0.873125  0.850629  1
  Re  Re4  1  0.000000  0.866043  0.587771  1
  Tc  Tc5  1  0.000000  0.633806  0.087513  1
  Tc  Tc6  1  0.000000  0.366568  0.912442  1
  Tc  Tc7  1  0.000000  0.133501  0.412535  1
  B  B8  1  0.500000  0.787612  0.184823  1
  B  B9  1  0.500000  0.212761  0.815220  1
  B  B10  1  0.500000  0.287477  0.315101  1
  B  B11  1  0.500000  0.712451  0.685134  1
  B  B12  1  0.500000  0.863915  0.031486  1
  B  B13  1  0.500000  0.136126  0.968593  1
  B  B14  1  0.500000  0.363797  0.468540  1
  B  B15  1  0.500000  0.636210  0.531093  1
  B  B16  1  0.500000  0.886770  0.452483  1
  B  B17  1  0.500000  0.113655  0.547000  1
  B  B18  1  0.500000  0.386492  0.047263  1
  B  B19  1  0.500000  0.613245  0.952899  1
  B  B20  1  0.500000  0.976772  0.307635  1
  B  B21  1  0.500000  0.023442  0.692168  1
  B  B22  1  0.500000  0.476395  0.192228  1
  B  B23  1  0.500000  0.523001  0.807873  1
