# generated using pymatgen
data_LaPrNd(OsO5)2
_symmetry_space_group_name_H-M   'P 1'
_cell_length_a   5.58087030
_cell_length_b   5.58087122
_cell_length_c   7.03101997
_cell_angle_alpha   72.50742665
_cell_angle_beta   72.50741829
_cell_angle_gamma   90.36777495
_symmetry_Int_Tables_number   1
_chemical_formula_structural   LaPrNd(OsO5)2
_chemical_formula_sum   'La1 Pr1 Nd1 Os2 O10'
_cell_volume   198.07302620
_cell_formula_units_Z   1
loop_
 _symmetry_equiv_pos_site_id
 _symmetry_equiv_pos_as_xyz
  1  'x, y, z'
loop_
 _atom_site_type_symbol
 _atom_site_label
 _atom_site_symmetry_multiplicity
 _atom_site_fract_x
 _atom_site_fract_y
 _atom_site_fract_z
 _atom_site_occupancy
  La  La0  1  0.244981  0.755019  0.500000  1
  Pr  Pr1  1  0.754467  0.245533  0.500000  1
  Nd  Nd2  1  0.500069  0.499931  0.000000  1
  Os  Os3  1  0.130244  0.130428  0.824842  1
  Os  Os4  1  0.869572  0.869756  0.175158  1
  O  O5  1  0.827575  0.829596  0.471845  1
  O  O6  1  0.170404  0.172425  0.528155  1
  O  O7  1  0.596499  0.593777  0.281652  1
  O  O8  1  0.406223  0.403501  0.718348  1
  O  O9  1  0.380598  0.897139  0.789339  1
  O  O10  1  0.852866  0.852798  0.899363  1
  O  O11  1  0.147202  0.147134  0.100637  1
  O  O12  1  0.894824  0.378385  0.789978  1
  O  O13  1  0.621615  0.105176  0.210022  1
  O  O14  1  0.102861  0.619402  0.210661  1
