# generated using pymatgen
data_Pa6Mn4Ni16P13
_symmetry_space_group_name_H-M   'P 1'
_cell_length_a   12.73933400
_cell_length_b   12.73933498
_cell_length_c   3.75602700
_cell_angle_alpha   90.00000000
_cell_angle_beta   90.00000000
_cell_angle_gamma   119.99999746
_symmetry_Int_Tables_number   1
_chemical_formula_structural   Pa6Mn4Ni16P13
_chemical_formula_sum   'Pa6 Mn4 Ni16 P13'
_cell_volume   527.90141954
_cell_formula_units_Z   1
loop_
 _symmetry_equiv_pos_site_id
 _symmetry_equiv_pos_as_xyz
  1  'x, y, z'
loop_
 _atom_site_type_symbol
 _atom_site_label
 _atom_site_symmetry_multiplicity
 _atom_site_fract_x
 _atom_site_fract_y
 _atom_site_fract_z
 _atom_site_occupancy
  Pa  Pa0  1  0.476953  0.193135  0.000000  1
  Pa  Pa1  1  0.716182  0.523047  0.000000  1
  Pa  Pa2  1  0.806865  0.283818  0.000000  1
  Pa  Pa3  1  0.530631  0.812501  0.500000  1
  Pa  Pa4  1  0.281872  0.469369  0.500000  1
  Pa  Pa5  1  0.187499  0.718128  0.500000  1
  Mn  Mn6  1  0.666667  0.333333  0.500000  1
  Mn  Mn7  1  0.846117  0.929901  0.500000  1
  Mn  Mn8  1  0.083784  0.153883  0.500000  1
  Mn  Mn9  1  0.070099  0.916216  0.500000  1
  Ni  Ni10  1  0.333333  0.666667  0.000000  1
  Ni  Ni11  1  0.198775  0.088850  0.000000  1
  Ni  Ni12  1  0.890075  0.801225  0.000000  1
  Ni  Ni13  1  0.911150  0.109925  0.000000  1
  Ni  Ni14  1  0.437084  0.417153  0.000000  1
  Ni  Ni15  1  0.980069  0.562916  0.000000  1
  Ni  Ni16  1  0.582847  0.019931  0.000000  1
  Ni  Ni17  1  0.563945  0.587240  0.500000  1
  Ni  Ni18  1  0.023294  0.436055  0.500000  1
  Ni  Ni19  1  0.412760  0.976706  0.500000  1
  Ni  Ni20  1  0.080313  0.321923  0.000000  1
  Ni  Ni21  1  0.241609  0.919687  0.000000  1
  Ni  Ni22  1  0.678077  0.758391  0.000000  1
  Ni  Ni23  1  0.926612  0.680693  0.500000  1
  Ni  Ni24  1  0.754081  0.073388  0.500000  1
  Ni  Ni25  1  0.319307  0.245919  0.500000  1
  P  P26  1  0.233291  0.278896  0.000000  1
  P  P27  1  0.045605  0.766709  0.000000  1
  P  P28  1  0.721104  0.954395  0.000000  1
  P  P29  1  0.767324  0.720884  0.500000  1
  P  P30  1  0.953560  0.232676  0.500000  1
  P  P31  1  0.279116  0.046440  0.500000  1
  P  P32  1  0.477930  0.613769  0.000000  1
  P  P33  1  0.135838  0.522070  0.000000  1
  P  P34  1  0.386231  0.864162  0.000000  1
  P  P35  1  0.520310  0.387091  0.500000  1
  P  P36  1  0.866782  0.479690  0.500000  1
  P  P37  1  0.612909  0.133218  0.500000  1
  P  P38  1  0.000000  0.000000  0.000000  1
