# generated using pymatgen
data_Li2DyScB28
_symmetry_space_group_name_H-M   'P 1'
_cell_length_a   7.21685461
_cell_length_b   7.21685413
_cell_length_c   7.21685431
_cell_angle_alpha   132.03877680
_cell_angle_beta   110.96545647
_cell_angle_gamma   88.42770588
_symmetry_Int_Tables_number   1
_chemical_formula_structural   Li2DyScB28
_chemical_formula_sum   'Li2 Dy1 Sc1 B28'
_cell_volume   248.18081360
_cell_formula_units_Z   1
loop_
 _symmetry_equiv_pos_site_id
 _symmetry_equiv_pos_as_xyz
  1  'x, y, z'
loop_
 _atom_site_type_symbol
 _atom_site_label
 _atom_site_symmetry_multiplicity
 _atom_site_fract_x
 _atom_site_fract_y
 _atom_site_fract_z
 _atom_site_occupancy
  Li  Li0  1  0.000155  0.999293  0.499448  1
  Li  Li1  1  0.000155  0.500707  0.000861  1
  Dy  Dy2  1  0.382749  0.750000  0.632749  1
  Sc  Sc3  1  0.632725  0.250000  0.382725  1
  B  B4  1  0.638655  0.665980  0.972676  1
  B  B5  1  0.361108  0.333792  0.027315  1
  B  B6  1  0.193524  0.166208  0.027315  1
  B  B7  1  0.806696  0.834020  0.972676  1
  B  B8  1  0.775499  0.151062  0.624437  1
  B  B9  1  0.222237  0.850029  0.372208  1
  B  B10  1  0.022180  0.649971  0.372208  1
  B  B11  1  0.973375  0.348938  0.624437  1
  B  B12  1  0.914430  0.089187  0.825243  1
  B  B13  1  0.084228  0.910842  0.173386  1
  B  B14  1  0.762544  0.589158  0.173386  1
  B  B15  1  0.236056  0.410813  0.825243  1
  B  B16  1  0.398785  0.400439  0.679967  1
  B  B17  1  0.601148  0.282853  0.004164  1
  B  B18  1  0.221312  0.903017  0.004164  1
  B  B19  1  0.779527  0.781181  0.679967  1
  B  B20  1  0.601148  0.596983  0.318295  1
  B  B21  1  0.398785  0.718819  0.998346  1
  B  B22  1  0.779527  0.099561  0.998346  1
  B  B23  1  0.221312  0.217147  0.318295  1
  B  B24  1  0.033571  0.830643  0.703378  1
  B  B25  1  0.964176  0.669823  0.795412  1
  B  B26  1  0.625589  0.331237  0.795412  1
  B  B27  1  0.372736  0.169808  0.703378  1
  B  B28  1  0.964176  0.168763  0.294353  1
  B  B29  1  0.033571  0.330192  0.202928  1
  B  B30  1  0.372736  0.669357  0.202928  1
  B  B31  1  0.625589  0.830177  0.294353  1
