# generated using pymatgen
data_CaTb2Sm4CoI12
_symmetry_space_group_name_H-M   'P 1'
_cell_length_a   9.88978236
_cell_length_b   9.89544302
_cell_length_c   9.79749579
_cell_angle_alpha   107.02652838
_cell_angle_beta   106.66298482
_cell_angle_gamma   106.79575561
_symmetry_Int_Tables_number   1
_chemical_formula_structural   CaTb2Sm4CoI12
_chemical_formula_sum   'Ca1 Tb2 Sm4 Co1 I12'
_cell_volume   802.21606432
_cell_formula_units_Z   1
loop_
 _symmetry_equiv_pos_site_id
 _symmetry_equiv_pos_as_xyz
  1  'x, y, z'
loop_
 _atom_site_type_symbol
 _atom_site_label
 _atom_site_symmetry_multiplicity
 _atom_site_fract_x
 _atom_site_fract_y
 _atom_site_fract_z
 _atom_site_occupancy
  Ca  Ca0  1  0.499838  0.499919  0.500076  1
  Tb  Tb1  1  0.902681  0.704080  0.975731  1
  Tb  Tb2  1  0.704112  0.975172  0.903617  1
  Sm  Sm3  1  0.022827  0.092549  0.286134  1
  Sm  Sm4  1  0.096691  0.299902  0.023729  1
  Sm  Sm5  1  0.299824  0.024144  0.097470  1
  Sm  Sm6  1  0.976057  0.905766  0.713268  1
  Co  Co7  1  0.999439  0.999366  0.999543  1
  I  I8  1  0.152708  0.458452  0.381519  1
  I  I9  1  0.459074  0.379990  0.151732  1
  I  I10  1  0.379672  0.153559  0.460390  1
  I  I11  1  0.847510  0.541702  0.622381  1
  I  I12  1  0.545017  0.623547  0.850478  1
  I  I13  1  0.620382  0.848215  0.543664  1
  I  I14  1  0.679387  0.072147  0.223017  1
  I  I15  1  0.072008  0.223162  0.677811  1
  I  I16  1  0.220800  0.678410  0.071504  1
  I  I17  1  0.321961  0.926780  0.773251  1
  I  I18  1  0.926937  0.774161  0.317939  1
  I  I19  1  0.773073  0.318977  0.926744  1
