# generated using pymatgen
data_Er4Lu6Sn5Bi
_symmetry_space_group_name_H-M   'P 1'
_cell_length_a   8.84305865
_cell_length_b   8.84305957
_cell_length_c   6.38774800
_cell_angle_alpha   90.00000000
_cell_angle_beta   90.00000000
_cell_angle_gamma   119.90402412
_symmetry_Int_Tables_number   1
_chemical_formula_structural   Er4Lu6Sn5Bi
_chemical_formula_sum   'Er4 Lu6 Sn5 Bi1'
_cell_volume   433.01472343
_cell_formula_units_Z   1
loop_
 _symmetry_equiv_pos_site_id
 _symmetry_equiv_pos_as_xyz
  1  'x, y, z'
loop_
 _atom_site_type_symbol
 _atom_site_label
 _atom_site_symmetry_multiplicity
 _atom_site_fract_x
 _atom_site_fract_y
 _atom_site_fract_z
 _atom_site_occupancy
  Er  Er0  1  0.766214  0.766214  0.750000  1
  Er  Er1  1  0.234968  0.993263  0.750000  1
  Er  Er2  1  0.993263  0.234968  0.750000  1
  Er  Er3  1  0.236481  0.236481  0.250000  1
  Lu  Lu4  1  0.670835  0.332742  0.001728  1
  Lu  Lu5  1  0.332742  0.670835  0.001728  1
  Lu  Lu6  1  0.332742  0.670835  0.498272  1
  Lu  Lu7  1  0.670835  0.332742  0.498272  1
  Lu  Lu8  1  0.762322  0.000556  0.250000  1
  Lu  Lu9  1  0.000556  0.762322  0.250000  1
  Sn  Sn10  1  0.601340  0.999306  0.750000  1
  Sn  Sn11  1  0.999306  0.601340  0.750000  1
  Sn  Sn12  1  0.605684  0.605684  0.250000  1
  Sn  Sn13  1  0.396693  0.001697  0.250000  1
  Sn  Sn14  1  0.001697  0.396693  0.250000  1
  Bi  Bi15  1  0.394323  0.394323  0.750000  1
