# generated using pymatgen
data_Sm4Sn3Sb3Rh7
_symmetry_space_group_name_H-M   'P 1'
_cell_length_a   7.68613777
_cell_length_b   7.69204168
_cell_length_c   7.69204108
_cell_angle_alpha   109.48676310
_cell_angle_beta   109.45566934
_cell_angle_gamma   109.45567613
_symmetry_Int_Tables_number   1
_chemical_formula_structural   Sm4Sn3Sb3Rh7
_chemical_formula_sum   'Sm4 Sn3 Sb3 Rh7'
_cell_volume   350.14892695
_cell_formula_units_Z   1
loop_
 _symmetry_equiv_pos_site_id
 _symmetry_equiv_pos_as_xyz
  1  'x, y, z'
loop_
 _atom_site_type_symbol
 _atom_site_label
 _atom_site_symmetry_multiplicity
 _atom_site_fract_x
 _atom_site_fract_y
 _atom_site_fract_z
 _atom_site_occupancy
  Sm  Sm0  1  0.486965  0.000000  0.000000  1
  Sm  Sm1  1  0.998322  0.503112  0.000000  1
  Sm  Sm2  1  0.998322  0.000000  0.503112  1
  Sm  Sm3  1  0.495210  0.496888  0.496888  1
  Sn  Sn4  1  0.992803  0.309299  0.309299  1
  Sn  Sn5  1  0.683504  0.000000  0.690701  1
  Sn  Sn6  1  0.683504  0.690701  0.000000  1
  Sb  Sb7  1  0.994762  0.671594  0.671594  1
  Sb  Sb8  1  0.323169  0.000000  0.328406  1
  Sb  Sb9  1  0.323169  0.328406  0.000000  1
  Rh  Rh10  1  0.016119  0.000000  0.000000  1
  Rh  Rh11  1  0.503147  0.753679  0.253687  1
  Rh  Rh12  1  0.749468  0.500008  0.246321  1
  Rh  Rh13  1  0.249460  0.746313  0.499992  1
  Rh  Rh14  1  0.249460  0.499992  0.746313  1
  Rh  Rh15  1  0.503147  0.253687  0.753679  1
  Rh  Rh16  1  0.749468  0.246321  0.500008  1
