# generated using pymatgen
data_HoEr3(InPd2)2
_symmetry_space_group_name_H-M   'P 1'
_cell_length_a   7.69012240
_cell_length_b   7.69012240
_cell_length_c   3.71508200
_cell_angle_alpha   90.00000000
_cell_angle_beta   90.00000000
_cell_angle_gamma   89.93078422
_symmetry_Int_Tables_number   1
_chemical_formula_structural   HoEr3(InPd2)2
_chemical_formula_sum   'Ho1 Er3 In2 Pd4'
_cell_volume   219.70229425
_cell_formula_units_Z   1
loop_
 _symmetry_equiv_pos_site_id
 _symmetry_equiv_pos_as_xyz
  1  'x, y, z'
loop_
 _atom_site_type_symbol
 _atom_site_label
 _atom_site_symmetry_multiplicity
 _atom_site_fract_x
 _atom_site_fract_y
 _atom_site_fract_z
 _atom_site_occupancy
  Ho  Ho0  1  0.328523  0.828523  0.500000  1
  Er  Er1  1  0.828662  0.671129  0.500000  1
  Er  Er2  1  0.171129  0.328662  0.500000  1
  Er  Er3  1  0.671369  0.171369  0.500000  1
  In  In4  1  0.999488  0.000453  0.000000  1
  In  In5  1  0.500453  0.499488  0.000000  1
  Pd  Pd6  1  0.372099  0.129368  0.000000  1
  Pd  Pd7  1  0.871596  0.371596  0.000000  1
  Pd  Pd8  1  0.127314  0.627314  0.000000  1
  Pd  Pd9  1  0.629368  0.872099  0.000000  1
