# generated using pymatgen
data_NdPaF8
_symmetry_space_group_name_H-M   'P 1'
_cell_length_a   8.48739774
_cell_length_b   8.50132922
_cell_length_c   8.42267029
_cell_angle_alpha   63.60871137
_cell_angle_beta   63.62853622
_cell_angle_gamma   80.59404735
_symmetry_Int_Tables_number   1
_chemical_formula_structural   NdPaF8
_chemical_formula_sum   'Nd3 Pa3 F24'
_cell_volume   487.30115799
_cell_formula_units_Z   3
loop_
 _symmetry_equiv_pos_site_id
 _symmetry_equiv_pos_as_xyz
  1  'x, y, z'
loop_
 _atom_site_type_symbol
 _atom_site_label
 _atom_site_symmetry_multiplicity
 _atom_site_fract_x
 _atom_site_fract_y
 _atom_site_fract_z
 _atom_site_occupancy
  Nd  Nd0  1  0.369557  0.230179  0.333555  1
  Nd  Nd1  1  0.222478  0.363933  0.839755  1
  Nd  Nd2  1  0.777554  0.625330  0.168097  1
  Pa  Pa3  1  0.629737  0.776140  0.665317  1
  Pa  Pa4  1  0.786109  0.210249  0.754855  1
  Pa  Pa5  1  0.210970  0.785527  0.261629  1
  F  F6  1  0.314841  0.261168  0.607934  1
  F  F7  1  0.684455  0.746294  0.399619  1
  F  F8  1  0.726358  0.684825  0.885783  1
  F  F9  1  0.266962  0.319424  0.103378  1
  F  F10  1  0.822887  0.940226  0.939896  1
  F  F11  1  0.184212  0.044415  0.053165  1
  F  F12  1  0.046427  0.171942  0.559060  1
  F  F13  1  0.930066  0.827583  0.461670  1
  F  F14  1  0.416833  0.605531  0.741723  1
  F  F15  1  0.602791  0.402914  0.244912  1
  F  F16  1  0.505938  0.987510  0.505491  1
  F  F17  1  0.002916  0.512371  0.989038  1
  F  F18  1  0.516473  0.242061  0.789763  1
  F  F19  1  0.488760  0.758855  0.200200  1
  F  F20  1  0.740480  0.499872  0.713219  1
  F  F21  1  0.252499  0.519616  0.285065  1
  F  F22  1  0.406444  0.809000  0.912961  1
  F  F23  1  0.618008  0.180329  0.056855  1
  F  F24  1  0.179712  0.615487  0.560865  1
  F  F25  1  0.813545  0.388102  0.451533  1
  F  F26  1  0.721888  0.021169  0.648818  1
  F  F27  1  0.267400  0.964302  0.352340  1
  F  F28  1  0.962806  0.275065  0.843928  1
  F  F29  1  0.030895  0.730580  0.169577  1
