# generated using pymatgen
data_CuAg5PbNO11
_symmetry_space_group_name_H-M   'P 1'
_cell_length_a   6.92475548
_cell_length_b   7.11659263
_cell_length_c   7.11659238
_cell_angle_alpha   60.03362225
_cell_angle_beta   61.44314880
_cell_angle_gamma   61.44313252
_symmetry_Int_Tables_number   1
_chemical_formula_structural   CuAg5PbNO11
_chemical_formula_sum   'Cu1 Ag5 Pb1 N1 O11'
_cell_volume   253.32907728
_cell_formula_units_Z   1
loop_
 _symmetry_equiv_pos_site_id
 _symmetry_equiv_pos_as_xyz
  1  'x, y, z'
loop_
 _atom_site_type_symbol
 _atom_site_label
 _atom_site_symmetry_multiplicity
 _atom_site_fract_x
 _atom_site_fract_y
 _atom_site_fract_z
 _atom_site_occupancy
  Cu  Cu0  1  0.502337  0.997296  0.997296  1
  Ag  Ag1  1  0.500395  0.497216  0.999897  1
  Ag  Ag2  1  0.500395  0.999897  0.497216  1
  Ag  Ag3  1  0.002096  0.000203  0.496411  1
  Ag  Ag4  1  0.999393  0.500438  0.500438  1
  Ag  Ag5  1  0.002096  0.496411  0.000203  1
  Pb  Pb6  1  0.001871  0.997192  0.997192  1
  N  N7  1  0.495770  0.505635  0.505635  1
  O  O8  1  0.572573  0.129190  0.129190  1
  O  O9  1  0.136994  0.587993  0.142062  1
  O  O10  1  0.169676  0.125400  0.125400  1
  O  O11  1  0.136994  0.142062  0.587993  1
  O  O12  1  0.563517  0.598328  0.290350  1
  O  O13  1  0.563517  0.290350  0.598328  1
  O  O14  1  0.359831  0.629136  0.629136  1
  O  O15  1  0.864081  0.860866  0.405407  1
  O  O16  1  0.864081  0.405407  0.860866  1
  O  O17  1  0.836433  0.870067  0.870067  1
  O  O18  1  0.427949  0.866914  0.866914  1
