# generated using pymatgen
data_Nd11Sm(Si7Br3)2
_symmetry_space_group_name_H-M   'P 1'
_cell_length_a   4.08660200
_cell_length_b   11.72361854
_cell_length_c   16.52676172
_cell_angle_alpha   89.87844957
_cell_angle_beta   90.00000000
_cell_angle_gamma   90.00000000
_symmetry_Int_Tables_number   1
_chemical_formula_structural   Nd11Sm(Si7Br3)2
_chemical_formula_sum   'Nd11 Sm1 Si14 Br6'
_cell_volume   791.79145490
_cell_formula_units_Z   1
loop_
 _symmetry_equiv_pos_site_id
 _symmetry_equiv_pos_as_xyz
  1  'x, y, z'
loop_
 _atom_site_type_symbol
 _atom_site_label
 _atom_site_symmetry_multiplicity
 _atom_site_fract_x
 _atom_site_fract_y
 _atom_site_fract_z
 _atom_site_occupancy
  Nd  Nd0  1  0.500000  0.341994  0.500636  1
  Nd  Nd1  1  0.000000  0.657615  0.999513  1
  Nd  Nd2  1  0.000000  0.641199  0.743429  1
  Nd  Nd3  1  0.500000  0.358531  0.243429  1
  Nd  Nd4  1  0.000000  0.641374  0.256473  1
  Nd  Nd5  1  0.500000  0.065904  0.879774  1
  Nd  Nd6  1  0.000000  0.934734  0.620024  1
  Nd  Nd7  1  0.500000  0.065587  0.119489  1
  Nd  Nd8  1  0.000000  0.934243  0.380228  1
  Nd  Nd9  1  0.500000  0.356012  0.999655  1
  Nd  Nd10  1  0.000000  0.643575  0.500384  1
  Sm  Sm11  1  0.500000  0.359982  0.757502  1
  Si  Si12  1  0.000000  0.151271  0.999508  1
  Si  Si13  1  0.500000  0.849170  0.500169  1
  Si  Si14  1  0.500000  0.567467  0.875862  1
  Si  Si15  1  0.000000  0.430676  0.625017  1
  Si  Si16  1  0.500000  0.567661  0.123445  1
  Si  Si17  1  0.000000  0.432207  0.376589  1
  Si  Si18  1  0.000000  0.253603  0.872241  1
  Si  Si19  1  0.500000  0.746669  0.626682  1
  Si  Si20  1  0.000000  0.253105  0.126216  1
  Si  Si21  1  0.500000  0.746737  0.373732  1
  Si  Si22  1  0.000000  0.457779  0.876029  1
  Si  Si23  1  0.500000  0.541038  0.624085  1
  Si  Si24  1  0.500000  0.541834  0.376487  1
  Si  Si25  1  0.000000  0.458003  0.123399  1
  Br  Br26  1  0.500000  0.110999  0.692965  1
  Br  Br27  1  0.000000  0.891156  0.807344  1
  Br  Br28  1  0.000000  0.138902  0.499856  1
  Br  Br29  1  0.500000  0.860971  0.999962  1
  Br  Br30  1  0.500000  0.108629  0.307262  1
  Br  Br31  1  0.000000  0.891370  0.192613  1
