# generated using pymatgen
data_PuCd2Cu9
_symmetry_space_group_name_H-M   'P 1'
_cell_length_a   5.15999573
_cell_length_b   5.14776350
_cell_length_c   16.13783700
_cell_angle_alpha   90.00000000
_cell_angle_beta   90.00000000
_cell_angle_gamma   119.90954582
_symmetry_Int_Tables_number   1
_chemical_formula_structural   PuCd2Cu9
_chemical_formula_sum   'Pu2 Cd4 Cu18'
_cell_volume   371.56860505
_cell_formula_units_Z   2
loop_
 _symmetry_equiv_pos_site_id
 _symmetry_equiv_pos_as_xyz
  1  'x, y, z'
loop_
 _atom_site_type_symbol
 _atom_site_label
 _atom_site_symmetry_multiplicity
 _atom_site_fract_x
 _atom_site_fract_y
 _atom_site_fract_z
 _atom_site_occupancy
  Pu  Pu0  1  0.666639  0.333335  0.250000  1
  Pu  Pu1  1  0.333361  0.666665  0.750000  1
  Cd  Cd2  1  0.666487  0.333286  0.465015  1
  Cd  Cd3  1  0.333513  0.666714  0.965015  1
  Cd  Cd4  1  0.666487  0.333286  0.034985  1
  Cd  Cd5  1  0.333513  0.666714  0.534985  1
  Cu  Cu6  1  0.333773  0.666774  0.250000  1
  Cu  Cu7  1  0.666227  0.333226  0.750000  1
  Cu  Cu8  1  0.167693  0.831892  0.375778  1
  Cu  Cu9  1  0.167657  0.335920  0.375823  1
  Cu  Cu10  1  0.000613  0.000147  0.750000  1
  Cu  Cu11  1  0.999387  0.999853  0.250000  1
  Cu  Cu12  1  0.000000  0.000000  0.000000  1
  Cu  Cu13  1  0.000000  0.000000  0.500000  1
  Cu  Cu14  1  0.167657  0.335920  0.124177  1
  Cu  Cu15  1  0.832307  0.168108  0.624222  1
  Cu  Cu16  1  0.336155  0.167978  0.624079  1
  Cu  Cu17  1  0.663845  0.832022  0.124079  1
  Cu  Cu18  1  0.167693  0.831892  0.124222  1
  Cu  Cu19  1  0.832343  0.664080  0.875823  1
  Cu  Cu20  1  0.832307  0.168108  0.875778  1
  Cu  Cu21  1  0.832343  0.664080  0.624177  1
  Cu  Cu22  1  0.336155  0.167978  0.875921  1
  Cu  Cu23  1  0.663845  0.832022  0.375921  1
