# generated using pymatgen
data_Tm20Tc3IrPt8
_symmetry_space_group_name_H-M   'P 1'
_cell_length_a   10.83246700
_cell_length_b   10.83246700
_cell_length_c   6.40344800
_cell_angle_alpha   90.00000000
_cell_angle_beta   90.00000000
_cell_angle_gamma   90.00000000
_symmetry_Int_Tables_number   1
_chemical_formula_structural   Tm20Tc3IrPt8
_chemical_formula_sum   'Tm20 Tc3 Ir1 Pt8'
_cell_volume   751.39558075
_cell_formula_units_Z   1
loop_
 _symmetry_equiv_pos_site_id
 _symmetry_equiv_pos_as_xyz
  1  'x, y, z'
loop_
 _atom_site_type_symbol
 _atom_site_label
 _atom_site_symmetry_multiplicity
 _atom_site_fract_x
 _atom_site_fract_y
 _atom_site_fract_z
 _atom_site_occupancy
  Tm  Tm0  1  0.296920  0.085505  0.371867  1
  Tm  Tm1  1  0.297055  0.915239  0.872149  1
  Tm  Tm2  1  0.702945  0.084761  0.872149  1
  Tm  Tm3  1  0.703080  0.914495  0.371867  1
  Tm  Tm4  1  0.584761  0.797055  0.872149  1
  Tm  Tm5  1  0.585505  0.203080  0.371867  1
  Tm  Tm6  1  0.414495  0.796920  0.371867  1
  Tm  Tm7  1  0.415239  0.202945  0.872149  1
  Tm  Tm8  1  0.205067  0.414103  0.630103  1
  Tm  Tm9  1  0.203288  0.585836  0.125619  1
  Tm  Tm10  1  0.796712  0.414164  0.125619  1
  Tm  Tm11  1  0.794933  0.585897  0.630103  1
  Tm  Tm12  1  0.914164  0.703288  0.125619  1
  Tm  Tm13  1  0.914103  0.294933  0.630103  1
  Tm  Tm14  1  0.085897  0.705067  0.630103  1
  Tm  Tm15  1  0.085836  0.296712  0.125619  1
  Tm  Tm16  1  0.000000  0.000000  0.499208  1
  Tm  Tm17  1  0.000000  0.000000  0.998704  1
  Tm  Tm18  1  0.500000  0.500000  0.998704  1
  Tm  Tm19  1  0.500000  0.500000  0.499208  1
  Tc  Tc20  1  0.500000  0.000000  0.126793  1
  Tc  Tc21  1  0.500000  0.000000  0.627359  1
  Tc  Tc22  1  0.000000  0.500000  0.873082  1
  Ir  Ir23  1  0.000000  0.500000  0.378745  1
  Pt  Pt24  1  0.848439  0.153056  0.249871  1
  Pt  Pt25  1  0.848284  0.846409  0.749941  1
  Pt  Pt26  1  0.151716  0.153591  0.749941  1
  Pt  Pt27  1  0.151561  0.846944  0.249871  1
  Pt  Pt28  1  0.653591  0.348284  0.749941  1
  Pt  Pt29  1  0.653056  0.651561  0.249871  1
  Pt  Pt30  1  0.346944  0.348439  0.249871  1
  Pt  Pt31  1  0.346409  0.651716  0.749941  1
