# generated using pymatgen
data_SmDy3Zn2(Co2B)6
_symmetry_space_group_name_H-M   'P 1'
_cell_length_a   5.11093518
_cell_length_b   5.10940980
_cell_length_c   12.66548700
_cell_angle_alpha   90.00000000
_cell_angle_beta   89.99997758
_cell_angle_gamma   120.04919692
_symmetry_Int_Tables_number   1
_chemical_formula_structural   SmDy3Zn2(Co2B)6
_chemical_formula_sum   'Sm1 Dy3 Zn2 Co12 B6'
_cell_volume   286.29128228
_cell_formula_units_Z   1
loop_
 _symmetry_equiv_pos_site_id
 _symmetry_equiv_pos_as_xyz
  1  'x, y, z'
loop_
 _atom_site_type_symbol
 _atom_site_label
 _atom_site_symmetry_multiplicity
 _atom_site_fract_x
 _atom_site_fract_y
 _atom_site_fract_z
 _atom_site_occupancy
  Sm  Sm0  1  0.000000  0.000000  0.000003  1
  Dy  Dy1  1  0.000000  0.000000  0.261289  1
  Dy  Dy2  1  0.000000  0.000000  0.499934  1
  Dy  Dy3  1  0.000000  0.000000  0.738789  1
  Zn  Zn4  1  0.333214  0.666564  0.999986  1
  Zn  Zn5  1  0.666786  0.333436  0.999986  1
  Co  Co6  1  0.500000  0.000001  0.613444  1
  Co  Co7  1  0.500000  0.000000  0.837461  1
  Co  Co8  1  0.500000  0.500000  0.837475  1
  Co  Co9  1  0.500000  0.500000  0.386592  1
  Co  Co10  1  0.000000  0.500000  0.613389  1
  Co  Co11  1  0.000000  0.500000  0.162520  1
  Co  Co12  1  0.000000  0.500000  0.837501  1
  Co  Co13  1  0.500000  0.500000  0.162564  1
  Co  Co14  1  0.500000  0.000000  0.386565  1
  Co  Co15  1  0.500000  0.000000  0.162484  1
  Co  Co16  1  0.500000  0.500000  0.613388  1
  Co  Co17  1  0.000000  0.500000  0.386582  1
  B  B18  1  0.666718  0.333473  0.729914  1
  B  B19  1  0.333282  0.666527  0.729914  1
  B  B20  1  0.333191  0.666775  0.270170  1
  B  B21  1  0.666572  0.333170  0.499942  1
  B  B22  1  0.666808  0.333225  0.270170  1
  B  B23  1  0.333428  0.666829  0.499942  1
