# generated using pymatgen
data_Pr15NdMg3InIr4
_symmetry_space_group_name_H-M   'P 1'
_cell_length_a   10.10299844
_cell_length_b   10.10299899
_cell_length_c   10.10299900
_cell_angle_alpha   59.84590860
_cell_angle_beta   59.84590677
_cell_angle_gamma   59.84591611
_symmetry_Int_Tables_number   1
_chemical_formula_structural   Pr15NdMg3InIr4
_chemical_formula_sum   'Pr15 Nd1 Mg3 In1 Ir4'
_cell_volume   726.63202215
_cell_formula_units_Z   1
loop_
 _symmetry_equiv_pos_site_id
 _symmetry_equiv_pos_as_xyz
  1  'x, y, z'
loop_
 _atom_site_type_symbol
 _atom_site_label
 _atom_site_symmetry_multiplicity
 _atom_site_fract_x
 _atom_site_fract_y
 _atom_site_fract_z
 _atom_site_occupancy
  Pr  Pr0  1  0.348502  0.348502  0.957582  1
  Pr  Pr1  1  0.348502  0.957582  0.348502  1
  Pr  Pr2  1  0.957582  0.348502  0.348502  1
  Pr  Pr3  1  0.810879  0.188123  0.188123  1
  Pr  Pr4  1  0.190221  0.807852  0.807852  1
  Pr  Pr5  1  0.188123  0.810879  0.188123  1
  Pr  Pr6  1  0.807852  0.190221  0.807852  1
  Pr  Pr7  1  0.188123  0.188123  0.810879  1
  Pr  Pr8  1  0.807852  0.807852  0.190221  1
  Pr  Pr9  1  0.940819  0.561185  0.561185  1
  Pr  Pr10  1  0.560438  0.938497  0.938497  1
  Pr  Pr11  1  0.561185  0.940819  0.561185  1
  Pr  Pr12  1  0.938497  0.560438  0.938497  1
  Pr  Pr13  1  0.561185  0.561185  0.940819  1
  Pr  Pr14  1  0.938497  0.938497  0.560438  1
  Nd  Nd15  1  0.345551  0.345551  0.345551  1
  Mg  Mg16  1  0.577633  0.577633  0.266282  1
  Mg  Mg17  1  0.577633  0.266282  0.577633  1
  Mg  Mg18  1  0.266282  0.577633  0.577633  1
  In  In19  1  0.581026  0.581026  0.581026  1
  Ir  Ir20  1  0.141836  0.141836  0.141836  1
  Ir  Ir21  1  0.143034  0.143034  0.575718  1
  Ir  Ir22  1  0.143034  0.575718  0.143034  1
  Ir  Ir23  1  0.575718  0.143034  0.143034  1
