# generated using pymatgen
data_Y8In2IrPt
_symmetry_space_group_name_H-M   'P 1'
_cell_length_a   9.73202683
_cell_length_b   9.72497767
_cell_length_c   9.73202700
_cell_angle_alpha   60.02395772
_cell_angle_beta   59.99707780
_cell_angle_gamma   60.02396124
_symmetry_Int_Tables_number   1
_chemical_formula_structural   Y8In2IrPt
_chemical_formula_sum   'Y16 In4 Ir2 Pt2'
_cell_volume   651.52007565
_cell_formula_units_Z   2
loop_
 _symmetry_equiv_pos_site_id
 _symmetry_equiv_pos_as_xyz
  1  'x, y, z'
loop_
 _atom_site_type_symbol
 _atom_site_label
 _atom_site_symmetry_multiplicity
 _atom_site_fract_x
 _atom_site_fract_y
 _atom_site_fract_z
 _atom_site_occupancy
  Y  Y0  1  0.807922  0.192078  0.807922  1
  Y  Y1  1  0.938246  0.562607  0.559571  1
  Y  Y2  1  0.561594  0.938406  0.561594  1
  Y  Y3  1  0.811910  0.191178  0.191040  1
  Y  Y4  1  0.190305  0.809695  0.190305  1
  Y  Y5  1  0.349059  0.948784  0.349059  1
  Y  Y6  1  0.938246  0.939575  0.559571  1
  Y  Y7  1  0.559571  0.939575  0.938246  1
  Y  Y8  1  0.191040  0.805871  0.811910  1
  Y  Y9  1  0.347409  0.350583  0.951426  1
  Y  Y10  1  0.559571  0.562607  0.938246  1
  Y  Y11  1  0.349059  0.353099  0.349059  1
  Y  Y12  1  0.191040  0.191178  0.811910  1
  Y  Y13  1  0.811910  0.805871  0.191040  1
  Y  Y14  1  0.939762  0.560238  0.939762  1
  Y  Y15  1  0.951426  0.350583  0.347409  1
  In  In16  1  0.583150  0.583363  0.583150  1
  In  In17  1  0.583150  0.250339  0.583150  1
  In  In18  1  0.583671  0.582910  0.250510  1
  In  In19  1  0.250510  0.582910  0.583671  1
  Ir  Ir20  1  0.142216  0.574856  0.142216  1
  Ir  Ir21  1  0.142216  0.140712  0.142216  1
  Pt  Pt22  1  0.142882  0.141492  0.574134  1
  Pt  Pt23  1  0.574134  0.141492  0.142882  1
