# generated using pymatgen
data_Ho4ErTh3(MgRu)2
_symmetry_space_group_name_H-M   'P 1'
_cell_length_a   9.71690521
_cell_length_b   9.79221201
_cell_length_c   9.79377498
_cell_angle_alpha   59.48662194
_cell_angle_beta   60.24869423
_cell_angle_gamma   60.26468496
_symmetry_Int_Tables_number   1
_chemical_formula_structural   Ho4ErTh3(MgRu)2
_chemical_formula_sum   'Ho8 Er2 Th6 Mg4 Ru4'
_cell_volume   658.85803842
_cell_formula_units_Z   2
loop_
 _symmetry_equiv_pos_site_id
 _symmetry_equiv_pos_as_xyz
  1  'x, y, z'
loop_
 _atom_site_type_symbol
 _atom_site_label
 _atom_site_symmetry_multiplicity
 _atom_site_fract_x
 _atom_site_fract_y
 _atom_site_fract_z
 _atom_site_occupancy
  Ho  Ho0  1  0.189104  0.189104  0.810896  1
  Ho  Ho1  1  0.810896  0.810896  0.189104  1
  Ho  Ho2  1  0.933037  0.566963  0.566963  1
  Ho  Ho3  1  0.566963  0.933037  0.933037  1
  Ho  Ho4  1  0.563826  0.936174  0.563826  1
  Ho  Ho5  1  0.936174  0.563826  0.936174  1
  Ho  Ho6  1  0.563803  0.563803  0.936197  1
  Ho  Ho7  1  0.936197  0.936197  0.563803  1
  Er  Er8  1  0.189284  0.810716  0.189284  1
  Er  Er9  1  0.810716  0.189284  0.810716  1
  Th  Th10  1  0.342189  0.349351  0.349000  1
  Th  Th11  1  0.349351  0.342189  0.959460  1
  Th  Th12  1  0.349000  0.959460  0.342189  1
  Th  Th13  1  0.959460  0.349000  0.349351  1
  Th  Th14  1  0.816422  0.183578  0.183578  1
  Th  Th15  1  0.183578  0.816422  0.816422  1
  Mg  Mg16  1  0.582167  0.579204  0.579342  1
  Mg  Mg17  1  0.579204  0.582167  0.259287  1
  Mg  Mg18  1  0.579342  0.259287  0.582167  1
  Mg  Mg19  1  0.259287  0.579342  0.579204  1
  Ru  Ru20  1  0.129278  0.147781  0.148220  1
  Ru  Ru21  1  0.147781  0.129278  0.574718  1
  Ru  Ru22  1  0.148220  0.574718  0.129278  1
  Ru  Ru23  1  0.574718  0.148220  0.147781  1
