# generated using pymatgen
data_TbPr2Ho3(IrO7)2
_symmetry_space_group_name_H-M   'P 1'
_cell_length_a   6.46782848
_cell_length_b   6.47452659
_cell_length_c   7.51266900
_cell_angle_alpha   90.00000000
_cell_angle_beta   90.00000000
_cell_angle_gamma   109.79071003
_symmetry_Int_Tables_number   1
_chemical_formula_structural   TbPr2Ho3(IrO7)2
_chemical_formula_sum   'Tb1 Pr2 Ho3 Ir2 O14'
_cell_volume   296.01976200
_cell_formula_units_Z   1
loop_
 _symmetry_equiv_pos_site_id
 _symmetry_equiv_pos_as_xyz
  1  'x, y, z'
loop_
 _atom_site_type_symbol
 _atom_site_label
 _atom_site_symmetry_multiplicity
 _atom_site_fract_x
 _atom_site_fract_y
 _atom_site_fract_z
 _atom_site_occupancy
  Tb  Tb0  1  0.065690  0.516973  0.250000  1
  Pr  Pr1  1  0.998915  0.999446  0.999362  1
  Pr  Pr2  1  0.998915  0.999446  0.500638  1
  Ho  Ho3  1  0.484527  0.936966  0.750000  1
  Ho  Ho4  1  0.515558  0.062923  0.250000  1
  Ho  Ho5  1  0.935937  0.484774  0.750000  1
  Ir  Ir6  1  0.499280  0.499158  0.999381  1
  Ir  Ir7  1  0.499280  0.499158  0.500619  1
  O  O8  1  0.593972  0.593379  0.750000  1
  O  O9  1  0.412367  0.409111  0.250000  1
  O  O10  1  0.837603  0.122252  0.750000  1
  O  O11  1  0.161614  0.881926  0.250000  1
  O  O12  1  0.121973  0.837794  0.750000  1
  O  O13  1  0.877346  0.160256  0.250000  1
  O  O14  1  0.440341  0.179726  0.965501  1
  O  O15  1  0.558162  0.819477  0.465902  1
  O  O16  1  0.180115  0.438422  0.963446  1
  O  O17  1  0.819893  0.560592  0.467020  1
  O  O18  1  0.440341  0.179726  0.534499  1
  O  O19  1  0.558162  0.819477  0.034098  1
  O  O20  1  0.819893  0.560592  0.032980  1
  O  O21  1  0.180115  0.438422  0.536554  1
