# generated using pymatgen
data_PrNd4Tm3Au4
_symmetry_space_group_name_H-M   'P 1'
_cell_length_a   5.04053200
_cell_length_b   7.30398062
_cell_length_c   9.14930000
_cell_angle_alpha   90.07712675
_cell_angle_beta   90.00000000
_cell_angle_gamma   90.00000000
_symmetry_Int_Tables_number   1
_chemical_formula_structural   PrNd4Tm3Au4
_chemical_formula_sum   'Pr1 Nd4 Tm3 Au4'
_cell_volume   336.83984813
_cell_formula_units_Z   1
loop_
 _symmetry_equiv_pos_site_id
 _symmetry_equiv_pos_as_xyz
  1  'x, y, z'
loop_
 _atom_site_type_symbol
 _atom_site_label
 _atom_site_symmetry_multiplicity
 _atom_site_fract_x
 _atom_site_fract_y
 _atom_site_fract_z
 _atom_site_occupancy
  Pr  Pr0  1  0.250000  0.489708  0.177378  1
  Nd  Nd1  1  0.750000  0.652256  0.414557  1
  Nd  Nd2  1  0.250000  0.994713  0.324130  1
  Nd  Nd3  1  0.750000  0.508799  0.822608  1
  Nd  Nd4  1  0.750000  0.010584  0.679104  1
  Tm  Tm5  1  0.250000  0.851868  0.919924  1
  Tm  Tm6  1  0.250000  0.349291  0.584805  1
  Tm  Tm7  1  0.750000  0.149842  0.080254  1
  Au  Au8  1  0.250000  0.244043  0.901647  1
  Au  Au9  1  0.250000  0.745925  0.606855  1
  Au  Au10  1  0.750000  0.758698  0.086698  1
  Au  Au11  1  0.750000  0.244274  0.402040  1
