# generated using pymatgen
data_AcHo3P7Ir8
_symmetry_space_group_name_H-M   'P 1'
_cell_length_a   3.95150900
_cell_length_b   12.76335765
_cell_length_c   13.15956000
_cell_angle_alpha   80.88393290
_cell_angle_beta   90.00000000
_cell_angle_gamma   90.00000000
_symmetry_Int_Tables_number   1
_chemical_formula_structural   AcHo3P7Ir8
_chemical_formula_sum   'Ac2 Ho6 P14 Ir16'
_cell_volume   655.31325744
_cell_formula_units_Z   2
loop_
 _symmetry_equiv_pos_site_id
 _symmetry_equiv_pos_as_xyz
  1  'x, y, z'
loop_
 _atom_site_type_symbol
 _atom_site_label
 _atom_site_symmetry_multiplicity
 _atom_site_fract_x
 _atom_site_fract_y
 _atom_site_fract_z
 _atom_site_occupancy
  Ac  Ac0  1  0.750000  0.893809  0.211856  1
  Ac  Ac1  1  0.250000  0.282361  0.105225  1
  Ho  Ho2  1  0.750000  0.791410  0.560643  1
  Ho  Ho3  1  0.250000  0.208101  0.441919  1
  Ho  Ho4  1  0.750000  0.478793  0.706499  1
  Ho  Ho5  1  0.250000  0.520207  0.296079  1
  Ho  Ho6  1  0.750000  0.721121  0.898299  1
  Ho  Ho7  1  0.250000  0.102477  0.785691  1
  P  P8  1  0.250000  0.905645  0.414738  1
  P  P9  1  0.750000  0.475648  0.130073  1
  P  P10  1  0.250000  0.528379  0.869917  1
  P  P11  1  0.750000  0.092656  0.588076  1
  P  P12  1  0.250000  0.742044  0.076528  1
  P  P13  1  0.750000  0.256828  0.911927  1
  P  P14  1  0.750000  0.159564  0.286409  1
  P  P15  1  0.250000  0.842159  0.716698  1
  P  P16  1  0.250000  0.052622  0.094879  1
  P  P17  1  0.750000  0.947043  0.895574  1
  P  P18  1  0.250000  0.311232  0.688723  1
  P  P19  1  0.750000  0.678124  0.315739  1
  P  P20  1  0.250000  0.606846  0.569785  1
  P  P21  1  0.750000  0.392273  0.437180  1
  Ir  Ir22  1  0.250000  0.990532  0.575862  1
  Ir  Ir23  1  0.750000  0.010911  0.424659  1
  Ir  Ir24  1  0.250000  0.662546  0.731851  1
  Ir  Ir25  1  0.750000  0.342105  0.275462  1
  Ir  Ir26  1  0.250000  0.555287  0.046109  1
  Ir  Ir27  1  0.750000  0.453868  0.948012  1
  Ir  Ir28  1  0.250000  0.066002  0.273505  1
  Ir  Ir29  1  0.750000  0.938254  0.724958  1
  Ir  Ir30  1  0.250000  0.420797  0.525822  1
  Ir  Ir31  1  0.750000  0.575710  0.480860  1
  Ir  Ir32  1  0.250000  0.915323  0.990907  1
  Ir  Ir33  1  0.750000  0.084523  0.994281  1
  Ir  Ir34  1  0.250000  0.725558  0.400984  1
  Ir  Ir35  1  0.750000  0.269479  0.606004  1
  Ir  Ir36  1  0.250000  0.342653  0.855383  1
  Ir  Ir37  1  0.750000  0.657118  0.142884  1
