# generated using pymatgen
data_HoZr(Co5P3)2
_symmetry_space_group_name_H-M   'P 1'
_cell_length_a   3.62480200
_cell_length_b   10.20769200
_cell_length_c   11.67803200
_cell_angle_alpha   90.00000000
_cell_angle_beta   90.00000000
_cell_angle_gamma   90.00000000
_symmetry_Int_Tables_number   1
_chemical_formula_structural   HoZr(Co5P3)2
_chemical_formula_sum   'Ho2 Zr2 Co20 P12'
_cell_volume   432.09725487
_cell_formula_units_Z   2
loop_
 _symmetry_equiv_pos_site_id
 _symmetry_equiv_pos_as_xyz
  1  'x, y, z'
loop_
 _atom_site_type_symbol
 _atom_site_label
 _atom_site_symmetry_multiplicity
 _atom_site_fract_x
 _atom_site_fract_y
 _atom_site_fract_z
 _atom_site_occupancy
  Ho  Ho0  1  0.750000  0.417487  0.296894  1
  Ho  Ho1  1  0.750000  0.082513  0.796894  1
  Zr  Zr2  1  0.250000  0.581863  0.701408  1
  Zr  Zr3  1  0.250000  0.918137  0.201408  1
  Co  Co4  1  0.250000  0.718627  0.993344  1
  Co  Co5  1  0.250000  0.781373  0.493344  1
  Co  Co6  1  0.750000  0.282258  0.008678  1
  Co  Co7  1  0.750000  0.217742  0.508678  1
  Co  Co8  1  0.250000  0.409631  0.490159  1
  Co  Co9  1  0.250000  0.090369  0.990159  1
  Co  Co10  1  0.750000  0.593347  0.515105  1
  Co  Co11  1  0.750000  0.906653  0.015105  1
  Co  Co12  1  0.250000  0.221619  0.177781  1
  Co  Co13  1  0.250000  0.278381  0.677781  1
  Co  Co14  1  0.750000  0.776493  0.822682  1
  Co  Co15  1  0.750000  0.723507  0.322682  1
  Co  Co16  1  0.250000  0.880862  0.698874  1
  Co  Co17  1  0.250000  0.619138  0.198874  1
  Co  Co18  1  0.750000  0.114254  0.299517  1
  Co  Co19  1  0.750000  0.385746  0.799517  1
  Co  Co20  1  0.250000  0.469804  0.929025  1
  Co  Co21  1  0.250000  0.030196  0.429025  1
  Co  Co22  1  0.750000  0.534800  0.067062  1
  Co  Co23  1  0.750000  0.965200  0.567062  1
  P  P24  1  0.250000  0.419269  0.110961  1
  P  P25  1  0.250000  0.080731  0.610961  1
  P  P26  1  0.750000  0.581392  0.884723  1
  P  P27  1  0.750000  0.918608  0.384723  1
  P  P28  1  0.250000  0.269902  0.871570  1
  P  P29  1  0.250000  0.230098  0.371570  1
  P  P30  1  0.750000  0.732493  0.131245  1
  P  P31  1  0.750000  0.767507  0.631245  1
  P  P32  1  0.250000  0.601719  0.390802  1
  P  P33  1  0.250000  0.898281  0.890802  1
  P  P34  1  0.750000  0.400221  0.610173  1
  P  P35  1  0.750000  0.099779  0.110173  1
