# generated using pymatgen
data_Cr2GaPt5
_symmetry_space_group_name_H-M   'P 1'
_cell_length_a   5.51830827
_cell_length_b   5.51830754
_cell_length_c   3.99969500
_cell_angle_alpha   90.00000000
_cell_angle_beta   90.00000000
_cell_angle_gamma   95.12860413
_symmetry_Int_Tables_number   1
_chemical_formula_structural   Cr2GaPt5
_chemical_formula_sum   'Cr2 Ga1 Pt5'
_cell_volume   121.30999152
_cell_formula_units_Z   1
loop_
 _symmetry_equiv_pos_site_id
 _symmetry_equiv_pos_as_xyz
  1  'x, y, z'
loop_
 _atom_site_type_symbol
 _atom_site_label
 _atom_site_symmetry_multiplicity
 _atom_site_fract_x
 _atom_site_fract_y
 _atom_site_fract_z
 _atom_site_occupancy
  Cr  Cr0  1  0.723949  0.276051  0.500000  1
  Cr  Cr1  1  0.276051  0.723949  0.500000  1
  Ga  Ga2  1  0.000000  0.000000  0.000000  1
  Pt  Pt3  1  0.500000  0.500000  0.000000  1
  Pt  Pt4  1  0.000000  0.500000  0.000000  1
  Pt  Pt5  1  0.500000  0.000000  0.000000  1
  Pt  Pt6  1  0.221406  0.221406  0.500000  1
  Pt  Pt7  1  0.778594  0.778594  0.500000  1
