# generated using pymatgen
data_Yb8Ga(CuPd7)3
_symmetry_space_group_name_H-M   'P 1'
_cell_length_a   8.25802034
_cell_length_b   8.25802034
_cell_length_c   8.25802034
_cell_angle_alpha   89.95392576
_cell_angle_beta   89.95392576
_cell_angle_gamma   90.04607424
_symmetry_Int_Tables_number   1
_chemical_formula_structural   Yb8Ga(CuPd7)3
_chemical_formula_sum   'Yb8 Ga1 Cu3 Pd21'
_cell_volume   563.15432330
_cell_formula_units_Z   1
loop_
 _symmetry_equiv_pos_site_id
 _symmetry_equiv_pos_as_xyz
  1  'x, y, z'
loop_
 _atom_site_type_symbol
 _atom_site_label
 _atom_site_symmetry_multiplicity
 _atom_site_fract_x
 _atom_site_fract_y
 _atom_site_fract_z
 _atom_site_occupancy
  Yb  Yb0  1  0.252526  0.252526  0.747474  1
  Yb  Yb1  1  0.249934  0.744427  0.247157  1
  Yb  Yb2  1  0.752843  0.249934  0.255573  1
  Yb  Yb3  1  0.744427  0.752843  0.750066  1
  Yb  Yb4  1  0.750090  0.750090  0.249910  1
  Yb  Yb5  1  0.747560  0.247085  0.744301  1
  Yb  Yb6  1  0.255699  0.747560  0.752915  1
  Yb  Yb7  1  0.247085  0.255699  0.252440  1
  Ga  Ga8  1  0.996058  0.996058  0.003942  1
  Cu  Cu9  1  0.999035  0.499508  0.732002  1
  Cu  Cu10  1  0.499508  0.267998  0.000965  1
  Cu  Cu11  1  0.267998  0.999035  0.500492  1
  Pd  Pd12  1  0.500961  0.495310  0.747983  1
  Pd  Pd13  1  0.495310  0.252017  0.499039  1
  Pd  Pd14  1  0.252017  0.500961  0.504690  1
  Pd  Pd15  1  0.501124  0.495397  0.252946  1
  Pd  Pd16  1  0.495397  0.747054  0.498876  1
  Pd  Pd17  1  0.747054  0.501124  0.504603  1
  Pd  Pd18  1  0.013163  0.998876  0.704045  1
  Pd  Pd19  1  0.998876  0.295955  0.986837  1
  Pd  Pd20  1  0.295955  0.013163  0.001124  1
  Pd  Pd21  1  0.014067  0.998925  0.303889  1
  Pd  Pd22  1  0.998925  0.696111  0.985933  1
  Pd  Pd23  1  0.696111  0.014067  0.001075  1
  Pd  Pd24  1  0.001861  0.266481  0.507165  1
  Pd  Pd25  1  0.492835  0.001861  0.733519  1
  Pd  Pd26  1  0.266481  0.492835  0.998139  1
  Pd  Pd27  1  0.997861  0.500277  0.257696  1
  Pd  Pd28  1  0.500277  0.742304  0.002139  1
  Pd  Pd29  1  0.001725  0.732510  0.507576  1
  Pd  Pd30  1  0.492424  0.001725  0.267490  1
  Pd  Pd31  1  0.742304  0.997861  0.499723  1
  Pd  Pd32  1  0.732510  0.492424  0.998275  1
