# generated using pymatgen
data_Dy16InAg(HgRh2)2
_symmetry_space_group_name_H-M   'P 1'
_cell_length_a   9.60407706
_cell_length_b   9.57102532
_cell_length_c   9.59601100
_cell_angle_alpha   59.91360938
_cell_angle_beta   60.02778182
_cell_angle_gamma   59.90093320
_symmetry_Int_Tables_number   1
_chemical_formula_structural   Dy16InAg(HgRh2)2
_chemical_formula_sum   'Dy16 In1 Ag1 Hg2 Rh4'
_cell_volume   622.97489610
_cell_formula_units_Z   1
loop_
 _symmetry_equiv_pos_site_id
 _symmetry_equiv_pos_as_xyz
  1  'x, y, z'
loop_
 _atom_site_type_symbol
 _atom_site_label
 _atom_site_symmetry_multiplicity
 _atom_site_fract_x
 _atom_site_fract_y
 _atom_site_fract_z
 _atom_site_occupancy
  Dy  Dy0  1  0.190217  0.183358  0.813213  1
  Dy  Dy1  1  0.601719  0.599776  0.198810  1
  Dy  Dy2  1  0.437681  0.060873  0.440105  1
  Dy  Dy3  1  0.439946  0.438784  0.060635  1
  Dy  Dy4  1  0.813301  0.184324  0.814681  1
  Dy  Dy5  1  0.189435  0.811710  0.185686  1
  Dy  Dy6  1  0.437681  0.060873  0.061342  1
  Dy  Dy7  1  0.189435  0.811710  0.813168  1
  Dy  Dy8  1  0.058916  0.439343  0.060063  1
  Dy  Dy9  1  0.813327  0.813232  0.186720  1
  Dy  Dy10  1  0.195307  0.601600  0.601546  1
  Dy  Dy11  1  0.058916  0.439343  0.441678  1
  Dy  Dy12  1  0.060271  0.061365  0.439182  1
  Dy  Dy13  1  0.813301  0.184324  0.187695  1
  Dy  Dy14  1  0.603919  0.196129  0.599977  1
  Dy  Dy15  1  0.601719  0.599776  0.599695  1
  In  In16  1  0.828428  0.507856  0.831858  1
  Ag  Ag17  1  0.499795  0.833114  0.833545  1
  Hg  Hg18  1  0.833138  0.835810  0.835919  1
  Hg  Hg19  1  0.833138  0.835810  0.495134  1
  Rh  Rh20  1  0.393253  0.821566  0.392591  1
  Rh  Rh21  1  0.392347  0.392969  0.392704  1
  Rh  Rh22  1  0.822464  0.393389  0.392074  1
  Rh  Rh23  1  0.392347  0.392969  0.821981  1
