# generated using pymatgen
data_LiAcSiIr2
_symmetry_space_group_name_H-M   'P 1'
_cell_length_a   4.20573800
_cell_length_b   4.20573800
_cell_length_c   10.78220600
_cell_angle_alpha   90.00000000
_cell_angle_beta   90.00000000
_cell_angle_gamma   90.00000000
_symmetry_Int_Tables_number   1
_chemical_formula_structural   LiAcSiIr2
_chemical_formula_sum   'Li2 Ac2 Si2 Ir4'
_cell_volume   190.71816254
_cell_formula_units_Z   2
loop_
 _symmetry_equiv_pos_site_id
 _symmetry_equiv_pos_as_xyz
  1  'x, y, z'
loop_
 _atom_site_type_symbol
 _atom_site_label
 _atom_site_symmetry_multiplicity
 _atom_site_fract_x
 _atom_site_fract_y
 _atom_site_fract_z
 _atom_site_occupancy
  Li  Li0  1  0.000000  0.000000  0.500000  1
  Li  Li1  1  0.500000  0.500000  0.500000  1
  Ac  Ac2  1  0.000000  0.500000  0.259681  1
  Ac  Ac3  1  0.500000  0.000000  0.740319  1
  Si  Si4  1  0.000000  0.500000  0.885743  1
  Si  Si5  1  0.500000  0.000000  0.114257  1
  Ir  Ir6  1  0.000000  0.000000  0.000000  1
  Ir  Ir7  1  0.500000  0.500000  0.000000  1
  Ir  Ir8  1  0.000000  0.500000  0.665634  1
  Ir  Ir9  1  0.500000  0.000000  0.334366  1
