# generated using pymatgen
data_Nd4TcRu6W
_symmetry_space_group_name_H-M   'P 1'
_cell_length_a   5.22411715
_cell_length_b   5.22411782
_cell_length_c   9.25764600
_cell_angle_alpha   90.00000000
_cell_angle_beta   90.00000000
_cell_angle_gamma   113.72286755
_symmetry_Int_Tables_number   1
_chemical_formula_structural   Nd4TcRu6W
_chemical_formula_sum   'Nd4 Tc1 Ru6 W1'
_cell_volume   231.30540659
_cell_formula_units_Z   1
loop_
 _symmetry_equiv_pos_site_id
 _symmetry_equiv_pos_as_xyz
  1  'x, y, z'
loop_
 _atom_site_type_symbol
 _atom_site_label
 _atom_site_symmetry_multiplicity
 _atom_site_fract_x
 _atom_site_fract_y
 _atom_site_fract_z
 _atom_site_occupancy
  Nd  Nd0  1  0.328700  0.671300  0.434933  1
  Nd  Nd1  1  0.665984  0.334016  0.568743  1
  Nd  Nd2  1  0.665984  0.334016  0.931257  1
  Nd  Nd3  1  0.328700  0.671300  0.065067  1
  Tc  Tc4  1  0.164456  0.835544  0.750000  1
  Ru  Ru5  1  0.996765  0.003235  0.499821  1
  Ru  Ru6  1  0.996765  0.003235  0.000179  1
  Ru  Ru7  1  0.828850  0.646493  0.250000  1
  Ru  Ru8  1  0.353507  0.171150  0.250000  1
  Ru  Ru9  1  0.164152  0.341714  0.750000  1
  Ru  Ru10  1  0.658286  0.835848  0.750000  1
  W  W11  1  0.847851  0.152149  0.250000  1
