# generated using pymatgen
data_Ta6Co6Ge
_symmetry_space_group_name_H-M   'P 1'
_cell_length_a   4.91600179
_cell_length_b   4.91600311
_cell_length_c   9.12581537
_cell_angle_alpha   74.37465484
_cell_angle_beta   74.37465043
_cell_angle_gamma   59.99999952
_symmetry_Int_Tables_number   1
_chemical_formula_structural   Ta6Co6Ge
_chemical_formula_sum   'Ta6 Co6 Ge1'
_cell_volume   181.52455268
_cell_formula_units_Z   1
loop_
 _symmetry_equiv_pos_site_id
 _symmetry_equiv_pos_as_xyz
  1  'x, y, z'
loop_
 _atom_site_type_symbol
 _atom_site_label
 _atom_site_symmetry_multiplicity
 _atom_site_fract_x
 _atom_site_fract_y
 _atom_site_fract_z
 _atom_site_occupancy
  Ta  Ta0  1  0.169160  0.169160  0.492518  1
  Ta  Ta1  1  0.830840  0.830840  0.507482  1
  Ta  Ta2  1  0.346608  0.346608  0.960178  1
  Ta  Ta3  1  0.653392  0.653392  0.039822  1
  Ta  Ta4  1  0.449864  0.449864  0.650409  1
  Ta  Ta5  1  0.550136  0.550136  0.349591  1
  Co  Co6  1  0.588592  0.090052  0.231303  1
  Co  Co7  1  0.090052  0.090052  0.231303  1
  Co  Co8  1  0.090052  0.588592  0.231303  1
  Co  Co9  1  0.411408  0.909948  0.768697  1
  Co  Co10  1  0.909948  0.909948  0.768697  1
  Co  Co11  1  0.909948  0.411408  0.768697  1
  Ge  Ge12  1  0.000000  0.000000  0.000000  1
