# generated using pymatgen
data_SmErMgNi7B2
_symmetry_space_group_name_H-M   'P 1'
_cell_length_a   5.00496800
_cell_length_b   5.00496762
_cell_length_c   14.30176900
_cell_angle_alpha   90.00000000
_cell_angle_beta   90.00000000
_cell_angle_gamma   120.00000248
_symmetry_Int_Tables_number   1
_chemical_formula_structural   SmErMgNi7B2
_chemical_formula_sum   'Sm2 Er2 Mg2 Ni14 B4'
_cell_volume   310.25797786
_cell_formula_units_Z   2
loop_
 _symmetry_equiv_pos_site_id
 _symmetry_equiv_pos_as_xyz
  1  'x, y, z'
loop_
 _atom_site_type_symbol
 _atom_site_label
 _atom_site_symmetry_multiplicity
 _atom_site_fract_x
 _atom_site_fract_y
 _atom_site_fract_z
 _atom_site_occupancy
  Sm  Sm0  1  0.666667  0.333333  0.530020  1
  Sm  Sm1  1  0.333333  0.666667  0.030020  1
  Er  Er2  1  0.666667  0.333333  0.756232  1
  Er  Er3  1  0.333333  0.666667  0.256232  1
  Mg  Mg4  1  0.333333  0.666667  0.466153  1
  Mg  Mg5  1  0.666667  0.333333  0.966153  1
  Ni  Ni6  1  0.835081  0.164919  0.351544  1
  Ni  Ni7  1  0.835081  0.670162  0.351544  1
  Ni  Ni8  1  0.000000  0.000000  0.998593  1
  Ni  Ni9  1  0.000000  0.000000  0.498593  1
  Ni  Ni10  1  0.833896  0.667791  0.148888  1
  Ni  Ni11  1  0.166104  0.833896  0.648888  1
  Ni  Ni12  1  0.667791  0.833896  0.648888  1
  Ni  Ni13  1  0.332209  0.166104  0.148888  1
  Ni  Ni14  1  0.833896  0.166104  0.148888  1
  Ni  Ni15  1  0.164919  0.329838  0.851544  1
  Ni  Ni16  1  0.164919  0.835081  0.851544  1
  Ni  Ni17  1  0.166104  0.332209  0.648888  1
  Ni  Ni18  1  0.670162  0.835081  0.851544  1
  Ni  Ni19  1  0.329838  0.164919  0.351544  1
  B  B20  1  0.666667  0.333333  0.250122  1
  B  B21  1  0.333333  0.666667  0.750122  1
  B  B22  1  0.000000  0.000000  0.747585  1
  B  B23  1  0.000000  0.000000  0.247585  1
