# generated using pymatgen
data_Pr20Si5Ir4Au3
_symmetry_space_group_name_H-M   'P 1'
_cell_length_a   8.05692015
_cell_length_b   9.01990544
_cell_length_c   12.42766099
_cell_angle_alpha   90.84976921
_cell_angle_beta   89.85375507
_cell_angle_gamma   90.31015282
_symmetry_Int_Tables_number   1
_chemical_formula_structural   Pr20Si5Ir4Au3
_chemical_formula_sum   'Pr20 Si5 Ir4 Au3'
_cell_volume   903.03583475
_cell_formula_units_Z   1
loop_
 _symmetry_equiv_pos_site_id
 _symmetry_equiv_pos_as_xyz
  1  'x, y, z'
loop_
 _atom_site_type_symbol
 _atom_site_label
 _atom_site_symmetry_multiplicity
 _atom_site_fract_x
 _atom_site_fract_y
 _atom_site_fract_z
 _atom_site_occupancy
  Pr  Pr0  1  0.672884  0.740810  0.718168  1
  Pr  Pr1  1  0.331857  0.257325  0.280732  1
  Pr  Pr2  1  0.168709  0.259735  0.782976  1
  Pr  Pr3  1  0.830058  0.747507  0.215557  1
  Pr  Pr4  1  0.142136  0.739782  0.805701  1
  Pr  Pr5  1  0.853846  0.256401  0.195498  1
  Pr  Pr6  1  0.638292  0.260455  0.694891  1
  Pr  Pr7  1  0.365603  0.745195  0.301261  1
  Pr  Pr8  1  0.542218  0.743341  0.001577  1
  Pr  Pr9  1  0.462592  0.252762  0.000948  1
  Pr  Pr10  1  0.041289  0.259737  0.499489  1
  Pr  Pr11  1  0.957825  0.740601  0.499541  1
  Pr  Pr12  1  0.818606  0.463578  0.920642  1
  Pr  Pr13  1  0.182206  0.535168  0.079942  1
  Pr  Pr14  1  0.318849  0.539640  0.581847  1
  Pr  Pr15  1  0.181093  0.964419  0.084680  1
  Pr  Pr16  1  0.680526  0.463402  0.418784  1
  Pr  Pr17  1  0.822954  0.034830  0.921081  1
  Pr  Pr18  1  0.672230  0.035833  0.411471  1
  Pr  Pr19  1  0.323940  0.965086  0.583711  1
  Si  Si20  1  0.057356  0.505870  0.328329  1
  Si  Si21  1  0.555651  0.005329  0.168258  1
  Si  Si22  1  0.941944  0.494510  0.671712  1
  Si  Si23  1  0.559968  0.494451  0.170577  1
  Si  Si24  1  0.440163  0.504101  0.828932  1
  Ir  Ir25  1  0.929642  0.749360  0.991869  1
  Ir  Ir26  1  0.071338  0.248507  0.008232  1
  Ir  Ir27  1  0.425610  0.250149  0.508087  1
  Ir  Ir28  1  0.573979  0.752013  0.492260  1
  Au  Au29  1  0.936972  0.009624  0.668456  1
  Au  Au30  1  0.061911  0.990924  0.334584  1
  Au  Au31  1  0.437752  0.989554  0.830207  1
