# generated using pymatgen
data_YbSm2Dy5(B6Os)4
_symmetry_space_group_name_H-M   'P 1'
_cell_length_a   3.67401000
_cell_length_b   9.19193001
_cell_length_c   11.58981332
_cell_angle_alpha   90.08101564
_cell_angle_beta   90.00000000
_cell_angle_gamma   90.00000000
_symmetry_Int_Tables_number   1
_chemical_formula_structural   YbSm2Dy5(B6Os)4
_chemical_formula_sum   'Yb1 Sm2 Dy5 B24 Os4'
_cell_volume   391.40200789
_cell_formula_units_Z   1
loop_
 _symmetry_equiv_pos_site_id
 _symmetry_equiv_pos_as_xyz
  1  'x, y, z'
loop_
 _atom_site_type_symbol
 _atom_site_label
 _atom_site_symmetry_multiplicity
 _atom_site_fract_x
 _atom_site_fract_y
 _atom_site_fract_z
 _atom_site_occupancy
  Yb  Yb0  1  0.000000  0.823043  0.086031  1
  Sm  Sm1  1  0.000000  0.322360  0.413241  1
  Sm  Sm2  1  0.000000  0.677988  0.585912  1
  Dy  Dy3  1  0.000000  0.176288  0.915265  1
  Dy  Dy4  1  0.000000  0.942793  0.369933  1
  Dy  Dy5  1  0.000000  0.056300  0.628343  1
  Dy  Dy6  1  0.000000  0.443786  0.127814  1
  Dy  Dy7  1  0.000000  0.558267  0.873120  1
  B  B8  1  0.500000  0.554262  0.431671  1
  B  B9  1  0.500000  0.445015  0.569103  1
  B  B10  1  0.500000  0.053430  0.067068  1
  B  B11  1  0.500000  0.946161  0.933142  1
  B  B12  1  0.500000  0.747973  0.417341  1
  B  B13  1  0.500000  0.251339  0.582435  1
  B  B14  1  0.500000  0.247502  0.080600  1
  B  B15  1  0.500000  0.753073  0.919479  1
  B  B16  1  0.500000  0.789900  0.265044  1
  B  B17  1  0.500000  0.209447  0.734798  1
  B  B18  1  0.500000  0.289901  0.232267  1
  B  B19  1  0.500000  0.711176  0.767511  1
  B  B20  1  0.500000  0.631538  0.185231  1
  B  B21  1  0.500000  0.368431  0.815504  1
  B  B22  1  0.500000  0.130538  0.312558  1
  B  B23  1  0.500000  0.869774  0.686342  1
  B  B24  1  0.500000  0.983216  0.211198  1
  B  B25  1  0.500000  0.016662  0.788170  1
  B  B26  1  0.500000  0.484691  0.286767  1
  B  B27  1  0.500000  0.515358  0.714128  1
  B  B28  1  0.500000  0.604939  0.029219  1
  B  B29  1  0.500000  0.394178  0.970804  1
  B  B30  1  0.500000  0.104414  0.470717  1
  B  B31  1  0.500000  0.895610  0.528531  1
  Os  Os32  1  0.000000  0.637427  0.320996  1
  Os  Os33  1  0.000000  0.361670  0.680263  1
  Os  Os34  1  0.000000  0.138253  0.178163  1
  Os  Os35  1  0.000000  0.863293  0.821292  1
