# generated using pymatgen
data_La3OsCl3
_symmetry_space_group_name_H-M   'P 1'
_cell_length_a   10.37097417
_cell_length_b   10.37097436
_cell_length_c   10.37097400
_cell_angle_alpha   109.47122383
_cell_angle_beta   109.47122421
_cell_angle_gamma   109.47121668
_symmetry_Int_Tables_number   1
_chemical_formula_structural   La3OsCl3
_chemical_formula_sum   'La12 Os4 Cl12'
_cell_volume   858.69068714
_cell_formula_units_Z   4
loop_
 _symmetry_equiv_pos_site_id
 _symmetry_equiv_pos_as_xyz
  1  'x, y, z'
loop_
 _atom_site_type_symbol
 _atom_site_label
 _atom_site_symmetry_multiplicity
 _atom_site_fract_x
 _atom_site_fract_y
 _atom_site_fract_z
 _atom_site_occupancy
  La  La0  1  0.476587  0.488293  0.238293  1
  La  La1  1  0.750000  0.238293  0.261707  1
  La  La2  1  0.750000  0.011707  0.488293  1
  La  La3  1  0.238293  0.476587  0.488293  1
  La  La4  1  0.261707  0.750000  0.238293  1
  La  La5  1  0.023413  0.261707  0.011707  1
  La  La6  1  0.011707  0.023413  0.261707  1
  La  La7  1  0.488293  0.750000  0.011707  1
  La  La8  1  0.488293  0.238293  0.476587  1
  La  La9  1  0.011707  0.488293  0.750000  1
  La  La10  1  0.261707  0.011707  0.023413  1
  La  La11  1  0.238293  0.261707  0.750000  1
  Os  Os12  1  0.250000  0.250000  0.250000  1
  Os  Os13  1  0.500000  0.000000  0.250000  1
  Os  Os14  1  0.000000  0.250000  0.500000  1
  Os  Os15  1  0.250000  0.500000  0.000000  1
  Cl  Cl16  1  0.250000  0.752112  0.747888  1
  Cl  Cl17  1  0.504224  0.502112  0.752112  1
  Cl  Cl18  1  0.995776  0.747888  0.997888  1
  Cl  Cl19  1  0.747888  0.250000  0.752112  1
  Cl  Cl20  1  0.997888  0.995776  0.747888  1
  Cl  Cl21  1  0.250000  0.997888  0.502112  1
  Cl  Cl22  1  0.752112  0.504224  0.502112  1
  Cl  Cl23  1  0.502112  0.250000  0.997888  1
  Cl  Cl24  1  0.752112  0.747888  0.250000  1
  Cl  Cl25  1  0.747888  0.997888  0.995776  1
  Cl  Cl26  1  0.997888  0.502112  0.250000  1
  Cl  Cl27  1  0.502112  0.752112  0.504224  1
