# generated using pymatgen
data_Ce2Al3Cu
_symmetry_space_group_name_H-M   'P 1'
_cell_length_a   5.70544600
_cell_length_b   5.70544621
_cell_length_c   8.53750200
_cell_angle_alpha   90.00000000
_cell_angle_beta   90.00000000
_cell_angle_gamma   119.99998717
_symmetry_Int_Tables_number   1
_chemical_formula_structural   Ce2Al3Cu
_chemical_formula_sum   'Ce4 Al6 Cu2'
_cell_volume   240.68039807
_cell_formula_units_Z   2
loop_
 _symmetry_equiv_pos_site_id
 _symmetry_equiv_pos_as_xyz
  1  'x, y, z'
loop_
 _atom_site_type_symbol
 _atom_site_label
 _atom_site_symmetry_multiplicity
 _atom_site_fract_x
 _atom_site_fract_y
 _atom_site_fract_z
 _atom_site_occupancy
  Ce  Ce0  1  0.333333  0.666667  0.912756  1
  Ce  Ce1  1  0.666667  0.333333  0.087244  1
  Ce  Ce2  1  0.666667  0.333333  0.412756  1
  Ce  Ce3  1  0.333333  0.666667  0.587244  1
  Al  Al4  1  0.834387  0.165613  0.750000  1
  Al  Al5  1  0.834387  0.668773  0.750000  1
  Al  Al6  1  0.331227  0.165613  0.750000  1
  Al  Al7  1  0.165613  0.834387  0.250000  1
  Al  Al8  1  0.165613  0.331227  0.250000  1
  Al  Al9  1  0.668773  0.834387  0.250000  1
  Cu  Cu10  1  0.000000  0.000000  0.000000  1
  Cu  Cu11  1  0.000000  0.000000  0.500000  1
