# generated using pymatgen
data_Rb2AlH5
_symmetry_space_group_name_H-M   'P 1'
_cell_length_a   6.14409999
_cell_length_b   3.76234691
_cell_length_c   6.14448600
_cell_angle_alpha   89.81866938
_cell_angle_beta   89.74361670
_cell_angle_gamma   89.95702861
_symmetry_Int_Tables_number   1
_chemical_formula_structural   Rb2AlH5
_chemical_formula_sum   'Rb2 Al1 H5'
_cell_volume   142.03521421
_cell_formula_units_Z   1
loop_
 _symmetry_equiv_pos_site_id
 _symmetry_equiv_pos_as_xyz
  1  'x, y, z'
loop_
 _atom_site_type_symbol
 _atom_site_label
 _atom_site_symmetry_multiplicity
 _atom_site_fract_x
 _atom_site_fract_y
 _atom_site_fract_z
 _atom_site_occupancy
  Rb  Rb0  1  0.178713  0.094607  0.937058  1
  Rb  Rb1  1  0.678131  0.094989  0.436752  1
  Al  Al2  1  0.177919  0.594792  0.437072  1
  H  H3  1  0.178192  0.094669  0.437224  1
  H  H4  1  0.977067  0.593471  0.638298  1
  H  H5  1  0.978273  0.597341  0.236829  1
  H  H6  1  0.378488  0.592208  0.637484  1
  H  H7  1  0.379614  0.595983  0.236145  1
