# generated using pymatgen
data_Ti2Ag(PO4)3
_symmetry_space_group_name_H-M   'P 1'
_cell_length_a   8.62656999
_cell_length_b   8.62558339
_cell_length_c   8.95413488
_cell_angle_alpha   89.89254358
_cell_angle_beta   118.78993489
_cell_angle_gamma   120.01871521
_symmetry_Int_Tables_number   1
_chemical_formula_structural   Ti2Ag(PO4)3
_chemical_formula_sum   'Ti4 Ag2 P6 O24'
_cell_volume   479.84346842
_cell_formula_units_Z   2
loop_
 _symmetry_equiv_pos_site_id
 _symmetry_equiv_pos_as_xyz
  1  'x, y, z'
loop_
 _atom_site_type_symbol
 _atom_site_label
 _atom_site_symmetry_multiplicity
 _atom_site_fract_x
 _atom_site_fract_y
 _atom_site_fract_z
 _atom_site_occupancy
  Ti  Ti0  1  0.712248  0.350587  0.062446  1
  Ti  Ti1  1  0.298833  0.147116  0.436545  1
  Ti  Ti2  1  0.296514  0.643128  0.936722  1
  Ti  Ti3  1  0.715099  0.854629  0.562938  1
  Ag  Ag4  1  0.028024  0.528544  0.498614  1
  Ag  Ag5  1  0.998594  0.975096  0.000272  1
  P  P6  1  0.504809  0.033829  0.248502  1
  P  P7  1  0.790948  0.532860  0.748305  1
  P  P8  1  0.221212  0.249026  0.750116  1
  P  P9  1  0.790260  0.749179  0.248932  1
  P  P10  1  0.221742  0.464417  0.251215  1
  P  P11  1  0.508620  0.964934  0.750905  1
  O  O12  1  0.641658  0.000516  0.417648  1
  O  O13  1  0.351177  0.061241  0.268843  1
  O  O14  1  0.017577  0.074340  0.725446  1
  O  O15  1  0.591972  0.364833  0.576982  1
  O  O16  1  0.228301  0.497278  0.084042  1
  O  O17  1  0.660906  0.213248  0.228453  1
  O  O18  1  0.418440  0.273479  0.919033  1
  O  O19  1  0.992792  0.558006  0.772082  1
  O  O20  1  0.227007  0.221759  0.582787  1
  O  O21  1  0.799304  0.714708  0.728647  1
  O  O22  1  0.648443  0.134538  0.920698  1
  O  O23  1  0.220409  0.425868  0.773461  1
  O  O24  1  0.792747  0.572733  0.226413  1
  O  O25  1  0.364870  0.862818  0.079866  1
  O  O26  1  0.213043  0.282917  0.271261  1
  O  O27  1  0.786437  0.776982  0.417065  1
  O  O28  1  0.020423  0.440926  0.227229  1
  O  O29  1  0.593348  0.723798  0.079743  1
  O  O30  1  0.350990  0.785065  0.770037  1
  O  O31  1  0.782844  0.498844  0.914423  1
  O  O32  1  0.421099  0.633871  0.421266  1
  O  O33  1  0.994447  0.923295  0.273265  1
  O  O34  1  0.661262  0.935960  0.730722  1
  O  O35  1  0.372203  0.998729  0.582277  1
