# generated using pymatgen
data_Sc4Ti2Si6Tc5Ru
_symmetry_space_group_name_H-M   'P 1'
_cell_length_a   7.68332768
_cell_length_b   7.68452338
_cell_length_c   7.68429805
_cell_angle_alpha   126.51783610
_cell_angle_beta   128.45716819
_cell_angle_gamma   77.48149300
_symmetry_Int_Tables_number   1
_chemical_formula_structural   Sc4Ti2Si6Tc5Ru
_chemical_formula_sum   'Sc4 Ti2 Si6 Tc5 Ru1'
_cell_volume   276.92478592
_cell_formula_units_Z   1
loop_
 _symmetry_equiv_pos_site_id
 _symmetry_equiv_pos_as_xyz
  1  'x, y, z'
loop_
 _atom_site_type_symbol
 _atom_site_label
 _atom_site_symmetry_multiplicity
 _atom_site_fract_x
 _atom_site_fract_y
 _atom_site_fract_z
 _atom_site_occupancy
  Sc  Sc0  1  0.246890  0.890141  0.143393  1
  Sc  Sc1  1  0.951445  0.502649  0.050323  1
  Sc  Sc2  1  0.053045  0.095569  0.542940  1
  Sc  Sc3  1  0.443463  0.486731  0.542828  1
  Ti  Ti4  1  0.748946  0.894551  0.641410  1
  Ti  Ti5  1  0.555700  0.113682  0.061657  1
  Si  Si6  1  0.752868  0.504623  0.252850  1
  Si  Si7  1  0.163338  0.157573  0.989331  1
  Si  Si8  1  0.668411  0.160144  0.496321  1
  Si  Si9  1  0.359918  0.834085  0.525533  1
  Si  Si10  1  0.248370  0.492143  0.743467  1
  Si  Si11  1  0.809047  0.833734  0.973235  1
  Tc  Tc12  1  0.508122  0.233997  0.745933  1
  Tc  Tc13  1  0.989163  0.234479  0.226591  1
  Tc  Tc14  1  0.866168  0.495905  0.619144  1
  Tc  Tc15  1  0.625888  0.759755  0.125745  1
  Tc  Tc16  1  0.376006  0.495070  0.129412  1
  Ru  Ru17  1  0.133211  0.757378  0.632096  1
