# generated using pymatgen
data_DyY2ZnSn3Ru2
_symmetry_space_group_name_H-M   'P 1'
_cell_length_a   7.58866432
_cell_length_b   7.58565339
_cell_length_c   3.92970900
_cell_angle_alpha   90.00000000
_cell_angle_beta   90.00000000
_cell_angle_gamma   119.94547362
_symmetry_Int_Tables_number   1
_chemical_formula_structural   DyY2ZnSn3Ru2
_chemical_formula_sum   'Dy1 Y2 Zn1 Sn3 Ru2'
_cell_volume   196.01428326
_cell_formula_units_Z   1
loop_
 _symmetry_equiv_pos_site_id
 _symmetry_equiv_pos_as_xyz
  1  'x, y, z'
loop_
 _atom_site_type_symbol
 _atom_site_label
 _atom_site_symmetry_multiplicity
 _atom_site_fract_x
 _atom_site_fract_y
 _atom_site_fract_z
 _atom_site_occupancy
  Dy  Dy0  1  0.392379  0.980181  0.500000  1
  Y  Y1  1  0.018983  0.411703  0.500000  1
  Y  Y2  1  0.588173  0.607149  0.500000  1
  Zn  Zn3  1  0.666422  0.333103  0.000000  1
  Sn  Sn4  1  0.738839  0.996773  0.000000  1
  Sn  Sn5  1  0.003009  0.741936  0.000000  1
  Sn  Sn6  1  0.257928  0.261184  0.000000  1
  Ru  Ru7  1  0.333516  0.667832  0.000000  1
  Ru  Ru8  1  0.000751  0.000141  0.500000  1
