# generated using pymatgen
data_TbDyTh2(Fe2I)2
_symmetry_space_group_name_H-M   'P 1'
_cell_length_a   3.96400800
_cell_length_b   3.96400932
_cell_length_c   17.60649500
_cell_angle_alpha   90.00000000
_cell_angle_beta   90.00000000
_cell_angle_gamma   120.00002235
_symmetry_Int_Tables_number   1
_chemical_formula_structural   TbDyTh2(Fe2I)2
_chemical_formula_sum   'Tb1 Dy1 Th2 Fe4 I2'
_cell_volume   239.59217551
_cell_formula_units_Z   1
loop_
 _symmetry_equiv_pos_site_id
 _symmetry_equiv_pos_as_xyz
  1  'x, y, z'
loop_
 _atom_site_type_symbol
 _atom_site_label
 _atom_site_symmetry_multiplicity
 _atom_site_fract_x
 _atom_site_fract_y
 _atom_site_fract_z
 _atom_site_occupancy
  Tb  Tb0  1  0.000000  0.000000  0.110274  1
  Dy  Dy1  1  0.000000  0.000000  0.391075  1
  Th  Th2  1  0.000000  0.000000  0.598223  1
  Th  Th3  1  0.000000  0.000000  0.902119  1
  Fe  Fe4  1  0.666667  0.333333  0.004933  1
  Fe  Fe5  1  0.333333  0.666667  0.494954  1
  Fe  Fe6  1  0.666667  0.333333  0.493986  1
  Fe  Fe7  1  0.333333  0.666667  0.004688  1
  I  I8  1  0.666667  0.333333  0.250700  1
  I  I9  1  0.333333  0.666667  0.749048  1
