# generated using pymatgen
data_Zr10GaSn4GeBi2
_symmetry_space_group_name_H-M   'P 1'
_cell_length_a   8.80152910
_cell_length_b   8.77191613
_cell_length_c   5.94093815
_cell_angle_alpha   89.99088454
_cell_angle_beta   90.01817612
_cell_angle_gamma   120.11172877
_symmetry_Int_Tables_number   1
_chemical_formula_structural   Zr10GaSn4GeBi2
_chemical_formula_sum   'Zr10 Ga1 Sn4 Ge1 Bi2'
_cell_volume   396.77855125
_cell_formula_units_Z   1
loop_
 _symmetry_equiv_pos_site_id
 _symmetry_equiv_pos_as_xyz
  1  'x, y, z'
loop_
 _atom_site_type_symbol
 _atom_site_label
 _atom_site_symmetry_multiplicity
 _atom_site_fract_x
 _atom_site_fract_y
 _atom_site_fract_z
 _atom_site_occupancy
  Zr  Zr0  1  0.006431  0.268735  0.249485  1
  Zr  Zr1  1  0.738138  0.000000  0.750671  1
  Zr  Zr2  1  0.737695  0.731265  0.249485  1
  Zr  Zr3  1  0.669325  0.338650  0.500000  1
  Zr  Zr4  1  0.993569  0.731265  0.750515  1
  Zr  Zr5  1  0.262305  0.268735  0.750515  1
  Zr  Zr6  1  0.330534  0.661070  0.000000  1
  Zr  Zr7  1  0.669466  0.338930  0.000000  1
  Zr  Zr8  1  0.330675  0.661350  0.500000  1
  Zr  Zr9  1  0.261862  0.000000  0.249329  1
  Ga  Ga10  1  0.000000  0.000000  0.500000  1
  Sn  Sn11  1  0.392826  0.390956  0.250563  1
  Sn  Sn12  1  0.001870  0.609044  0.250563  1
  Sn  Sn13  1  0.998130  0.390956  0.749437  1
  Sn  Sn14  1  0.607174  0.609044  0.749437  1
  Ge  Ge15  1  0.000000  0.000000  0.000000  1
  Bi  Bi16  1  0.611221  0.000000  0.250659  1
  Bi  Bi17  1  0.388779  0.000000  0.749341  1
