# generated using pymatgen
data_Zr10ZnSn7
_symmetry_space_group_name_H-M   'P 1'
_cell_length_a   5.96562802
_cell_length_b   8.76430692
_cell_length_c   8.76428101
_cell_angle_alpha   120.00009714
_cell_angle_beta   90.00057465
_cell_angle_gamma   89.99885235
_symmetry_Int_Tables_number   1
_chemical_formula_structural   Zr10ZnSn7
_chemical_formula_sum   'Zr10 Zn1 Sn7'
_cell_volume   396.84439233
_cell_formula_units_Z   1
loop_
 _symmetry_equiv_pos_site_id
 _symmetry_equiv_pos_as_xyz
  1  'x, y, z'
loop_
 _atom_site_type_symbol
 _atom_site_label
 _atom_site_symmetry_multiplicity
 _atom_site_fract_x
 _atom_site_fract_y
 _atom_site_fract_z
 _atom_site_occupancy
  Zr  Zr0  1  0.499997  0.333344  0.666681  1
  Zr  Zr1  1  0.499997  0.666662  0.333319  1
  Zr  Zr2  1  0.000000  0.666661  0.333327  1
  Zr  Zr3  1  0.000000  0.333334  0.666673  1
  Zr  Zr4  1  0.738970  0.273631  0.000000  1
  Zr  Zr5  1  0.738993  0.726378  0.726359  1
  Zr  Zr6  1  0.738993  0.000019  0.273641  1
  Zr  Zr7  1  0.261024  0.726371  0.000000  1
  Zr  Zr8  1  0.261011  0.273621  0.273641  1
  Zr  Zr9  1  0.261011  0.999980  0.726359  1
  Zn  Zn10  1  0.499998  0.000001  0.000000  1
  Sn  Sn11  1  0.752983  0.614761  0.000000  1
  Sn  Sn12  1  0.752977  0.385255  0.385256  1
  Sn  Sn13  1  0.752977  0.999999  0.614744  1
  Sn  Sn14  1  0.247015  0.385239  0.000000  1
  Sn  Sn15  1  0.247024  0.614745  0.614745  1
  Sn  Sn16  1  0.247024  0.000000  0.385255  1
  Sn  Sn17  1  0.000003  0.000000  0.000000  1
