# generated using pymatgen
data_Tb9Y10ErPb16
_symmetry_space_group_name_H-M   'P 1'
_cell_length_a   8.22131300
_cell_length_b   8.30828898
_cell_length_c   15.69658900
_cell_angle_alpha   90.00730310
_cell_angle_beta   90.00193743
_cell_angle_gamma   89.96109818
_symmetry_Int_Tables_number   1
_chemical_formula_structural   Tb9Y10ErPb16
_chemical_formula_sum   'Tb9 Y10 Er1 Pb16'
_cell_volume   1072.15594991
_cell_formula_units_Z   1
loop_
 _symmetry_equiv_pos_site_id
 _symmetry_equiv_pos_as_xyz
  1  'x, y, z'
loop_
 _atom_site_type_symbol
 _atom_site_label
 _atom_site_symmetry_multiplicity
 _atom_site_fract_x
 _atom_site_fract_y
 _atom_site_fract_z
 _atom_site_occupancy
  Tb  Tb0  1  0.877329  0.658761  0.879409  1
  Tb  Tb1  1  0.533999  0.323761  0.899871  1
  Tb  Tb2  1  0.034602  0.177072  0.600049  1
  Tb  Tb3  1  0.465653  0.676567  0.399966  1
  Tb  Tb4  1  0.965622  0.823536  0.100297  1
  Tb  Tb5  1  0.465663  0.676478  0.100021  1
  Tb  Tb6  1  0.965567  0.823547  0.399751  1
  Tb  Tb7  1  0.534082  0.323807  0.600112  1
  Tb  Tb8  1  0.034623  0.176912  0.899863  1
  Y  Y9  1  0.375771  0.840327  0.879521  1
  Y  Y10  1  0.877943  0.658922  0.620696  1
  Y  Y11  1  0.623474  0.159241  0.379716  1
  Y  Y12  1  0.123116  0.340597  0.120218  1
  Y  Y13  1  0.623573  0.159316  0.120313  1
  Y  Y14  1  0.123170  0.340554  0.379776  1
  Y  Y15  1  0.375889  0.840344  0.620453  1
  Y  Y16  1  0.708042  0.996352  0.750023  1
  Y  Y17  1  0.791460  0.496355  0.249966  1
  Y  Y18  1  0.291749  0.004028  0.249998  1
  Er  Er19  1  0.208980  0.504069  0.750026  1
  Pb  Pb20  1  0.281274  0.033238  0.042867  1
  Pb  Pb21  1  0.781275  0.466603  0.457151  1
  Pb  Pb22  1  0.718811  0.966752  0.542566  1
  Pb  Pb23  1  0.218892  0.532832  0.956750  1
  Pb  Pb24  1  0.718593  0.966975  0.957352  1
  Pb  Pb25  1  0.218597  0.532928  0.543255  1
  Pb  Pb26  1  0.281301  0.033260  0.457133  1
  Pb  Pb27  1  0.781230  0.466468  0.043013  1
  Pb  Pb28  1  0.571302  0.625278  0.749919  1
  Pb  Pb29  1  0.072604  0.873563  0.749979  1
  Pb  Pb30  1  0.427690  0.373898  0.250079  1
  Pb  Pb31  1  0.927889  0.126486  0.250041  1
  Pb  Pb32  1  0.345495  0.153511  0.749892  1
  Pb  Pb33  1  0.846449  0.347853  0.749904  1
  Pb  Pb34  1  0.654078  0.847708  0.250017  1
  Pb  Pb35  1  0.154219  0.652105  0.250039  1
