# generated using pymatgen
data_YbSm3(Si5Os3)2
_symmetry_space_group_name_H-M   'P 1'
_cell_length_a   8.19578450
_cell_length_b   8.19021706
_cell_length_c   5.81639190
_cell_angle_alpha   70.48886388
_cell_angle_beta   70.30839839
_cell_angle_gamma   93.86710507
_symmetry_Int_Tables_number   1
_chemical_formula_structural   YbSm3(Si5Os3)2
_chemical_formula_sum   'Yb1 Sm3 Si10 Os6'
_cell_volume   339.28558101
_cell_formula_units_Z   1
loop_
 _symmetry_equiv_pos_site_id
 _symmetry_equiv_pos_as_xyz
  1  'x, y, z'
loop_
 _atom_site_type_symbol
 _atom_site_label
 _atom_site_symmetry_multiplicity
 _atom_site_fract_x
 _atom_site_fract_y
 _atom_site_fract_z
 _atom_site_occupancy
  Yb  Yb0  1  0.867792  0.602436  0.755971  1
  Sm  Sm1  1  0.397453  0.131705  0.746014  1
  Sm  Sm2  1  0.132260  0.398485  0.246301  1
  Sm  Sm3  1  0.602928  0.867068  0.253985  1
  Si  Si4  1  0.064429  0.260270  0.836706  1
  Si  Si5  1  0.738836  0.933110  0.665780  1
  Si  Si6  1  0.935178  0.738936  0.167586  1
  Si  Si7  1  0.262682  0.064681  0.334527  1
  Si  Si8  1  0.205908  0.790654  0.748439  1
  Si  Si9  1  0.790575  0.206251  0.255113  1
  Si  Si10  1  0.514750  0.491430  0.747145  1
  Si  Si11  1  0.489678  0.512145  0.245839  1
  Si  Si12  1  0.773435  0.226829  0.746113  1
  Si  Si13  1  0.223700  0.774087  0.254367  1
  Os  Os14  1  0.255984  0.540985  0.630907  1
  Os  Os15  1  0.454790  0.744182  0.871110  1
  Os  Os16  1  0.743114  0.458980  0.366605  1
  Os  Os17  1  0.544971  0.256760  0.127747  1
  Os  Os18  1  0.003129  0.998281  0.749412  1
  Os  Os19  1  0.998409  0.002728  0.250337  1
