# generated using pymatgen
data_Ho8In3Rh
_symmetry_space_group_name_H-M   'P 1'
_cell_length_a   10.40945200
_cell_length_b   10.40945211
_cell_length_c   7.00665900
_cell_angle_alpha   90.00000000
_cell_angle_beta   90.00000000
_cell_angle_gamma   119.99999965
_symmetry_Int_Tables_number   1
_chemical_formula_structural   Ho8In3Rh
_chemical_formula_sum   'Ho16 In6 Rh2'
_cell_volume   657.50241675
_cell_formula_units_Z   2
loop_
 _symmetry_equiv_pos_site_id
 _symmetry_equiv_pos_as_xyz
  1  'x, y, z'
loop_
 _atom_site_type_symbol
 _atom_site_label
 _atom_site_symmetry_multiplicity
 _atom_site_fract_x
 _atom_site_fract_y
 _atom_site_fract_z
 _atom_site_occupancy
  Ho  Ho0  1  0.533037  0.066074  0.507322  1
  Ho  Ho1  1  0.933926  0.466963  0.507322  1
  Ho  Ho2  1  0.533037  0.466963  0.507322  1
  Ho  Ho3  1  0.466963  0.933926  0.007322  1
  Ho  Ho4  1  0.066074  0.533037  0.007322  1
  Ho  Ho5  1  0.466963  0.533037  0.007322  1
  Ho  Ho6  1  0.176640  0.353280  0.712546  1
  Ho  Ho7  1  0.646720  0.823360  0.712546  1
  Ho  Ho8  1  0.176640  0.823360  0.712546  1
  Ho  Ho9  1  0.823360  0.646720  0.212546  1
  Ho  Ho10  1  0.353280  0.176640  0.212546  1
  Ho  Ho11  1  0.823360  0.176640  0.212546  1
  Ho  Ho12  1  0.666667  0.333333  0.888364  1
  Ho  Ho13  1  0.333333  0.666667  0.388364  1
  Ho  Ho14  1  0.000000  0.000000  0.494175  1
  Ho  Ho15  1  0.000000  0.000000  0.994175  1
  In  In16  1  0.837432  0.674863  0.751098  1
  In  In17  1  0.325137  0.162568  0.751098  1
  In  In18  1  0.837432  0.162568  0.751098  1
  In  In19  1  0.162568  0.325137  0.251098  1
  In  In20  1  0.674863  0.837432  0.251098  1
  In  In21  1  0.162568  0.837432  0.251098  1
  Rh  Rh22  1  0.666667  0.333333  0.283583  1
  Rh  Rh23  1  0.333333  0.666667  0.783583  1
