# generated using pymatgen
data_Pr3Nd2(PtO6)2
_symmetry_space_group_name_H-M   'P 1'
_cell_length_a   7.16647643
_cell_length_b   7.16647689
_cell_length_c   7.58189491
_cell_angle_alpha   74.55087207
_cell_angle_beta   74.55087380
_cell_angle_gamma   50.98879569
_symmetry_Int_Tables_number   1
_chemical_formula_structural   Pr3Nd2(PtO6)2
_chemical_formula_sum   'Pr3 Nd2 Pt2 O12'
_cell_volume   289.09172627
_cell_formula_units_Z   1
loop_
 _symmetry_equiv_pos_site_id
 _symmetry_equiv_pos_as_xyz
  1  'x, y, z'
loop_
 _atom_site_type_symbol
 _atom_site_label
 _atom_site_symmetry_multiplicity
 _atom_site_fract_x
 _atom_site_fract_y
 _atom_site_fract_z
 _atom_site_occupancy
  Pr  Pr0  1  0.696292  0.696292  0.163893  1
  Pr  Pr1  1  0.303708  0.303708  0.836107  1
  Pr  Pr2  1  0.000000  0.000000  0.500000  1
  Nd  Nd3  1  0.301698  0.301698  0.359172  1
  Nd  Nd4  1  0.698302  0.698302  0.640828  1
  Pt  Pt5  1  0.752610  0.247390  0.000000  1
  Pt  Pt6  1  0.247390  0.752610  0.000000  1
  O  O7  1  0.094787  0.598379  0.574457  1
  O  O8  1  0.999666  0.999666  0.173093  1
  O  O9  1  0.401621  0.905213  0.425543  1
  O  O10  1  0.499625  0.499625  0.176456  1
  O  O11  1  0.101038  0.572759  0.082606  1
  O  O12  1  0.905213  0.401621  0.425543  1
  O  O13  1  0.000334  0.000334  0.826907  1
  O  O14  1  0.598379  0.094786  0.574457  1
  O  O15  1  0.500375  0.500375  0.823544  1
  O  O16  1  0.572759  0.101038  0.082606  1
  O  O17  1  0.427241  0.898962  0.917394  1
  O  O18  1  0.898962  0.427241  0.917394  1
