# generated using pymatgen
data_Nb4Al5CuAu2
_symmetry_space_group_name_H-M   'P 1'
_cell_length_a   5.24935100
_cell_length_b   5.19711698
_cell_length_c   8.16316900
_cell_angle_alpha   90.00000000
_cell_angle_beta   90.00000000
_cell_angle_gamma   120.33303746
_symmetry_Int_Tables_number   1
_chemical_formula_structural   Nb4Al5CuAu2
_chemical_formula_sum   'Nb4 Al5 Cu1 Au2'
_cell_volume   192.21632463
_cell_formula_units_Z   1
loop_
 _symmetry_equiv_pos_site_id
 _symmetry_equiv_pos_as_xyz
  1  'x, y, z'
loop_
 _atom_site_type_symbol
 _atom_site_label
 _atom_site_symmetry_multiplicity
 _atom_site_fract_x
 _atom_site_fract_y
 _atom_site_fract_z
 _atom_site_occupancy
  Nb  Nb0  1  0.664485  0.328972  0.072479  1
  Nb  Nb1  1  0.664485  0.328972  0.427520  1
  Nb  Nb2  1  0.333039  0.666077  0.576754  1
  Nb  Nb3  1  0.333039  0.666077  0.923246  1
  Al  Al4  1  0.171084  0.824698  0.250000  1
  Al  Al5  1  0.653614  0.824698  0.250000  1
  Al  Al6  1  0.346499  0.172113  0.750001  1
  Al  Al7  1  0.825614  0.172113  0.750001  1
  Al  Al8  1  0.827261  0.654521  0.750001  1
  Cu  Cu9  1  0.180156  0.360314  0.250000  1
  Au  Au10  1  0.000360  0.000720  0.000219  1
  Au  Au11  1  0.000360  0.000720  0.499781  1
