# generated using pymatgen
data_LiLu4(GeB4)2
_symmetry_space_group_name_H-M   'P 1'
_cell_length_a   7.07156600
_cell_length_b   7.07156600
_cell_length_c   7.70638800
_cell_angle_alpha   90.00000000
_cell_angle_beta   90.00000000
_cell_angle_gamma   90.00000000
_symmetry_Int_Tables_number   1
_chemical_formula_structural   LiLu4(GeB4)2
_chemical_formula_sum   'Li2 Lu8 Ge4 B16'
_cell_volume   385.37369684
_cell_formula_units_Z   2
loop_
 _symmetry_equiv_pos_site_id
 _symmetry_equiv_pos_as_xyz
  1  'x, y, z'
loop_
 _atom_site_type_symbol
 _atom_site_label
 _atom_site_symmetry_multiplicity
 _atom_site_fract_x
 _atom_site_fract_y
 _atom_site_fract_z
 _atom_site_occupancy
  Li  Li0  1  0.000000  0.000000  0.500000  1
  Li  Li1  1  0.500000  0.500000  0.500000  1
  Lu  Lu2  1  0.682188  0.182188  0.230794  1
  Lu  Lu3  1  0.317812  0.817812  0.769206  1
  Lu  Lu4  1  0.317812  0.817812  0.230794  1
  Lu  Lu5  1  0.817812  0.682188  0.230794  1
  Lu  Lu6  1  0.817812  0.682188  0.769206  1
  Lu  Lu7  1  0.682188  0.182188  0.769206  1
  Lu  Lu8  1  0.182188  0.317812  0.769206  1
  Lu  Lu9  1  0.182188  0.317812  0.230794  1
  Ge  Ge10  1  0.122733  0.622733  0.500000  1
  Ge  Ge11  1  0.877267  0.377267  0.500000  1
  Ge  Ge12  1  0.377267  0.122733  0.500000  1
  Ge  Ge13  1  0.622733  0.877267  0.500000  1
  B  B14  1  0.174133  0.040336  0.000000  1
  B  B15  1  0.825867  0.959664  0.000000  1
  B  B16  1  0.959664  0.174133  0.000000  1
  B  B17  1  0.325867  0.540336  0.000000  1
  B  B18  1  0.040336  0.825867  0.000000  1
  B  B19  1  0.674133  0.459664  0.000000  1
  B  B20  1  0.540336  0.674133  0.000000  1
  B  B21  1  0.459664  0.325867  0.000000  1
  B  B22  1  0.088796  0.588796  0.000000  1
  B  B23  1  0.911204  0.411204  0.000000  1
  B  B24  1  0.411204  0.088796  0.000000  1
  B  B25  1  0.588796  0.911204  0.000000  1
  B  B26  1  0.000000  0.000000  0.166435  1
  B  B27  1  0.000000  0.000000  0.833565  1
  B  B28  1  0.500000  0.500000  0.833565  1
  B  B29  1  0.500000  0.500000  0.166435  1
