# generated using pymatgen
data_TbTh(ZnIr)2
_symmetry_space_group_name_H-M   'P 1'
_cell_length_a   4.02516900
_cell_length_b   7.13312863
_cell_length_c   8.38671688
_cell_angle_alpha   90.13396691
_cell_angle_beta   90.00000000
_cell_angle_gamma   90.00000000
_symmetry_Int_Tables_number   1
_chemical_formula_structural   TbTh(ZnIr)2
_chemical_formula_sum   'Tb2 Th2 Zn4 Ir4'
_cell_volume   240.79916122
_cell_formula_units_Z   2
loop_
 _symmetry_equiv_pos_site_id
 _symmetry_equiv_pos_as_xyz
  1  'x, y, z'
loop_
 _atom_site_type_symbol
 _atom_site_label
 _atom_site_symmetry_multiplicity
 _atom_site_fract_x
 _atom_site_fract_y
 _atom_site_fract_z
 _atom_site_occupancy
  Tb  Tb0  1  0.250000  0.049747  0.317145  1
  Tb  Tb1  1  0.750000  0.950253  0.682855  1
  Th  Th2  1  0.250000  0.545894  0.190431  1
  Th  Th3  1  0.750000  0.454106  0.809569  1
  Zn  Zn4  1  0.250000  0.121672  0.936501  1
  Zn  Zn5  1  0.750000  0.878328  0.063499  1
  Zn  Zn6  1  0.250000  0.639980  0.560679  1
  Zn  Zn7  1  0.750000  0.360020  0.439321  1
  Ir  Ir8  1  0.750000  0.749423  0.370606  1
  Ir  Ir9  1  0.250000  0.250577  0.629394  1
  Ir  Ir10  1  0.750000  0.256739  0.122581  1
  Ir  Ir11  1  0.250000  0.743261  0.877419  1
