# generated using pymatgen
data_Cs6(PdO3)5
_symmetry_space_group_name_H-M   'P 1'
_cell_length_a   8.06069494
_cell_length_b   8.06087671
_cell_length_c   8.06107854
_cell_angle_alpha   90.98982432
_cell_angle_beta   90.98867679
_cell_angle_gamma   90.99109150
_symmetry_Int_Tables_number   1
_chemical_formula_structural   Cs6(PdO3)5
_chemical_formula_sum   'Cs6 Pd5 O15'
_cell_volume   523.54156793
_cell_formula_units_Z   1
loop_
 _symmetry_equiv_pos_site_id
 _symmetry_equiv_pos_as_xyz
  1  'x, y, z'
loop_
 _atom_site_type_symbol
 _atom_site_label
 _atom_site_symmetry_multiplicity
 _atom_site_fract_x
 _atom_site_fract_y
 _atom_site_fract_z
 _atom_site_occupancy
  Cs  Cs0  1  0.320715  0.679128  0.999964  1
  Cs  Cs1  1  0.999968  0.320726  0.679148  1
  Cs  Cs2  1  0.679125  0.999970  0.320753  1
  Cs  Cs3  1  0.144551  0.855306  0.499937  1
  Cs  Cs4  1  0.499947  0.144550  0.855298  1
  Cs  Cs5  1  0.855287  0.499950  0.144541  1
  Pd  Pd6  1  0.500028  0.500026  0.500016  1
  Pd  Pd7  1  0.299070  0.299082  0.299069  1
  Pd  Pd8  1  0.700927  0.700913  0.700909  1
  Pd  Pd9  1  0.099460  0.099480  0.099479  1
  Pd  Pd10  1  0.900523  0.900515  0.900531  1
  O  O11  1  0.130207  0.999978  0.869640  1
  O  O12  1  0.869626  0.130187  0.999988  1
  O  O13  1  0.999970  0.869629  0.130208  1
  O  O14  1  0.059658  0.218198  0.317122  1
  O  O15  1  0.317109  0.059669  0.218195  1
  O  O16  1  0.218184  0.317118  0.059652  1
  O  O17  1  0.781912  0.940240  0.682868  1
  O  O18  1  0.682848  0.781887  0.940236  1
  O  O19  1  0.940257  0.682848  0.781904  1
  O  O20  1  0.349910  0.302996  0.545428  1
  O  O21  1  0.545434  0.349905  0.302973  1
  O  O22  1  0.302992  0.545447  0.349902  1
  O  O23  1  0.697432  0.650059  0.454796  1
  O  O24  1  0.454807  0.697405  0.650044  1
  O  O25  1  0.650051  0.454790  0.697402  1
