# generated using pymatgen
data_Yb2CrTcC3
_symmetry_space_group_name_H-M   'P 1'
_cell_length_a   5.55882371
_cell_length_b   5.55882432
_cell_length_c   5.62677092
_cell_angle_alpha   74.87935041
_cell_angle_beta   74.87935248
_cell_angle_gamma   37.42602101
_symmetry_Int_Tables_number   1
_chemical_formula_structural   Yb2CrTcC3
_chemical_formula_sum   'Yb2 Cr1 Tc1 C3'
_cell_volume   101.58073415
_cell_formula_units_Z   1
loop_
 _symmetry_equiv_pos_site_id
 _symmetry_equiv_pos_as_xyz
  1  'x, y, z'
loop_
 _atom_site_type_symbol
 _atom_site_label
 _atom_site_symmetry_multiplicity
 _atom_site_fract_x
 _atom_site_fract_y
 _atom_site_fract_z
 _atom_site_occupancy
  Yb  Yb0  1  0.608287  0.608287  0.181736  1
  Yb  Yb1  1  0.408776  0.408776  0.817425  1
  Cr  Cr2  1  0.156609  0.156609  0.598492  1
  Tc  Tc3  1  0.843218  0.843218  0.404064  1
  C  C4  1  0.003669  0.003669  0.502742  1
  C  C5  1  0.299037  0.299037  0.283092  1
  C  C6  1  0.680405  0.680405  0.712450  1
