# generated using pymatgen
data_Ba2NaInPb2
_symmetry_space_group_name_H-M   'P 1'
_cell_length_a   5.24186300
_cell_length_b   8.68133600
_cell_length_c   19.27000800
_cell_angle_alpha   90.00000000
_cell_angle_beta   90.00000000
_cell_angle_gamma   90.00000000
_symmetry_Int_Tables_number   1
_chemical_formula_structural   Ba2NaInPb2
_chemical_formula_sum   'Ba8 Na4 In4 Pb8'
_cell_volume   876.90819043
_cell_formula_units_Z   4
loop_
 _symmetry_equiv_pos_site_id
 _symmetry_equiv_pos_as_xyz
  1  'x, y, z'
loop_
 _atom_site_type_symbol
 _atom_site_label
 _atom_site_symmetry_multiplicity
 _atom_site_fract_x
 _atom_site_fract_y
 _atom_site_fract_z
 _atom_site_occupancy
  Ba  Ba0  1  0.250000  0.353585  0.942730  1
  Ba  Ba1  1  0.250000  0.853585  0.557270  1
  Ba  Ba2  1  0.750000  0.146415  0.442730  1
  Ba  Ba3  1  0.750000  0.496021  0.273738  1
  Ba  Ba4  1  0.750000  0.996021  0.226262  1
  Ba  Ba5  1  0.750000  0.646415  0.057270  1
  Ba  Ba6  1  0.250000  0.503979  0.726262  1
  Ba  Ba7  1  0.250000  0.003979  0.773738  1
  Na  Na8  1  0.250000  0.992592  0.070304  1
  Na  Na9  1  0.750000  0.507408  0.570304  1
  Na  Na10  1  0.750000  0.007408  0.929696  1
  Na  Na11  1  0.250000  0.492592  0.429696  1
  In  In12  1  0.750000  0.161572  0.655973  1
  In  In13  1  0.250000  0.838428  0.344027  1
  In  In14  1  0.750000  0.661572  0.844027  1
  In  In15  1  0.250000  0.338428  0.155973  1
  Pb  Pb16  1  0.750000  0.239136  0.071623  1
  Pb  Pb17  1  0.750000  0.793577  0.686415  1
  Pb  Pb18  1  0.250000  0.206423  0.313585  1
  Pb  Pb19  1  0.250000  0.706423  0.186415  1
  Pb  Pb20  1  0.250000  0.260864  0.571623  1
  Pb  Pb21  1  0.750000  0.293577  0.813585  1
  Pb  Pb22  1  0.250000  0.760864  0.928377  1
  Pb  Pb23  1  0.750000  0.739136  0.428377  1
