# generated using pymatgen
data_Sr8Mg7CdSi15Sn
_symmetry_space_group_name_H-M   'P 1'
_cell_length_a   4.43956600
_cell_length_b   11.56341259
_cell_length_c   14.56358330
_cell_angle_alpha   89.74360901
_cell_angle_beta   90.00000000
_cell_angle_gamma   90.00000000
_symmetry_Int_Tables_number   1
_chemical_formula_structural   Sr8Mg7CdSi15Sn
_chemical_formula_sum   'Sr8 Mg7 Cd1 Si15 Sn1'
_cell_volume   747.63639410
_cell_formula_units_Z   1
loop_
 _symmetry_equiv_pos_site_id
 _symmetry_equiv_pos_as_xyz
  1  'x, y, z'
loop_
 _atom_site_type_symbol
 _atom_site_label
 _atom_site_symmetry_multiplicity
 _atom_site_fract_x
 _atom_site_fract_y
 _atom_site_fract_z
 _atom_site_occupancy
  Sr  Sr0  1  0.250000  0.523431  0.197564  1
  Sr  Sr1  1  0.250000  0.735892  0.938975  1
  Sr  Sr2  1  0.750000  0.262066  0.062894  1
  Sr  Sr3  1  0.750000  0.241196  0.560027  1
  Sr  Sr4  1  0.250000  0.758329  0.437737  1
  Sr  Sr5  1  0.250000  0.974680  0.691294  1
  Sr  Sr6  1  0.750000  0.025750  0.304541  1
  Sr  Sr7  1  0.750000  0.476452  0.802455  1
  Mg  Mg8  1  0.750000  0.556803  0.557489  1
  Mg  Mg9  1  0.750000  0.942091  0.068426  1
  Mg  Mg10  1  0.250000  0.068138  0.949678  1
  Mg  Mg11  1  0.250000  0.677151  0.685788  1
  Mg  Mg12  1  0.750000  0.320737  0.310688  1
  Mg  Mg13  1  0.750000  0.188090  0.807780  1
  Mg  Mg14  1  0.250000  0.818552  0.191275  1
  Cd  Cd15  1  0.250000  0.441932  0.440764  1
  Si  Si16  1  0.250000  0.452657  0.632112  1
  Si  Si17  1  0.750000  0.547372  0.365940  1
  Si  Si18  1  0.250000  0.028145  0.464380  1
  Si  Si19  1  0.250000  0.049311  0.137208  1
  Si  Si20  1  0.250000  0.276114  0.721625  1
  Si  Si21  1  0.750000  0.724570  0.277800  1
  Si  Si22  1  0.750000  0.760110  0.771060  1
  Si  Si23  1  0.250000  0.211931  0.393121  1
  Si  Si24  1  0.750000  0.970920  0.533342  1
  Si  Si25  1  0.750000  0.529940  0.034232  1
  Si  Si26  1  0.250000  0.471531  0.965935  1
  Si  Si27  1  0.250000  0.290166  0.893655  1
  Si  Si28  1  0.750000  0.784686  0.602167  1
  Si  Si29  1  0.750000  0.712077  0.107520  1
  Si  Si30  1  0.250000  0.226988  0.224120  1
  Sn  Sn31  1  0.750000  0.952192  0.868407  1
