# generated using pymatgen
data_Th5Tl3S
_symmetry_space_group_name_H-M   'P 1'
_cell_length_a   9.58709200
_cell_length_b   9.58709044
_cell_length_c   6.57473300
_cell_angle_alpha   90.00000000
_cell_angle_beta   90.00000000
_cell_angle_gamma   119.99999847
_symmetry_Int_Tables_number   1
_chemical_formula_structural   Th5Tl3S
_chemical_formula_sum   'Th10 Tl6 S2'
_cell_volume   523.33825098
_cell_formula_units_Z   2
loop_
 _symmetry_equiv_pos_site_id
 _symmetry_equiv_pos_as_xyz
  1  'x, y, z'
loop_
 _atom_site_type_symbol
 _atom_site_label
 _atom_site_symmetry_multiplicity
 _atom_site_fract_x
 _atom_site_fract_y
 _atom_site_fract_z
 _atom_site_occupancy
  Th  Th0  1  0.666667  0.333333  0.000000  1
  Th  Th1  1  0.333333  0.666667  0.000000  1
  Th  Th2  1  0.333333  0.666667  0.500000  1
  Th  Th3  1  0.666667  0.333333  0.500000  1
  Th  Th4  1  0.749931  0.749931  0.750000  1
  Th  Th5  1  0.250069  0.000000  0.750000  1
  Th  Th6  1  0.000000  0.250069  0.750000  1
  Th  Th7  1  0.250069  0.250069  0.250000  1
  Th  Th8  1  0.749931  0.000000  0.250000  1
  Th  Th9  1  0.000000  0.749931  0.250000  1
  Tl  Tl10  1  0.389463  0.389463  0.750000  1
  Tl  Tl11  1  0.610537  0.000000  0.750000  1
  Tl  Tl12  1  0.000000  0.610537  0.750000  1
  Tl  Tl13  1  0.610537  0.610537  0.250000  1
  Tl  Tl14  1  0.389463  0.000000  0.250000  1
  Tl  Tl15  1  0.000000  0.389463  0.250000  1
  S  S16  1  0.000000  0.000000  0.000000  1
  S  S17  1  0.000000  0.000000  0.500000  1
