# generated using pymatgen
data_Sm5Y(RuBr3)2
_symmetry_space_group_name_H-M   'P 1'
_cell_length_a   4.12842500
_cell_length_b   9.02482122
_cell_length_c   11.90189300
_cell_angle_alpha   87.94853532
_cell_angle_beta   90.00000000
_cell_angle_gamma   90.00000000
_symmetry_Int_Tables_number   1
_chemical_formula_structural   Sm5Y(RuBr3)2
_chemical_formula_sum   'Sm5 Y1 Ru2 Br6'
_cell_volume   443.16005689
_cell_formula_units_Z   1
loop_
 _symmetry_equiv_pos_site_id
 _symmetry_equiv_pos_as_xyz
  1  'x, y, z'
loop_
 _atom_site_type_symbol
 _atom_site_label
 _atom_site_symmetry_multiplicity
 _atom_site_fract_x
 _atom_site_fract_y
 _atom_site_fract_z
 _atom_site_occupancy
  Sm  Sm0  1  0.750000  0.121042  0.661584  1
  Sm  Sm1  1  0.250000  0.876062  0.337406  1
  Sm  Sm2  1  0.750000  0.101110  0.116484  1
  Sm  Sm3  1  0.250000  0.896714  0.884247  1
  Sm  Sm4  1  0.250000  0.317287  0.882111  1
  Y  Y5  1  0.750000  0.684904  0.118977  1
  Ru  Ru6  1  0.750000  0.108912  0.880709  1
  Ru  Ru7  1  0.250000  0.890883  0.119004  1
  Br  Br8  1  0.750000  0.112445  0.386176  1
  Br  Br9  1  0.250000  0.885181  0.612751  1
  Br  Br10  1  0.250000  0.352611  0.625829  1
  Br  Br11  1  0.750000  0.644356  0.371094  1
  Br  Br12  1  0.750000  0.602292  0.874838  1
  Br  Br13  1  0.250000  0.406201  0.128792  1
