# generated using pymatgen
data_TiReRh6
_symmetry_space_group_name_H-M   'P 1'
_cell_length_a   5.48535400
_cell_length_b   5.48535321
_cell_length_c   4.39749000
_cell_angle_alpha   90.00000000
_cell_angle_beta   90.00000000
_cell_angle_gamma   120.00000477
_symmetry_Int_Tables_number   1
_chemical_formula_structural   TiReRh6
_chemical_formula_sum   'Ti1 Re1 Rh6'
_cell_volume   114.58947488
_cell_formula_units_Z   1
loop_
 _symmetry_equiv_pos_site_id
 _symmetry_equiv_pos_as_xyz
  1  'x, y, z'
loop_
 _atom_site_type_symbol
 _atom_site_label
 _atom_site_symmetry_multiplicity
 _atom_site_fract_x
 _atom_site_fract_y
 _atom_site_fract_z
 _atom_site_occupancy
  Ti  Ti0  1  0.333333  0.666667  0.750000  1
  Re  Re1  1  0.666667  0.333333  0.250000  1
  Rh  Rh2  1  0.165008  0.330016  0.250000  1
  Rh  Rh3  1  0.669984  0.834992  0.250000  1
  Rh  Rh4  1  0.165008  0.834992  0.250000  1
  Rh  Rh5  1  0.831539  0.663078  0.750000  1
  Rh  Rh6  1  0.336922  0.168461  0.750000  1
  Rh  Rh7  1  0.831539  0.168461  0.750000  1
