# generated using pymatgen
data_Pr14Nd3Tm3Sn16
_symmetry_space_group_name_H-M   'P 1'
_cell_length_a   8.28725224
_cell_length_b   8.44777315
_cell_length_c   16.02705200
_cell_angle_alpha   90.01115697
_cell_angle_beta   89.98628317
_cell_angle_gamma   90.06227146
_symmetry_Int_Tables_number   1
_chemical_formula_structural   Pr14Nd3Tm3Sn16
_chemical_formula_sum   'Pr14 Nd3 Tm3 Sn16'
_cell_volume   1122.03439363
_cell_formula_units_Z   1
loop_
 _symmetry_equiv_pos_site_id
 _symmetry_equiv_pos_as_xyz
  1  'x, y, z'
loop_
 _atom_site_type_symbol
 _atom_site_label
 _atom_site_symmetry_multiplicity
 _atom_site_fract_x
 _atom_site_fract_y
 _atom_site_fract_z
 _atom_site_occupancy
  Pr  Pr0  1  0.634031  0.162811  0.379713  1
  Pr  Pr1  1  0.132636  0.338010  0.119605  1
  Pr  Pr2  1  0.633947  0.162941  0.120496  1
  Pr  Pr3  1  0.132556  0.337888  0.380188  1
  Pr  Pr4  1  0.366658  0.837705  0.622180  1
  Pr  Pr5  1  0.866858  0.661590  0.879521  1
  Pr  Pr6  1  0.518153  0.318462  0.901166  1
  Pr  Pr7  1  0.018229  0.181266  0.599803  1
  Pr  Pr8  1  0.481907  0.680923  0.401743  1
  Pr  Pr9  1  0.981763  0.818225  0.098107  1
  Pr  Pr10  1  0.481885  0.680863  0.098141  1
  Pr  Pr11  1  0.981733  0.818301  0.401988  1
  Pr  Pr12  1  0.518190  0.318604  0.598902  1
  Pr  Pr13  1  0.018250  0.181118  0.900180  1
  Nd  Nd14  1  0.366223  0.837860  0.877532  1
  Nd  Nd15  1  0.866534  0.661445  0.620817  1
  Nd  Nd16  1  0.303567  0.001875  0.249945  1
  Tm  Tm17  1  0.198951  0.501875  0.750062  1
  Tm  Tm18  1  0.698529  0.997573  0.749953  1
  Tm  Tm19  1  0.801891  0.497420  0.250082  1
  Sn  Sn20  1  0.292957  0.035727  0.040913  1
  Sn  Sn21  1  0.792551  0.466975  0.455642  1
  Sn  Sn22  1  0.707955  0.965041  0.545340  1
  Sn  Sn23  1  0.208833  0.535206  0.954351  1
  Sn  Sn24  1  0.705649  0.965706  0.954627  1
  Sn  Sn25  1  0.206757  0.534538  0.545693  1
  Sn  Sn26  1  0.292642  0.036108  0.458390  1
  Sn  Sn27  1  0.792303  0.466411  0.044939  1
  Sn  Sn28  1  0.563694  0.616984  0.749976  1
  Sn  Sn29  1  0.062061  0.882489  0.750020  1
  Sn  Sn30  1  0.437969  0.386156  0.250051  1
  Sn  Sn31  1  0.933231  0.117183  0.249989  1
  Sn  Sn32  1  0.324019  0.147634  0.750193  1
  Sn  Sn33  1  0.822722  0.353592  0.749724  1
  Sn  Sn34  1  0.679034  0.851374  0.250025  1
  Sn  Sn35  1  0.175137  0.642121  0.250002  1
