# generated using pymatgen
data_Lu20Ir5Pt7
_symmetry_space_group_name_H-M   'P 1'
_cell_length_a   10.81201065
_cell_length_b   10.81201002
_cell_length_c   6.24560309
_cell_angle_alpha   90.04217476
_cell_angle_beta   90.04217808
_cell_angle_gamma   90.29143928
_symmetry_Int_Tables_number   1
_chemical_formula_structural   Lu20Ir5Pt7
_chemical_formula_sum   'Lu20 Ir5 Pt7'
_cell_volume   730.09845807
_cell_formula_units_Z   1
loop_
 _symmetry_equiv_pos_site_id
 _symmetry_equiv_pos_as_xyz
  1  'x, y, z'
loop_
 _atom_site_type_symbol
 _atom_site_label
 _atom_site_symmetry_multiplicity
 _atom_site_fract_x
 _atom_site_fract_y
 _atom_site_fract_z
 _atom_site_occupancy
  Lu  Lu0  1  0.295581  0.085969  0.374277  1
  Lu  Lu1  1  0.295754  0.908812  0.875017  1
  Lu  Lu2  1  0.703939  0.086458  0.874111  1
  Lu  Lu3  1  0.703906  0.912566  0.373632  1
  Lu  Lu4  1  0.583194  0.793321  0.872647  1
  Lu  Lu5  1  0.586988  0.204725  0.375340  1
  Lu  Lu6  1  0.411073  0.793090  0.378731  1
  Lu  Lu7  1  0.412643  0.203422  0.874983  1
  Lu  Lu8  1  0.206679  0.416806  0.627353  1
  Lu  Lu9  1  0.206910  0.588927  0.121269  1
  Lu  Lu10  1  0.795275  0.413012  0.124660  1
  Lu  Lu11  1  0.796578  0.587357  0.625017  1
  Lu  Lu12  1  0.914031  0.704419  0.125723  1
  Lu  Lu13  1  0.913542  0.296061  0.625889  1
  Lu  Lu14  1  0.091188  0.704246  0.624983  1
  Lu  Lu15  1  0.087434  0.296094  0.126368  1
  Lu  Lu16  1  0.999492  0.999876  0.500408  1
  Lu  Lu17  1  0.000124  0.000508  0.999592  1
  Lu  Lu18  1  0.497840  0.500785  0.999338  1
  Lu  Lu19  1  0.499215  0.502160  0.500662  1
  Ir  Ir20  1  0.347020  0.652980  0.750000  1
  Ir  Ir21  1  0.499891  0.999854  0.121105  1
  Ir  Ir22  1  0.499733  0.999918  0.619813  1
  Ir  Ir23  1  0.000082  0.500267  0.880187  1
  Ir  Ir24  1  0.000146  0.500109  0.378895  1
  Pt  Pt25  1  0.846383  0.153617  0.250000  1
  Pt  Pt26  1  0.845131  0.846638  0.751075  1
  Pt  Pt27  1  0.153362  0.154869  0.748925  1
  Pt  Pt28  1  0.152609  0.847391  0.250000  1
  Pt  Pt29  1  0.653199  0.346801  0.750000  1
  Pt  Pt30  1  0.654919  0.653861  0.249335  1
  Pt  Pt31  1  0.346139  0.345081  0.250665  1
