# generated using pymatgen
data_Pr6SmDy(GeO5)4
_symmetry_space_group_name_H-M   'P 1'
_cell_length_a   8.44561129
_cell_length_b   8.45748913
_cell_length_c   11.01992401
_cell_angle_alpha   61.47145235
_cell_angle_beta   61.30073339
_cell_angle_gamma   49.95366555
_symmetry_Int_Tables_number   1
_chemical_formula_structural   Pr6SmDy(GeO5)4
_chemical_formula_sum   'Pr6 Sm1 Dy1 Ge4 O20'
_cell_volume   511.61159839
_cell_formula_units_Z   1
loop_
 _symmetry_equiv_pos_site_id
 _symmetry_equiv_pos_as_xyz
  1  'x, y, z'
loop_
 _atom_site_type_symbol
 _atom_site_label
 _atom_site_symmetry_multiplicity
 _atom_site_fract_x
 _atom_site_fract_y
 _atom_site_fract_z
 _atom_site_occupancy
  Pr  Pr0  1  0.718519  0.212140  0.964702  1
  Pr  Pr1  1  0.788785  0.276027  0.537666  1
  Pr  Pr2  1  0.276593  0.796284  0.035576  1
  Pr  Pr3  1  0.206395  0.720320  0.463811  1
  Pr  Pr4  1  0.987735  0.729861  0.839382  1
  Pr  Pr5  1  0.270601  0.018118  0.657260  1
  Sm  Sm6  1  0.010739  0.262808  0.169021  1
  Dy  Dy7  1  0.745704  0.977517  0.334079  1
  Ge  Ge8  1  0.776192  0.594871  0.686374  1
  Ge  Ge9  1  0.405467  0.224443  0.812906  1
  Ge  Ge10  1  0.227743  0.406050  0.303058  1
  Ge  Ge11  1  0.591373  0.776476  0.197103  1
  O  O12  1  0.773881  0.627800  0.066082  1
  O  O13  1  0.387893  0.221895  0.426760  1
  O  O14  1  0.220690  0.360373  0.950013  1
  O  O15  1  0.641700  0.781588  0.548917  1
  O  O16  1  0.584917  0.587300  0.364729  1
  O  O17  1  0.400689  0.424475  0.129199  1
  O  O18  1  0.406948  0.417068  0.646703  1
  O  O19  1  0.583926  0.592074  0.853282  1
  O  O20  1  0.953403  0.646575  0.675930  1
  O  O21  1  0.350590  0.049286  0.824401  1
  O  O22  1  0.054800  0.338663  0.326134  1
  O  O23  1  0.655767  0.947142  0.182154  1
  O  O24  1  0.884921  0.073956  0.395392  1
  O  O25  1  0.915952  0.110972  0.111342  1
  O  O26  1  0.108766  0.922772  0.603939  1
  O  O27  1  0.075923  0.896724  0.894084  1
  O  O28  1  0.086574  0.672824  0.319070  1
  O  O29  1  0.324363  0.913130  0.183906  1
  O  O30  1  0.910346  0.329830  0.673356  1
  O  O31  1  0.672102  0.090640  0.823670  1
