# generated using pymatgen
data_LiSc2(AsIr)3
_symmetry_space_group_name_H-M   'P 1'
_cell_length_a   6.54241108
_cell_length_b   6.59368294
_cell_length_c   3.95349100
_cell_angle_alpha   90.00000000
_cell_angle_beta   90.00000000
_cell_angle_gamma   120.25959470
_symmetry_Int_Tables_number   1
_chemical_formula_structural   LiSc2(AsIr)3
_chemical_formula_sum   'Li1 Sc2 As3 Ir3'
_cell_volume   147.31103215
_cell_formula_units_Z   1
loop_
 _symmetry_equiv_pos_site_id
 _symmetry_equiv_pos_as_xyz
  1  'x, y, z'
loop_
 _atom_site_type_symbol
 _atom_site_label
 _atom_site_symmetry_multiplicity
 _atom_site_fract_x
 _atom_site_fract_y
 _atom_site_fract_z
 _atom_site_occupancy
  Li  Li0  1  0.000000  0.426576  0.500000  1
  Sc  Sc1  1  0.583811  0.580652  0.500000  1
  Sc  Sc2  1  0.416189  0.996842  0.500000  1
  As  As3  1  0.679155  0.334359  0.000000  1
  As  As4  1  0.320845  0.655204  0.000000  1
  As  As5  1  0.000000  0.018071  0.500000  1
  Ir  Ir6  1  0.000000  0.758073  0.000000  1
  Ir  Ir7  1  0.252647  0.241435  0.000000  1
  Ir  Ir8  1  0.747353  0.988787  0.000000  1
