# generated using pymatgen
data_Tb16MgAg3Pt3Rh
_symmetry_space_group_name_H-M   'P 1'
_cell_length_a   9.68177016
_cell_length_b   9.68932959
_cell_length_c   9.68932900
_cell_angle_alpha   60.00000542
_cell_angle_beta   59.97417375
_cell_angle_gamma   59.97417017
_symmetry_Int_Tables_number   1
_chemical_formula_structural   Tb16MgAg3Pt3Rh
_chemical_formula_sum   'Tb16 Mg1 Ag3 Pt3 Rh1'
_cell_volume   642.47697077
_cell_formula_units_Z   1
loop_
 _symmetry_equiv_pos_site_id
 _symmetry_equiv_pos_as_xyz
  1  'x, y, z'
loop_
 _atom_site_type_symbol
 _atom_site_label
 _atom_site_symmetry_multiplicity
 _atom_site_fract_x
 _atom_site_fract_y
 _atom_site_fract_z
 _atom_site_occupancy
  Tb  Tb0  1  0.354795  0.350346  0.350346  1
  Tb  Tb1  1  0.354795  0.350346  0.944513  1
  Tb  Tb2  1  0.354795  0.944513  0.350346  1
  Tb  Tb3  1  0.930877  0.356374  0.356374  1
  Tb  Tb4  1  0.808426  0.188491  0.188491  1
  Tb  Tb5  1  0.186696  0.812429  0.812429  1
  Tb  Tb6  1  0.186696  0.812429  0.188444  1
  Tb  Tb7  1  0.808426  0.188491  0.814592  1
  Tb  Tb8  1  0.186696  0.188444  0.812429  1
  Tb  Tb9  1  0.808426  0.814592  0.188491  1
  Tb  Tb10  1  0.931853  0.566016  0.566016  1
  Tb  Tb11  1  0.565817  0.934247  0.934247  1
  Tb  Tb12  1  0.565817  0.934247  0.565690  1
  Tb  Tb13  1  0.931853  0.566016  0.936115  1
  Tb  Tb14  1  0.565817  0.565690  0.934247  1
  Tb  Tb15  1  0.931853  0.936115  0.566016  1
  Mg  Mg16  1  0.285255  0.571582  0.571582  1
  Ag  Ag17  1  0.582569  0.584407  0.584407  1
  Ag  Ag18  1  0.582569  0.584407  0.248620  1
  Ag  Ag19  1  0.582569  0.248620  0.584407  1
  Pt  Pt20  1  0.140977  0.145092  0.145092  1
  Pt  Pt21  1  0.140977  0.145092  0.568836  1
  Pt  Pt22  1  0.140977  0.568836  0.145092  1
  Rh  Rh23  1  0.570466  0.143178  0.143178  1
