# generated using pymatgen
data_Ho16Al4Ru3Pt
_symmetry_space_group_name_H-M   'P 1'
_cell_length_a   9.48569266
_cell_length_b   9.48043838
_cell_length_c   9.48044000
_cell_angle_alpha   60.00000133
_cell_angle_beta   60.01832305
_cell_angle_gamma   60.01832374
_symmetry_Int_Tables_number   1
_chemical_formula_structural   Ho16Al4Ru3Pt
_chemical_formula_sum   'Ho16 Al4 Ru3 Pt1'
_cell_volume   603.01927693
_cell_formula_units_Z   1
loop_
 _symmetry_equiv_pos_site_id
 _symmetry_equiv_pos_as_xyz
  1  'x, y, z'
loop_
 _atom_site_type_symbol
 _atom_site_label
 _atom_site_symmetry_multiplicity
 _atom_site_fract_x
 _atom_site_fract_y
 _atom_site_fract_z
 _atom_site_occupancy
  Ho  Ho0  1  0.440241  0.435476  0.062141  1
  Ho  Ho1  1  0.650433  0.645346  0.058876  1
  Ho  Ho2  1  0.189107  0.806270  0.198353  1
  Ho  Ho3  1  0.062080  0.438502  0.060917  1
  Ho  Ho4  1  0.189107  0.806270  0.806270  1
  Ho  Ho5  1  0.062080  0.438502  0.438502  1
  Ho  Ho6  1  0.806616  0.193240  0.193240  1
  Ho  Ho7  1  0.650433  0.645346  0.645346  1
  Ho  Ho8  1  0.806616  0.193240  0.806905  1
  Ho  Ho9  1  0.189107  0.198353  0.806270  1
  Ho  Ho10  1  0.055262  0.648246  0.648246  1
  Ho  Ho11  1  0.440241  0.062141  0.062141  1
  Ho  Ho12  1  0.062080  0.060917  0.438502  1
  Ho  Ho13  1  0.650433  0.058876  0.645346  1
  Ho  Ho14  1  0.806616  0.806905  0.193240  1
  Ho  Ho15  1  0.440241  0.062141  0.435476  1
  Al  Al16  1  0.422013  0.422480  0.422480  1
  Al  Al17  1  0.422013  0.422480  0.733029  1
  Al  Al18  1  0.422013  0.733029  0.422480  1
  Al  Al19  1  0.733822  0.422060  0.422060  1
  Ru  Ru20  1  0.857189  0.858661  0.858661  1
  Ru  Ru21  1  0.857189  0.425488  0.858661  1
  Ru  Ru22  1  0.857189  0.858661  0.425488  1
  Pt  Pt23  1  0.427877  0.857374  0.857374  1
