# generated using pymatgen
data_Tb9Th(Ga2Ru3)2
_symmetry_space_group_name_H-M   'P 1'
_cell_length_a   8.40572294
_cell_length_b   8.37552448
_cell_length_c   8.37552400
_cell_angle_alpha   109.16216535
_cell_angle_beta   109.55335240
_cell_angle_gamma   109.55182019
_symmetry_Int_Tables_number   1
_chemical_formula_structural   Tb9Th(Ga2Ru3)2
_chemical_formula_sum   'Tb9 Th1 Ga4 Ru6'
_cell_volume   454.73034219
_cell_formula_units_Z   1
loop_
 _symmetry_equiv_pos_site_id
 _symmetry_equiv_pos_as_xyz
  1  'x, y, z'
loop_
 _atom_site_type_symbol
 _atom_site_label
 _atom_site_symmetry_multiplicity
 _atom_site_fract_x
 _atom_site_fract_y
 _atom_site_fract_z
 _atom_site_occupancy
  Tb  Tb0  1  0.749884  0.817011  0.067033  1
  Tb  Tb1  1  0.434387  0.251545  0.683911  1
  Tb  Tb2  1  0.681049  0.433232  0.248725  1
  Tb  Tb3  1  0.065758  0.749618  0.817187  1
  Tb  Tb4  1  0.818925  0.067644  0.752206  1
  Tb  Tb5  1  0.217606  0.215282  0.217007  1
  Tb  Tb6  1  0.503618  0.001029  0.283977  1
  Tb  Tb7  1  0.282433  0.499508  0.997655  1
  Tb  Tb8  1  0.996389  0.280236  0.497406  1
  Th  Th9  1  0.249915  0.690423  0.440407  1
  Ga  Ga10  1  0.594602  0.589770  0.589953  1
  Ga  Ga11  1  0.503466  0.006308  0.917151  1
  Ga  Ga12  1  0.905353  0.495324  0.995030  1
  Ga  Ga13  1  0.996468  0.913581  0.502856  1
  Ru  Ru14  1  0.249964  0.125236  0.875240  1
  Ru  Ru15  1  0.750052  0.373322  0.623234  1
  Ru  Ru16  1  0.878707  0.249756  0.128272  1
  Ru  Ru17  1  0.129952  0.865002  0.256582  1
  Ru  Ru18  1  0.621315  0.749603  0.371078  1
  Ru  Ru19  1  0.370157  0.626569  0.735090  1
