# generated using pymatgen
data_Er6Ti2Fe7(Co3P4)3
_symmetry_space_group_name_H-M   'P 1'
_cell_length_a   3.72403800
_cell_length_b   10.59449888
_cell_length_c   12.15209555
_cell_angle_alpha   90.09861480
_cell_angle_beta   90.00000000
_cell_angle_gamma   90.00000000
_symmetry_Int_Tables_number   1
_chemical_formula_structural   Er6Ti2Fe7(Co3P4)3
_chemical_formula_sum   'Er6 Ti2 Fe7 Co9 P12'
_cell_volume   479.45191282
_cell_formula_units_Z   1
loop_
 _symmetry_equiv_pos_site_id
 _symmetry_equiv_pos_as_xyz
  1  'x, y, z'
loop_
 _atom_site_type_symbol
 _atom_site_label
 _atom_site_symmetry_multiplicity
 _atom_site_fract_x
 _atom_site_fract_y
 _atom_site_fract_z
 _atom_site_occupancy
  Er  Er0  1  0.750000  0.250177  0.472597  1
  Er  Er1  1  0.250000  0.751503  0.527366  1
  Er  Er2  1  0.250000  0.926906  0.794767  1
  Er  Er3  1  0.250000  0.572682  0.793988  1
  Er  Er4  1  0.750000  0.072642  0.205209  1
  Er  Er5  1  0.750000  0.427668  0.205992  1
  Ti  Ti6  1  0.250000  0.249764  0.849312  1
  Ti  Ti7  1  0.750000  0.750336  0.150902  1
  Fe  Fe8  1  0.250000  0.419367  0.002140  1
  Fe  Fe9  1  0.250000  0.081279  0.002418  1
  Fe  Fe10  1  0.750000  0.580884  0.997762  1
  Fe  Fe11  1  0.750000  0.919052  0.997528  1
  Fe  Fe12  1  0.250000  0.452041  0.569698  1
  Fe  Fe13  1  0.250000  0.047431  0.569094  1
  Fe  Fe14  1  0.750000  0.547140  0.430426  1
  Co  Co15  1  0.250000  0.249862  0.298050  1
  Co  Co16  1  0.750000  0.749514  0.701810  1
  Co  Co17  1  0.750000  0.250654  0.013247  1
  Co  Co18  1  0.250000  0.749717  0.986739  1
  Co  Co19  1  0.750000  0.951817  0.430523  1
  Co  Co20  1  0.250000  0.871949  0.293609  1
  Co  Co21  1  0.250000  0.630400  0.294029  1
  Co  Co22  1  0.750000  0.128823  0.706299  1
  Co  Co23  1  0.750000  0.369813  0.705964  1
  P  P24  1  0.250000  0.250314  0.113125  1
  P  P25  1  0.750000  0.749727  0.886731  1
  P  P26  1  0.250000  0.250033  0.647692  1
  P  P27  1  0.750000  0.747294  0.352201  1
  P  P28  1  0.250000  0.443298  0.385918  1
  P  P29  1  0.250000  0.058230  0.385416  1
  P  P30  1  0.750000  0.556584  0.614104  1
  P  P31  1  0.750000  0.942760  0.615563  1
  P  P32  1  0.250000  0.908893  0.106304  1
  P  P33  1  0.250000  0.591500  0.107164  1
  P  P34  1  0.750000  0.091203  0.893642  1
  P  P35  1  0.750000  0.408744  0.892672  1
