# generated using pymatgen
data_Ta12Ga9Co3C4
_symmetry_space_group_name_H-M   'P 1'
_cell_length_a   8.23837172
_cell_length_b   8.23837295
_cell_length_c   8.23837266
_cell_angle_alpha   60.09946938
_cell_angle_beta   60.09946595
_cell_angle_gamma   60.09946782
_symmetry_Int_Tables_number   1
_chemical_formula_structural   Ta12Ga9Co3C4
_chemical_formula_sum   'Ta12 Ga9 Co3 C4'
_cell_volume   396.26613871
_cell_formula_units_Z   1
loop_
 _symmetry_equiv_pos_site_id
 _symmetry_equiv_pos_as_xyz
  1  'x, y, z'
loop_
 _atom_site_type_symbol
 _atom_site_label
 _atom_site_symmetry_multiplicity
 _atom_site_fract_x
 _atom_site_fract_y
 _atom_site_fract_z
 _atom_site_occupancy
  Ta  Ta0  1  0.187060  0.812717  0.187060  1
  Ta  Ta1  1  0.812509  0.188570  0.812509  1
  Ta  Ta2  1  0.062940  0.437283  0.062940  1
  Ta  Ta3  1  0.061430  0.437491  0.437491  1
  Ta  Ta4  1  0.437283  0.062940  0.062940  1
  Ta  Ta5  1  0.437491  0.061430  0.437491  1
  Ta  Ta6  1  0.812509  0.812509  0.188570  1
  Ta  Ta7  1  0.062940  0.062940  0.437283  1
  Ta  Ta8  1  0.187060  0.187060  0.812717  1
  Ta  Ta9  1  0.188570  0.812509  0.812509  1
  Ta  Ta10  1  0.437491  0.437491  0.061430  1
  Ta  Ta11  1  0.812717  0.187060  0.187060  1
  Ga  Ga12  1  0.625000  0.625000  0.625000  1
  Ga  Ga13  1  0.842172  0.842172  0.495493  1
  Ga  Ga14  1  0.495493  0.842172  0.842172  1
  Ga  Ga15  1  0.407828  0.754507  0.407828  1
  Ga  Ga16  1  0.754507  0.407828  0.407828  1
  Ga  Ga17  1  0.415911  0.415911  0.415911  1
  Ga  Ga18  1  0.407828  0.407828  0.754507  1
  Ga  Ga19  1  0.842172  0.495493  0.842172  1
  Ga  Ga20  1  0.834089  0.834089  0.834089  1
  Co  Co21  1  0.125000  0.625000  0.625000  1
  Co  Co22  1  0.625000  0.625000  0.125000  1
  Co  Co23  1  0.625000  0.125000  0.625000  1
  C  C24  1  0.125000  0.125000  0.125000  1
  C  C25  1  0.125000  0.125000  0.625000  1
  C  C26  1  0.625000  0.125000  0.125000  1
  C  C27  1  0.125000  0.625000  0.125000  1
