# generated using pymatgen
data_Th2Zn(AsRh2)6
_symmetry_space_group_name_H-M   'P 1'
_cell_length_a   10.02048300
_cell_length_b   10.02048289
_cell_length_c   4.01416300
_cell_angle_alpha   90.00000000
_cell_angle_beta   90.00000000
_cell_angle_gamma   119.99999706
_symmetry_Int_Tables_number   1
_chemical_formula_structural   Th2Zn(AsRh2)6
_chemical_formula_sum   'Th2 Zn1 As6 Rh12'
_cell_volume   349.06230696
_cell_formula_units_Z   1
loop_
 _symmetry_equiv_pos_site_id
 _symmetry_equiv_pos_as_xyz
  1  'x, y, z'
loop_
 _atom_site_type_symbol
 _atom_site_label
 _atom_site_symmetry_multiplicity
 _atom_site_fract_x
 _atom_site_fract_y
 _atom_site_fract_z
 _atom_site_occupancy
  Th  Th0  1  0.333333  0.666667  0.751743  1
  Th  Th1  1  0.666667  0.333333  0.250179  1
  Zn  Zn2  1  0.000000  0.000000  0.578418  1
  As  As3  1  0.887167  0.602092  0.750054  1
  As  As4  1  0.397908  0.285075  0.750054  1
  As  As5  1  0.714925  0.112833  0.750054  1
  As  As6  1  0.110755  0.396972  0.252260  1
  As  As7  1  0.603028  0.713783  0.252260  1
  As  As8  1  0.286217  0.889245  0.252260  1
  Rh  Rh9  1  0.617567  0.549241  0.751500  1
  Rh  Rh10  1  0.450759  0.068324  0.751500  1
  Rh  Rh11  1  0.931676  0.382433  0.751500  1
  Rh  Rh12  1  0.384355  0.450949  0.251067  1
  Rh  Rh13  1  0.549051  0.933406  0.251067  1
  Rh  Rh14  1  0.066594  0.615645  0.251067  1
  Rh  Rh15  1  0.127612  0.843867  0.753142  1
  Rh  Rh16  1  0.156133  0.283745  0.753142  1
  Rh  Rh17  1  0.716255  0.872388  0.753142  1
  Rh  Rh18  1  0.875557  0.147527  0.249957  1
  Rh  Rh19  1  0.852473  0.728030  0.249957  1
  Rh  Rh20  1  0.271970  0.124443  0.249957  1
