# generated using pymatgen
data_Y10Ag3Ir
_symmetry_space_group_name_H-M   'P 1'
_cell_length_a   9.60154500
_cell_length_b   9.60154485
_cell_length_c   9.68914000
_cell_angle_alpha   90.00000000
_cell_angle_beta   90.00000000
_cell_angle_gamma   119.99999707
_symmetry_Int_Tables_number   1
_chemical_formula_structural   Y10Ag3Ir
_chemical_formula_sum   'Y20 Ag6 Ir2'
_cell_volume   773.56731618
_cell_formula_units_Z   2
loop_
 _symmetry_equiv_pos_site_id
 _symmetry_equiv_pos_as_xyz
  1  'x, y, z'
loop_
 _atom_site_type_symbol
 _atom_site_label
 _atom_site_symmetry_multiplicity
 _atom_site_fract_x
 _atom_site_fract_y
 _atom_site_fract_z
 _atom_site_occupancy
  Y  Y0  1  0.208077  0.791923  0.941665  1
  Y  Y1  1  0.208077  0.416155  0.941665  1
  Y  Y2  1  0.583845  0.791923  0.941665  1
  Y  Y3  1  0.791923  0.208077  0.058335  1
  Y  Y4  1  0.791923  0.583845  0.058335  1
  Y  Y5  1  0.416155  0.208077  0.058335  1
  Y  Y6  1  0.791923  0.208077  0.441665  1
  Y  Y7  1  0.791923  0.583845  0.441665  1
  Y  Y8  1  0.416155  0.208077  0.441665  1
  Y  Y9  1  0.208077  0.791923  0.558335  1
  Y  Y10  1  0.208077  0.416155  0.558335  1
  Y  Y11  1  0.583845  0.791923  0.558335  1
  Y  Y12  1  0.542210  0.457790  0.750000  1
  Y  Y13  1  0.542210  0.084420  0.750000  1
  Y  Y14  1  0.915580  0.457790  0.750000  1
  Y  Y15  1  0.457790  0.542210  0.250000  1
  Y  Y16  1  0.457790  0.915580  0.250000  1
  Y  Y17  1  0.084420  0.542210  0.250000  1
  Y  Y18  1  0.000000  0.000000  0.000000  1
  Y  Y19  1  0.000000  0.000000  0.500000  1
  Ag  Ag20  1  0.883381  0.116619  0.750000  1
  Ag  Ag21  1  0.883381  0.766763  0.750000  1
  Ag  Ag22  1  0.233237  0.116619  0.750000  1
  Ag  Ag23  1  0.116619  0.883381  0.250000  1
  Ag  Ag24  1  0.116619  0.233237  0.250000  1
  Ag  Ag25  1  0.766763  0.883381  0.250000  1
  Ir  Ir26  1  0.333333  0.666667  0.750000  1
  Ir  Ir27  1  0.666667  0.333333  0.250000  1
