# generated using pymatgen
data_Ce4MnAl2Os
_symmetry_space_group_name_H-M   'P 1'
_cell_length_a   7.81480000
_cell_length_b   7.81479922
_cell_length_c   9.64051600
_cell_angle_alpha   90.00000000
_cell_angle_beta   90.00000000
_cell_angle_gamma   119.99999484
_symmetry_Int_Tables_number   1
_chemical_formula_structural   Ce4MnAl2Os
_chemical_formula_sum   'Ce12 Mn3 Al6 Os3'
_cell_volume   509.87841397
_cell_formula_units_Z   3
loop_
 _symmetry_equiv_pos_site_id
 _symmetry_equiv_pos_as_xyz
  1  'x, y, z'
loop_
 _atom_site_type_symbol
 _atom_site_label
 _atom_site_symmetry_multiplicity
 _atom_site_fract_x
 _atom_site_fract_y
 _atom_site_fract_z
 _atom_site_occupancy
  Ce  Ce0  1  0.000000  0.558256  0.491687  1
  Ce  Ce1  1  0.558256  0.000000  0.491687  1
  Ce  Ce2  1  0.441744  0.441744  0.491687  1
  Ce  Ce3  1  0.000000  0.407415  0.007282  1
  Ce  Ce4  1  0.407415  0.000000  0.007282  1
  Ce  Ce5  1  0.592585  0.592585  0.007282  1
  Ce  Ce6  1  0.000000  0.743173  0.180741  1
  Ce  Ce7  1  0.743173  0.000000  0.180741  1
  Ce  Ce8  1  0.256827  0.256827  0.180741  1
  Ce  Ce9  1  0.000000  0.267015  0.674682  1
  Ce  Ce10  1  0.267015  0.000000  0.674682  1
  Ce  Ce11  1  0.732985  0.732985  0.674682  1
  Mn  Mn12  1  0.000000  0.353803  0.341826  1
  Mn  Mn13  1  0.353803  0.000000  0.341826  1
  Mn  Mn14  1  0.646197  0.646197  0.341826  1
  Al  Al15  1  0.666667  0.333333  0.265709  1
  Al  Al16  1  0.333333  0.666667  0.265709  1
  Al  Al17  1  0.333333  0.666667  0.774258  1
  Al  Al18  1  0.666667  0.333333  0.774258  1
  Al  Al19  1  0.000000  0.000000  0.425461  1
  Al  Al20  1  0.000000  0.000000  0.923830  1
  Os  Os21  1  0.000000  0.664705  0.837123  1
  Os  Os22  1  0.664705  0.000000  0.837123  1
  Os  Os23  1  0.335295  0.335295  0.837123  1
