# generated using pymatgen
data_Cs2MnGeO4
_symmetry_space_group_name_H-M   'P 1'
_cell_length_a   6.13045100
_cell_length_b   13.11432000
_cell_length_c   8.38406400
_cell_angle_alpha   90.00000000
_cell_angle_beta   90.00000000
_cell_angle_gamma   90.00000000
_symmetry_Int_Tables_number   1
_chemical_formula_structural   Cs2MnGeO4
_chemical_formula_sum   'Cs8 Mn4 Ge4 O16'
_cell_volume   674.05104598
_cell_formula_units_Z   4
loop_
 _symmetry_equiv_pos_site_id
 _symmetry_equiv_pos_as_xyz
  1  'x, y, z'
loop_
 _atom_site_type_symbol
 _atom_site_label
 _atom_site_symmetry_multiplicity
 _atom_site_fract_x
 _atom_site_fract_y
 _atom_site_fract_z
 _atom_site_occupancy
  Cs  Cs0  1  0.500000  0.076089  0.549161  1
  Cs  Cs1  1  0.000000  0.576089  0.549161  1
  Cs  Cs2  1  0.000000  0.423911  0.049161  1
  Cs  Cs3  1  0.500000  0.923911  0.049161  1
  Cs  Cs4  1  0.500000  0.413049  0.402092  1
  Cs  Cs5  1  0.000000  0.913049  0.402092  1
  Cs  Cs6  1  0.000000  0.086951  0.902092  1
  Cs  Cs7  1  0.500000  0.586951  0.902092  1
  Mn  Mn8  1  0.500000  0.795717  0.624753  1
  Mn  Mn9  1  0.000000  0.704283  0.124753  1
  Mn  Mn10  1  0.000000  0.295717  0.624753  1
  Mn  Mn11  1  0.500000  0.204283  0.124753  1
  Ge  Ge12  1  0.500000  0.310819  0.836236  1
  Ge  Ge13  1  0.000000  0.810819  0.836236  1
  Ge  Ge14  1  0.000000  0.189181  0.336236  1
  Ge  Ge15  1  0.500000  0.689181  0.336236  1
  O  O16  1  0.500000  0.175132  0.873036  1
  O  O17  1  0.000000  0.675132  0.873036  1
  O  O18  1  0.000000  0.324868  0.373036  1
  O  O19  1  0.500000  0.824868  0.373036  1
  O  O20  1  0.000000  0.143068  0.539857  1
  O  O21  1  0.500000  0.643068  0.539857  1
  O  O22  1  0.500000  0.356932  0.039857  1
  O  O23  1  0.000000  0.856932  0.039857  1
  O  O24  1  0.234182  0.142861  0.233483  1
  O  O25  1  0.734182  0.642861  0.233483  1
  O  O26  1  0.265818  0.357139  0.733483  1
  O  O27  1  0.765818  0.857139  0.733483  1
  O  O28  1  0.765818  0.142861  0.233483  1
  O  O29  1  0.265818  0.642861  0.233483  1
  O  O30  1  0.734182  0.357139  0.733483  1
  O  O31  1  0.234182  0.857139  0.733483  1
