# generated using pymatgen
data_Sc3Pa2Ru3
_symmetry_space_group_name_H-M   'P 1'
_cell_length_a   5.99669200
_cell_length_b   7.75177209
_cell_length_c   8.03097951
_cell_angle_alpha   118.85646081
_cell_angle_beta   90.00000000
_cell_angle_gamma   90.00000000
_symmetry_Int_Tables_number   1
_chemical_formula_structural   Sc3Pa2Ru3
_chemical_formula_sum   'Sc6 Pa4 Ru6'
_cell_volume   326.96542323
_cell_formula_units_Z   2
loop_
 _symmetry_equiv_pos_site_id
 _symmetry_equiv_pos_as_xyz
  1  'x, y, z'
loop_
 _atom_site_type_symbol
 _atom_site_label
 _atom_site_symmetry_multiplicity
 _atom_site_fract_x
 _atom_site_fract_y
 _atom_site_fract_z
 _atom_site_occupancy
  Sc  Sc0  1  0.000000  0.662096  0.324191  1
  Sc  Sc1  1  0.000000  0.337904  0.675809  1
  Sc  Sc2  1  0.500000  0.337904  0.675809  1
  Sc  Sc3  1  0.500000  0.662096  0.324191  1
  Sc  Sc4  1  0.750000  0.256782  0.000000  1
  Sc  Sc5  1  0.250000  0.743218  0.000000  1
  Pa  Pa6  1  0.750000  0.755572  0.750558  1
  Pa  Pa7  1  0.250000  0.244428  0.249442  1
  Pa  Pa8  1  0.750000  0.005014  0.249442  1
  Pa  Pa9  1  0.250000  0.994986  0.750558  1
  Ru  Ru10  1  0.750000  0.373487  0.392173  1
  Ru  Ru11  1  0.250000  0.626513  0.607827  1
  Ru  Ru12  1  0.750000  0.981314  0.607827  1
  Ru  Ru13  1  0.250000  0.018686  0.392173  1
  Ru  Ru14  1  0.750000  0.632599  0.000000  1
  Ru  Ru15  1  0.250000  0.367401  0.000000  1
