# generated using pymatgen
data_Ho12Fe4BiIr
_symmetry_space_group_name_H-M   'P 1'
_cell_length_a   8.31445496
_cell_length_b   8.31446236
_cell_length_c   8.31445461
_cell_angle_alpha   111.15571132
_cell_angle_beta   110.94312089
_cell_angle_gamma   106.35898280
_symmetry_Int_Tables_number   1
_chemical_formula_structural   Ho12Fe4BiIr
_chemical_formula_sum   'Ho12 Fe4 Bi1 Ir1'
_cell_volume   441.49216747
_cell_formula_units_Z   1
loop_
 _symmetry_equiv_pos_site_id
 _symmetry_equiv_pos_as_xyz
  1  'x, y, z'
loop_
 _atom_site_type_symbol
 _atom_site_label
 _atom_site_symmetry_multiplicity
 _atom_site_fract_x
 _atom_site_fract_y
 _atom_site_fract_z
 _atom_site_occupancy
  Ho  Ho0  1  0.817274  0.717060  0.534334  1
  Ho  Ho1  1  0.182726  0.282940  0.465666  1
  Ho  Ho2  1  0.182727  0.717060  0.899788  1
  Ho  Ho3  1  0.817273  0.282940  0.100212  1
  Ho  Ho4  1  0.689877  0.383217  0.693342  1
  Ho  Ho5  1  0.310123  0.616783  0.306658  1
  Ho  Ho6  1  0.689876  0.996532  0.306656  1
  Ho  Ho7  1  0.310124  0.003468  0.693344  1
  Ho  Ho8  1  0.589747  0.787515  0.802235  1
  Ho  Ho9  1  0.410253  0.212485  0.197765  1
  Ho  Ho10  1  0.985281  0.787515  0.197768  1
  Ho  Ho11  1  0.014719  0.212485  0.802232  1
  Fe  Fe12  1  0.615065  0.000000  0.615065  1
  Fe  Fe13  1  0.384935  0.000000  0.384935  1
  Fe  Fe14  1  0.106117  0.606118  0.500001  1
  Fe  Fe15  1  0.893883  0.393882  0.499999  1
  Bi  Bi16  1  0.500000  0.500000  0.000000  1
  Ir  Ir17  1  0.000000  0.000000  0.000000  1
