# generated using pymatgen
data_LaPr2(AlPt)4
_symmetry_space_group_name_H-M   'P 1'
_cell_length_a   8.38083891
_cell_length_b   8.38083841
_cell_length_c   8.38083700
_cell_angle_alpha   150.74830636
_cell_angle_beta   128.05916028
_cell_angle_gamma   60.72798706
_symmetry_Int_Tables_number   1
_chemical_formula_structural   LaPr2(AlPt)4
_chemical_formula_sum   'La1 Pr2 Al4 Pt4'
_cell_volume   224.64760213
_cell_formula_units_Z   1
loop_
 _symmetry_equiv_pos_site_id
 _symmetry_equiv_pos_as_xyz
  1  'x, y, z'
loop_
 _atom_site_type_symbol
 _atom_site_label
 _atom_site_symmetry_multiplicity
 _atom_site_fract_x
 _atom_site_fract_y
 _atom_site_fract_z
 _atom_site_occupancy
  La  La0  1  0.500000  0.000000  0.500000  1
  Pr  Pr1  1  0.879110  0.879110  0.000000  1
  Pr  Pr2  1  0.120890  0.120890  0.000000  1
  Al  Al3  1  0.485500  0.678730  0.806771  1
  Al  Al4  1  0.871958  0.678730  0.193229  1
  Al  Al5  1  0.128042  0.321270  0.806771  1
  Al  Al6  1  0.514500  0.321270  0.193229  1
  Pt  Pt7  1  0.281040  0.781040  0.500000  1
  Pt  Pt8  1  0.718960  0.218960  0.500000  1
  Pt  Pt9  1  0.788920  0.500000  0.288920  1
  Pt  Pt10  1  0.211080  0.500000  0.711080  1
