# generated using pymatgen
data_Eu20Si11P
_symmetry_space_group_name_H-M   'P 1'
_cell_length_a   7.68756500
_cell_length_b   7.68756500
_cell_length_c   14.93702600
_cell_angle_alpha   90.00000000
_cell_angle_beta   90.00000000
_cell_angle_gamma   90.00000000
_symmetry_Int_Tables_number   1
_chemical_formula_structural   Eu20Si11P
_chemical_formula_sum   'Eu20 Si11 P1'
_cell_volume   882.75815570
_cell_formula_units_Z   1
loop_
 _symmetry_equiv_pos_site_id
 _symmetry_equiv_pos_as_xyz
  1  'x, y, z'
loop_
 _atom_site_type_symbol
 _atom_site_label
 _atom_site_symmetry_multiplicity
 _atom_site_fract_x
 _atom_site_fract_y
 _atom_site_fract_z
 _atom_site_occupancy
  Eu  Eu0  1  0.311639  0.667788  0.103576  1
  Eu  Eu1  1  0.167788  0.188361  0.103576  1
  Eu  Eu2  1  0.500000  0.000000  0.734360  1
  Eu  Eu3  1  0.331977  0.686027  0.394228  1
  Eu  Eu4  1  0.672052  0.683715  0.896243  1
  Eu  Eu5  1  0.186027  0.168023  0.394228  1
  Eu  Eu6  1  0.668023  0.313973  0.394228  1
  Eu  Eu7  1  0.170271  0.814736  0.605633  1
  Eu  Eu8  1  0.327948  0.316285  0.896243  1
  Eu  Eu9  1  0.183715  0.827948  0.896243  1
  Eu  Eu10  1  0.500000  0.000000  0.230264  1
  Eu  Eu11  1  0.829729  0.185264  0.605633  1
  Eu  Eu12  1  0.314736  0.329729  0.605633  1
  Eu  Eu13  1  0.813973  0.831977  0.394228  1
  Eu  Eu14  1  0.816285  0.172052  0.896243  1
  Eu  Eu15  1  0.832212  0.811639  0.103576  1
  Eu  Eu16  1  0.000000  0.500000  0.273696  1
  Eu  Eu17  1  0.000000  0.500000  0.766899  1
  Eu  Eu18  1  0.688361  0.332212  0.103576  1
  Eu  Eu19  1  0.685264  0.670271  0.605633  1
  Si  Si20  1  0.110887  0.111832  0.752104  1
  Si  Si21  1  0.388168  0.610887  0.752104  1
  Si  Si22  1  0.611721  0.610771  0.247603  1
  Si  Si23  1  0.500000  0.000000  0.007202  1
  Si  Si24  1  0.110771  0.888279  0.247603  1
  Si  Si25  1  0.611832  0.389113  0.752104  1
  Si  Si26  1  0.889113  0.888168  0.752104  1
  Si  Si27  1  0.388279  0.389229  0.247603  1
  Si  Si28  1  0.889229  0.111721  0.247603  1
  Si  Si29  1  0.500000  0.000000  0.507811  1
  Si  Si30  1  0.000000  0.500000  0.492987  1
  P  P31  1  0.000000  0.500000  0.989242  1
