# generated using pymatgen
data_MoPbBr6
_symmetry_space_group_name_H-M   'P 1'
_cell_length_a   7.26665693
_cell_length_b   7.27324719
_cell_length_c   7.83243461
_cell_angle_alpha   89.73997034
_cell_angle_beta   116.78153073
_cell_angle_gamma   119.97263270
_symmetry_Int_Tables_number   1
_chemical_formula_structural   MoPbBr6
_chemical_formula_sum   'Mo1 Pb1 Br6'
_cell_volume   306.83584908
_cell_formula_units_Z   1
loop_
 _symmetry_equiv_pos_site_id
 _symmetry_equiv_pos_as_xyz
  1  'x, y, z'
loop_
 _atom_site_type_symbol
 _atom_site_label
 _atom_site_symmetry_multiplicity
 _atom_site_fract_x
 _atom_site_fract_y
 _atom_site_fract_z
 _atom_site_occupancy
  Mo  Mo0  1  0.578434  0.289219  0.867931  1
  Pb  Pb1  1  0.240863  0.621385  0.861191  1
  Br  Br2  1  0.444942  0.068272  0.094148  1
  Br  Br3  1  0.142635  0.208445  0.649484  1
  Br  Br4  1  0.716873  0.508769  0.644642  1
  Br  Br5  1  0.446940  0.936512  0.647863  1
  Br  Br6  1  0.711413  0.642648  0.090247  1
  Br  Br7  1  0.016903  0.374249  0.092994  1
