# generated using pymatgen
data_Tb2Nd2CrMo5O24
_symmetry_space_group_name_H-M   'P 1'
_cell_length_a   7.51810861
_cell_length_b   7.51810917
_cell_length_c   10.82744074
_cell_angle_alpha   90.19674864
_cell_angle_beta   90.19674565
_cell_angle_gamma   90.53814009
_symmetry_Int_Tables_number   1
_chemical_formula_structural   Tb2Nd2CrMo5O24
_chemical_formula_sum   'Tb2 Nd2 Cr1 Mo5 O24'
_cell_volume   611.95390873
_cell_formula_units_Z   1
loop_
 _symmetry_equiv_pos_site_id
 _symmetry_equiv_pos_as_xyz
  1  'x, y, z'
loop_
 _atom_site_type_symbol
 _atom_site_label
 _atom_site_symmetry_multiplicity
 _atom_site_fract_x
 _atom_site_fract_y
 _atom_site_fract_z
 _atom_site_occupancy
  Tb  Tb0  1  0.187410  0.687410  0.266886  1
  Tb  Tb1  1  0.812811  0.312811  0.260764  1
  Nd  Nd2  1  0.686446  0.808252  0.737093  1
  Nd  Nd3  1  0.308252  0.186446  0.737093  1
  Cr  Cr4  1  0.208508  0.708508  0.640820  1
  Mo  Mo5  1  0.790505  0.290505  0.639884  1
  Mo  Mo6  1  0.708631  0.793035  0.352521  1
  Mo  Mo7  1  0.293035  0.208631  0.352521  1
  Mo  Mo8  1  0.002887  0.997211  0.005907  1
  Mo  Mo9  1  0.497211  0.502887  0.005907  1
  O  O10  1  0.198434  0.698434  0.487600  1
  O  O11  1  0.804296  0.304296  0.476031  1
  O  O12  1  0.701432  0.807168  0.516202  1
  O  O13  1  0.307168  0.201432  0.516202  1
  O  O14  1  0.624374  0.124374  0.686369  1
  O  O15  1  0.364008  0.864008  0.686433  1
  O  O16  1  0.126555  0.374521  0.307856  1
  O  O17  1  0.874521  0.626555  0.307856  1
  O  O18  1  0.773475  0.005080  0.293434  1
  O  O19  1  0.224936  0.994503  0.297309  1
  O  O20  1  0.505080  0.273475  0.293434  1
  O  O21  1  0.494503  0.724936  0.297309  1
  O  O22  1  0.998650  0.223075  0.702018  1
  O  O23  1  0.012713  0.768070  0.695799  1
  O  O24  1  0.723075  0.498650  0.702018  1
  O  O25  1  0.268070  0.512713  0.695799  1
  O  O26  1  0.817329  0.952718  0.905905  1
  O  O27  1  0.192233  0.041461  0.911013  1
  O  O28  1  0.452718  0.317329  0.905905  1
  O  O29  1  0.541461  0.692233  0.911013  1
  O  O30  1  0.956366  0.188225  0.099805  1
  O  O31  1  0.045429  0.809254  0.102743  1
  O  O32  1  0.688225  0.456366  0.099805  1
  O  O33  1  0.309254  0.545429  0.102743  1
