# generated using pymatgen
data_LiNdZnCu3
_symmetry_space_group_name_H-M   'P 1'
_cell_length_a   5.18472540
_cell_length_b   5.18472574
_cell_length_c   5.17951400
_cell_angle_alpha   59.96671349
_cell_angle_beta   59.96671134
_cell_angle_gamma   59.99999604
_symmetry_Int_Tables_number   1
_chemical_formula_structural   LiNdZnCu3
_chemical_formula_sum   'Li1 Nd1 Zn1 Cu3'
_cell_volume   98.40266349
_cell_formula_units_Z   1
loop_
 _symmetry_equiv_pos_site_id
 _symmetry_equiv_pos_as_xyz
  1  'x, y, z'
loop_
 _atom_site_type_symbol
 _atom_site_label
 _atom_site_symmetry_multiplicity
 _atom_site_fract_x
 _atom_site_fract_y
 _atom_site_fract_z
 _atom_site_occupancy
  Li  Li0  1  0.251070  0.251070  0.246788  1
  Nd  Nd1  1  0.002636  0.002636  0.992093  1
  Zn  Zn2  1  0.620424  0.620424  0.138727  1
  Cu  Cu3  1  0.622939  0.129991  0.624131  1
  Cu  Cu4  1  0.129991  0.622939  0.624131  1
  Cu  Cu5  1  0.622939  0.622939  0.624131  1
