# generated using pymatgen
data_Sm3Cr4BiF28
_symmetry_space_group_name_H-M   'P 1'
_cell_length_a   5.58077563
_cell_length_b   8.95886183
_cell_length_c   11.89017011
_cell_angle_alpha   62.63601425
_cell_angle_beta   90.02175465
_cell_angle_gamma   89.83191859
_symmetry_Int_Tables_number   1
_chemical_formula_structural   Sm3Cr4BiF28
_chemical_formula_sum   'Sm3 Cr4 Bi1 F28'
_cell_volume   527.95491505
_cell_formula_units_Z   1
loop_
 _symmetry_equiv_pos_site_id
 _symmetry_equiv_pos_as_xyz
  1  'x, y, z'
loop_
 _atom_site_type_symbol
 _atom_site_label
 _atom_site_symmetry_multiplicity
 _atom_site_fract_x
 _atom_site_fract_y
 _atom_site_fract_z
 _atom_site_occupancy
  Sm  Sm0  1  0.265974  0.196271  0.734590  1
  Sm  Sm1  1  0.233709  0.191993  0.234430  1
  Sm  Sm2  1  0.734601  0.808906  0.265451  1
  Cr  Cr3  1  0.756498  0.272769  0.957576  1
  Cr  Cr4  1  0.256855  0.726539  0.542282  1
  Cr  Cr5  1  0.243721  0.725989  0.044029  1
  Cr  Cr6  1  0.743325  0.275114  0.456179  1
  Bi  Bi7  1  0.773339  0.814259  0.763973  1
  F  F8  1  0.426013  0.705979  0.924457  1
  F  F9  1  0.931129  0.291222  0.577610  1
  F  F10  1  0.568301  0.290815  0.077787  1
  F  F11  1  0.069124  0.707878  0.421731  1
  F  F12  1  0.459411  0.281010  0.542976  1
  F  F13  1  0.955370  0.718730  0.958805  1
  F  F14  1  0.541660  0.718165  0.457132  1
  F  F15  1  0.041088  0.280453  0.042836  1
  F  F16  1  0.768209  0.501169  0.864705  1
  F  F17  1  0.266582  0.493893  0.635236  1
  F  F18  1  0.232435  0.494518  0.136793  1
  F  F19  1  0.732593  0.505538  0.363897  1
  F  F20  1  0.757348  0.042285  0.046561  1
  F  F21  1  0.256497  0.956558  0.453090  1
  F  F22  1  0.242971  0.956266  0.953426  1
  F  F23  1  0.743839  0.044058  0.544897  1
  F  F24  1  0.976434  0.728844  0.631264  1
  F  F25  1  0.477933  0.270047  0.866817  1
  F  F26  1  0.021327  0.271132  0.366787  1
  F  F27  1  0.521995  0.729125  0.133866  1
  F  F28  1  0.057196  0.743370  0.167393  1
  F  F29  1  0.556756  0.257014  0.333268  1
  F  F30  1  0.943164  0.254667  0.833476  1
  F  F31  1  0.437216  0.741623  0.666542  1
  F  F32  1  0.406849  0.972337  0.226526  1
  F  F33  1  0.907212  0.028436  0.273314  1
  F  F34  1  0.597450  0.030330  0.774487  1
  F  F35  1  0.095876  0.972697  0.725812  1
