# generated using pymatgen
data_Ti8MnCo3Os4
_symmetry_space_group_name_H-M   'P 1'
_cell_length_a   6.11712000
_cell_length_b   4.30705600
_cell_length_c   8.59855200
_cell_angle_alpha   90.00000000
_cell_angle_beta   89.99993858
_cell_angle_gamma   90.00000000
_symmetry_Int_Tables_number   1
_chemical_formula_structural   Ti8MnCo3Os4
_chemical_formula_sum   'Ti8 Mn1 Co3 Os4'
_cell_volume   226.54414409
_cell_formula_units_Z   1
loop_
 _symmetry_equiv_pos_site_id
 _symmetry_equiv_pos_as_xyz
  1  'x, y, z'
loop_
 _atom_site_type_symbol
 _atom_site_label
 _atom_site_symmetry_multiplicity
 _atom_site_fract_x
 _atom_site_fract_y
 _atom_site_fract_z
 _atom_site_occupancy
  Ti  Ti0  1  0.001855  0.749999  0.122866  1
  Ti  Ti1  1  0.498153  0.749999  0.122869  1
  Ti  Ti2  1  0.999114  0.250000  0.374995  1
  Ti  Ti3  1  0.500880  0.250000  0.374997  1
  Ti  Ti4  1  0.498127  0.749999  0.627135  1
  Ti  Ti5  1  0.001858  0.749999  0.627135  1
  Ti  Ti6  1  0.496812  0.250000  0.874997  1
  Ti  Ti7  1  0.003182  0.250000  0.874998  1
  Mn  Mn8  1  0.250032  0.749999  0.875008  1
  Co  Co9  1  0.749998  0.250000  0.125074  1
  Co  Co10  1  0.249999  0.749999  0.375006  1
  Co  Co11  1  0.749988  0.250000  0.624923  1
  Os  Os12  1  0.249998  0.250000  0.126655  1
  Os  Os13  1  0.750002  0.749999  0.375006  1
  Os  Os14  1  0.249989  0.250000  0.623339  1
  Os  Os15  1  0.750017  0.749999  0.874996  1
