# generated using pymatgen
data_CsGa(PO3)4
_symmetry_space_group_name_H-M   'P 1'
_cell_length_a   10.71624015
_cell_length_b   10.71624043
_cell_length_c   5.26202224
_cell_angle_alpha   80.66251697
_cell_angle_beta   80.66252062
_cell_angle_gamma   73.69715722
_symmetry_Int_Tables_number   1
_chemical_formula_structural   CsGa(PO3)4
_chemical_formula_sum   'Cs2 Ga2 P8 O24'
_cell_volume   567.93532201
_cell_formula_units_Z   2
loop_
 _symmetry_equiv_pos_site_id
 _symmetry_equiv_pos_as_xyz
  1  'x, y, z'
loop_
 _atom_site_type_symbol
 _atom_site_label
 _atom_site_symmetry_multiplicity
 _atom_site_fract_x
 _atom_site_fract_y
 _atom_site_fract_z
 _atom_site_occupancy
  Cs  Cs0  1  0.400676  0.400676  0.768397  1
  Cs  Cs1  1  0.599324  0.599324  0.231603  1
  Ga  Ga2  1  0.500000  0.000000  0.000000  1
  Ga  Ga3  1  0.000000  0.500000  0.000000  1
  P  P4  1  0.813710  0.343162  0.842150  1
  P  P5  1  0.075508  0.311946  0.536756  1
  P  P6  1  0.311946  0.075508  0.536756  1
  P  P7  1  0.656838  0.186290  0.157850  1
  P  P8  1  0.343162  0.813710  0.842150  1
  P  P9  1  0.688054  0.924492  0.463244  1
  P  P10  1  0.924492  0.688054  0.463244  1
  P  P11  1  0.186290  0.656838  0.157850  1
  O  O12  1  0.408767  0.864874  0.024469  1
  O  O13  1  0.401167  0.101991  0.705546  1
  O  O14  1  0.419283  0.696170  0.719226  1
  O  O15  1  0.135126  0.591233  0.975531  1
  O  O16  1  0.591233  0.135126  0.975531  1
  O  O17  1  0.906049  0.648076  0.751545  1
  O  O18  1  0.205089  0.794911  0.000000  1
  O  O19  1  0.580717  0.303830  0.280774  1
  O  O20  1  0.598833  0.898009  0.294454  1
  O  O21  1  0.714758  0.065305  0.373829  1
  O  O22  1  0.303830  0.580717  0.280774  1
  O  O23  1  0.898009  0.598833  0.294454  1
  O  O24  1  0.864874  0.408767  0.024469  1
  O  O25  1  0.065305  0.714758  0.373829  1
  O  O26  1  0.166304  0.166304  0.599891  1
  O  O27  1  0.101991  0.401167  0.705546  1
  O  O28  1  0.696170  0.419283  0.719226  1
  O  O29  1  0.285242  0.934695  0.626171  1
  O  O30  1  0.794911  0.205089  0.000000  1
  O  O31  1  0.351924  0.093951  0.248455  1
  O  O32  1  0.648076  0.906049  0.751545  1
  O  O33  1  0.833696  0.833696  0.400109  1
  O  O34  1  0.934695  0.285242  0.626171  1
  O  O35  1  0.093951  0.351924  0.248455  1
