# generated using pymatgen
data_Er4Al24Ir2Pt7
_symmetry_space_group_name_H-M   'P 1'
_cell_length_a   7.50337286
_cell_length_b   7.50277143
_cell_length_c   13.15370065
_cell_angle_alpha   84.51270795
_cell_angle_beta   100.91374032
_cell_angle_gamma   119.77556233
_symmetry_Int_Tables_number   1
_chemical_formula_structural   Er4Al24Ir2Pt7
_chemical_formula_sum   'Er4 Al24 Ir2 Pt7'
_cell_volume   631.11278471
_cell_formula_units_Z   1
loop_
 _symmetry_equiv_pos_site_id
 _symmetry_equiv_pos_as_xyz
  1  'x, y, z'
loop_
 _atom_site_type_symbol
 _atom_site_label
 _atom_site_symmetry_multiplicity
 _atom_site_fract_x
 _atom_site_fract_y
 _atom_site_fract_z
 _atom_site_occupancy
  Er  Er0  1  0.732019  0.998700  0.190317  1
  Er  Er1  1  0.267162  0.001262  0.809564  1
  Er  Er2  1  0.062229  0.668905  0.190735  1
  Er  Er3  1  0.938331  0.331592  0.809472  1
  Al  Al4  1  0.810478  0.870595  0.817664  1
  Al  Al5  1  0.190102  0.128595  0.182316  1
  Al  Al6  1  0.985238  0.668787  0.946347  1
  Al  Al7  1  0.019952  0.334314  0.053348  1
  Al  Al8  1  0.396215  0.663087  0.818838  1
  Al  Al9  1  0.601998  0.335590  0.182648  1
  Al  Al10  1  0.882644  0.664945  0.673210  1
  Al  Al11  1  0.117331  0.334778  0.326166  1
  Al  Al12  1  0.603349  0.457939  0.816906  1
  Al  Al13  1  0.397256  0.544064  0.181558  1
  Al  Al14  1  0.230763  0.339939  0.671099  1
  Al  Al15  1  0.769472  0.660050  0.328977  1
  Al  Al16  1  0.853518  0.333609  0.559342  1
  Al  Al17  1  0.186617  0.999590  0.559200  1
  Al  Al18  1  0.813920  0.999958  0.440788  1
  Al  Al19  1  0.348921  0.996543  0.053675  1
  Al  Al20  1  0.648059  0.998254  0.946734  1
  Al  Al21  1  0.556821  0.992385  0.673742  1
  Al  Al22  1  0.443550  0.007353  0.326688  1
  Al  Al23  1  0.521580  0.668633  0.561755  1
  Al  Al24  1  0.478321  0.331614  0.438059  1
  Al  Al25  1  0.682416  0.671038  0.043142  1
  Al  Al26  1  0.314457  0.332164  0.956843  1
  Al  Al27  1  0.146836  0.665833  0.440931  1
  Ir  Ir28  1  0.328566  0.671339  0.000015  1
  Ir  Ir29  1  0.999842  0.000212  0.999981  1
  Pt  Pt30  1  0.545739  0.324427  0.636955  1
  Pt  Pt31  1  0.454271  0.675203  0.362819  1
  Pt  Pt32  1  0.887917  0.008430  0.638400  1
  Pt  Pt33  1  0.112125  0.991560  0.361612  1
  Pt  Pt34  1  0.671506  0.328650  0.999932  1
  Pt  Pt35  1  0.204058  0.666967  0.638616  1
  Pt  Pt36  1  0.796419  0.333094  0.361607  1
