# generated using pymatgen
data_YTm5Al24(NiOs3)2
_symmetry_space_group_name_H-M   'P 1'
_cell_length_a   8.84257300
_cell_length_b   8.76131684
_cell_length_c   9.47843400
_cell_angle_alpha   90.00051723
_cell_angle_beta   90.00014382
_cell_angle_gamma   120.30575433
_symmetry_Int_Tables_number   1
_chemical_formula_structural   YTm5Al24(NiOs3)2
_chemical_formula_sum   'Y1 Tm5 Al24 Ni2 Os6'
_cell_volume   633.97034872
_cell_formula_units_Z   1
loop_
 _symmetry_equiv_pos_site_id
 _symmetry_equiv_pos_as_xyz
  1  'x, y, z'
loop_
 _atom_site_type_symbol
 _atom_site_label
 _atom_site_symmetry_multiplicity
 _atom_site_fract_x
 _atom_site_fract_y
 _atom_site_fract_z
 _atom_site_occupancy
  Y  Y0  1  0.194982  0.389950  0.250028  1
  Tm  Tm1  1  0.803392  0.606830  0.749969  1
  Tm  Tm2  1  0.612498  0.796971  0.250035  1
  Tm  Tm3  1  0.387699  0.203436  0.749967  1
  Tm  Tm4  1  0.184469  0.796947  0.250032  1
  Tm  Tm5  1  0.815745  0.203465  0.749971  1
  Al  Al6  1  0.336486  0.672961  0.021871  1
  Al  Al7  1  0.663747  0.327502  0.977170  1
  Al  Al8  1  0.663766  0.327527  0.522844  1
  Al  Al9  1  0.336474  0.672940  0.478115  1
  Al  Al10  1  0.165130  0.330173  0.574926  1
  Al  Al11  1  0.835010  0.670104  0.426451  1
  Al  Al12  1  0.673582  0.838933  0.576854  1
  Al  Al13  1  0.835013  0.670106  0.073554  1
  Al  Al14  1  0.327156  0.161010  0.423813  1
  Al  Al15  1  0.165129  0.330170  0.925073  1
  Al  Al16  1  0.165331  0.838931  0.576825  1
  Al  Al17  1  0.327151  0.161009  0.076191  1
  Al  Al18  1  0.833868  0.161014  0.423840  1
  Al  Al19  1  0.673585  0.838933  0.923142  1
  Al  Al20  1  0.833877  0.161017  0.076165  1
  Al  Al21  1  0.165323  0.838928  0.923170  1
  Al  Al22  1  0.555116  0.110218  0.249996  1
  Al  Al23  1  0.444984  0.889977  0.749999  1
  Al  Al24  1  0.872855  0.433681  0.250001  1
  Al  Al25  1  0.126705  0.566838  0.749999  1
  Al  Al26  1  0.560833  0.433676  0.250001  1
  Al  Al27  1  0.440118  0.566835  0.750000  1
  Al  Al28  1  0.997787  0.995600  0.250000  1
  Al  Al29  1  0.000807  0.001585  0.749999  1
  Ni  Ni30  1  0.500126  0.000240  0.999973  1
  Ni  Ni31  1  0.500128  0.000240  0.500025  1
  Os  Os32  1  0.999687  0.500358  0.999490  1
  Os  Os33  1  0.500674  0.500358  0.999492  1
  Os  Os34  1  0.999688  0.500361  0.500510  1
  Os  Os35  1  0.500674  0.500358  0.500509  1
  Os  Os36  1  0.000202  0.000410  0.999988  1
  Os  Os37  1  0.000201  0.000409  0.500014  1
