# generated using pymatgen
data_Ta3Co2ReN
_symmetry_space_group_name_H-M   'P 1'
_cell_length_a   8.10085989
_cell_length_b   8.10085996
_cell_length_c   8.10086000
_cell_angle_alpha   60.00000799
_cell_angle_beta   60.00000771
_cell_angle_gamma   60.00000542
_symmetry_Int_Tables_number   1
_chemical_formula_structural   Ta3Co2ReN
_chemical_formula_sum   'Ta12 Co8 Re4 N4'
_cell_volume   375.90529508
_cell_formula_units_Z   4
loop_
 _symmetry_equiv_pos_site_id
 _symmetry_equiv_pos_as_xyz
  1  'x, y, z'
loop_
 _atom_site_type_symbol
 _atom_site_label
 _atom_site_symmetry_multiplicity
 _atom_site_fract_x
 _atom_site_fract_y
 _atom_site_fract_z
 _atom_site_occupancy
  Ta  Ta0  1  0.807918  0.807918  0.192082  1
  Ta  Ta1  1  0.192082  0.192082  0.807918  1
  Ta  Ta2  1  0.807918  0.192082  0.807918  1
  Ta  Ta3  1  0.192082  0.807918  0.192082  1
  Ta  Ta4  1  0.192082  0.807918  0.807918  1
  Ta  Ta5  1  0.807918  0.192082  0.192082  1
  Ta  Ta6  1  0.442082  0.442082  0.057918  1
  Ta  Ta7  1  0.057918  0.057918  0.442082  1
  Ta  Ta8  1  0.442082  0.057918  0.442082  1
  Ta  Ta9  1  0.057918  0.442082  0.057918  1
  Ta  Ta10  1  0.057918  0.442082  0.442082  1
  Ta  Ta11  1  0.442082  0.057918  0.057918  1
  Co  Co12  1  0.735610  0.421464  0.421464  1
  Co  Co13  1  0.421464  0.735610  0.421464  1
  Co  Co14  1  0.421464  0.421464  0.735610  1
  Co  Co15  1  0.421464  0.421464  0.421464  1
  Co  Co16  1  0.514390  0.828536  0.828536  1
  Co  Co17  1  0.828536  0.514390  0.828536  1
  Co  Co18  1  0.828536  0.828536  0.514390  1
  Co  Co19  1  0.828536  0.828536  0.828536  1
  Re  Re20  1  0.125000  0.625000  0.625000  1
  Re  Re21  1  0.625000  0.125000  0.625000  1
  Re  Re22  1  0.625000  0.625000  0.125000  1
  Re  Re23  1  0.625000  0.625000  0.625000  1
  N  N24  1  0.625000  0.125000  0.125000  1
  N  N25  1  0.125000  0.625000  0.125000  1
  N  N26  1  0.125000  0.125000  0.625000  1
  N  N27  1  0.125000  0.125000  0.125000  1
