# generated using pymatgen
data_La8Si12NiPd3
_symmetry_space_group_name_H-M   'P 1'
_cell_length_a   8.29205000
_cell_length_b   8.29205054
_cell_length_c   8.77095000
_cell_angle_alpha   90.00000000
_cell_angle_beta   90.00000000
_cell_angle_gamma   120.00000581
_symmetry_Int_Tables_number   1
_chemical_formula_structural   La8Si12NiPd3
_chemical_formula_sum   'La8 Si12 Ni1 Pd3'
_cell_volume   522.27723273
_cell_formula_units_Z   1
loop_
 _symmetry_equiv_pos_site_id
 _symmetry_equiv_pos_as_xyz
  1  'x, y, z'
loop_
 _atom_site_type_symbol
 _atom_site_label
 _atom_site_symmetry_multiplicity
 _atom_site_fract_x
 _atom_site_fract_y
 _atom_site_fract_z
 _atom_site_occupancy
  La  La0  1  0.500572  0.499428  0.751515  1
  La  La1  1  0.501512  0.498488  0.248692  1
  La  La2  1  0.998855  0.499428  0.751515  1
  La  La3  1  0.996976  0.498488  0.248692  1
  La  La4  1  0.500572  0.001145  0.751515  1
  La  La5  1  0.501512  0.003024  0.248692  1
  La  La6  1  0.000000  0.000000  0.750548  1
  La  La7  1  0.000000  0.000000  0.249479  1
  Si  Si8  1  0.829580  0.170420  0.000047  1
  Si  Si9  1  0.164637  0.835363  0.999853  1
  Si  Si10  1  0.340839  0.170420  0.000047  1
  Si  Si11  1  0.164905  0.835095  0.500112  1
  Si  Si12  1  0.670726  0.835363  0.999853  1
  Si  Si13  1  0.835368  0.164632  0.499978  1
  Si  Si14  1  0.829580  0.659161  0.000047  1
  Si  Si15  1  0.670190  0.835095  0.500112  1
  Si  Si16  1  0.164637  0.329274  0.999853  1
  Si  Si17  1  0.329263  0.164632  0.499978  1
  Si  Si18  1  0.164905  0.329810  0.500112  1
  Si  Si19  1  0.835368  0.670737  0.499978  1
  Ni  Ni20  1  0.666667  0.333333  0.997058  1
  Pd  Pd21  1  0.333333  0.666667  0.002159  1
  Pd  Pd22  1  0.333333  0.666667  0.498090  1
  Pd  Pd23  1  0.666667  0.333333  0.502072  1
