# generated using pymatgen
data_Er2ZrScIr2
_symmetry_space_group_name_H-M   'P 1'
_cell_length_a   4.51053300
_cell_length_b   7.07303100
_cell_length_c   8.39890500
_cell_angle_alpha   90.00000000
_cell_angle_beta   90.00000000
_cell_angle_gamma   90.00000000
_symmetry_Int_Tables_number   1
_chemical_formula_structural   Er2ZrScIr2
_chemical_formula_sum   'Er4 Zr2 Sc2 Ir4'
_cell_volume   267.95143984
_cell_formula_units_Z   2
loop_
 _symmetry_equiv_pos_site_id
 _symmetry_equiv_pos_as_xyz
  1  'x, y, z'
loop_
 _atom_site_type_symbol
 _atom_site_label
 _atom_site_symmetry_multiplicity
 _atom_site_fract_x
 _atom_site_fract_y
 _atom_site_fract_z
 _atom_site_occupancy
  Er  Er0  1  0.250000  0.013258  0.327835  1
  Er  Er1  1  0.250000  0.513258  0.172165  1
  Er  Er2  1  0.750000  0.987433  0.675678  1
  Er  Er3  1  0.750000  0.487433  0.824322  1
  Zr  Zr4  1  0.250000  0.138995  0.928941  1
  Zr  Zr5  1  0.250000  0.638995  0.571059  1
  Sc  Sc6  1  0.750000  0.856671  0.075038  1
  Sc  Sc7  1  0.750000  0.356671  0.424962  1
  Ir  Ir8  1  0.250000  0.262162  0.598870  1
  Ir  Ir9  1  0.250000  0.762162  0.901130  1
  Ir  Ir10  1  0.750000  0.741482  0.409716  1
  Ir  Ir11  1  0.750000  0.241482  0.090284  1
