# generated using pymatgen
data_FeTc(Ir2Rh)2
_symmetry_space_group_name_H-M   'P 1'
_cell_length_a   5.46619800
_cell_length_b   5.47745990
_cell_length_c   4.37496100
_cell_angle_alpha   90.00000000
_cell_angle_beta   90.00000000
_cell_angle_gamma   119.93200987
_symmetry_Int_Tables_number   1
_chemical_formula_structural   FeTc(Ir2Rh)2
_chemical_formula_sum   'Fe1 Tc1 Ir4 Rh2'
_cell_volume   113.51846684
_cell_formula_units_Z   1
loop_
 _symmetry_equiv_pos_site_id
 _symmetry_equiv_pos_as_xyz
  1  'x, y, z'
loop_
 _atom_site_type_symbol
 _atom_site_label
 _atom_site_symmetry_multiplicity
 _atom_site_fract_x
 _atom_site_fract_y
 _atom_site_fract_z
 _atom_site_occupancy
  Fe  Fe0  1  0.666828  0.333654  0.250000  1
  Tc  Tc1  1  0.333261  0.666522  0.750000  1
  Ir  Ir2  1  0.167363  0.334726  0.250000  1
  Ir  Ir3  1  0.665406  0.832636  0.250000  1
  Ir  Ir4  1  0.167230  0.832636  0.250000  1
  Ir  Ir5  1  0.832183  0.664366  0.750000  1
  Rh  Rh6  1  0.335600  0.167730  0.750000  1
  Rh  Rh7  1  0.832130  0.167730  0.750000  1
