# generated using pymatgen
data_Tb3Er(ZnIr)4
_symmetry_space_group_name_H-M   'P 1'
_cell_length_a   4.04781200
_cell_length_b   7.03416526
_cell_length_c   8.13172612
_cell_angle_alpha   90.14943912
_cell_angle_beta   90.00000000
_cell_angle_gamma   90.00000000
_symmetry_Int_Tables_number   1
_chemical_formula_structural   Tb3Er(ZnIr)4
_chemical_formula_sum   'Tb3 Er1 Zn4 Ir4'
_cell_volume   231.53367589
_cell_formula_units_Z   1
loop_
 _symmetry_equiv_pos_site_id
 _symmetry_equiv_pos_as_xyz
  1  'x, y, z'
loop_
 _atom_site_type_symbol
 _atom_site_label
 _atom_site_symmetry_multiplicity
 _atom_site_fract_x
 _atom_site_fract_y
 _atom_site_fract_z
 _atom_site_occupancy
  Tb  Tb0  1  0.250000  0.039605  0.316508  1
  Tb  Tb1  1  0.250000  0.539140  0.182487  1
  Tb  Tb2  1  0.750000  0.960761  0.684253  1
  Er  Er3  1  0.750000  0.460570  0.817055  1
  Zn  Zn4  1  0.250000  0.635563  0.565036  1
  Zn  Zn5  1  0.250000  0.136945  0.934874  1
  Zn  Zn6  1  0.750000  0.363727  0.436232  1
  Zn  Zn7  1  0.750000  0.863060  0.063940  1
  Ir  Ir8  1  0.250000  0.258574  0.624405  1
  Ir  Ir9  1  0.250000  0.753899  0.876753  1
  Ir  Ir10  1  0.750000  0.743880  0.377295  1
  Ir  Ir11  1  0.750000  0.244280  0.121163  1
