# generated using pymatgen
data_Nd2CoNi(SnH)2
_symmetry_space_group_name_H-M   'P 1'
_cell_length_a   4.37377800
_cell_length_b   7.26912460
_cell_length_c   8.45150277
_cell_angle_alpha   89.11178868
_cell_angle_beta   90.00000000
_cell_angle_gamma   90.00000000
_symmetry_Int_Tables_number   1
_chemical_formula_structural   Nd2CoNi(SnH)2
_chemical_formula_sum   'Nd4 Co2 Ni2 Sn4 H4'
_cell_volume   268.67088158
_cell_formula_units_Z   2
loop_
 _symmetry_equiv_pos_site_id
 _symmetry_equiv_pos_as_xyz
  1  'x, y, z'
loop_
 _atom_site_type_symbol
 _atom_site_label
 _atom_site_symmetry_multiplicity
 _atom_site_fract_x
 _atom_site_fract_y
 _atom_site_fract_z
 _atom_site_occupancy
  Nd  Nd0  1  0.750000  0.013120  0.691628  1
  Nd  Nd1  1  0.250000  0.986880  0.308372  1
  Nd  Nd2  1  0.250000  0.486000  0.186224  1
  Nd  Nd3  1  0.750000  0.514000  0.813776  1
  Co  Co4  1  0.750000  0.776426  0.104127  1
  Co  Co5  1  0.250000  0.223574  0.895873  1
  Ni  Ni6  1  0.250000  0.720015  0.599269  1
  Ni  Ni7  1  0.750000  0.279985  0.400731  1
  Sn  Sn8  1  0.750000  0.655452  0.427903  1
  Sn  Sn9  1  0.250000  0.344548  0.572097  1
  Sn  Sn10  1  0.250000  0.846961  0.932535  1
  Sn  Sn11  1  0.750000  0.153039  0.067465  1
  H  H12  1  0.250000  0.441011  0.917596  1
  H  H13  1  0.750000  0.558989  0.082404  1
  H  H14  1  0.750000  0.061815  0.420273  1
  H  H15  1  0.250000  0.938185  0.579727  1
