# generated using pymatgen
data_LaLu2Th3In10
_symmetry_space_group_name_H-M   'P 1'
_cell_length_a   6.58281166
_cell_length_b   6.58281164
_cell_length_c   10.34241315
_cell_angle_alpha   89.98761617
_cell_angle_beta   89.98761296
_cell_angle_gamma   102.39441521
_symmetry_Int_Tables_number   1
_chemical_formula_structural   LaLu2Th3In10
_chemical_formula_sum   'La1 Lu2 Th3 In10'
_cell_volume   437.72654179
_cell_formula_units_Z   1
loop_
 _symmetry_equiv_pos_site_id
 _symmetry_equiv_pos_as_xyz
  1  'x, y, z'
loop_
 _atom_site_type_symbol
 _atom_site_label
 _atom_site_symmetry_multiplicity
 _atom_site_fract_x
 _atom_site_fract_y
 _atom_site_fract_z
 _atom_site_occupancy
  La  La0  1  0.706030  0.293970  0.000000  1
  Lu  Lu1  1  0.132515  0.131635  0.749196  1
  Lu  Lu2  1  0.868365  0.867485  0.250804  1
  Th  Th3  1  0.705922  0.294078  0.500000  1
  Th  Th4  1  0.293636  0.706364  0.000000  1
  Th  Th5  1  0.293694  0.706306  0.500000  1
  In  In6  1  0.508948  0.509509  0.749385  1
  In  In7  1  0.490491  0.491052  0.250615  1
  In  In8  1  0.812000  0.811801  0.545639  1
  In  In9  1  0.188199  0.188000  0.454361  1
  In  In10  1  0.811673  0.811133  0.954101  1
  In  In11  1  0.188867  0.188327  0.045899  1
  In  In12  1  0.993215  0.566484  0.749204  1
  In  In13  1  0.433516  0.006785  0.250796  1
  In  In14  1  0.007769  0.434837  0.250571  1
  In  In15  1  0.565163  0.992231  0.749429  1
