# generated using pymatgen
data_Ce10Sn6Te
_symmetry_space_group_name_H-M   'P 1'
_cell_length_a   6.59377446
_cell_length_b   9.55228691
_cell_length_c   9.57058100
_cell_angle_alpha   119.93679614
_cell_angle_beta   89.97867627
_cell_angle_gamma   90.04272544
_symmetry_Int_Tables_number   1
_chemical_formula_structural   Ce10Sn6Te
_chemical_formula_sum   'Ce10 Sn6 Te1'
_cell_volume   522.37995445
_cell_formula_units_Z   1
loop_
 _symmetry_equiv_pos_site_id
 _symmetry_equiv_pos_as_xyz
  1  'x, y, z'
loop_
 _atom_site_type_symbol
 _atom_site_label
 _atom_site_symmetry_multiplicity
 _atom_site_fract_x
 _atom_site_fract_y
 _atom_site_fract_z
 _atom_site_occupancy
  Ce  Ce0  1  0.498796  0.333119  0.666211  1
  Ce  Ce1  1  0.498796  0.666908  0.333789  1
  Ce  Ce2  1  0.001272  0.666855  0.333891  1
  Ce  Ce3  1  0.001272  0.332964  0.666109  1
  Ce  Ce4  1  0.759948  0.274783  0.000000  1
  Ce  Ce5  1  0.759583  0.725232  0.725118  1
  Ce  Ce6  1  0.759583  0.000112  0.274882  1
  Ce  Ce7  1  0.240481  0.725417  0.000000  1
  Ce  Ce8  1  0.240705  0.274596  0.274660  1
  Ce  Ce9  1  0.240705  0.999937  0.725340  1
  Sn  Sn10  1  0.746056  0.620458  0.000000  1
  Sn  Sn11  1  0.745879  0.379739  0.379797  1
  Sn  Sn12  1  0.745879  0.999941  0.620203  1
  Sn  Sn13  1  0.254024  0.379054  0.000000  1
  Sn  Sn14  1  0.254047  0.620192  0.619866  1
  Sn  Sn15  1  0.254047  0.000326  0.380134  1
  Te  Te16  1  0.498924  0.000365  0.000000  1
