# generated using pymatgen
data_La2Tb2CrFe3(WO6)4
_symmetry_space_group_name_H-M   'P 1'
_cell_length_a   5.35951900
_cell_length_b   7.54118693
_cell_length_c   11.12405600
_cell_angle_alpha   90.00000000
_cell_angle_beta   90.00000000
_cell_angle_gamma   90.08817150
_symmetry_Int_Tables_number   1
_chemical_formula_structural   La2Tb2CrFe3(WO6)4
_chemical_formula_sum   'La2 Tb2 Cr1 Fe3 W4 O24'
_cell_volume   449.60193662
_cell_formula_units_Z   1
loop_
 _symmetry_equiv_pos_site_id
 _symmetry_equiv_pos_as_xyz
  1  'x, y, z'
loop_
 _atom_site_type_symbol
 _atom_site_label
 _atom_site_symmetry_multiplicity
 _atom_site_fract_x
 _atom_site_fract_y
 _atom_site_fract_z
 _atom_site_occupancy
  La  La0  1  0.958841  0.252562  0.042850  1
  La  La1  1  0.459241  0.752100  0.457347  1
  Tb  Tb2  1  0.549846  0.253264  0.546137  1
  Tb  Tb3  1  0.050100  0.754464  0.954249  1
  Cr  Cr4  1  0.452104  0.507290  0.134137  1
  Fe  Fe5  1  0.958644  0.010191  0.361821  1
  Fe  Fe6  1  0.046113  0.504949  0.639792  1
  Fe  Fe7  1  0.545061  0.005265  0.858957  1
  W  W8  1  0.450742  0.994230  0.141124  1
  W  W9  1  0.947692  0.495006  0.358103  1
  W  W10  1  0.051882  0.001856  0.644219  1
  W  W11  1  0.554576  0.502504  0.855535  1
  O  O12  1  0.736755  0.548635  0.018332  1
  O  O13  1  0.732985  0.954504  0.027135  1
  O  O14  1  0.327383  0.754699  0.119171  1
  O  O15  1  0.545265  0.243504  0.138168  1
  O  O16  1  0.136411  0.060153  0.211214  1
  O  O17  1  0.126615  0.442504  0.218549  1
  O  O18  1  0.623831  0.941623  0.282226  1
  O  O19  1  0.636726  0.559515  0.287264  1
  O  O20  1  0.044299  0.743829  0.362251  1
  O  O21  1  0.826285  0.254378  0.380701  1
  O  O22  1  0.232393  0.454166  0.473220  1
  O  O23  1  0.237681  0.048100  0.482272  1
  O  O24  1  0.763381  0.532183  0.521860  1
  O  O25  1  0.768733  0.970594  0.530720  1
  O  O26  1  0.152657  0.758622  0.621720  1
  O  O27  1  0.936238  0.247092  0.648668  1
  O  O28  1  0.372101  0.068967  0.706763  1
  O  O29  1  0.389740  0.443296  0.711041  1
  O  O30  1  0.889695  0.943115  0.789909  1
  O  O31  1  0.873307  0.568791  0.793815  1
  O  O32  1  0.435828  0.746554  0.851543  1
  O  O33  1  0.652515  0.258832  0.878652  1
  O  O34  1  0.271300  0.471215  0.972571  1
  O  O35  1  0.263040  0.031864  0.977965  1
