# generated using pymatgen
data_Pr12IrOs2Ru
_symmetry_space_group_name_H-M   'P 1'
_cell_length_a   6.59260302
_cell_length_b   7.52111945
_cell_length_c   9.86601400
_cell_angle_alpha   90.00000000
_cell_angle_beta   90.00000000
_cell_angle_gamma   90.02438591
_symmetry_Int_Tables_number   1
_chemical_formula_structural   Pr12IrOs2Ru
_chemical_formula_sum   'Pr12 Ir1 Os2 Ru1'
_cell_volume   489.19397492
_cell_formula_units_Z   1
loop_
 _symmetry_equiv_pos_site_id
 _symmetry_equiv_pos_as_xyz
  1  'x, y, z'
loop_
 _atom_site_type_symbol
 _atom_site_label
 _atom_site_symmetry_multiplicity
 _atom_site_fract_x
 _atom_site_fract_y
 _atom_site_fract_z
 _atom_site_occupancy
  Pr  Pr0  1  0.330553  0.674752  0.066628  1
  Pr  Pr1  1  0.172147  0.177604  0.432782  1
  Pr  Pr2  1  0.671591  0.323973  0.567613  1
  Pr  Pr3  1  0.826438  0.824081  0.930615  1
  Pr  Pr4  1  0.671591  0.323973  0.932387  1
  Pr  Pr5  1  0.826438  0.824081  0.569385  1
  Pr  Pr6  1  0.330553  0.674752  0.433372  1
  Pr  Pr7  1  0.172147  0.177604  0.067218  1
  Pr  Pr8  1  0.855600  0.538269  0.250000  1
  Pr  Pr9  1  0.643286  0.041427  0.250000  1
  Pr  Pr10  1  0.144032  0.461010  0.750000  1
  Pr  Pr11  1  0.353719  0.960058  0.750000  1
  Ir  Ir12  1  0.055289  0.884371  0.250000  1
  Os  Os13  1  0.444895  0.384261  0.250000  1
  Os  Os14  1  0.552499  0.615744  0.750000  1
  Ru  Ru15  1  0.949224  0.114043  0.750000  1
