# generated using pymatgen
data_Y5Ga2Sb
_symmetry_space_group_name_H-M   'P 1'
_cell_length_a   8.69978166
_cell_length_b   8.73097599
_cell_length_c   6.58366300
_cell_angle_alpha   90.00000000
_cell_angle_beta   90.00000000
_cell_angle_gamma   120.11867782
_symmetry_Int_Tables_number   1
_chemical_formula_structural   Y5Ga2Sb
_chemical_formula_sum   'Y10 Ga4 Sb2'
_cell_volume   432.56239926
_cell_formula_units_Z   2
loop_
 _symmetry_equiv_pos_site_id
 _symmetry_equiv_pos_as_xyz
  1  'x, y, z'
loop_
 _atom_site_type_symbol
 _atom_site_label
 _atom_site_symmetry_multiplicity
 _atom_site_fract_x
 _atom_site_fract_y
 _atom_site_fract_z
 _atom_site_occupancy
  Y  Y0  1  0.314804  0.657402  0.000000  1
  Y  Y1  1  0.668243  0.334121  0.500000  1
  Y  Y2  1  0.668243  0.334121  0.000000  1
  Y  Y3  1  0.314804  0.657402  0.500000  1
  Y  Y4  1  0.235419  0.000312  0.250000  1
  Y  Y5  1  0.235419  0.235106  0.750000  1
  Y  Y6  1  0.012620  0.763869  0.750000  1
  Y  Y7  1  0.012620  0.248751  0.250000  1
  Y  Y8  1  0.762166  0.750238  0.250000  1
  Y  Y9  1  0.762166  0.011928  0.750000  1
  Ga  Ga10  1  0.998773  0.398731  0.750000  1
  Ga  Ga11  1  0.998773  0.600042  0.250000  1
  Ga  Ga12  1  0.402973  0.398237  0.250000  1
  Ga  Ga13  1  0.402973  0.004736  0.750000  1
  Sb  Sb14  1  0.605002  0.995318  0.250000  1
  Sb  Sb15  1  0.605002  0.609684  0.750000  1
