# generated using pymatgen
data_MnTc6MoO24
_symmetry_space_group_name_H-M   'P 1'
_cell_length_a   10.57898742
_cell_length_b   10.57898660
_cell_length_c   10.57898700
_cell_angle_alpha   48.98196125
_cell_angle_beta   48.98197229
_cell_angle_gamma   48.98197176
_symmetry_Int_Tables_number   1
_chemical_formula_structural   MnTc6MoO24
_chemical_formula_sum   'Mn1 Tc6 Mo1 O24'
_cell_volume   618.82207403
_cell_formula_units_Z   1
loop_
 _symmetry_equiv_pos_site_id
 _symmetry_equiv_pos_as_xyz
  1  'x, y, z'
loop_
 _atom_site_type_symbol
 _atom_site_label
 _atom_site_symmetry_multiplicity
 _atom_site_fract_x
 _atom_site_fract_y
 _atom_site_fract_z
 _atom_site_occupancy
  Mn  Mn0  1  0.500000  0.500000  0.500000  1
  Tc  Tc1  1  0.593612  0.908235  0.248339  1
  Tc  Tc2  1  0.248339  0.593612  0.908235  1
  Tc  Tc3  1  0.908235  0.248339  0.593612  1
  Tc  Tc4  1  0.751661  0.406388  0.091765  1
  Tc  Tc5  1  0.091765  0.751661  0.406388  1
  Tc  Tc6  1  0.406388  0.091765  0.751661  1
  Mo  Mo7  1  0.000000  0.000000  0.000000  1
  O  O8  1  0.815183  0.887846  0.170392  1
  O  O9  1  0.170392  0.815183  0.887846  1
  O  O10  1  0.887846  0.170392  0.815183  1
  O  O11  1  0.679685  0.383014  0.307017  1
  O  O12  1  0.307017  0.679685  0.383014  1
  O  O13  1  0.383014  0.307017  0.679685  1
  O  O14  1  0.184817  0.112154  0.829608  1
  O  O15  1  0.829608  0.184817  0.112154  1
  O  O16  1  0.112154  0.829608  0.184817  1
  O  O17  1  0.320315  0.616986  0.692983  1
  O  O18  1  0.692983  0.320315  0.616986  1
  O  O19  1  0.616986  0.692983  0.320315  1
  O  O20  1  0.440795  0.976219  0.425904  1
  O  O21  1  0.425904  0.440795  0.976219  1
  O  O22  1  0.976219  0.425904  0.440795  1
  O  O23  1  0.925010  0.480167  0.937621  1
  O  O24  1  0.937621  0.925010  0.480167  1
  O  O25  1  0.480167  0.937621  0.925010  1
  O  O26  1  0.559205  0.023781  0.574096  1
  O  O27  1  0.574096  0.559205  0.023781  1
  O  O28  1  0.023781  0.574096  0.559205  1
  O  O29  1  0.074990  0.519833  0.062379  1
  O  O30  1  0.062379  0.074990  0.519833  1
  O  O31  1  0.519833  0.062379  0.074990  1
