# generated using pymatgen
data_Ca20Cd5Pd7
_symmetry_space_group_name_H-M   'P 1'
_cell_length_a   7.95991805
_cell_length_b   7.95998105
_cell_length_c   14.91563400
_cell_angle_alpha   90.00033251
_cell_angle_beta   90.00086064
_cell_angle_gamma   90.38123599
_symmetry_Int_Tables_number   1
_chemical_formula_structural   Ca20Cd5Pd7
_chemical_formula_sum   'Ca20 Cd5 Pd7'
_cell_volume   945.04553536
_cell_formula_units_Z   1
loop_
 _symmetry_equiv_pos_site_id
 _symmetry_equiv_pos_as_xyz
  1  'x, y, z'
loop_
 _atom_site_type_symbol
 _atom_site_label
 _atom_site_symmetry_multiplicity
 _atom_site_fract_x
 _atom_site_fract_y
 _atom_site_fract_z
 _atom_site_occupancy
  Ca  Ca0  1  0.670396  0.179474  0.109552  1
  Ca  Ca1  1  0.165685  0.665709  0.618441  1
  Ca  Ca2  1  0.320017  0.830253  0.109651  1
  Ca  Ca3  1  0.833755  0.334788  0.618416  1
  Ca  Ca4  1  0.844608  0.655914  0.110304  1
  Ca  Ca5  1  0.333869  0.166694  0.617375  1
  Ca  Ca6  1  0.167281  0.332084  0.113897  1
  Ca  Ca7  1  0.665519  0.833964  0.616714  1
  Ca  Ca8  1  0.834546  0.334512  0.882144  1
  Ca  Ca9  1  0.320224  0.829342  0.389845  1
  Ca  Ca10  1  0.164992  0.666021  0.882168  1
  Ca  Ca11  1  0.670042  0.180253  0.389729  1
  Ca  Ca12  1  0.665822  0.834652  0.883990  1
  Ca  Ca13  1  0.168164  0.332459  0.385405  1
  Ca  Ca14  1  0.333514  0.165982  0.883297  1
  Ca  Ca15  1  0.844045  0.655476  0.389137  1
  Ca  Ca16  1  0.500039  0.500802  0.750960  1
  Ca  Ca17  1  0.009683  0.003729  0.249931  1
  Ca  Ca18  1  0.999192  0.999964  0.750101  1
  Ca  Ca19  1  0.496281  0.490292  0.248960  1
  Cd  Cd20  1  0.499921  0.502874  0.501232  1
  Cd  Cd21  1  0.499925  0.502973  0.998859  1
  Cd  Cd22  1  0.997133  0.000128  0.501173  1
  Cd  Cd23  1  0.623488  0.876497  0.249649  1
  Cd  Cd24  1  0.997036  0.000061  0.998759  1
  Pd  Pd25  1  0.627268  0.128240  0.750371  1
  Pd  Pd26  1  0.128225  0.627125  0.249668  1
  Pd  Pd27  1  0.872900  0.371762  0.249632  1
  Pd  Pd28  1  0.371734  0.872725  0.750374  1
  Pd  Pd29  1  0.871034  0.628971  0.750364  1
  Pd  Pd30  1  0.375149  0.124807  0.249554  1
  Pd  Pd31  1  0.128511  0.371473  0.750352  1
