# generated using pymatgen
data_Hf5Ti5(BeSn3)2
_symmetry_space_group_name_H-M   'P 1'
_cell_length_a   8.36779900
_cell_length_b   8.38170533
_cell_length_c   5.60241900
_cell_angle_alpha   90.00000000
_cell_angle_beta   90.00000000
_cell_angle_gamma   119.94512769
_symmetry_Int_Tables_number   1
_chemical_formula_structural   Hf5Ti5(BeSn3)2
_chemical_formula_sum   'Hf5 Ti5 Be2 Sn6'
_cell_volume   340.47851709
_cell_formula_units_Z   1
loop_
 _symmetry_equiv_pos_site_id
 _symmetry_equiv_pos_as_xyz
  1  'x, y, z'
loop_
 _atom_site_type_symbol
 _atom_site_label
 _atom_site_symmetry_multiplicity
 _atom_site_fract_x
 _atom_site_fract_y
 _atom_site_fract_z
 _atom_site_occupancy
  Hf  Hf0  1  0.241829  0.242697  0.750000  1
  Hf  Hf1  1  0.999132  0.757303  0.750000  1
  Hf  Hf2  1  0.994122  0.253014  0.250000  1
  Hf  Hf3  1  0.741108  0.746986  0.250000  1
  Hf  Hf4  1  0.763209  0.000000  0.750000  1
  Ti  Ti5  1  0.332718  0.664640  0.000714  1
  Ti  Ti6  1  0.668079  0.335360  0.499286  1
  Ti  Ti7  1  0.668079  0.335360  0.000714  1
  Ti  Ti8  1  0.332718  0.664640  0.499286  1
  Ti  Ti9  1  0.254101  0.000000  0.250000  1
  Be  Be10  1  0.008458  0.000000  0.030684  1
  Be  Be11  1  0.008458  0.000000  0.469316  1
  Sn  Sn12  1  0.597333  0.000000  0.250000  1
  Sn  Sn13  1  0.599706  0.600009  0.750000  1
  Sn  Sn14  1  0.999697  0.399991  0.750000  1
  Sn  Sn15  1  0.003625  0.614974  0.250000  1
  Sn  Sn16  1  0.388651  0.385026  0.250000  1
  Sn  Sn17  1  0.398976  0.000000  0.750000  1
