# generated using pymatgen
data_DyY3Ga4Ir3Pt
_symmetry_space_group_name_H-M   'P 1'
_cell_length_a   4.39054300
_cell_length_b   6.82990408
_cell_length_c   7.74656250
_cell_angle_alpha   89.95574825
_cell_angle_beta   90.00000000
_cell_angle_gamma   90.00000000
_symmetry_Int_Tables_number   1
_chemical_formula_structural   DyY3Ga4Ir3Pt
_chemical_formula_sum   'Dy1 Y3 Ga4 Ir3 Pt1'
_cell_volume   232.29600379
_cell_formula_units_Z   1
loop_
 _symmetry_equiv_pos_site_id
 _symmetry_equiv_pos_as_xyz
  1  'x, y, z'
loop_
 _atom_site_type_symbol
 _atom_site_label
 _atom_site_symmetry_multiplicity
 _atom_site_fract_x
 _atom_site_fract_y
 _atom_site_fract_z
 _atom_site_occupancy
  Dy  Dy0  1  0.750000  0.520262  0.808558  1
  Y  Y1  1  0.250000  0.975900  0.307462  1
  Y  Y2  1  0.250000  0.480415  0.189489  1
  Y  Y3  1  0.750000  0.018579  0.696104  1
  Ga  Ga4  1  0.250000  0.341577  0.573415  1
  Ga  Ga5  1  0.250000  0.839295  0.927989  1
  Ga  Ga6  1  0.750000  0.664223  0.428013  1
  Ga  Ga7  1  0.750000  0.159237  0.069350  1
  Ir  Ir8  1  0.250000  0.230893  0.893745  1
  Ir  Ir9  1  0.250000  0.728903  0.605859  1
  Ir  Ir10  1  0.750000  0.769984  0.105027  1
  Pt  Pt11  1  0.750000  0.270732  0.394987  1
