# generated using pymatgen
data_Hf7Nb3(Sn3Ge)2
_symmetry_space_group_name_H-M   'P 1'
_cell_length_a   8.54767000
_cell_length_b   8.54766882
_cell_length_c   5.76259100
_cell_angle_alpha   90.00000000
_cell_angle_beta   90.00000000
_cell_angle_gamma   120.00000457
_symmetry_Int_Tables_number   1
_chemical_formula_structural   Hf7Nb3(Sn3Ge)2
_chemical_formula_sum   'Hf7 Nb3 Sn6 Ge2'
_cell_volume   364.62281728
_cell_formula_units_Z   1
loop_
 _symmetry_equiv_pos_site_id
 _symmetry_equiv_pos_as_xyz
  1  'x, y, z'
loop_
 _atom_site_type_symbol
 _atom_site_label
 _atom_site_symmetry_multiplicity
 _atom_site_fract_x
 _atom_site_fract_y
 _atom_site_fract_z
 _atom_site_occupancy
  Hf  Hf0  1  0.733218  0.734049  0.749876  1
  Hf  Hf1  1  0.265951  0.999170  0.749876  1
  Hf  Hf2  1  0.000830  0.266782  0.749876  1
  Hf  Hf3  1  0.265951  0.266782  0.250124  1
  Hf  Hf4  1  0.733218  0.999170  0.250124  1
  Hf  Hf5  1  0.000830  0.734049  0.250124  1
  Hf  Hf6  1  0.666667  0.333333  0.500000  1
  Nb  Nb7  1  0.666667  0.333333  0.000000  1
  Nb  Nb8  1  0.333333  0.666667  0.000000  1
  Nb  Nb9  1  0.333333  0.666667  0.500000  1
  Sn  Sn10  1  0.392562  0.394087  0.752314  1
  Sn  Sn11  1  0.605913  0.998476  0.752314  1
  Sn  Sn12  1  0.001524  0.607438  0.752314  1
  Sn  Sn13  1  0.605913  0.607438  0.247686  1
  Sn  Sn14  1  0.392562  0.998476  0.247686  1
  Sn  Sn15  1  0.001524  0.394087  0.247686  1
  Ge  Ge16  1  0.000000  0.000000  0.000000  1
  Ge  Ge17  1  0.000000  0.000000  0.500000  1
