# generated using pymatgen
data_CaLaCe2(SnRu)4
_symmetry_space_group_name_H-M   'P 1'
_cell_length_a   6.34468217
_cell_length_b   6.34468202
_cell_length_c   10.27263092
_cell_angle_alpha   77.56467611
_cell_angle_beta   77.56467558
_cell_angle_gamma   44.86884855
_symmetry_Int_Tables_number   1
_chemical_formula_structural   CaLaCe2(SnRu)4
_chemical_formula_sum   'Ca1 La1 Ce2 Sn4 Ru4'
_cell_volume   283.70862502
_cell_formula_units_Z   1
loop_
 _symmetry_equiv_pos_site_id
 _symmetry_equiv_pos_as_xyz
  1  'x, y, z'
loop_
 _atom_site_type_symbol
 _atom_site_label
 _atom_site_symmetry_multiplicity
 _atom_site_fract_x
 _atom_site_fract_y
 _atom_site_fract_z
 _atom_site_occupancy
  Ca  Ca0  1  0.881667  0.881667  0.404734  1
  La  La1  1  0.123905  0.123905  0.590285  1
  Ce  Ce2  1  0.859997  0.859997  0.916630  1
  Ce  Ce3  1  0.135214  0.135214  0.086093  1
  Sn  Sn4  1  0.423087  0.423087  0.155683  1
  Sn  Sn5  1  0.406390  0.406390  0.647547  1
  Sn  Sn6  1  0.574961  0.574961  0.848525  1
  Sn  Sn7  1  0.595982  0.595982  0.348539  1
  Ru  Ru8  1  0.815923  0.815923  0.149767  1
  Ru  Ru9  1  0.194071  0.194071  0.295626  1
  Ru  Ru10  1  0.182984  0.182984  0.848404  1
  Ru  Ru11  1  0.805818  0.805818  0.708168  1
