# generated using pymatgen
data_Ac11PrSi12
_symmetry_space_group_name_H-M   'P 1'
_cell_length_a   4.06633400
_cell_length_b   14.20315652
_cell_length_c   11.63780846
_cell_angle_alpha   89.99930655
_cell_angle_beta   90.00000000
_cell_angle_gamma   90.00000000
_symmetry_Int_Tables_number   1
_chemical_formula_structural   Ac11PrSi12
_chemical_formula_sum   'Ac11 Pr1 Si12'
_cell_volume   672.13904714
_cell_formula_units_Z   1
loop_
 _symmetry_equiv_pos_site_id
 _symmetry_equiv_pos_as_xyz
  1  'x, y, z'
loop_
 _atom_site_type_symbol
 _atom_site_label
 _atom_site_symmetry_multiplicity
 _atom_site_fract_x
 _atom_site_fract_y
 _atom_site_fract_z
 _atom_site_occupancy
  Ac  Ac0  1  0.250000  0.664207  0.854875  1
  Ac  Ac1  1  0.250000  0.831240  0.358753  1
  Ac  Ac2  1  0.750000  0.334382  0.142631  1
  Ac  Ac3  1  0.750000  0.166937  0.642288  1
  Ac  Ac4  1  0.250000  0.334848  0.856963  1
  Ac  Ac5  1  0.250000  0.169504  0.360245  1
  Ac  Ac6  1  0.750000  0.666124  0.140994  1
  Ac  Ac7  1  0.750000  0.833002  0.640570  1
  Ac  Ac8  1  0.250000  0.000414  0.858292  1
  Ac  Ac9  1  0.250000  0.499636  0.359327  1
  Ac  Ac10  1  0.750000  0.999202  0.141660  1
  Pr  Pr11  1  0.750000  0.500401  0.635847  1
  Si  Si12  1  0.250000  0.338281  0.572254  1
  Si  Si13  1  0.250000  0.167157  0.066310  1
  Si  Si14  1  0.750000  0.664018  0.437968  1
  Si  Si15  1  0.750000  0.831810  0.932373  1
  Si  Si16  1  0.250000  0.662175  0.569203  1
  Si  Si17  1  0.250000  0.832219  0.062200  1
  Si  Si18  1  0.750000  0.336126  0.441126  1
  Si  Si19  1  0.750000  0.167925  0.936418  1
  Si  Si20  1  0.250000  0.000059  0.562823  1
  Si  Si21  1  0.250000  0.500181  0.062381  1
  Si  Si22  1  0.750000  0.000438  0.432969  1
  Si  Si23  1  0.750000  0.499719  0.931532  1
