# generated using pymatgen
data_HoCo4P3Ru
_symmetry_space_group_name_H-M   'P 1'
_cell_length_a   3.68831300
_cell_length_b   10.38005700
_cell_length_c   11.77908100
_cell_angle_alpha   90.00000000
_cell_angle_beta   90.00000000
_cell_angle_gamma   90.00000000
_symmetry_Int_Tables_number   1
_chemical_formula_structural   HoCo4P3Ru
_chemical_formula_sum   'Ho4 Co16 P12 Ru4'
_cell_volume   450.96092845
_cell_formula_units_Z   4
loop_
 _symmetry_equiv_pos_site_id
 _symmetry_equiv_pos_as_xyz
  1  'x, y, z'
loop_
 _atom_site_type_symbol
 _atom_site_label
 _atom_site_symmetry_multiplicity
 _atom_site_fract_x
 _atom_site_fract_y
 _atom_site_fract_z
 _atom_site_occupancy
  Ho  Ho0  1  0.250000  0.586218  0.703995  1
  Ho  Ho1  1  0.250000  0.913782  0.203995  1
  Ho  Ho2  1  0.750000  0.413782  0.296005  1
  Ho  Ho3  1  0.750000  0.086218  0.796005  1
  Co  Co4  1  0.250000  0.408810  0.489270  1
  Co  Co5  1  0.250000  0.091190  0.989270  1
  Co  Co6  1  0.750000  0.591190  0.510730  1
  Co  Co7  1  0.750000  0.908810  0.010730  1
  Co  Co8  1  0.250000  0.220999  0.176730  1
  Co  Co9  1  0.250000  0.279001  0.676730  1
  Co  Co10  1  0.750000  0.779001  0.823270  1
  Co  Co11  1  0.750000  0.720999  0.323270  1
  Co  Co12  1  0.250000  0.887688  0.702780  1
  Co  Co13  1  0.250000  0.612312  0.202780  1
  Co  Co14  1  0.750000  0.112312  0.297220  1
  Co  Co15  1  0.750000  0.387688  0.797220  1
  Co  Co16  1  0.250000  0.465354  0.930377  1
  Co  Co17  1  0.250000  0.034646  0.430377  1
  Co  Co18  1  0.750000  0.534646  0.069623  1
  Co  Co19  1  0.750000  0.965354  0.569623  1
  P  P20  1  0.250000  0.419499  0.112010  1
  P  P21  1  0.250000  0.080501  0.612010  1
  P  P22  1  0.750000  0.580501  0.887990  1
  P  P23  1  0.750000  0.919499  0.387990  1
  P  P24  1  0.250000  0.271557  0.866954  1
  P  P25  1  0.250000  0.228443  0.366954  1
  P  P26  1  0.750000  0.728443  0.133046  1
  P  P27  1  0.750000  0.771557  0.633046  1
  P  P28  1  0.250000  0.595551  0.390238  1
  P  P29  1  0.250000  0.904449  0.890238  1
  P  P30  1  0.750000  0.404449  0.609762  1
  P  P31  1  0.750000  0.095551  0.109762  1
  Ru  Ru32  1  0.250000  0.717078  0.992798  1
  Ru  Ru33  1  0.250000  0.782922  0.492798  1
  Ru  Ru34  1  0.750000  0.282922  0.007202  1
  Ru  Ru35  1  0.750000  0.217078  0.507202  1
