# generated using pymatgen
data_Ta3Nb5Cd4O24
_symmetry_space_group_name_H-M   'P 1'
_cell_length_a   5.19242910
_cell_length_b   6.01453632
_cell_length_c   15.02154819
_cell_angle_alpha   90.67035142
_cell_angle_beta   90.06929894
_cell_angle_gamma   90.02667378
_symmetry_Int_Tables_number   1
_chemical_formula_structural   Ta3Nb5Cd4O24
_chemical_formula_sum   'Ta3 Nb5 Cd4 O24'
_cell_volume   469.09124687
_cell_formula_units_Z   1
loop_
 _symmetry_equiv_pos_site_id
 _symmetry_equiv_pos_as_xyz
  1  'x, y, z'
loop_
 _atom_site_type_symbol
 _atom_site_label
 _atom_site_symmetry_multiplicity
 _atom_site_fract_x
 _atom_site_fract_y
 _atom_site_fract_z
 _atom_site_occupancy
  Ta  Ta0  1  0.742091  0.175531  0.832903  1
  Ta  Ta1  1  0.756348  0.676152  0.333451  1
  Ta  Ta2  1  0.242139  0.324676  0.666899  1
  Nb  Nb3  1  0.240379  0.820682  0.835319  1
  Nb  Nb4  1  0.758562  0.180148  0.164944  1
  Nb  Nb5  1  0.740180  0.678739  0.664404  1
  Nb  Nb6  1  0.256957  0.820232  0.166262  1
  Nb  Nb7  1  0.258556  0.320658  0.335602  1
  Cd  Cd8  1  0.246061  0.813624  0.499559  1
  Cd  Cd9  1  0.753649  0.186651  0.500096  1
  Cd  Cd10  1  0.748465  0.685807  0.999361  1
  Cd  Cd11  1  0.253005  0.310251  0.999245  1
  O  O12  1  0.112621  0.623120  0.914635  1
  O  O13  1  0.890166  0.376891  0.085612  1
  O  O14  1  0.610712  0.876259  0.585583  1
  O  O15  1  0.388622  0.621560  0.085591  1
  O  O16  1  0.389196  0.123488  0.414713  1
  O  O17  1  0.613517  0.377005  0.913620  1
  O  O18  1  0.886864  0.877218  0.414182  1
  O  O19  1  0.113002  0.122984  0.586419  1
  O  O20  1  0.059146  0.589453  0.605651  1
  O  O21  1  0.940783  0.411308  0.395068  1
  O  O22  1  0.559150  0.910838  0.894557  1
  O  O23  1  0.441540  0.593597  0.395554  1
  O  O24  1  0.441876  0.091226  0.104950  1
  O  O25  1  0.557953  0.406822  0.604838  1
  O  O26  1  0.941622  0.907429  0.104197  1
  O  O27  1  0.057825  0.092183  0.895174  1
  O  O28  1  0.412893  0.630398  0.744422  1
  O  O29  1  0.585850  0.371407  0.255615  1
  O  O30  1  0.912583  0.869509  0.755757  1
  O  O31  1  0.077751  0.634904  0.254563  1
  O  O32  1  0.084211  0.133620  0.245002  1
  O  O33  1  0.921936  0.363434  0.746186  1
  O  O34  1  0.582328  0.865807  0.246039  1
  O  O35  1  0.421462  0.136388  0.754025  1
