# generated using pymatgen
data_Zr2Ta4Ti4Al12Ir7
_symmetry_space_group_name_H-M   'P 1'
_cell_length_a   8.70239206
_cell_length_b   8.70239216
_cell_length_c   8.68102002
_cell_angle_alpha   60.07528810
_cell_angle_beta   60.07528885
_cell_angle_gamma   59.84102712
_symmetry_Int_Tables_number   1
_chemical_formula_structural   Zr2Ta4Ti4Al12Ir7
_chemical_formula_sum   'Zr2 Ta4 Ti4 Al12 Ir7'
_cell_volume   464.83697278
_cell_formula_units_Z   1
loop_
 _symmetry_equiv_pos_site_id
 _symmetry_equiv_pos_as_xyz
  1  'x, y, z'
loop_
 _atom_site_type_symbol
 _atom_site_label
 _atom_site_symmetry_multiplicity
 _atom_site_fract_x
 _atom_site_fract_y
 _atom_site_fract_z
 _atom_site_occupancy
  Zr  Zr0  1  0.691268  0.309741  0.689573  1
  Zr  Zr1  1  0.309741  0.691268  0.689573  1
  Ta  Ta2  1  0.684113  0.684113  0.314216  1
  Ta  Ta3  1  0.326781  0.671097  0.323875  1
  Ta  Ta4  1  0.671097  0.326781  0.323875  1
  Ta  Ta5  1  0.317478  0.317478  0.677130  1
  Ti  Ti6  1  0.881632  0.881632  0.356419  1
  Ti  Ti7  1  0.881662  0.359214  0.882004  1
  Ti  Ti8  1  0.359214  0.881662  0.882004  1
  Ti  Ti9  1  0.877677  0.877677  0.882599  1
  Al  Al10  1  0.122098  0.122098  0.636027  1
  Al  Al11  1  0.120202  0.638716  0.122087  1
  Al  Al12  1  0.638716  0.120202  0.122087  1
  Al  Al13  1  0.119168  0.119168  0.120694  1
  Al  Al14  1  0.661116  0.661116  0.015336  1
  Al  Al15  1  0.660314  0.016549  0.659422  1
  Al  Al16  1  0.016549  0.660314  0.659422  1
  Al  Al17  1  0.663522  0.663522  0.658722  1
  Al  Al18  1  0.336336  0.336336  0.985722  1
  Al  Al19  1  0.338391  0.985727  0.335457  1
  Al  Al20  1  0.985727  0.338391  0.335457  1
  Al  Al21  1  0.337043  0.337043  0.334990  1
  Ir  Ir22  1  0.000203  0.000203  0.996581  1
  Ir  Ir23  1  0.997777  0.997777  0.499255  1
  Ir  Ir24  1  0.501917  0.001600  0.498844  1
  Ir  Ir25  1  0.001600  0.501917  0.498844  1
  Ir  Ir26  1  0.502177  0.502177  0.001284  1
  Ir  Ir27  1  0.995210  0.501271  0.999250  1
  Ir  Ir28  1  0.501271  0.995210  0.999250  1
