# generated using pymatgen
data_Sm(As2Ru3)2
_symmetry_space_group_name_H-M   'P 1'
_cell_length_a   7.18952400
_cell_length_b   7.18952500
_cell_length_c   3.88630000
_cell_angle_alpha   90.00000000
_cell_angle_beta   90.00000000
_cell_angle_gamma   120.00000461
_symmetry_Int_Tables_number   1
_chemical_formula_structural   Sm(As2Ru3)2
_chemical_formula_sum   'Sm1 As4 Ru6'
_cell_volume   173.96715852
_cell_formula_units_Z   1
loop_
 _symmetry_equiv_pos_site_id
 _symmetry_equiv_pos_as_xyz
  1  'x, y, z'
loop_
 _atom_site_type_symbol
 _atom_site_label
 _atom_site_symmetry_multiplicity
 _atom_site_fract_x
 _atom_site_fract_y
 _atom_site_fract_z
 _atom_site_occupancy
  Sm  Sm0  1  0.000000  0.000000  0.000000  1
  As  As1  1  0.333333  0.666667  0.000000  1
  As  As2  1  0.381576  0.190788  0.500001  1
  As  As3  1  0.809212  0.190788  0.500001  1
  As  As4  1  0.809212  0.618424  0.500001  1
  Ru  Ru5  1  0.535599  0.071198  0.000000  1
  Ru  Ru6  1  0.928802  0.464400  0.000000  1
  Ru  Ru7  1  0.535599  0.464400  0.000000  1
  Ru  Ru8  1  0.201541  0.403080  0.500001  1
  Ru  Ru9  1  0.201541  0.798459  0.500001  1
  Ru  Ru10  1  0.596919  0.798459  0.500001  1
