# generated using pymatgen
data_DyY6BI12
_symmetry_space_group_name_H-M   'P 1'
_cell_length_a   9.64681664
_cell_length_b   9.64361778
_cell_length_c   9.64826574
_cell_angle_alpha   107.80894070
_cell_angle_beta   107.81610025
_cell_angle_gamma   107.84043700
_symmetry_Int_Tables_number   1
_chemical_formula_structural   DyY6BI12
_chemical_formula_sum   'Dy1 Y6 B1 I12'
_cell_volume   730.10723489
_cell_formula_units_Z   1
loop_
 _symmetry_equiv_pos_site_id
 _symmetry_equiv_pos_as_xyz
  1  'x, y, z'
loop_
 _atom_site_type_symbol
 _atom_site_label
 _atom_site_symmetry_multiplicity
 _atom_site_fract_x
 _atom_site_fract_y
 _atom_site_fract_z
 _atom_site_occupancy
  Dy  Dy0  1  0.707329  0.967615  0.900544  1
  Y  Y1  1  0.967566  0.900423  0.707325  1
  Y  Y2  1  0.498839  0.498742  0.498728  1
  Y  Y3  1  0.100281  0.293278  0.033117  1
  Y  Y4  1  0.292861  0.033121  0.099927  1
  Y  Y5  1  0.900444  0.706959  0.967569  1
  Y  Y6  1  0.033401  0.100050  0.292921  1
  B  B7  1  0.998500  0.999703  0.999380  1
  I  I8  1  0.075043  0.225599  0.685944  1
  I  I9  1  0.389685  0.152700  0.470092  1
  I  I10  1  0.610776  0.846994  0.530917  1
  I  I11  1  0.225618  0.685998  0.075067  1
  I  I12  1  0.774335  0.313472  0.924987  1
  I  I13  1  0.686140  0.074817  0.225087  1
  I  I14  1  0.530409  0.611394  0.846900  1
  I  I15  1  0.846642  0.530046  0.610707  1
  I  I16  1  0.924887  0.774437  0.314034  1
  I  I17  1  0.314014  0.924833  0.774579  1
  I  I18  1  0.470353  0.389610  0.152667  1
  I  I19  1  0.152879  0.470208  0.389506  1
