# generated using pymatgen
data_Zr4Cd2Co3Cu
_symmetry_space_group_name_H-M   'P 1'
_cell_length_a   7.33648091
_cell_length_b   7.33648091
_cell_length_c   3.24963800
_cell_angle_alpha   90.00000000
_cell_angle_beta   90.00000000
_cell_angle_gamma   91.31887026
_symmetry_Int_Tables_number   1
_chemical_formula_structural   Zr4Cd2Co3Cu
_chemical_formula_sum   'Zr4 Cd2 Co3 Cu1'
_cell_volume   174.86202380
_cell_formula_units_Z   1
loop_
 _symmetry_equiv_pos_site_id
 _symmetry_equiv_pos_as_xyz
  1  'x, y, z'
loop_
 _atom_site_type_symbol
 _atom_site_label
 _atom_site_symmetry_multiplicity
 _atom_site_fract_x
 _atom_site_fract_y
 _atom_site_fract_z
 _atom_site_occupancy
  Zr  Zr0  1  0.660625  0.186243  0.500001  1
  Zr  Zr1  1  0.169683  0.330317  0.500001  1
  Zr  Zr2  1  0.849770  0.650229  0.500001  1
  Zr  Zr3  1  0.313757  0.839374  0.500001  1
  Cd  Cd4  1  0.991269  0.002667  0.000000  1
  Cd  Cd5  1  0.497332  0.508730  0.000000  1
  Co  Co6  1  0.383105  0.116896  0.000000  1
  Co  Co7  1  0.877029  0.369778  0.000000  1
  Co  Co8  1  0.130223  0.622970  0.000000  1
  Cu  Cu9  1  0.627205  0.872794  0.000000  1
