# generated using pymatgen
data_Tb8Cd2CoPd
_symmetry_space_group_name_H-M   'P 1'
_cell_length_a   9.66000189
_cell_length_b   9.65851688
_cell_length_c   9.65851670
_cell_angle_alpha   60.06001816
_cell_angle_beta   59.99490959
_cell_angle_gamma   59.99491506
_symmetry_Int_Tables_number   1
_chemical_formula_structural   Tb8Cd2CoPd
_chemical_formula_sum   'Tb16 Cd4 Co2 Pd2'
_cell_volume   637.45020156
_cell_formula_units_Z   2
loop_
 _symmetry_equiv_pos_site_id
 _symmetry_equiv_pos_as_xyz
  1  'x, y, z'
loop_
 _atom_site_type_symbol
 _atom_site_label
 _atom_site_symmetry_multiplicity
 _atom_site_fract_x
 _atom_site_fract_y
 _atom_site_fract_z
 _atom_site_occupancy
  Tb  Tb0  1  0.440259  0.438570  0.050586  1
  Tb  Tb1  1  0.587371  0.601916  0.601916  1
  Tb  Tb2  1  0.184094  0.815906  0.815906  1
  Tb  Tb3  1  0.070585  0.050586  0.438570  1
  Tb  Tb4  1  0.438123  0.061877  0.061877  1
  Tb  Tb5  1  0.813515  0.187406  0.815115  1
  Tb  Tb6  1  0.440259  0.050586  0.438570  1
  Tb  Tb7  1  0.595256  0.195428  0.614060  1
  Tb  Tb8  1  0.813515  0.815115  0.187406  1
  Tb  Tb9  1  0.208797  0.601916  0.601916  1
  Tb  Tb10  1  0.811654  0.188346  0.188346  1
  Tb  Tb11  1  0.058908  0.441092  0.441092  1
  Tb  Tb12  1  0.183965  0.815115  0.187406  1
  Tb  Tb13  1  0.595256  0.614060  0.195428  1
  Tb  Tb14  1  0.183965  0.187406  0.815115  1
  Tb  Tb15  1  0.070585  0.438570  0.050586  1
  Cd  Cd16  1  0.831868  0.829258  0.507005  1
  Cd  Cd17  1  0.833270  0.830665  0.830665  1
  Cd  Cd18  1  0.505399  0.830665  0.830665  1
  Cd  Cd19  1  0.831868  0.507005  0.829258  1
  Co  Co20  1  0.392227  0.824196  0.391351  1
  Co  Co21  1  0.392227  0.391351  0.824196  1
  Pd  Pd22  1  0.396282  0.391482  0.391482  1
  Pd  Pd23  1  0.820754  0.391482  0.391482  1
