# generated using pymatgen
data_Tb7ErGa12(CoCu)2
_symmetry_space_group_name_H-M   'P 1'
_cell_length_a   7.02696230
_cell_length_b   8.80562780
_cell_length_c   8.79527631
_cell_angle_alpha   120.03900531
_cell_angle_beta   90.02903669
_cell_angle_gamma   89.99999866
_symmetry_Int_Tables_number   1
_chemical_formula_structural   Tb7ErGa12(CoCu)2
_chemical_formula_sum   'Tb7 Er1 Ga12 Co2 Cu2'
_cell_volume   471.12609797
_cell_formula_units_Z   1
loop_
 _symmetry_equiv_pos_site_id
 _symmetry_equiv_pos_as_xyz
  1  'x, y, z'
loop_
 _atom_site_type_symbol
 _atom_site_label
 _atom_site_symmetry_multiplicity
 _atom_site_fract_x
 _atom_site_fract_y
 _atom_site_fract_z
 _atom_site_occupancy
  Tb  Tb0  1  0.746737  0.000041  0.000083  1
  Tb  Tb1  1  0.253291  0.999975  0.999949  1
  Tb  Tb2  1  0.742529  0.478642  0.521280  1
  Tb  Tb3  1  0.257198  0.521428  0.478045  1
  Tb  Tb4  1  0.742529  0.042639  0.521280  1
  Tb  Tb5  1  0.257198  0.956617  0.478045  1
  Tb  Tb6  1  0.742285  0.479018  0.958036  1
  Er  Er7  1  0.258418  0.521371  0.042742  1
  Ga  Ga8  1  0.954258  0.830341  0.169037  1
  Ga  Ga9  1  0.047648  0.170276  0.831258  1
  Ga  Ga10  1  0.954258  0.338697  0.169038  1
  Ga  Ga11  1  0.455728  0.173645  0.827440  1
  Ga  Ga12  1  0.047648  0.660981  0.831258  1
  Ga  Ga13  1  0.541943  0.826698  0.172246  1
  Ga  Ga14  1  0.953599  0.830651  0.661303  1
  Ga  Ga15  1  0.455728  0.653795  0.827440  1
  Ga  Ga16  1  0.046479  0.169623  0.339246  1
  Ga  Ga17  1  0.541943  0.345549  0.172246  1
  Ga  Ga18  1  0.456650  0.173130  0.346261  1
  Ga  Ga19  1  0.543203  0.826874  0.653748  1
  Co  Co20  1  0.485305  0.333675  0.667352  1
  Co  Co21  1  0.512428  0.666051  0.332101  1
  Cu  Cu22  1  0.952045  0.666352  0.332705  1
  Cu  Cu23  1  0.050951  0.333930  0.667862  1
