# generated using pymatgen
data_BaRe(As4Ir)3
_symmetry_space_group_name_H-M   'P 1'
_cell_length_a   7.53794984
_cell_length_b   7.53794909
_cell_length_c   7.51688700
_cell_angle_alpha   109.41462121
_cell_angle_beta   109.41461919
_cell_angle_gamma   109.52776475
_symmetry_Int_Tables_number   1
_chemical_formula_structural   BaRe(As4Ir)3
_chemical_formula_sum   'Ba1 Re1 As12 Ir3'
_cell_volume   329.02238580
_cell_formula_units_Z   1
loop_
 _symmetry_equiv_pos_site_id
 _symmetry_equiv_pos_as_xyz
  1  'x, y, z'
loop_
 _atom_site_type_symbol
 _atom_site_label
 _atom_site_symmetry_multiplicity
 _atom_site_fract_x
 _atom_site_fract_y
 _atom_site_fract_z
 _atom_site_occupancy
  Ba  Ba0  1  0.000000  0.000000  0.000000  1
  Re  Re1  1  0.000000  0.000000  0.500000  1
  As  As2  1  0.851854  0.651590  0.499199  1
  As  As3  1  0.148146  0.348410  0.500801  1
  As  As4  1  0.149391  0.648750  0.797518  1
  As  As5  1  0.850609  0.351250  0.202482  1
  As  As6  1  0.648750  0.499359  0.851233  1
  As  As7  1  0.351250  0.500641  0.148767  1
  As  As8  1  0.651590  0.799737  0.152392  1
  As  As9  1  0.348410  0.200263  0.847608  1
  As  As10  1  0.499359  0.850609  0.648126  1
  As  As11  1  0.500641  0.149391  0.351874  1
  As  As12  1  0.200263  0.851854  0.352656  1
  As  As13  1  0.799737  0.148146  0.647344  1
  Ir  Ir14  1  0.500000  0.500000  0.500000  1
  Ir  Ir15  1  0.500000  0.000000  0.000000  1
  Ir  Ir16  1  0.000000  0.500000  0.000000  1
