# generated using pymatgen
data_Er2ZnCuRu2
_symmetry_space_group_name_H-M   'P 1'
_cell_length_a   5.32380533
_cell_length_b   5.40647431
_cell_length_c   5.32380528
_cell_angle_alpha   124.18340176
_cell_angle_beta   119.81736371
_cell_angle_gamma   86.17160796
_symmetry_Int_Tables_number   1
_chemical_formula_structural   Er2ZnCuRu2
_chemical_formula_sum   'Er2 Zn1 Cu1 Ru2'
_cell_volume   105.04549119
_cell_formula_units_Z   1
loop_
 _symmetry_equiv_pos_site_id
 _symmetry_equiv_pos_as_xyz
  1  'x, y, z'
loop_
 _atom_site_type_symbol
 _atom_site_label
 _atom_site_symmetry_multiplicity
 _atom_site_fract_x
 _atom_site_fract_y
 _atom_site_fract_z
 _atom_site_occupancy
  Er  Er0  1  0.375036  0.125994  0.250958  1
  Er  Er1  1  0.624964  0.874006  0.749042  1
  Zn  Zn2  1  0.000000  0.500000  0.000000  1
  Cu  Cu3  1  0.000000  0.000000  0.500000  1
  Ru  Ru4  1  0.000000  0.500000  0.500000  1
  Ru  Ru5  1  0.500000  0.500000  0.000000  1
