# generated using pymatgen
data_Ac4Al2GaSi
_symmetry_space_group_name_H-M   'P 1'
_cell_length_a   4.30054800
_cell_length_b   4.75047700
_cell_length_c   12.09856900
_cell_angle_alpha   90.00000000
_cell_angle_beta   90.00000000
_cell_angle_gamma   90.00000000
_symmetry_Int_Tables_number   1
_chemical_formula_structural   Ac4Al2GaSi
_chemical_formula_sum   'Ac4 Al2 Ga1 Si1'
_cell_volume   247.16958294
_cell_formula_units_Z   1
loop_
 _symmetry_equiv_pos_site_id
 _symmetry_equiv_pos_as_xyz
  1  'x, y, z'
loop_
 _atom_site_type_symbol
 _atom_site_label
 _atom_site_symmetry_multiplicity
 _atom_site_fract_x
 _atom_site_fract_y
 _atom_site_fract_z
 _atom_site_occupancy
  Ac  Ac0  1  0.000000  0.000000  0.356696  1
  Ac  Ac1  1  0.000000  0.500000  0.853024  1
  Ac  Ac2  1  0.500000  0.500000  0.142164  1
  Ac  Ac3  1  0.500000  0.000000  0.641757  1
  Al  Al4  1  0.500000  0.500000  0.440643  1
  Al  Al5  1  0.500000  0.000000  0.936845  1
  Ga  Ga6  1  0.000000  0.000000  0.064621  1
  Si  Si7  1  0.000000  0.500000  0.564248  1
