# generated using pymatgen
data_Tm3LuSc2MnSb2
_symmetry_space_group_name_H-M   'P 1'
_cell_length_a   7.87213318
_cell_length_b   7.87213382
_cell_length_c   4.16597000
_cell_angle_alpha   90.00000000
_cell_angle_beta   90.00000000
_cell_angle_gamma   119.89706469
_symmetry_Int_Tables_number   1
_chemical_formula_structural   Tm3LuSc2MnSb2
_chemical_formula_sum   'Tm3 Lu1 Sc2 Mn1 Sb2'
_cell_volume   223.81088596
_cell_formula_units_Z   1
loop_
 _symmetry_equiv_pos_site_id
 _symmetry_equiv_pos_as_xyz
  1  'x, y, z'
loop_
 _atom_site_type_symbol
 _atom_site_label
 _atom_site_symmetry_multiplicity
 _atom_site_fract_x
 _atom_site_fract_y
 _atom_site_fract_z
 _atom_site_occupancy
  Tm  Tm0  1  0.606688  0.001869  0.000000  1
  Tm  Tm1  1  0.001869  0.606688  0.000000  1
  Tm  Tm2  1  0.389615  0.389615  0.000000  1
  Lu  Lu3  1  0.769570  0.769570  0.500000  1
  Sc  Sc4  1  0.230088  0.001356  0.500000  1
  Sc  Sc5  1  0.001356  0.230088  0.500000  1
  Mn  Mn6  1  0.005407  0.005407  0.000000  1
  Sb  Sb7  1  0.329547  0.665860  0.500000  1
  Sb  Sb8  1  0.665860  0.329547  0.500000  1
