# generated using pymatgen
data_Dy16MgIn3OsRh3
_symmetry_space_group_name_H-M   'P 1'
_cell_length_a   9.69294503
_cell_length_b   9.69294534
_cell_length_c   9.70002905
_cell_angle_alpha   59.70635789
_cell_angle_beta   59.70635493
_cell_angle_gamma   59.42061502
_symmetry_Int_Tables_number   1
_chemical_formula_structural   Dy16MgIn3OsRh3
_chemical_formula_sum   'Dy16 Mg1 In3 Os1 Rh3'
_cell_volume   638.71443544
_cell_formula_units_Z   1
loop_
 _symmetry_equiv_pos_site_id
 _symmetry_equiv_pos_as_xyz
  1  'x, y, z'
loop_
 _atom_site_type_symbol
 _atom_site_label
 _atom_site_symmetry_multiplicity
 _atom_site_fract_x
 _atom_site_fract_y
 _atom_site_fract_z
 _atom_site_occupancy
  Dy  Dy0  1  0.687656  0.312206  0.312066  1
  Dy  Dy1  1  0.689008  0.689008  0.314596  1
  Dy  Dy2  1  0.312206  0.687656  0.312066  1
  Dy  Dy3  1  0.934543  0.934543  0.565567  1
  Dy  Dy4  1  0.149694  0.149694  0.547890  1
  Dy  Dy5  1  0.559441  0.944736  0.558826  1
  Dy  Dy6  1  0.151914  0.151914  0.152879  1
  Dy  Dy7  1  0.309281  0.309281  0.689369  1
  Dy  Dy8  1  0.944736  0.559441  0.558826  1
  Dy  Dy9  1  0.560198  0.560198  0.943271  1
  Dy  Dy10  1  0.564200  0.936642  0.935434  1
  Dy  Dy11  1  0.936642  0.564200  0.935434  1
  Dy  Dy12  1  0.152535  0.543138  0.149916  1
  Dy  Dy13  1  0.310337  0.691715  0.692911  1
  Dy  Dy14  1  0.691715  0.310337  0.692911  1
  Dy  Dy15  1  0.543138  0.152535  0.149916  1
  Mg  Mg16  1  0.924053  0.924053  0.231948  1
  In  In17  1  0.247455  0.917432  0.919449  1
  In  In18  1  0.917432  0.247455  0.919449  1
  In  In19  1  0.917829  0.917829  0.917768  1
  Os  Os20  1  0.356891  0.356891  0.360764  1
  Rh  Rh21  1  0.923243  0.357948  0.358410  1
  Rh  Rh22  1  0.357903  0.357903  0.921926  1
  Rh  Rh23  1  0.357948  0.923243  0.358410  1
