# generated using pymatgen
data_LaPr3Mg2(PtO6)2
_symmetry_space_group_name_H-M   'P 1'
_cell_length_a   5.57148260
_cell_length_b   5.76128470
_cell_length_c   7.95110774
_cell_angle_alpha   90.05369350
_cell_angle_beta   89.84423433
_cell_angle_gamma   90.02005505
_symmetry_Int_Tables_number   1
_chemical_formula_structural   LaPr3Mg2(PtO6)2
_chemical_formula_sum   'La1 Pr3 Mg2 Pt2 O12'
_cell_volume   255.22072134
_cell_formula_units_Z   1
loop_
 _symmetry_equiv_pos_site_id
 _symmetry_equiv_pos_as_xyz
  1  'x, y, z'
loop_
 _atom_site_type_symbol
 _atom_site_label
 _atom_site_symmetry_multiplicity
 _atom_site_fract_x
 _atom_site_fract_y
 _atom_site_fract_z
 _atom_site_occupancy
  La  La0  1  0.487128  0.446955  0.750372  1
  Pr  Pr1  1  0.515552  0.557392  0.249567  1
  Pr  Pr2  1  0.985163  0.056682  0.250563  1
  Pr  Pr3  1  0.015141  0.943563  0.749489  1
  Mg  Mg4  1  0.499860  0.000896  0.000524  1
  Mg  Mg5  1  0.000355  0.499873  0.499261  1
  Pt  Pt6  1  0.000268  0.499655  0.000208  1
  Pt  Pt7  1  0.499582  0.000499  0.499904  1
  O  O8  1  0.706246  0.295496  0.051627  1
  O  O9  1  0.799035  0.791294  0.051246  1
  O  O10  1  0.095849  0.471207  0.247906  1
  O  O11  1  0.404715  0.971125  0.252132  1
  O  O12  1  0.700452  0.291998  0.447940  1
  O  O13  1  0.793676  0.795686  0.449707  1
  O  O14  1  0.202609  0.201616  0.548146  1
  O  O15  1  0.298625  0.709320  0.550165  1
  O  O16  1  0.595767  0.027104  0.748309  1
  O  O17  1  0.908762  0.528921  0.751528  1
  O  O18  1  0.197772  0.205533  0.950749  1
  O  O19  1  0.293446  0.705181  0.950658  1
