# generated using pymatgen
data_Yb4Si12Pd3Pt17
_symmetry_space_group_name_H-M   'P 1'
_cell_length_a   4.05151200
_cell_length_b   19.62468350
_cell_length_c   7.34048026
_cell_angle_alpha   89.87622461
_cell_angle_beta   90.00000000
_cell_angle_gamma   90.00000000
_symmetry_Int_Tables_number   1
_chemical_formula_structural   Yb4Si12Pd3Pt17
_chemical_formula_sum   'Yb4 Si12 Pd3 Pt17'
_cell_volume   583.63758636
_cell_formula_units_Z   1
loop_
 _symmetry_equiv_pos_site_id
 _symmetry_equiv_pos_as_xyz
  1  'x, y, z'
loop_
 _atom_site_type_symbol
 _atom_site_label
 _atom_site_symmetry_multiplicity
 _atom_site_fract_x
 _atom_site_fract_y
 _atom_site_fract_z
 _atom_site_occupancy
  Yb  Yb0  1  0.750000  0.642684  0.120759  1
  Yb  Yb1  1  0.250000  0.357035  0.879679  1
  Yb  Yb2  1  0.250000  0.857404  0.621834  1
  Yb  Yb3  1  0.750000  0.142950  0.378074  1
  Si  Si4  1  0.750000  0.741475  0.625519  1
  Si  Si5  1  0.250000  0.259038  0.373909  1
  Si  Si6  1  0.250000  0.759648  0.125907  1
  Si  Si7  1  0.750000  0.240703  0.874878  1
  Si  Si8  1  0.750000  0.923567  0.350453  1
  Si  Si9  1  0.250000  0.076461  0.649356  1
  Si  Si10  1  0.250000  0.576634  0.845013  1
  Si  Si11  1  0.750000  0.423704  0.151599  1
  Si  Si12  1  0.750000  0.916253  0.900781  1
  Si  Si13  1  0.250000  0.083965  0.099451  1
  Si  Si14  1  0.250000  0.584011  0.403150  1
  Si  Si15  1  0.750000  0.415242  0.598292  1
  Pd  Pd16  1  0.250000  0.382079  0.346502  1
  Pd  Pd17  1  0.250000  0.882433  0.152223  1
  Pd  Pd18  1  0.750000  0.117537  0.848146  1
  Pt  Pt19  1  0.750000  0.801397  0.332227  1
  Pt  Pt20  1  0.250000  0.198387  0.667410  1
  Pt  Pt21  1  0.250000  0.699433  0.833972  1
  Pt  Pt22  1  0.750000  0.301235  0.167882  1
  Pt  Pt23  1  0.750000  0.990301  0.624371  1
  Pt  Pt24  1  0.250000  0.009513  0.375704  1
  Pt  Pt25  1  0.250000  0.510624  0.123037  1
  Pt  Pt26  1  0.750000  0.489316  0.875521  1
  Pt  Pt27  1  0.750000  0.514061  0.378212  1
  Pt  Pt28  1  0.250000  0.484050  0.623133  1
  Pt  Pt29  1  0.250000  0.986434  0.877149  1
  Pt  Pt30  1  0.750000  0.013518  0.122919  1
  Pt  Pt31  1  0.750000  0.797522  0.924055  1
  Pt  Pt32  1  0.250000  0.202660  0.074909  1
  Pt  Pt33  1  0.250000  0.702821  0.423133  1
  Pt  Pt34  1  0.750000  0.297164  0.575826  1
  Pt  Pt35  1  0.750000  0.618742  0.655016  1
