# generated using pymatgen
data_DyMg(Si7Rh3)2
_symmetry_space_group_name_H-M   'P 1'
_cell_length_a   7.97054402
_cell_length_b   7.97054453
_cell_length_c   7.97054440
_cell_angle_alpha   56.99080345
_cell_angle_beta   56.99079870
_cell_angle_gamma   56.99079433
_symmetry_Int_Tables_number   1
_chemical_formula_structural   DyMg(Si7Rh3)2
_chemical_formula_sum   'Dy1 Mg1 Si14 Rh6'
_cell_volume   333.20951376
_cell_formula_units_Z   1
loop_
 _symmetry_equiv_pos_site_id
 _symmetry_equiv_pos_as_xyz
  1  'x, y, z'
loop_
 _atom_site_type_symbol
 _atom_site_label
 _atom_site_symmetry_multiplicity
 _atom_site_fract_x
 _atom_site_fract_y
 _atom_site_fract_z
 _atom_site_occupancy
  Dy  Dy0  1  0.500000  0.500000  0.500000  1
  Mg  Mg1  1  0.000000  0.000000  0.000000  1
  Si  Si2  1  0.749788  0.749788  0.749788  1
  Si  Si3  1  0.250212  0.250212  0.250212  1
  Si  Si4  1  0.852438  0.064386  0.673983  1
  Si  Si5  1  0.673983  0.852438  0.064386  1
  Si  Si6  1  0.064386  0.673983  0.852438  1
  Si  Si7  1  0.649600  0.828960  0.433744  1
  Si  Si8  1  0.433744  0.649600  0.828960  1
  Si  Si9  1  0.828960  0.433744  0.649600  1
  Si  Si10  1  0.171040  0.566256  0.350400  1
  Si  Si11  1  0.566256  0.350400  0.171040  1
  Si  Si12  1  0.350400  0.171040  0.566256  1
  Si  Si13  1  0.935614  0.326017  0.147562  1
  Si  Si14  1  0.326017  0.147562  0.935614  1
  Si  Si15  1  0.147562  0.935614  0.326017  1
  Rh  Rh16  1  0.071107  0.427681  0.750647  1
  Rh  Rh17  1  0.249353  0.928893  0.572319  1
  Rh  Rh18  1  0.572319  0.249353  0.928893  1
  Rh  Rh19  1  0.928893  0.572319  0.249353  1
  Rh  Rh20  1  0.427681  0.750647  0.071107  1
  Rh  Rh21  1  0.750647  0.071107  0.427681  1
