# generated using pymatgen
data_Y3(SiIr)2
_symmetry_space_group_name_H-M   'P 1'
_cell_length_a   5.58856383
_cell_length_b   5.58856395
_cell_length_c   13.27716700
_cell_angle_alpha   90.00000000
_cell_angle_beta   90.00000000
_cell_angle_gamma   136.99430051
_symmetry_Int_Tables_number   1
_chemical_formula_structural   Y3(SiIr)2
_chemical_formula_sum   'Y6 Si4 Ir4'
_cell_volume   282.83653735
_cell_formula_units_Z   2
loop_
 _symmetry_equiv_pos_site_id
 _symmetry_equiv_pos_as_xyz
  1  'x, y, z'
loop_
 _atom_site_type_symbol
 _atom_site_label
 _atom_site_symmetry_multiplicity
 _atom_site_fract_x
 _atom_site_fract_y
 _atom_site_fract_z
 _atom_site_occupancy
  Y  Y0  1  0.774003  0.225997  0.604106  1
  Y  Y1  1  0.518187  0.481813  0.250000  1
  Y  Y2  1  0.225997  0.774003  0.395894  1
  Y  Y3  1  0.774003  0.225997  0.895894  1
  Y  Y4  1  0.481813  0.518187  0.750000  1
  Y  Y5  1  0.225997  0.774003  0.104106  1
  Si  Si6  1  0.061590  0.938410  0.589740  1
  Si  Si7  1  0.061590  0.938410  0.910260  1
  Si  Si8  1  0.938410  0.061590  0.410260  1
  Si  Si9  1  0.938410  0.061590  0.089740  1
  Ir  Ir10  1  0.813960  0.186040  0.250000  1
  Ir  Ir11  1  0.186040  0.813960  0.750000  1
  Ir  Ir12  1  0.500000  0.500000  0.000000  1
  Ir  Ir13  1  0.500000  0.500000  0.500000  1
