# generated using pymatgen
data_FeCu(IrO4)2
_symmetry_space_group_name_H-M   'P 1'
_cell_length_a   5.51068358
_cell_length_b   5.51068380
_cell_length_c   5.51068328
_cell_angle_alpha   108.57811791
_cell_angle_beta   109.39632054
_cell_angle_gamma   110.44462541
_symmetry_Int_Tables_number   1
_chemical_formula_structural   FeCu(IrO4)2
_chemical_formula_sum   'Fe1 Cu1 Ir2 O8'
_cell_volume   128.78895715
_cell_formula_units_Z   1
loop_
 _symmetry_equiv_pos_site_id
 _symmetry_equiv_pos_as_xyz
  1  'x, y, z'
loop_
 _atom_site_type_symbol
 _atom_site_label
 _atom_site_symmetry_multiplicity
 _atom_site_fract_x
 _atom_site_fract_y
 _atom_site_fract_z
 _atom_site_occupancy
  Fe  Fe0  1  0.489000  0.988999  0.500000  1
  Cu  Cu1  1  0.741247  0.741247  0.000000  1
  Ir  Ir2  1  0.255193  0.255193  0.000000  1
  Ir  Ir3  1  0.006385  0.506385  0.500000  1
  O  O4  1  0.012522  0.211704  0.199182  1
  O  O5  1  0.488647  0.685345  0.196699  1
  O  O6  1  0.046280  0.746410  0.299869  1
  O  O7  1  0.561636  0.256499  0.305137  1
  O  O8  1  0.951362  0.256499  0.694862  1
  O  O9  1  0.446540  0.746410  0.700130  1
  O  O10  1  0.488647  0.291947  0.803300  1
  O  O11  1  0.012522  0.813339  0.800818  1
