# generated using pymatgen
data_Yb5Pr(SmSn2)4
_symmetry_space_group_name_H-M   'P 1'
_cell_length_a   7.94995900
_cell_length_b   8.50582841
_cell_length_c   16.22265478
_cell_angle_alpha   90.03550119
_cell_angle_beta   90.00000000
_cell_angle_gamma   90.00000000
_symmetry_Int_Tables_number   1
_chemical_formula_structural   Yb5Pr(SmSn2)4
_chemical_formula_sum   'Yb10 Pr2 Sm8 Sn16'
_cell_volume   1096.99171903
_cell_formula_units_Z   2
loop_
 _symmetry_equiv_pos_site_id
 _symmetry_equiv_pos_as_xyz
  1  'x, y, z'
loop_
 _atom_site_type_symbol
 _atom_site_label
 _atom_site_symmetry_multiplicity
 _atom_site_fract_x
 _atom_site_fract_y
 _atom_site_fract_z
 _atom_site_occupancy
  Yb  Yb0  1  0.493429  0.311907  0.093468  1
  Yb  Yb1  1  0.993429  0.188093  0.406532  1
  Yb  Yb2  1  0.492616  0.312547  0.406423  1
  Yb  Yb3  1  0.992616  0.187453  0.093577  1
  Yb  Yb4  1  0.507410  0.687464  0.906434  1
  Yb  Yb5  1  0.007410  0.812536  0.593566  1
  Yb  Yb6  1  0.839570  0.509251  0.750372  1
  Yb  Yb7  1  0.339570  0.990749  0.749628  1
  Yb  Yb8  1  0.160763  0.489020  0.250006  1
  Yb  Yb9  1  0.660763  0.010980  0.249994  1
  Pr  Pr10  1  0.508832  0.686824  0.593394  1
  Pr  Pr11  1  0.008832  0.813176  0.906606  1
  Sm  Sm12  1  0.673607  0.168802  0.622590  1
  Sm  Sm13  1  0.173607  0.331198  0.877410  1
  Sm  Sm14  1  0.325322  0.832753  0.122364  1
  Sm  Sm15  1  0.825322  0.667247  0.377636  1
  Sm  Sm16  1  0.324724  0.833185  0.376967  1
  Sm  Sm17  1  0.824724  0.666815  0.123033  1
  Sm  Sm18  1  0.673640  0.167778  0.877532  1
  Sm  Sm19  1  0.173640  0.332222  0.622468  1
  Sn  Sn20  1  0.670213  0.964483  0.460144  1
  Sn  Sn21  1  0.170213  0.535517  0.039856  1
  Sn  Sn22  1  0.330126  0.034081  0.958655  1
  Sn  Sn23  1  0.830126  0.465919  0.541345  1
  Sn  Sn24  1  0.330481  0.032220  0.541581  1
  Sn  Sn25  1  0.830481  0.467780  0.958419  1
  Sn  Sn26  1  0.671917  0.964519  0.040327  1
  Sn  Sn27  1  0.171917  0.535481  0.459673  1
  Sn  Sn28  1  0.473404  0.382580  0.750056  1
  Sn  Sn29  1  0.973404  0.117420  0.749944  1
  Sn  Sn30  1  0.525197  0.616870  0.249950  1
  Sn  Sn31  1  0.025197  0.883130  0.250050  1
  Sn  Sn32  1  0.717680  0.866863  0.750151  1
  Sn  Sn33  1  0.217680  0.633137  0.749849  1
  Sn  Sn34  1  0.281070  0.131187  0.249767  1
  Sn  Sn35  1  0.781070  0.368813  0.250233  1
