# generated using pymatgen
data_Th4Co2IrRu9C10
_symmetry_space_group_name_H-M   'P 1'
_cell_length_a   9.02855300
_cell_length_b   9.02855300
_cell_length_c   4.17116200
_cell_angle_alpha   90.00000000
_cell_angle_beta   90.00000000
_cell_angle_gamma   90.00000000
_symmetry_Int_Tables_number   1
_chemical_formula_structural   Th4Co2IrRu9C10
_chemical_formula_sum   'Th4 Co2 Ir1 Ru9 C10'
_cell_volume   340.01130803
_cell_formula_units_Z   1
loop_
 _symmetry_equiv_pos_site_id
 _symmetry_equiv_pos_as_xyz
  1  'x, y, z'
loop_
 _atom_site_type_symbol
 _atom_site_label
 _atom_site_symmetry_multiplicity
 _atom_site_fract_x
 _atom_site_fract_y
 _atom_site_fract_z
 _atom_site_occupancy
  Th  Th0  1  0.322348  0.819271  0.500000  1
  Th  Th1  1  0.819271  0.677652  0.500000  1
  Th  Th2  1  0.180729  0.322348  0.500000  1
  Th  Th3  1  0.677652  0.180729  0.500000  1
  Co  Co4  1  0.500000  0.000000  0.000000  1
  Co  Co5  1  0.000000  0.500000  0.000000  1
  Ir  Ir6  1  0.000000  0.000000  0.500000  1
  Ru  Ru7  1  0.717990  0.437211  0.000000  1
  Ru  Ru8  1  0.437211  0.282010  0.000000  1
  Ru  Ru9  1  0.500000  0.500000  0.500000  1
  Ru  Ru10  1  0.781650  0.937221  0.000000  1
  Ru  Ru11  1  0.937221  0.218350  0.000000  1
  Ru  Ru12  1  0.062779  0.781650  0.000000  1
  Ru  Ru13  1  0.218350  0.062779  0.000000  1
  Ru  Ru14  1  0.562789  0.717990  0.000000  1
  Ru  Ru15  1  0.282010  0.562789  0.000000  1
  C  C16  1  0.500000  0.500000  0.000000  1
  C  C17  1  0.000000  0.000000  0.000000  1
  C  C18  1  0.884940  0.384998  0.672873  1
  C  C19  1  0.115060  0.615002  0.672873  1
  C  C20  1  0.884940  0.384998  0.327127  1
  C  C21  1  0.384998  0.115060  0.327127  1
  C  C22  1  0.615002  0.884940  0.327127  1
  C  C23  1  0.115060  0.615002  0.327127  1
  C  C24  1  0.615002  0.884940  0.672873  1
  C  C25  1  0.384998  0.115060  0.672873  1
