# generated using pymatgen
data_Y4TcRu3F28
_symmetry_space_group_name_H-M   'P 1'
_cell_length_a   5.56865805
_cell_length_b   8.94468782
_cell_length_c   11.99158344
_cell_angle_alpha   63.10245455
_cell_angle_beta   89.98704112
_cell_angle_gamma   89.99809532
_symmetry_Int_Tables_number   1
_chemical_formula_structural   Y4TcRu3F28
_chemical_formula_sum   'Y4 Tc1 Ru3 F28'
_cell_volume   532.68192769
_cell_formula_units_Z   1
loop_
 _symmetry_equiv_pos_site_id
 _symmetry_equiv_pos_as_xyz
  1  'x, y, z'
loop_
 _atom_site_type_symbol
 _atom_site_label
 _atom_site_symmetry_multiplicity
 _atom_site_fract_x
 _atom_site_fract_y
 _atom_site_fract_z
 _atom_site_occupancy
  Y  Y0  1  0.258785  0.812490  0.269231  1
  Y  Y1  1  0.741004  0.186427  0.734440  1
  Y  Y2  1  0.758512  0.190984  0.231509  1
  Y  Y3  1  0.240867  0.812096  0.765574  1
  Tc  Tc4  1  0.756247  0.727158  0.043721  1
  Ru  Ru5  1  0.243599  0.273134  0.955504  1
  Ru  Ru6  1  0.256225  0.272898  0.456346  1
  Ru  Ru7  1  0.744194  0.726713  0.544237  1
  F  F8  1  0.944502  0.706437  0.416623  1
  F  F9  1  0.055030  0.293284  0.583189  1
  F  F10  1  0.443278  0.293995  0.082829  1
  F  F11  1  0.553166  0.705549  0.918631  1
  F  F12  1  0.471209  0.731128  0.139249  1
  F  F13  1  0.530519  0.272164  0.860325  1
  F  F14  1  0.969004  0.268817  0.362332  1
  F  F15  1  0.032286  0.729918  0.638602  1
  F  F16  1  0.957011  0.747944  0.171642  1
  F  F17  1  0.046693  0.253646  0.825694  1
  F  F18  1  0.454367  0.251511  0.327713  1
  F  F19  1  0.546366  0.747592  0.673514  1
  F  F20  1  0.769954  0.482094  0.141081  1
  F  F21  1  0.231177  0.512734  0.861079  1
  F  F22  1  0.268831  0.512210  0.360796  1
  F  F23  1  0.731732  0.487862  0.638872  1
  F  F24  1  0.949208  0.279816  0.044967  1
  F  F25  1  0.050310  0.718877  0.954597  1
  F  F26  1  0.448987  0.718906  0.454825  1
  F  F27  1  0.550167  0.280117  0.546468  1
  F  F28  1  0.743781  0.964623  0.452384  1
  F  F29  1  0.256352  0.034461  0.548123  1
  F  F30  1  0.243206  0.034872  0.047728  1
  F  F31  1  0.756815  0.971272  0.948311  1
  F  F32  1  0.580243  0.971883  0.232133  1
  F  F33  1  0.417882  0.027324  0.767937  1
  F  F34  1  0.079812  0.028713  0.268168  1
  F  F35  1  0.918679  0.970349  0.731627  1
