# generated using pymatgen
data_Tc6I13
_symmetry_space_group_name_H-M   'P 1'
_cell_length_a   10.67719557
_cell_length_b   11.71663207
_cell_length_c   13.38280175
_cell_angle_alpha   83.05074356
_cell_angle_beta   76.12686859
_cell_angle_gamma   93.90647279
_symmetry_Int_Tables_number   1
_chemical_formula_structural   Tc6I13
_chemical_formula_sum   'Tc12 I26'
_cell_volume   1605.20323136
_cell_formula_units_Z   2
loop_
 _symmetry_equiv_pos_site_id
 _symmetry_equiv_pos_as_xyz
  1  'x, y, z'
loop_
 _atom_site_type_symbol
 _atom_site_label
 _atom_site_symmetry_multiplicity
 _atom_site_fract_x
 _atom_site_fract_y
 _atom_site_fract_z
 _atom_site_occupancy
  Tc  Tc0  1  0.821233  0.252297  0.143168  1
  Tc  Tc1  1  0.178767  0.747703  0.856832  1
  Tc  Tc2  1  0.760152  0.125112  0.286769  1
  Tc  Tc3  1  0.239848  0.874888  0.713231  1
  Tc  Tc4  1  0.051270  0.295387  0.192911  1
  Tc  Tc5  1  0.948730  0.704613  0.807089  1
  Tc  Tc6  1  0.849896  0.419118  0.263713  1
  Tc  Tc7  1  0.150104  0.580882  0.736287  1
  Tc  Tc8  1  0.787219  0.292125  0.407185  1
  Tc  Tc9  1  0.212781  0.707875  0.592815  1
  Tc  Tc10  1  0.989691  0.167664  0.336265  1
  Tc  Tc11  1  0.010309  0.832336  0.663735  1
  I  I12  1  0.500000  0.000000  0.000000  1
  I  I13  1  0.930408  0.969159  0.274946  1
  I  I14  1  0.069592  0.030841  0.725054  1
  I  I15  1  0.983188  0.281450  0.496984  1
  I  I16  1  0.016812  0.718550  0.503016  1
  I  I17  1  0.650145  0.408446  0.175609  1
  I  I18  1  0.349855  0.591554  0.824391  1
  I  I19  1  0.090398  0.492699  0.267095  1
  I  I20  1  0.909602  0.507301  0.732905  1
  I  I21  1  0.000000  0.500000  0.000000  1
  I  I22  1  0.592248  0.950624  0.264589  1
  I  I23  1  0.407752  0.049376  0.735411  1
  I  I24  1  0.202096  0.072202  0.378491  1
  I  I25  1  0.797904  0.927798  0.621509  1
  I  I26  1  0.555783  0.198184  0.407326  1
  I  I27  1  0.444217  0.801816  0.592674  1
  I  I28  1  0.036544  0.173262  0.038403  1
  I  I29  1  0.963456  0.826738  0.961597  1
  I  I30  1  0.784166  0.633825  0.306164  1
  I  I31  1  0.215834  0.366175  0.693836  1
  I  I32  1  0.707413  0.191206  0.979899  1
  I  I33  1  0.292587  0.808794  0.020101  1
  I  I34  1  0.313622  0.308508  0.118785  1
  I  I35  1  0.686378  0.691492  0.881215  1
  I  I36  1  0.662794  0.396729  0.569126  1
  I  I37  1  0.337206  0.603271  0.430874  1
