# generated using pymatgen
data_NaLaPt3Rh
_symmetry_space_group_name_H-M   'P 1'
_cell_length_a   5.45887813
_cell_length_b   5.45887891
_cell_length_c   5.45887912
_cell_angle_alpha   59.71119494
_cell_angle_beta   59.71119566
_cell_angle_gamma   59.71118508
_symmetry_Int_Tables_number   1
_chemical_formula_structural   NaLaPt3Rh
_chemical_formula_sum   'Na1 La1 Pt3 Rh1'
_cell_volume   114.27127462
_cell_formula_units_Z   1
loop_
 _symmetry_equiv_pos_site_id
 _symmetry_equiv_pos_as_xyz
  1  'x, y, z'
loop_
 _atom_site_type_symbol
 _atom_site_label
 _atom_site_symmetry_multiplicity
 _atom_site_fract_x
 _atom_site_fract_y
 _atom_site_fract_z
 _atom_site_occupancy
  Na  Na0  1  0.499489  0.499489  0.499489  1
  La  La1  1  0.750596  0.750596  0.750596  1
  Pt  Pt2  1  0.624071  0.125349  0.125349  1
  Pt  Pt3  1  0.125349  0.624071  0.125349  1
  Pt  Pt4  1  0.125349  0.125349  0.624071  1
  Rh  Rh5  1  0.125147  0.125147  0.125147  1
