# generated using pymatgen
data_Y20Si3GeBi8
_symmetry_space_group_name_H-M   'P 1'
_cell_length_a   12.15357727
_cell_length_b   9.19544800
_cell_length_c   8.08987318
_cell_angle_alpha   90.00000000
_cell_angle_beta   90.02405214
_cell_angle_gamma   90.00000000
_symmetry_Int_Tables_number   1
_chemical_formula_structural   Y20Si3GeBi8
_chemical_formula_sum   'Y20 Si3 Ge1 Bi8'
_cell_volume   904.10463217
_cell_formula_units_Z   1
loop_
 _symmetry_equiv_pos_site_id
 _symmetry_equiv_pos_as_xyz
  1  'x, y, z'
loop_
 _atom_site_type_symbol
 _atom_site_label
 _atom_site_symmetry_multiplicity
 _atom_site_fract_x
 _atom_site_fract_y
 _atom_site_fract_z
 _atom_site_occupancy
  Y  Y0  1  0.564183  0.051096  0.319262  1
  Y  Y1  1  0.064680  0.449975  0.182068  1
  Y  Y2  1  0.435781  0.551097  0.680771  1
  Y  Y3  1  0.935590  0.947219  0.818852  1
  Y  Y4  1  0.435781  0.948903  0.680771  1
  Y  Y5  1  0.935590  0.552781  0.818852  1
  Y  Y6  1  0.564183  0.448904  0.319262  1
  Y  Y7  1  0.064680  0.050025  0.182068  1
  Y  Y8  1  0.710960  0.250000  0.661480  1
  Y  Y9  1  0.212760  0.250000  0.837808  1
  Y  Y10  1  0.288828  0.750000  0.338386  1
  Y  Y11  1  0.788852  0.750000  0.161609  1
  Y  Y12  1  0.500824  0.250000  0.958880  1
  Y  Y13  1  0.000874  0.250000  0.539408  1
  Y  Y14  1  0.499296  0.750000  0.041130  1
  Y  Y15  1  0.999246  0.750000  0.458807  1
  Y  Y16  1  0.794835  0.250000  0.136668  1
  Y  Y17  1  0.295875  0.250000  0.364689  1
  Y  Y18  1  0.203968  0.750000  0.864808  1
  Y  Y19  1  0.704023  0.750000  0.635250  1
  Si  Si20  1  0.480587  0.250000  0.583614  1
  Si  Si21  1  0.019259  0.750000  0.083452  1
  Si  Si22  1  0.519326  0.750000  0.416432  1
  Ge  Ge23  1  0.979783  0.250000  0.915429  1
  Bi  Bi24  1  0.826678  0.010297  0.430512  1
  Bi  Bi25  1  0.326657  0.489752  0.069496  1
  Bi  Bi26  1  0.173376  0.510137  0.569595  1
  Bi  Bi27  1  0.673407  0.989808  0.930519  1
  Bi  Bi28  1  0.173376  0.989863  0.569595  1
  Bi  Bi29  1  0.673407  0.510192  0.930519  1
  Bi  Bi30  1  0.826678  0.489703  0.430512  1
  Bi  Bi31  1  0.326657  0.010248  0.069496  1
