# generated using pymatgen
data_TbY2Er5Au4
_symmetry_space_group_name_H-M   'P 1'
_cell_length_a   4.90733300
_cell_length_b   7.12512095
_cell_length_c   8.91236305
_cell_angle_alpha   89.90117054
_cell_angle_beta   90.00000000
_cell_angle_gamma   90.00000000
_symmetry_Int_Tables_number   1
_chemical_formula_structural   TbY2Er5Au4
_chemical_formula_sum   'Tb1 Y2 Er5 Au4'
_cell_volume   311.62335129
_cell_formula_units_Z   1
loop_
 _symmetry_equiv_pos_site_id
 _symmetry_equiv_pos_as_xyz
  1  'x, y, z'
loop_
 _atom_site_type_symbol
 _atom_site_label
 _atom_site_symmetry_multiplicity
 _atom_site_fract_x
 _atom_site_fract_y
 _atom_site_fract_z
 _atom_site_occupancy
  Tb  Tb0  1  0.250000  0.985836  0.323111  1
  Y  Y1  1  0.750000  0.514290  0.823179  1
  Y  Y2  1  0.750000  0.014327  0.677086  1
  Er  Er3  1  0.250000  0.851853  0.920769  1
  Er  Er4  1  0.250000  0.352436  0.579461  1
  Er  Er5  1  0.750000  0.148195  0.079993  1
  Er  Er6  1  0.750000  0.647468  0.419189  1
  Er  Er7  1  0.250000  0.485304  0.175703  1
  Au  Au8  1  0.250000  0.255156  0.901191  1
  Au  Au9  1  0.250000  0.754541  0.600298  1
  Au  Au10  1  0.750000  0.744526  0.100462  1
  Au  Au11  1  0.750000  0.246070  0.399559  1
