# generated using pymatgen
data_YSiPRu2
_symmetry_space_group_name_H-M   'P 1'
_cell_length_a   5.60978575
_cell_length_b   5.60978539
_cell_length_c   5.60978500
_cell_angle_alpha   136.96645981
_cell_angle_beta   136.96645586
_cell_angle_gamma   62.48966323
_symmetry_Int_Tables_number   1
_chemical_formula_structural   YSiPRu2
_chemical_formula_sum   'Y1 Si1 P1 Ru2'
_cell_volume   81.21567824
_cell_formula_units_Z   1
loop_
 _symmetry_equiv_pos_site_id
 _symmetry_equiv_pos_as_xyz
  1  'x, y, z'
loop_
 _atom_site_type_symbol
 _atom_site_label
 _atom_site_symmetry_multiplicity
 _atom_site_fract_x
 _atom_site_fract_y
 _atom_site_fract_z
 _atom_site_occupancy
  Y  Y0  1  0.998866  0.998866  0.000000  1
  Si  Si1  1  0.626424  0.626424  0.000000  1
  P  P2  1  0.369697  0.369697  0.000000  1
  Ru  Ru3  1  0.752507  0.252507  0.500000  1
  Ru  Ru4  1  0.252507  0.752507  0.500000  1
