# generated using pymatgen
data_Ga(CoW)6
_symmetry_space_group_name_H-M   'P 1'
_cell_length_a   4.79030135
_cell_length_b   4.79030135
_cell_length_c   8.89396000
_cell_angle_alpha   74.37732280
_cell_angle_beta   74.37733520
_cell_angle_gamma   60.00000594
_symmetry_Int_Tables_number   1
_chemical_formula_structural   Ga(CoW)6
_chemical_formula_sum   'Ga1 Co6 W6'
_cell_volume   167.98409026
_cell_formula_units_Z   1
loop_
 _symmetry_equiv_pos_site_id
 _symmetry_equiv_pos_as_xyz
  1  'x, y, z'
loop_
 _atom_site_type_symbol
 _atom_site_label
 _atom_site_symmetry_multiplicity
 _atom_site_fract_x
 _atom_site_fract_y
 _atom_site_fract_z
 _atom_site_occupancy
  Ga  Ga0  1  0.000000  0.000000  0.000000  1
  Co  Co1  1  0.584132  0.090572  0.234723  1
  Co  Co2  1  0.090572  0.090572  0.234723  1
  Co  Co3  1  0.090572  0.584132  0.234723  1
  Co  Co4  1  0.415868  0.909428  0.765277  1
  Co  Co5  1  0.909428  0.909428  0.765277  1
  Co  Co6  1  0.909428  0.415868  0.765277  1
  W  W7  1  0.168256  0.168256  0.495231  1
  W  W8  1  0.831744  0.831744  0.504769  1
  W  W9  1  0.346850  0.346850  0.959450  1
  W  W10  1  0.653150  0.653150  0.040550  1
  W  W11  1  0.450207  0.450207  0.649379  1
  W  W12  1  0.549793  0.549793  0.350621  1
