# generated using pymatgen
data_Ho2Tm2Ga12Fe
_symmetry_space_group_name_H-M   'P 1'
_cell_length_a   7.39631592
_cell_length_b   7.39631558
_cell_length_c   7.36265647
_cell_angle_alpha   109.46030105
_cell_angle_beta   109.46030108
_cell_angle_gamma   109.67746709
_symmetry_Int_Tables_number   1
_chemical_formula_structural   Ho2Tm2Ga12Fe
_chemical_formula_sum   'Ho2 Tm2 Ga12 Fe1'
_cell_volume   309.34965758
_cell_formula_units_Z   1
loop_
 _symmetry_equiv_pos_site_id
 _symmetry_equiv_pos_as_xyz
  1  'x, y, z'
loop_
 _atom_site_type_symbol
 _atom_site_label
 _atom_site_symmetry_multiplicity
 _atom_site_fract_x
 _atom_site_fract_y
 _atom_site_fract_z
 _atom_site_occupancy
  Ho  Ho0  1  0.000000  0.000000  0.500000  1
  Ho  Ho1  1  0.500000  0.500000  0.500000  1
  Tm  Tm2  1  0.000000  0.500000  0.000000  1
  Tm  Tm3  1  0.500000  0.000000  0.000000  1
  Ga  Ga4  1  0.750000  0.250000  0.500000  1
  Ga  Ga5  1  0.750201  0.498992  0.249194  1
  Ga  Ga6  1  0.501008  0.249799  0.750806  1
  Ga  Ga7  1  0.249799  0.501008  0.750806  1
  Ga  Ga8  1  0.250000  0.750000  0.500000  1
  Ga  Ga9  1  0.498992  0.750201  0.249194  1
  Ga  Ga10  1  0.716955  0.716955  0.000000  1
  Ga  Ga11  1  0.282911  0.999134  0.282045  1
  Ga  Ga12  1  0.999134  0.282911  0.282045  1
  Ga  Ga13  1  0.283045  0.283045  0.000000  1
  Ga  Ga14  1  0.717089  0.000866  0.717955  1
  Ga  Ga15  1  0.000866  0.717089  0.717955  1
  Fe  Fe16  1  0.000000  0.000000  0.000000  1
