# generated using pymatgen
data_Er5GaSiBi2
_symmetry_space_group_name_H-M   'P 1'
_cell_length_a   8.62481023
_cell_length_b   8.62480961
_cell_length_c   7.94077477
_cell_angle_alpha   89.70097794
_cell_angle_beta   89.70098298
_cell_angle_gamma   125.19758452
_symmetry_Int_Tables_number   1
_chemical_formula_structural   Er5GaSiBi2
_chemical_formula_sum   'Er10 Ga2 Si2 Bi4'
_cell_volume   482.66522130
_cell_formula_units_Z   2
loop_
 _symmetry_equiv_pos_site_id
 _symmetry_equiv_pos_as_xyz
  1  'x, y, z'
loop_
 _atom_site_type_symbol
 _atom_site_label
 _atom_site_symmetry_multiplicity
 _atom_site_fract_x
 _atom_site_fract_y
 _atom_site_fract_z
 _atom_site_occupancy
  Er  Er0  1  0.041339  0.285301  0.336282  1
  Er  Er1  1  0.958661  0.714699  0.663718  1
  Er  Er2  1  0.457033  0.211761  0.834736  1
  Er  Er3  1  0.788239  0.542967  0.165264  1
  Er  Er4  1  0.542967  0.788239  0.165264  1
  Er  Er5  1  0.211761  0.457033  0.834736  1
  Er  Er6  1  0.714699  0.958661  0.663718  1
  Er  Er7  1  0.285301  0.041339  0.336282  1
  Er  Er8  1  0.000000  0.000000  0.000000  1
  Er  Er9  1  0.500000  0.500000  0.500000  1
  Ga  Ga10  1  0.365690  0.365690  0.133568  1
  Ga  Ga11  1  0.634310  0.634310  0.866432  1
  Si  Si12  1  0.137039  0.137039  0.635888  1
  Si  Si13  1  0.862961  0.862961  0.364112  1
  Bi  Bi14  1  0.792762  0.207238  0.000000  1
  Bi  Bi15  1  0.207239  0.792762  0.000000  1
  Bi  Bi16  1  0.707308  0.292692  0.500000  1
  Bi  Bi17  1  0.292692  0.707308  0.500000  1
