# generated using pymatgen
data_Ho2Co7Ni2P6Ru
_symmetry_space_group_name_H-M   'P 1'
_cell_length_a   3.68417800
_cell_length_b   10.33608700
_cell_length_c   11.79313800
_cell_angle_alpha   90.00000000
_cell_angle_beta   90.00000000
_cell_angle_gamma   90.00000000
_symmetry_Int_Tables_number   1
_chemical_formula_structural   Ho2Co7Ni2P6Ru
_chemical_formula_sum   'Ho4 Co14 Ni4 P12 Ru2'
_cell_volume   449.08251026
_cell_formula_units_Z   2
loop_
 _symmetry_equiv_pos_site_id
 _symmetry_equiv_pos_as_xyz
  1  'x, y, z'
loop_
 _atom_site_type_symbol
 _atom_site_label
 _atom_site_symmetry_multiplicity
 _atom_site_fract_x
 _atom_site_fract_y
 _atom_site_fract_z
 _atom_site_occupancy
  Ho  Ho0  1  0.250000  0.581661  0.701943  1
  Ho  Ho1  1  0.250000  0.918339  0.201943  1
  Ho  Ho2  1  0.750000  0.414511  0.294229  1
  Ho  Ho3  1  0.750000  0.085489  0.794229  1
  Co  Co4  1  0.750000  0.590343  0.510704  1
  Co  Co5  1  0.750000  0.909657  0.010704  1
  Co  Co6  1  0.250000  0.218843  0.175780  1
  Co  Co7  1  0.250000  0.281157  0.675780  1
  Co  Co8  1  0.750000  0.778031  0.823254  1
  Co  Co9  1  0.750000  0.721969  0.323254  1
  Co  Co10  1  0.250000  0.886638  0.702461  1
  Co  Co11  1  0.250000  0.613362  0.202461  1
  Co  Co12  1  0.750000  0.117410  0.302316  1
  Co  Co13  1  0.750000  0.382590  0.802316  1
  Co  Co14  1  0.250000  0.465148  0.932233  1
  Co  Co15  1  0.250000  0.034852  0.432233  1
  Co  Co16  1  0.750000  0.534067  0.069509  1
  Co  Co17  1  0.750000  0.965933  0.569509  1
  Ni  Ni18  1  0.750000  0.286418  0.011733  1
  Ni  Ni19  1  0.750000  0.213582  0.511733  1
  Ni  Ni20  1  0.250000  0.406449  0.484009  1
  Ni  Ni21  1  0.250000  0.093551  0.984009  1
  P  P22  1  0.250000  0.417153  0.112228  1
  P  P23  1  0.250000  0.082847  0.612228  1
  P  P24  1  0.750000  0.578784  0.887432  1
  P  P25  1  0.750000  0.921216  0.387432  1
  P  P26  1  0.250000  0.272773  0.865097  1
  P  P27  1  0.250000  0.227227  0.365097  1
  P  P28  1  0.750000  0.729699  0.133101  1
  P  P29  1  0.750000  0.770301  0.633101  1
  P  P30  1  0.250000  0.597633  0.389897  1
  P  P31  1  0.250000  0.902367  0.889897  1
  P  P32  1  0.750000  0.396444  0.610807  1
  P  P33  1  0.750000  0.103556  0.110807  1
  Ru  Ru34  1  0.250000  0.714708  0.993265  1
  Ru  Ru35  1  0.250000  0.785292  0.493265  1
