# generated using pymatgen
data_La8Al8IrPt4Rh3
_symmetry_space_group_name_H-M   'P 1'
_cell_length_a   4.32452500
_cell_length_b   7.26204592
_cell_length_c   16.49657187
_cell_angle_alpha   89.88107257
_cell_angle_beta   90.00000000
_cell_angle_gamma   90.00000000
_symmetry_Int_Tables_number   1
_chemical_formula_structural   La8Al8IrPt4Rh3
_chemical_formula_sum   'La8 Al8 Ir1 Pt4 Rh3'
_cell_volume   518.07205937
_cell_formula_units_Z   1
loop_
 _symmetry_equiv_pos_site_id
 _symmetry_equiv_pos_as_xyz
  1  'x, y, z'
loop_
 _atom_site_type_symbol
 _atom_site_label
 _atom_site_symmetry_multiplicity
 _atom_site_fract_x
 _atom_site_fract_y
 _atom_site_fract_z
 _atom_site_occupancy
  La  La0  1  0.250000  0.516132  0.780041  1
  La  La1  1  0.750000  0.483127  0.219327  1
  La  La2  1  0.750000  0.983022  0.280692  1
  La  La3  1  0.250000  0.016811  0.719292  1
  La  La4  1  0.250000  0.651333  0.557425  1
  La  La5  1  0.750000  0.348842  0.442465  1
  La  La6  1  0.750000  0.847769  0.057158  1
  La  La7  1  0.250000  0.150236  0.942304  1
  Al  Al8  1  0.250000  0.659804  0.352785  1
  Al  Al9  1  0.750000  0.339904  0.647292  1
  Al  Al10  1  0.750000  0.839479  0.853344  1
  Al  Al11  1  0.250000  0.160505  0.147321  1
  Al  Al12  1  0.250000  0.507163  0.059350  1
  Al  Al13  1  0.750000  0.494347  0.940305  1
  Al  Al14  1  0.750000  0.993568  0.559592  1
  Al  Al15  1  0.250000  0.006471  0.440248  1
  Ir  Ir16  1  0.250000  0.713681  0.927172  1
  Pt  Pt17  1  0.250000  0.773255  0.181199  1
  Pt  Pt18  1  0.750000  0.226238  0.819215  1
  Pt  Pt19  1  0.750000  0.726352  0.680526  1
  Pt  Pt20  1  0.250000  0.273562  0.319426  1
  Rh  Rh21  1  0.750000  0.288433  0.073382  1
  Rh  Rh22  1  0.750000  0.788630  0.426764  1
  Rh  Rh23  1  0.250000  0.211334  0.573374  1
