# generated using pymatgen
data_HoErAl9RePd2
_symmetry_space_group_name_H-M   'P 1'
_cell_length_a   7.58535417
_cell_length_b   7.58463625
_cell_length_c   9.48295400
_cell_angle_alpha   89.99873211
_cell_angle_beta   89.99930796
_cell_angle_gamma   118.39440329
_symmetry_Int_Tables_number   1
_chemical_formula_structural   HoErAl9RePd2
_chemical_formula_sum   'Ho2 Er2 Al18 Re2 Pd4'
_cell_volume   479.93939741
_cell_formula_units_Z   2
loop_
 _symmetry_equiv_pos_site_id
 _symmetry_equiv_pos_as_xyz
  1  'x, y, z'
loop_
 _atom_site_type_symbol
 _atom_site_label
 _atom_site_symmetry_multiplicity
 _atom_site_fract_x
 _atom_site_fract_y
 _atom_site_fract_z
 _atom_site_occupancy
  Ho  Ho0  1  0.683986  0.994038  0.250050  1
  Ho  Ho1  1  0.316014  0.005962  0.749950  1
  Er  Er2  1  0.994039  0.684152  0.250113  1
  Er  Er3  1  0.005961  0.315848  0.749887  1
  Al  Al4  1  0.134492  0.134407  0.250061  1
  Al  Al5  1  0.865508  0.865593  0.749939  1
  Al  Al6  1  0.002237  0.336619  0.077565  1
  Al  Al7  1  0.997763  0.663381  0.922435  1
  Al  Al8  1  0.997826  0.663488  0.577527  1
  Al  Al9  1  0.336417  0.002111  0.422423  1
  Al  Al10  1  0.002174  0.336512  0.422473  1
  Al  Al11  1  0.663583  0.997889  0.577577  1
  Al  Al12  1  0.663475  0.997828  0.922386  1
  Al  Al13  1  0.336525  0.002172  0.077614  1
  Al  Al14  1  0.329608  0.329658  0.548288  1
  Al  Al15  1  0.670392  0.670343  0.451712  1
  Al  Al16  1  0.670342  0.670293  0.048309  1
  Al  Al17  1  0.329658  0.329708  0.951691  1
  Al  Al18  1  0.345402  0.554691  0.250005  1
  Al  Al19  1  0.654598  0.445309  0.749995  1
  Al  Al20  1  0.554713  0.345427  0.250006  1
  Al  Al21  1  0.445287  0.654573  0.749994  1
  Re  Re22  1  0.000000  0.000000  0.000000  1
  Re  Re23  1  0.000000  0.000000  0.500000  1
  Pd  Pd24  1  0.672400  0.327762  0.999986  1
  Pd  Pd25  1  0.327600  0.672238  0.000014  1
  Pd  Pd26  1  0.327607  0.672231  0.499986  1
  Pd  Pd27  1  0.672393  0.327769  0.500014  1
