# generated using pymatgen
data_Sr5Np4UO18
_symmetry_space_group_name_H-M   'P 1'
_cell_length_a   7.01239732
_cell_length_b   7.76277620
_cell_length_c   8.73586600
_cell_angle_alpha   100.76335523
_cell_angle_beta   97.64258278
_cell_angle_gamma   107.29769071
_symmetry_Int_Tables_number   1
_chemical_formula_structural   Sr5Np4UO18
_chemical_formula_sum   'Sr5 Np4 U1 O18'
_cell_volume   436.94521665
_cell_formula_units_Z   1
loop_
 _symmetry_equiv_pos_site_id
 _symmetry_equiv_pos_as_xyz
  1  'x, y, z'
loop_
 _atom_site_type_symbol
 _atom_site_label
 _atom_site_symmetry_multiplicity
 _atom_site_fract_x
 _atom_site_fract_y
 _atom_site_fract_z
 _atom_site_occupancy
  Sr  Sr0  1  0.802262  0.102347  0.582971  1
  Sr  Sr1  1  0.597034  0.695912  0.193307  1
  Sr  Sr2  1  0.401173  0.303568  0.806011  1
  Sr  Sr3  1  0.198192  0.896682  0.416895  1
  Sr  Sr4  1  0.000432  0.499089  0.000952  1
  Np  Np5  1  0.998602  0.999282  0.999692  1
  Np  Np6  1  0.617964  0.196600  0.193806  1
  Np  Np7  1  0.381059  0.804198  0.806686  1
  Np  Np8  1  0.211341  0.422930  0.415171  1
  U  U9  1  0.789511  0.574889  0.582283  1
  O  O10  1  0.825820  0.780861  0.467910  1
  O  O11  1  0.021103  0.226632  0.179111  1
  O  O12  1  0.664386  0.394112  0.070572  1
  O  O13  1  0.452917  0.997700  0.683837  1
  O  O14  1  0.860659  0.353683  0.414364  1
  O  O15  1  0.503812  0.394785  0.354333  1
  O  O16  1  0.246942  0.607270  0.281882  1
  O  O17  1  0.976872  0.825998  0.145951  1
  O  O18  1  0.669900  0.947974  0.992022  1
  O  O19  1  0.328819  0.053115  0.008149  1
  O  O20  1  0.021626  0.172700  0.853365  1
  O  O21  1  0.752085  0.390885  0.716176  1
  O  O22  1  0.511856  0.613237  0.650119  1
  O  O23  1  0.135896  0.648127  0.587514  1
  O  O24  1  0.545651  0.003136  0.316645  1
  O  O25  1  0.335158  0.605313  0.929076  1
  O  O26  1  0.974232  0.769263  0.818666  1
  O  O27  1  0.174694  0.219717  0.532538  1
