# generated using pymatgen
data_VIr(SeS)2
_symmetry_space_group_name_H-M   'P 1'
_cell_length_a   7.04672157
_cell_length_b   7.04672223
_cell_length_c   5.75164979
_cell_angle_alpha   68.15901840
_cell_angle_beta   68.15901854
_cell_angle_gamma   28.56187370
_symmetry_Int_Tables_number   1
_chemical_formula_structural   VIr(SeS)2
_chemical_formula_sum   'V1 Ir1 Se2 S2'
_cell_volume   126.08725835
_cell_formula_units_Z   1
loop_
 _symmetry_equiv_pos_site_id
 _symmetry_equiv_pos_as_xyz
  1  'x, y, z'
loop_
 _atom_site_type_symbol
 _atom_site_label
 _atom_site_symmetry_multiplicity
 _atom_site_fract_x
 _atom_site_fract_y
 _atom_site_fract_z
 _atom_site_occupancy
  V  V0  1  0.994844  0.994844  0.937147  1
  Ir  Ir1  1  0.503388  0.503388  0.542219  1
  Se  Se2  1  0.897175  0.897175  0.431985  1
  Se  Se3  1  0.604495  0.604495  0.068988  1
  S  S4  1  0.123123  0.123123  0.557591  1
  S  S5  1  0.376976  0.376976  0.962069  1
