# generated using pymatgen
data_YLuCr2Co10As7
_symmetry_space_group_name_H-M   'P 1'
_cell_length_a   3.73152400
_cell_length_b   9.36729045
_cell_length_c   9.40353095
_cell_angle_alpha   119.88176271
_cell_angle_beta   90.00000000
_cell_angle_gamma   90.00000000
_symmetry_Int_Tables_number   1
_chemical_formula_structural   YLuCr2Co10As7
_chemical_formula_sum   'Y1 Lu1 Cr2 Co10 As7'
_cell_volume   284.99551023
_cell_formula_units_Z   1
loop_
 _symmetry_equiv_pos_site_id
 _symmetry_equiv_pos_as_xyz
  1  'x, y, z'
loop_
 _atom_site_type_symbol
 _atom_site_label
 _atom_site_symmetry_multiplicity
 _atom_site_fract_x
 _atom_site_fract_y
 _atom_site_fract_z
 _atom_site_occupancy
  Y  Y0  1  0.500000  0.331988  0.666657  1
  Lu  Lu1  1  0.000000  0.671950  0.337806  1
  Cr  Cr2  1  0.500000  0.774963  0.893305  1
  Cr  Cr3  1  0.500000  0.121214  0.223466  1
  Co  Co4  1  0.000000  0.569055  0.942029  1
  Co  Co5  1  0.000000  0.371478  0.430807  1
  Co  Co6  1  0.000000  0.057782  0.627591  1
  Co  Co7  1  0.500000  0.095465  0.877754  1
  Co  Co8  1  0.000000  0.878852  0.156375  1
  Co  Co9  1  0.000000  0.282076  0.123558  1
  Co  Co10  1  0.000000  0.841820  0.721053  1
  Co  Co11  1  0.500000  0.945931  0.381276  1
  Co  Co12  1  0.500000  0.434104  0.050642  1
  Co  Co13  1  0.500000  0.618881  0.564239  1
  As  As14  1  0.000000  0.002402  0.998538  1
  As  As15  1  0.500000  0.707609  0.118730  1
  As  As16  1  0.500000  0.414469  0.292230  1
  As  As17  1  0.500000  0.885907  0.594227  1
  As  As18  1  0.000000  0.586326  0.701654  1
  As  As19  1  0.000000  0.113941  0.412789  1
  As  As20  1  0.000000  0.293781  0.885274  1
