# generated using pymatgen
data_Er2Al9Os2Rh
_symmetry_space_group_name_H-M   'P 1'
_cell_length_a   7.52931503
_cell_length_b   7.52931492
_cell_length_c   9.55946800
_cell_angle_alpha   90.00000000
_cell_angle_beta   90.00000000
_cell_angle_gamma   119.80417851
_symmetry_Int_Tables_number   1
_chemical_formula_structural   Er2Al9Os2Rh
_chemical_formula_sum   'Er4 Al18 Os4 Rh2'
_cell_volume   470.25007194
_cell_formula_units_Z   2
loop_
 _symmetry_equiv_pos_site_id
 _symmetry_equiv_pos_as_xyz
  1  'x, y, z'
loop_
 _atom_site_type_symbol
 _atom_site_label
 _atom_site_symmetry_multiplicity
 _atom_site_fract_x
 _atom_site_fract_y
 _atom_site_fract_z
 _atom_site_occupancy
  Er  Er0  1  0.997505  0.666991  0.250000  1
  Er  Er1  1  0.002495  0.333009  0.750000  1
  Er  Er2  1  0.666991  0.997505  0.250000  1
  Er  Er3  1  0.333009  0.002495  0.750000  1
  Al  Al4  1  0.126166  0.126166  0.250000  1
  Al  Al5  1  0.873834  0.873834  0.750000  1
  Al  Al6  1  0.002995  0.335444  0.072241  1
  Al  Al7  1  0.997005  0.664556  0.927759  1
  Al  Al8  1  0.997005  0.664556  0.572241  1
  Al  Al9  1  0.335444  0.002995  0.427759  1
  Al  Al10  1  0.002995  0.335444  0.427759  1
  Al  Al11  1  0.664556  0.997005  0.572241  1
  Al  Al12  1  0.664556  0.997005  0.927759  1
  Al  Al13  1  0.335444  0.002995  0.072241  1
  Al  Al14  1  0.336694  0.336694  0.552002  1
  Al  Al15  1  0.663306  0.663306  0.447998  1
  Al  Al16  1  0.663306  0.663306  0.052002  1
  Al  Al17  1  0.336694  0.336694  0.947998  1
  Al  Al18  1  0.337183  0.548260  0.250000  1
  Al  Al19  1  0.662817  0.451740  0.750000  1
  Al  Al20  1  0.548260  0.337183  0.250000  1
  Al  Al21  1  0.451740  0.662817  0.750000  1
  Os  Os22  1  0.673248  0.326752  0.000000  1
  Os  Os23  1  0.326752  0.673248  0.000000  1
  Os  Os24  1  0.326752  0.673248  0.500000  1
  Os  Os25  1  0.673248  0.326752  0.500000  1
  Rh  Rh26  1  0.000000  0.000000  0.000000  1
  Rh  Rh27  1  0.000000  0.000000  0.500000  1
