# generated using pymatgen
data_ErLu3BBr6
_symmetry_space_group_name_H-M   'P 1'
_cell_length_a   3.88316700
_cell_length_b   12.94972981
_cell_length_c   13.41010983
_cell_angle_alpha   90.23753454
_cell_angle_beta   90.00000000
_cell_angle_gamma   90.00000000
_symmetry_Int_Tables_number   1
_chemical_formula_structural   ErLu3BBr6
_chemical_formula_sum   'Er2 Lu6 B2 Br12'
_cell_volume   674.33449743
_cell_formula_units_Z   2
loop_
 _symmetry_equiv_pos_site_id
 _symmetry_equiv_pos_as_xyz
  1  'x, y, z'
loop_
 _atom_site_type_symbol
 _atom_site_label
 _atom_site_symmetry_multiplicity
 _atom_site_fract_x
 _atom_site_fract_y
 _atom_site_fract_z
 _atom_site_occupancy
  Er  Er0  1  0.500000  0.122278  0.856332  1
  Er  Er1  1  0.500000  0.877722  0.143668  1
  Lu  Lu2  1  0.000000  0.099702  0.079290  1
  Lu  Lu3  1  0.000000  0.900298  0.920710  1
  Lu  Lu4  1  0.000000  0.599451  0.421026  1
  Lu  Lu5  1  0.000000  0.400549  0.578974  1
  Lu  Lu6  1  0.500000  0.621273  0.642506  1
  Lu  Lu7  1  0.500000  0.378727  0.357494  1
  B  B8  1  0.500000  0.000000  0.000000  1
  B  B9  1  0.500000  0.500000  0.500000  1
  Br  Br10  1  0.500000  0.269596  0.680600  1
  Br  Br11  1  0.500000  0.730404  0.319400  1
  Br  Br12  1  0.500000  0.768218  0.817680  1
  Br  Br13  1  0.500000  0.231782  0.182320  1
  Br  Br14  1  0.000000  0.262299  0.932788  1
  Br  Br15  1  0.000000  0.737701  0.067212  1
  Br  Br16  1  0.000000  0.479676  0.240114  1
  Br  Br17  1  0.000000  0.520324  0.759886  1
  Br  Br18  1  0.000000  0.982318  0.261655  1
  Br  Br19  1  0.000000  0.017682  0.738345  1
  Br  Br20  1  0.000000  0.239971  0.430547  1
  Br  Br21  1  0.000000  0.760029  0.569453  1
