# generated using pymatgen
data_Ho8SiPd23Au
_symmetry_space_group_name_H-M   'P 1'
_cell_length_a   8.29654600
_cell_length_b   8.34902400
_cell_length_c   8.35253300
_cell_angle_alpha   90.00000000
_cell_angle_beta   90.00000000
_cell_angle_gamma   90.00000000
_symmetry_Int_Tables_number   1
_chemical_formula_structural   Ho8SiPd23Au
_chemical_formula_sum   'Ho8 Si1 Pd23 Au1'
_cell_volume   578.56377095
_cell_formula_units_Z   1
loop_
 _symmetry_equiv_pos_site_id
 _symmetry_equiv_pos_as_xyz
  1  'x, y, z'
loop_
 _atom_site_type_symbol
 _atom_site_label
 _atom_site_symmetry_multiplicity
 _atom_site_fract_x
 _atom_site_fract_y
 _atom_site_fract_z
 _atom_site_occupancy
  Ho  Ho0  1  0.253994  0.250236  0.258554  1
  Ho  Ho1  1  0.745847  0.745916  0.745498  1
  Ho  Ho2  1  0.745847  0.745916  0.254502  1
  Ho  Ho3  1  0.745847  0.254084  0.745498  1
  Ho  Ho4  1  0.253994  0.250236  0.741446  1
  Ho  Ho5  1  0.253994  0.749764  0.258554  1
  Ho  Ho6  1  0.253994  0.749764  0.741446  1
  Ho  Ho7  1  0.745847  0.254084  0.254502  1
  Si  Si8  1  0.000084  0.000000  0.000000  1
  Pd  Pd9  1  0.742900  0.500000  0.000000  1
  Pd  Pd10  1  0.999712  0.256646  0.500000  1
  Pd  Pd11  1  0.499650  0.256008  0.000000  1
  Pd  Pd12  1  0.999712  0.743354  0.500000  1
  Pd  Pd13  1  0.499650  0.743992  0.000000  1
  Pd  Pd14  1  0.500406  0.000000  0.257104  1
  Pd  Pd15  1  0.256848  0.000000  0.500000  1
  Pd  Pd16  1  0.500406  0.000000  0.742896  1
  Pd  Pd17  1  0.743017  0.000000  0.500000  1
  Pd  Pd18  1  0.000506  0.500000  0.257621  1
  Pd  Pd19  1  0.000506  0.500000  0.742379  1
  Pd  Pd20  1  0.251995  0.500000  0.500000  1
  Pd  Pd21  1  0.747948  0.500000  0.500000  1
  Pd  Pd22  1  0.500484  0.252075  0.500000  1
  Pd  Pd23  1  0.500484  0.747925  0.500000  1
  Pd  Pd24  1  0.499560  0.500000  0.253415  1
  Pd  Pd25  1  0.499560  0.500000  0.746585  1
  Pd  Pd26  1  0.279872  0.000000  0.000000  1
  Pd  Pd27  1  0.719816  0.000000  0.000000  1
  Pd  Pd28  1  0.000141  0.278722  0.000000  1
  Pd  Pd29  1  0.000141  0.721278  0.000000  1
  Pd  Pd30  1  0.999294  0.000000  0.279321  1
  Pd  Pd31  1  0.999294  0.000000  0.720679  1
  Au  Au32  1  0.258646  0.500000  0.000000  1
