# generated using pymatgen
data_PrNd7Al5Ga3
_symmetry_space_group_name_H-M   'P 1'
_cell_length_a   5.75934500
_cell_length_b   5.93794562
_cell_length_c   11.76325602
_cell_angle_alpha   90.06690727
_cell_angle_beta   90.00000000
_cell_angle_gamma   90.00000000
_symmetry_Int_Tables_number   1
_chemical_formula_structural   PrNd7Al5Ga3
_chemical_formula_sum   'Pr1 Nd7 Al5 Ga3'
_cell_volume   402.28752407
_cell_formula_units_Z   1
loop_
 _symmetry_equiv_pos_site_id
 _symmetry_equiv_pos_as_xyz
  1  'x, y, z'
loop_
 _atom_site_type_symbol
 _atom_site_label
 _atom_site_symmetry_multiplicity
 _atom_site_fract_x
 _atom_site_fract_y
 _atom_site_fract_z
 _atom_site_occupancy
  Pr  Pr0  1  0.250000  0.407153  0.166937  1
  Nd  Nd1  1  0.750000  0.164646  0.011101  1
  Nd  Nd2  1  0.750000  0.406300  0.334620  1
  Nd  Nd3  1  0.750000  0.834928  0.510745  1
  Nd  Nd4  1  0.750000  0.594059  0.833569  1
  Nd  Nd5  1  0.250000  0.165061  0.489564  1
  Nd  Nd6  1  0.250000  0.594804  0.664398  1
  Nd  Nd7  1  0.250000  0.834079  0.991029  1
  Al  Al8  1  0.500319  0.928223  0.250568  1
  Al  Al9  1  0.500577  0.071510  0.749319  1
  Al  Al10  1  0.999681  0.928223  0.250568  1
  Al  Al11  1  0.999423  0.071510  0.749319  1
  Al  Al12  1  0.250000  0.332510  0.897747  1
  Ga  Ga13  1  0.750000  0.666278  0.100844  1
  Ga  Ga14  1  0.750000  0.333632  0.600065  1
  Ga  Ga15  1  0.250000  0.667079  0.399605  1
