# generated using pymatgen
data_TbTh2(GaRh)3
_symmetry_space_group_name_H-M   'P 1'
_cell_length_a   7.32493565
_cell_length_b   7.25701272
_cell_length_c   3.96164800
_cell_angle_alpha   90.00000000
_cell_angle_beta   90.00000000
_cell_angle_gamma   119.69373326
_symmetry_Int_Tables_number   1
_chemical_formula_structural   TbTh2(GaRh)3
_chemical_formula_sum   'Tb1 Th2 Ga3 Rh3'
_cell_volume   182.93645355
_cell_formula_units_Z   1
loop_
 _symmetry_equiv_pos_site_id
 _symmetry_equiv_pos_as_xyz
  1  'x, y, z'
loop_
 _atom_site_type_symbol
 _atom_site_label
 _atom_site_symmetry_multiplicity
 _atom_site_fract_x
 _atom_site_fract_y
 _atom_site_fract_z
 _atom_site_occupancy
  Tb  Tb0  1  0.000000  0.410952  0.500000  1
  Th  Th1  1  0.584822  0.586584  0.500000  1
  Th  Th2  1  0.415178  0.001762  0.500000  1
  Ga  Ga3  1  0.000000  0.745305  0.000000  1
  Ga  Ga4  1  0.229825  0.242800  0.000000  1
  Ga  Ga5  1  0.770175  0.012975  0.000000  1
  Rh  Rh6  1  0.349660  0.680540  0.000000  1
  Rh  Rh7  1  0.650340  0.330878  0.000000  1
  Rh  Rh8  1  0.000000  0.988204  0.500000  1
