# generated using pymatgen
data_Dy7Ho2Tm(CoSb2)2
_symmetry_space_group_name_H-M   'P 1'
_cell_length_a   7.87498843
_cell_length_b   8.76294490
_cell_length_c   12.18886800
_cell_angle_alpha   90.00000000
_cell_angle_beta   90.00000000
_cell_angle_gamma   90.05658445
_symmetry_Int_Tables_number   1
_chemical_formula_structural   Dy7Ho2Tm(CoSb2)2
_chemical_formula_sum   'Dy14 Ho4 Tm2 Co4 Sb8'
_cell_volume   841.13008573
_cell_formula_units_Z   2
loop_
 _symmetry_equiv_pos_site_id
 _symmetry_equiv_pos_as_xyz
  1  'x, y, z'
loop_
 _atom_site_type_symbol
 _atom_site_label
 _atom_site_symmetry_multiplicity
 _atom_site_fract_x
 _atom_site_fract_y
 _atom_site_fract_z
 _atom_site_occupancy
  Dy  Dy0  1  0.154353  0.749696  0.203198  1
  Dy  Dy1  1  0.345647  0.750304  0.703198  1
  Dy  Dy2  1  0.845429  0.250116  0.796842  1
  Dy  Dy3  1  0.654571  0.249884  0.296842  1
  Dy  Dy4  1  0.454150  0.749745  0.998108  1
  Dy  Dy5  1  0.045850  0.750255  0.498108  1
  Dy  Dy6  1  0.546074  0.250467  0.001915  1
  Dy  Dy7  1  0.953926  0.249533  0.501915  1
  Dy  Dy8  1  0.621941  0.750652  0.307131  1
  Dy  Dy9  1  0.878059  0.749348  0.807131  1
  Dy  Dy10  1  0.378345  0.249622  0.692859  1
  Dy  Dy11  1  0.121655  0.250378  0.192859  1
  Dy  Dy12  1  0.821296  0.964573  0.065144  1
  Dy  Dy13  1  0.678704  0.535427  0.565144  1
  Ho  Ho14  1  0.177920  0.035439  0.934864  1
  Ho  Ho15  1  0.322080  0.464561  0.434864  1
  Ho  Ho16  1  0.177529  0.464441  0.934962  1
  Ho  Ho17  1  0.322471  0.035559  0.434962  1
  Tm  Tm18  1  0.823667  0.535635  0.064991  1
  Tm  Tm19  1  0.676333  0.964365  0.564991  1
  Co  Co20  1  0.435089  0.750757  0.490995  1
  Co  Co21  1  0.064911  0.749243  0.990995  1
  Co  Co22  1  0.565373  0.249511  0.509102  1
  Co  Co23  1  0.934627  0.250489  0.009102  1
  Sb  Sb24  1  0.928371  0.508406  0.326788  1
  Sb  Sb25  1  0.571629  0.991594  0.826788  1
  Sb  Sb26  1  0.070581  0.008162  0.673025  1
  Sb  Sb27  1  0.429419  0.491838  0.173025  1
  Sb  Sb28  1  0.071888  0.491517  0.673055  1
  Sb  Sb29  1  0.428112  0.008483  0.173055  1
  Sb  Sb30  1  0.929009  0.991670  0.327022  1
  Sb  Sb31  1  0.570991  0.508330  0.827022  1
