# generated using pymatgen
data_Ac17Yb3Si15Sn
_symmetry_space_group_name_H-M   'P 1'
_cell_length_a   8.27878038
_cell_length_b   8.25375347
_cell_length_c   16.40850700
_cell_angle_alpha   90.15931416
_cell_angle_beta   90.07112508
_cell_angle_gamma   90.02089136
_symmetry_Int_Tables_number   1
_chemical_formula_structural   Ac17Yb3Si15Sn
_chemical_formula_sum   'Ac17 Yb3 Si15 Sn1'
_cell_volume   1121.20461860
_cell_formula_units_Z   1
loop_
 _symmetry_equiv_pos_site_id
 _symmetry_equiv_pos_as_xyz
  1  'x, y, z'
loop_
 _atom_site_type_symbol
 _atom_site_label
 _atom_site_symmetry_multiplicity
 _atom_site_fract_x
 _atom_site_fract_y
 _atom_site_fract_z
 _atom_site_occupancy
  Ac  Ac0  1  0.383816  0.471037  0.369312  1
  Ac  Ac1  1  0.871738  0.036819  0.371832  1
  Ac  Ac2  1  0.978886  0.120932  0.120699  1
  Ac  Ac3  1  0.025477  0.880120  0.627539  1
  Ac  Ac4  1  0.622131  0.521505  0.873129  1
  Ac  Ac5  1  0.477158  0.373725  0.631449  1
  Ac  Ac6  1  0.521103  0.621337  0.126067  1
  Ac  Ac7  1  0.121299  0.978529  0.878741  1
  Ac  Ac8  1  0.989159  0.617293  0.053645  1
  Ac  Ac9  1  0.011017  0.375513  0.559551  1
  Ac  Ac10  1  0.616799  0.988820  0.944912  1
  Ac  Ac11  1  0.116847  0.512907  0.806936  1
  Ac  Ac12  1  0.876532  0.482523  0.296054  1
  Ac  Ac13  1  0.511597  0.115234  0.191688  1
  Ac  Ac14  1  0.488721  0.885128  0.699528  1
  Ac  Ac15  1  0.385723  0.015214  0.443566  1
  Ac  Ac16  1  0.684627  0.692966  0.502059  1
  Yb  Yb17  1  0.811930  0.190258  0.752746  1
  Yb  Yb18  1  0.191641  0.810981  0.244798  1
  Yb  Yb19  1  0.310700  0.310695  0.999660  1
  Si  Si20  1  0.914610  0.287527  0.938922  1
  Si  Si21  1  0.712806  0.082540  0.562607  1
  Si  Si22  1  0.214026  0.414226  0.186494  1
  Si  Si23  1  0.789888  0.583828  0.691519  1
  Si  Si24  1  0.413316  0.213603  0.814260  1
  Si  Si25  1  0.583551  0.789171  0.308078  1
  Si  Si26  1  0.287422  0.913878  0.060105  1
  Si  Si27  1  0.827349  0.803934  0.791781  1
  Si  Si28  1  0.174373  0.195570  0.286394  1
  Si  Si29  1  0.803982  0.827385  0.208379  1
  Si  Si30  1  0.311210  0.671333  0.546832  1
  Si  Si31  1  0.696975  0.328041  0.038706  1
  Si  Si32  1  0.672159  0.305718  0.464040  1
  Si  Si33  1  0.327609  0.695217  0.960551  1
  Si  Si34  1  0.195225  0.173484  0.714052  1
  Sn  Sn35  1  0.078599  0.713009  0.433370  1
