# generated using pymatgen
data_U2AsO2
_symmetry_space_group_name_H-M   'P 1'
_cell_length_a   3.86956800
_cell_length_b   3.86956784
_cell_length_c   6.79809900
_cell_angle_alpha   90.00000000
_cell_angle_beta   90.00000000
_cell_angle_gamma   120.00000140
_symmetry_Int_Tables_number   1
_chemical_formula_structural   U2AsO2
_chemical_formula_sum   'U2 As1 O2'
_cell_volume   88.15421000
_cell_formula_units_Z   1
loop_
 _symmetry_equiv_pos_site_id
 _symmetry_equiv_pos_as_xyz
  1  'x, y, z'
loop_
 _atom_site_type_symbol
 _atom_site_label
 _atom_site_symmetry_multiplicity
 _atom_site_fract_x
 _atom_site_fract_y
 _atom_site_fract_z
 _atom_site_occupancy
  U  U0  1  0.666667  0.333333  0.720474  1
  U  U1  1  0.333333  0.666667  0.279526  1
  As  As2  1  0.000000  0.000000  0.000000  1
  O  O3  1  0.333333  0.666667  0.626086  1
  O  O4  1  0.666667  0.333333  0.373914  1
