# generated using pymatgen
data_Nd4HoEr3Au4
_symmetry_space_group_name_H-M   'P 1'
_cell_length_a   5.03069700
_cell_length_b   7.29344612
_cell_length_c   9.08529200
_cell_angle_alpha   89.76543332
_cell_angle_beta   90.00000000
_cell_angle_gamma   90.00000000
_symmetry_Int_Tables_number   1
_chemical_formula_structural   Nd4HoEr3Au4
_chemical_formula_sum   'Nd4 Ho1 Er3 Au4'
_cell_volume   333.34672292
_cell_formula_units_Z   1
loop_
 _symmetry_equiv_pos_site_id
 _symmetry_equiv_pos_as_xyz
  1  'x, y, z'
loop_
 _atom_site_type_symbol
 _atom_site_label
 _atom_site_symmetry_multiplicity
 _atom_site_fract_x
 _atom_site_fract_y
 _atom_site_fract_z
 _atom_site_occupancy
  Nd  Nd0  1  0.250000  0.489918  0.177591  1
  Nd  Nd1  1  0.250000  0.989281  0.323031  1
  Nd  Nd2  1  0.750000  0.510478  0.821150  1
  Nd  Nd3  1  0.750000  0.009668  0.677574  1
  Ho  Ho4  1  0.750000  0.649954  0.417351  1
  Er  Er5  1  0.250000  0.851596  0.918573  1
  Er  Er6  1  0.250000  0.349624  0.581766  1
  Er  Er7  1  0.750000  0.149713  0.082561  1
  Au  Au8  1  0.250000  0.246008  0.903212  1
  Au  Au9  1  0.250000  0.744465  0.598450  1
  Au  Au10  1  0.750000  0.754549  0.096240  1
  Au  Au11  1  0.750000  0.254748  0.402504  1
