# generated using pymatgen
data_TbDy3V4F28
_symmetry_space_group_name_H-M   'P 1'
_cell_length_a   5.51038710
_cell_length_b   8.80635110
_cell_length_c   11.78466000
_cell_angle_alpha   63.44951756
_cell_angle_beta   89.98896796
_cell_angle_gamma   89.99949304
_symmetry_Int_Tables_number   1
_chemical_formula_structural   TbDy3V4F28
_chemical_formula_sum   'Tb1 Dy3 V4 F28'
_cell_volume   511.55854481
_cell_formula_units_Z   1
loop_
 _symmetry_equiv_pos_site_id
 _symmetry_equiv_pos_as_xyz
  1  'x, y, z'
loop_
 _atom_site_type_symbol
 _atom_site_label
 _atom_site_symmetry_multiplicity
 _atom_site_fract_x
 _atom_site_fract_y
 _atom_site_fract_z
 _atom_site_occupancy
  Tb  Tb0  1  0.741808  0.807384  0.270887  1
  Dy  Dy1  1  0.758127  0.807270  0.770912  1
  Dy  Dy2  1  0.258150  0.192725  0.729095  1
  Dy  Dy3  1  0.242012  0.193719  0.228876  1
  V  V4  1  0.753944  0.273409  0.954268  1
  V  V5  1  0.253893  0.726615  0.545874  1
  V  V6  1  0.246207  0.726855  0.045208  1
  V  V7  1  0.746112  0.272929  0.454669  1
  F  F8  1  0.451467  0.705380  0.924486  1
  F  F9  1  0.951137  0.294511  0.575454  1
  F  F10  1  0.549147  0.294608  0.075375  1
  F  F11  1  0.049694  0.704824  0.425024  1
  F  F12  1  0.462686  0.284696  0.544583  1
  F  F13  1  0.962399  0.715311  0.955495  1
  F  F14  1  0.536692  0.714566  0.456188  1
  F  F15  1  0.037047  0.284740  0.044453  1
  F  F16  1  0.767050  0.506384  0.861972  1
  F  F17  1  0.267002  0.493559  0.638173  1
  F  F18  1  0.232754  0.493673  0.138185  1
  F  F19  1  0.733156  0.505708  0.361964  1
  F  F20  1  0.756199  0.043037  0.044774  1
  F  F21  1  0.256392  0.956916  0.454770  1
  F  F22  1  0.243561  0.957103  0.954804  1
  F  F23  1  0.743457  0.042657  0.545314  1
  F  F24  1  0.978977  0.731252  0.641359  1
  F  F25  1  0.479246  0.268967  0.858623  1
  F  F26  1  0.020361  0.268806  0.358711  1
  F  F27  1  0.520067  0.730599  0.141089  1
  F  F28  1  0.043922  0.747340  0.169350  1
  F  F29  1  0.542967  0.252453  0.330502  1
  F  F30  1  0.957198  0.252385  0.830372  1
  F  F31  1  0.457327  0.747874  0.669505  1
  F  F32  1  0.421047  0.973873  0.231405  1
  F  F33  1  0.923592  0.027946  0.268242  1
  F  F34  1  0.577440  0.026945  0.768303  1
  F  F35  1  0.077757  0.972985  0.731736  1
