# generated using pymatgen
data_Li(TiSe2)8
_symmetry_space_group_name_H-M   'P 1'
_cell_length_a   7.07942900
_cell_length_b   7.07942794
_cell_length_c   13.49783900
_cell_angle_alpha   90.00000000
_cell_angle_beta   90.00000000
_cell_angle_gamma   119.99999094
_symmetry_Int_Tables_number   1
_chemical_formula_structural   Li(TiSe2)8
_chemical_formula_sum   'Li1 Ti8 Se16'
_cell_volume   585.85657869
_cell_formula_units_Z   1
loop_
 _symmetry_equiv_pos_site_id
 _symmetry_equiv_pos_as_xyz
  1  'x, y, z'
loop_
 _atom_site_type_symbol
 _atom_site_label
 _atom_site_symmetry_multiplicity
 _atom_site_fract_x
 _atom_site_fract_y
 _atom_site_fract_z
 _atom_site_occupancy
  Li  Li0  1  0.000000  0.000000  0.000000  1
  Ti  Ti1  1  0.501812  0.498188  0.746461  1
  Ti  Ti2  1  0.498188  0.501812  0.253539  1
  Ti  Ti3  1  0.501812  0.003623  0.746461  1
  Ti  Ti4  1  0.498188  0.996377  0.253539  1
  Ti  Ti5  1  0.996377  0.498188  0.746461  1
  Ti  Ti6  1  0.003623  0.501812  0.253539  1
  Ti  Ti7  1  0.000000  0.000000  0.746275  1
  Ti  Ti8  1  0.000000  0.000000  0.253725  1
  Se  Se9  1  0.832722  0.665446  0.136748  1
  Se  Se10  1  0.833512  0.667025  0.631634  1
  Se  Se11  1  0.832722  0.167278  0.136748  1
  Se  Se12  1  0.833512  0.166488  0.631634  1
  Se  Se13  1  0.333333  0.666667  0.137117  1
  Se  Se14  1  0.333333  0.666667  0.633957  1
  Se  Se15  1  0.334554  0.167278  0.136748  1
  Se  Se16  1  0.332975  0.166488  0.631634  1
  Se  Se17  1  0.665446  0.832722  0.863252  1
  Se  Se18  1  0.667025  0.833512  0.368366  1
  Se  Se19  1  0.666667  0.333333  0.862883  1
  Se  Se20  1  0.666667  0.333333  0.366043  1
  Se  Se21  1  0.167278  0.832722  0.863252  1
  Se  Se22  1  0.166488  0.833512  0.368366  1
  Se  Se23  1  0.167278  0.334554  0.863252  1
  Se  Se24  1  0.166488  0.332975  0.368366  1
