# generated using pymatgen
data_NpCd3Pd8
_symmetry_space_group_name_H-M   'P 1'
_cell_length_a   4.19093553
_cell_length_b   5.76026390
_cell_length_c   17.23304102
_cell_angle_alpha   89.91463927
_cell_angle_beta   89.93198407
_cell_angle_gamma   90.00044270
_symmetry_Int_Tables_number   1
_chemical_formula_structural   NpCd3Pd8
_chemical_formula_sum   'Np2 Cd6 Pd16'
_cell_volume   416.02027211
_cell_formula_units_Z   2
loop_
 _symmetry_equiv_pos_site_id
 _symmetry_equiv_pos_as_xyz
  1  'x, y, z'
loop_
 _atom_site_type_symbol
 _atom_site_label
 _atom_site_symmetry_multiplicity
 _atom_site_fract_x
 _atom_site_fract_y
 _atom_site_fract_z
 _atom_site_occupancy
  Np  Np0  1  0.524389  0.843190  0.206166  1
  Np  Np1  1  0.527668  0.234782  0.706083  1
  Cd  Cd2  1  0.524234  0.338240  0.043089  1
  Cd  Cd3  1  0.525945  0.337570  0.369182  1
  Cd  Cd4  1  0.026810  0.040339  0.456092  1
  Cd  Cd5  1  0.527513  0.742649  0.543189  1
  Cd  Cd6  1  0.526214  0.739546  0.869185  1
  Cd  Cd7  1  0.025199  0.039217  0.956054  1
  Pd  Pd8  1  0.524313  0.829326  0.038681  1
  Pd  Pd9  1  0.024131  0.092983  0.123103  1
  Pd  Pd10  1  0.023979  0.597076  0.124074  1
  Pd  Pd11  1  0.524247  0.343908  0.206124  1
  Pd  Pd12  1  0.024965  0.596033  0.288391  1
  Pd  Pd13  1  0.024869  0.091847  0.288920  1
  Pd  Pd14  1  0.526021  0.828560  0.373633  1
  Pd  Pd15  1  0.026794  0.540181  0.456237  1
  Pd  Pd16  1  0.527676  0.251601  0.539128  1
  Pd  Pd17  1  0.028390  0.987196  0.623075  1
  Pd  Pd18  1  0.028166  0.483864  0.623836  1
  Pd  Pd19  1  0.527890  0.734391  0.706188  1
  Pd  Pd20  1  0.026853  0.480911  0.788524  1
  Pd  Pd21  1  0.026771  0.984090  0.789260  1
  Pd  Pd22  1  0.526135  0.248347  0.873080  1
  Pd  Pd23  1  0.025165  0.539117  0.956245  1
