# generated using pymatgen
data_Ce2Sc4Pb5
_symmetry_space_group_name_H-M   'P 1'
_cell_length_a   11.26594364
_cell_length_b   11.26594367
_cell_length_c   11.26594300
_cell_angle_alpha   131.89189028
_cell_angle_beta   59.38016233
_cell_angle_gamma   147.31075723
_symmetry_Int_Tables_number   1
_chemical_formula_structural   Ce2Sc4Pb5
_chemical_formula_sum   'Ce4 Sc8 Pb10'
_cell_volume   569.92724258
_cell_formula_units_Z   2
loop_
 _symmetry_equiv_pos_site_id
 _symmetry_equiv_pos_as_xyz
  1  'x, y, z'
loop_
 _atom_site_type_symbol
 _atom_site_label
 _atom_site_symmetry_multiplicity
 _atom_site_fract_x
 _atom_site_fract_y
 _atom_site_fract_z
 _atom_site_occupancy
  Ce  Ce0  1  0.141886  0.112105  0.253991  1
  Ce  Ce1  1  0.858113  0.887897  0.746010  1
  Ce  Ce2  1  0.358113  0.612105  0.970217  1
  Ce  Ce3  1  0.641887  0.387896  0.029781  1
  Sc  Sc4  1  0.556810  0.250000  0.306809  1
  Sc  Sc5  1  0.943191  0.250000  0.693191  1
  Sc  Sc6  1  0.443191  0.750000  0.693191  1
  Sc  Sc7  1  0.056809  0.750000  0.306809  1
  Sc  Sc8  1  0.438229  0.239694  0.677924  1
  Sc  Sc9  1  0.561772  0.760306  0.322076  1
  Sc  Sc10  1  0.061771  0.739695  0.801465  1
  Sc  Sc11  1  0.938229  0.260307  0.198536  1
  Pb  Pb12  1  0.290511  0.295827  0.586338  1
  Pb  Pb13  1  0.709489  0.704173  0.413661  1
  Pb  Pb14  1  0.209490  0.795828  0.005316  1
  Pb  Pb15  1  0.790512  0.204172  0.994684  1
  Pb  Pb16  1  0.250000  0.250000  0.000000  1
  Pb  Pb17  1  0.749999  0.749999  0.000000  1
  Pb  Pb18  1  0.070369  0.408494  0.478863  1
  Pb  Pb19  1  0.929632  0.591506  0.521137  1
  Pb  Pb20  1  0.429632  0.908495  0.338125  1
  Pb  Pb21  1  0.570368  0.091505  0.661875  1
