# generated using pymatgen
data_Na4Li2AlInAs4
_symmetry_space_group_name_H-M   'P 1'
_cell_length_a   9.41079326
_cell_length_b   9.41079372
_cell_length_c   6.05995071
_cell_angle_alpha   90.15805005
_cell_angle_beta   89.84195677
_cell_angle_gamma   98.58466346
_symmetry_Int_Tables_number   1
_chemical_formula_structural   Na4Li2AlInAs4
_chemical_formula_sum   'Na8 Li4 Al2 In2 As8'
_cell_volume   530.67125926
_cell_formula_units_Z   2
loop_
 _symmetry_equiv_pos_site_id
 _symmetry_equiv_pos_as_xyz
  1  'x, y, z'
loop_
 _atom_site_type_symbol
 _atom_site_label
 _atom_site_symmetry_multiplicity
 _atom_site_fract_x
 _atom_site_fract_y
 _atom_site_fract_z
 _atom_site_occupancy
  Na  Na0  1  0.431354  0.071370  0.250047  1
  Na  Na1  1  0.071370  0.431354  0.749953  1
  Na  Na2  1  0.568646  0.928630  0.749953  1
  Na  Na3  1  0.325001  0.674999  0.281170  1
  Na  Na4  1  0.820530  0.179470  0.222718  1
  Na  Na5  1  0.674999  0.325001  0.718830  1
  Na  Na6  1  0.179470  0.820530  0.777282  1
  Na  Na7  1  0.928630  0.568646  0.250047  1
  Li  Li8  1  0.382818  0.382818  0.500000  1
  Li  Li9  1  0.121641  0.121641  0.000000  1
  Li  Li10  1  0.617182  0.617182  0.500000  1
  Li  Li11  1  0.878359  0.878359  0.000000  1
  Al  Al12  1  0.625484  0.625484  0.000000  1
  Al  Al13  1  0.374516  0.374516  0.000000  1
  In  In14  1  0.864965  0.864965  0.500000  1
  In  In15  1  0.135035  0.135035  0.500000  1
  As  As16  1  0.113435  0.886565  0.263181  1
  As  As17  1  0.605026  0.394974  0.220118  1
  As  As18  1  0.886565  0.113435  0.736819  1
  As  As19  1  0.394974  0.605026  0.779882  1
  As  As20  1  0.149685  0.368545  0.234704  1
  As  As21  1  0.368545  0.149685  0.765296  1
  As  As22  1  0.850315  0.631455  0.765296  1
  As  As23  1  0.631455  0.850315  0.234704  1
