# generated using pymatgen
data_Tb5DyTcRh
_symmetry_space_group_name_H-M   'P 1'
_cell_length_a   6.34779974
_cell_length_b   7.34191200
_cell_length_c   9.29807709
_cell_angle_alpha   90.00000000
_cell_angle_beta   90.05539358
_cell_angle_gamma   90.00000000
_symmetry_Int_Tables_number   1
_chemical_formula_structural   Tb5DyTcRh
_chemical_formula_sum   'Tb10 Dy2 Tc2 Rh2'
_cell_volume   433.33656012
_cell_formula_units_Z   2
loop_
 _symmetry_equiv_pos_site_id
 _symmetry_equiv_pos_as_xyz
  1  'x, y, z'
loop_
 _atom_site_type_symbol
 _atom_site_label
 _atom_site_symmetry_multiplicity
 _atom_site_fract_x
 _atom_site_fract_y
 _atom_site_fract_z
 _atom_site_occupancy
  Tb  Tb0  1  0.327923  0.678119  0.067896  1
  Tb  Tb1  1  0.172077  0.178119  0.432104  1
  Tb  Tb2  1  0.665605  0.322364  0.560385  1
  Tb  Tb3  1  0.834395  0.822364  0.939615  1
  Tb  Tb4  1  0.665677  0.322259  0.939636  1
  Tb  Tb5  1  0.834323  0.822259  0.560364  1
  Tb  Tb6  1  0.870344  0.537624  0.250044  1
  Tb  Tb7  1  0.629656  0.037624  0.249956  1
  Tb  Tb8  1  0.138336  0.459440  0.749968  1
  Tb  Tb9  1  0.361664  0.959440  0.750032  1
  Dy  Dy10  1  0.328060  0.678009  0.432127  1
  Dy  Dy11  1  0.171940  0.178009  0.067873  1
  Tc  Tc12  1  0.038165  0.886682  0.250038  1
  Tc  Tc13  1  0.461835  0.386682  0.249962  1
  Rh  Rh14  1  0.949660  0.115504  0.750193  1
  Rh  Rh15  1  0.550340  0.615504  0.749807  1
