# generated using pymatgen
data_Y7ErTa8(TiSi4)4
_symmetry_space_group_name_H-M   'P 1'
_cell_length_a   7.04090452
_cell_length_b   7.04615722
_cell_length_c   12.99232223
_cell_angle_alpha   89.99827697
_cell_angle_beta   89.90664399
_cell_angle_gamma   90.01792662
_symmetry_Int_Tables_number   1
_chemical_formula_structural   Y7ErTa8(TiSi4)4
_chemical_formula_sum   'Y7 Er1 Ta8 Ti4 Si16'
_cell_volume   644.56537126
_cell_formula_units_Z   1
loop_
 _symmetry_equiv_pos_site_id
 _symmetry_equiv_pos_as_xyz
  1  'x, y, z'
loop_
 _atom_site_type_symbol
 _atom_site_label
 _atom_site_symmetry_multiplicity
 _atom_site_fract_x
 _atom_site_fract_y
 _atom_site_fract_z
 _atom_site_occupancy
  Y  Y0  1  0.341966  0.002044  0.466800  1
  Y  Y1  1  0.498172  0.841428  0.717452  1
  Y  Y2  1  0.501698  0.157494  0.216876  1
  Y  Y3  1  0.841303  0.498686  0.283090  1
  Y  Y4  1  0.158375  0.502358  0.782586  1
  Y  Y5  1  0.659035  0.997739  0.967738  1
  Y  Y6  1  0.002385  0.341053  0.532859  1
  Er  Er7  1  0.997572  0.659577  0.032424  1
  Ta  Ta8  1  0.328593  0.329817  0.000060  1
  Ta  Ta9  1  0.173577  0.826065  0.249633  1
  Ta  Ta10  1  0.827173  0.173838  0.750294  1
  Ta  Ta11  1  0.671742  0.670444  0.500364  1
  Ta  Ta12  1  0.151957  0.008281  0.874802  1
  Ta  Ta13  1  0.490971  0.653414  0.124230  1
  Ta  Ta14  1  0.507767  0.347580  0.625091  1
  Ta  Ta15  1  0.652172  0.492120  0.875827  1
  Ti  Ti16  1  0.347144  0.507530  0.375181  1
  Ti  Ti17  1  0.846120  0.991269  0.374173  1
  Ti  Ti18  1  0.008125  0.152508  0.124507  1
  Ti  Ti19  1  0.991021  0.845190  0.625832  1
  Si  Si20  1  0.202273  0.131784  0.682951  1
  Si  Si21  1  0.365330  0.704573  0.932723  1
  Si  Si22  1  0.632498  0.296971  0.433549  1
  Si  Si23  1  0.705257  0.366582  0.067762  1
  Si  Si24  1  0.297103  0.634514  0.565821  1
  Si  Si25  1  0.799792  0.867425  0.184095  1
  Si  Si26  1  0.131556  0.200563  0.315361  1
  Si  Si27  1  0.866310  0.797671  0.817144  1
  Si  Si28  1  0.291573  0.954257  0.064508  1
  Si  Si29  1  0.546782  0.792220  0.314642  1
  Si  Si30  1  0.453274  0.206029  0.813841  1
  Si  Si31  1  0.795652  0.547713  0.685481  1
  Si  Si32  1  0.205238  0.452606  0.186147  1
  Si  Si33  1  0.710330  0.045667  0.563055  1
  Si  Si34  1  0.954013  0.294870  0.937319  1
  Si  Si35  1  0.046153  0.708125  0.435783  1
