# generated using pymatgen
data_Nd2Lu3Th5(Si3C)2
_symmetry_space_group_name_H-M   'P 1'
_cell_length_a   8.67134060
_cell_length_b   8.66729943
_cell_length_c   6.40665965
_cell_angle_alpha   89.37069061
_cell_angle_beta   90.31450655
_cell_angle_gamma   119.98457986
_symmetry_Int_Tables_number   1
_chemical_formula_structural   Nd2Lu3Th5(Si3C)2
_chemical_formula_sum   'Nd2 Lu3 Th5 Si6 C2'
_cell_volume   417.03604612
_cell_formula_units_Z   1
loop_
 _symmetry_equiv_pos_site_id
 _symmetry_equiv_pos_as_xyz
  1  'x, y, z'
loop_
 _atom_site_type_symbol
 _atom_site_label
 _atom_site_symmetry_multiplicity
 _atom_site_fract_x
 _atom_site_fract_y
 _atom_site_fract_z
 _atom_site_occupancy
  Nd  Nd0  1  0.689757  0.346479  0.499835  1
  Nd  Nd1  1  0.310243  0.656724  0.499835  1
  Lu  Lu2  1  0.348961  0.674020  0.998931  1
  Lu  Lu3  1  0.651039  0.325058  0.998931  1
  Lu  Lu4  1  0.000000  0.779336  0.768084  1
  Th  Th5  1  0.769520  0.763141  0.253671  1
  Th  Th6  1  0.230480  0.993622  0.253671  1
  Th  Th7  1  0.000000  0.228396  0.241016  1
  Th  Th8  1  0.232407  0.233818  0.747112  1
  Th  Th9  1  0.767593  0.001411  0.747112  1
  Si  Si10  1  0.402872  0.398811  0.243518  1
  Si  Si11  1  0.597128  0.995939  0.243518  1
  Si  Si12  1  0.000000  0.587954  0.184418  1
  Si  Si13  1  0.603070  0.601340  0.757576  1
  Si  Si14  1  0.396930  0.998272  0.757576  1
  Si  Si15  1  0.000000  0.416759  0.802731  1
  C  C16  1  0.000000  0.998731  0.502112  1
  C  C17  1  0.000000  0.000186  0.000356  1
