# generated using pymatgen
data_Zr5Sc3Ta9V3Si16
_symmetry_space_group_name_H-M   'P 1'
_cell_length_a   6.82121170
_cell_length_b   6.82652208
_cell_length_c   12.64044396
_cell_angle_alpha   90.09756675
_cell_angle_beta   89.84141643
_cell_angle_gamma   89.90864768
_symmetry_Int_Tables_number   1
_chemical_formula_structural   Zr5Sc3Ta9V3Si16
_chemical_formula_sum   'Zr5 Sc3 Ta9 V3 Si16'
_cell_volume   588.60033786
_cell_formula_units_Z   1
loop_
 _symmetry_equiv_pos_site_id
 _symmetry_equiv_pos_as_xyz
  1  'x, y, z'
loop_
 _atom_site_type_symbol
 _atom_site_label
 _atom_site_symmetry_multiplicity
 _atom_site_fract_x
 _atom_site_fract_y
 _atom_site_fract_z
 _atom_site_occupancy
  Zr  Zr0  1  0.002050  0.659489  0.030782  1
  Zr  Zr1  1  0.839017  0.503952  0.282537  1
  Zr  Zr2  1  0.160564  0.495594  0.780445  1
  Zr  Zr3  1  0.505436  0.839512  0.717607  1
  Zr  Zr4  1  0.496040  0.160631  0.218269  1
  Sc  Sc5  1  0.999826  0.339155  0.530346  1
  Sc  Sc6  1  0.662970  0.000398  0.969228  1
  Sc  Sc7  1  0.339797  0.999400  0.471218  1
  Ta  Ta8  1  0.329385  0.333544  0.998997  1
  Ta  Ta9  1  0.168629  0.832071  0.251128  1
  Ta  Ta10  1  0.831805  0.167504  0.748861  1
  Ta  Ta11  1  0.668073  0.668037  0.500307  1
  Ta  Ta12  1  0.003350  0.155607  0.127073  1
  Ta  Ta13  1  0.345308  0.505968  0.376786  1
  Ta  Ta14  1  0.654779  0.496567  0.874766  1
  Ta  Ta15  1  0.505882  0.343917  0.624375  1
  Ta  Ta16  1  0.494394  0.657234  0.123585  1
  V  V17  1  0.994191  0.843371  0.628283  1
  V  V18  1  0.155199  0.006646  0.873072  1
  V  V19  1  0.843451  0.992742  0.372012  1
  Si  Si20  1  0.297169  0.959306  0.059272  1
  Si  Si21  1  0.545114  0.804736  0.316707  1
  Si  Si22  1  0.453476  0.195926  0.814963  1
  Si  Si23  1  0.804184  0.546733  0.684015  1
  Si  Si24  1  0.200856  0.457138  0.187600  1
  Si  Si25  1  0.711589  0.038024  0.560070  1
  Si  Si26  1  0.958518  0.290870  0.934977  1
  Si  Si27  1  0.038100  0.710709  0.440560  1
  Si  Si28  1  0.706746  0.365800  0.071462  1
  Si  Si29  1  0.126894  0.202340  0.325238  1
  Si  Si30  1  0.875136  0.798164  0.820801  1
  Si  Si31  1  0.202090  0.124539  0.678349  1
  Si  Si32  1  0.793360  0.867260  0.181127  1
  Si  Si33  1  0.286006  0.637187  0.574230  1
  Si  Si34  1  0.363054  0.714568  0.924296  1
  Si  Si35  1  0.637557  0.285360  0.426661  1
