# generated using pymatgen
data_Ba2HgMo2F14
_symmetry_space_group_name_H-M   'P 1'
_cell_length_a   7.78349765
_cell_length_b   7.78349723
_cell_length_c   16.15818110
_cell_angle_alpha   86.39695291
_cell_angle_beta   86.39695225
_cell_angle_gamma   44.47736317
_symmetry_Int_Tables_number   1
_chemical_formula_structural   Ba2HgMo2F14
_chemical_formula_sum   'Ba4 Hg2 Mo4 F28'
_cell_volume   684.26747951
_cell_formula_units_Z   2
loop_
 _symmetry_equiv_pos_site_id
 _symmetry_equiv_pos_as_xyz
  1  'x, y, z'
loop_
 _atom_site_type_symbol
 _atom_site_label
 _atom_site_symmetry_multiplicity
 _atom_site_fract_x
 _atom_site_fract_y
 _atom_site_fract_z
 _atom_site_occupancy
  Ba  Ba0  1  0.788485  0.854063  0.633648  1
  Ba  Ba1  1  0.854063  0.788485  0.133648  1
  Ba  Ba2  1  0.211515  0.145937  0.366352  1
  Ba  Ba3  1  0.145937  0.211515  0.866352  1
  Hg  Hg4  1  0.500000  0.500000  0.000000  1
  Hg  Hg5  1  0.500000  0.500000  0.500000  1
  Mo  Mo6  1  0.870054  0.863553  0.876302  1
  Mo  Mo7  1  0.129946  0.136447  0.123698  1
  Mo  Mo8  1  0.863553  0.870054  0.376302  1
  Mo  Mo9  1  0.136447  0.129946  0.623698  1
  F  F10  1  0.889256  0.102430  0.351676  1
  F  F11  1  0.554370  0.112725  0.444717  1
  F  F12  1  0.445630  0.887275  0.555283  1
  F  F13  1  0.157428  0.367265  0.594519  1
  F  F14  1  0.573532  0.303945  0.605589  1
  F  F15  1  0.696055  0.426468  0.894411  1
  F  F16  1  0.112725  0.554370  0.944717  1
  F  F17  1  0.897570  0.110744  0.148324  1
  F  F18  1  0.989903  0.635524  0.779635  1
  F  F19  1  0.842572  0.632735  0.405481  1
  F  F20  1  0.615032  0.135095  0.801861  1
  F  F21  1  0.632735  0.842572  0.905481  1
  F  F22  1  0.135095  0.615032  0.301861  1
  F  F23  1  0.384968  0.864905  0.198139  1
  F  F24  1  0.303945  0.573532  0.105589  1
  F  F25  1  0.010097  0.364476  0.220365  1
  F  F26  1  0.230419  0.963019  0.013843  1
  F  F27  1  0.110744  0.897570  0.648324  1
  F  F28  1  0.769581  0.036981  0.986157  1
  F  F29  1  0.963019  0.230419  0.513843  1
  F  F30  1  0.887275  0.445630  0.055283  1
  F  F31  1  0.864905  0.384968  0.698139  1
  F  F32  1  0.635524  0.989903  0.279635  1
  F  F33  1  0.036981  0.769581  0.486157  1
  F  F34  1  0.426468  0.696055  0.394411  1
  F  F35  1  0.102430  0.889256  0.851676  1
  F  F36  1  0.364476  0.010097  0.720365  1
  F  F37  1  0.367265  0.157428  0.094519  1
