# generated using pymatgen
data_Pu4Al17GaIr6
_symmetry_space_group_name_H-M   'P 1'
_cell_length_a   7.54679200
_cell_length_b   7.54678887
_cell_length_c   9.50721100
_cell_angle_alpha   90.00000000
_cell_angle_beta   90.00000000
_cell_angle_gamma   119.40859288
_symmetry_Int_Tables_number   1
_chemical_formula_structural   Pu4Al17GaIr6
_chemical_formula_sum   'Pu4 Al17 Ga1 Ir6'
_cell_volume   471.69987123
_cell_formula_units_Z   1
loop_
 _symmetry_equiv_pos_site_id
 _symmetry_equiv_pos_as_xyz
  1  'x, y, z'
loop_
 _atom_site_type_symbol
 _atom_site_label
 _atom_site_symmetry_multiplicity
 _atom_site_fract_x
 _atom_site_fract_y
 _atom_site_fract_z
 _atom_site_occupancy
  Pu  Pu0  1  0.994808  0.675128  0.250000  1
  Pu  Pu1  1  0.003461  0.327713  0.750000  1
  Pu  Pu2  1  0.675128  0.994807  0.250000  1
  Pu  Pu3  1  0.327713  0.003460  0.750000  1
  Al  Al4  1  0.869851  0.869851  0.750000  1
  Al  Al5  1  0.001073  0.337148  0.074342  1
  Al  Al6  1  0.998589  0.663329  0.925861  1
  Al  Al7  1  0.998589  0.663329  0.574139  1
  Al  Al8  1  0.337147  0.001072  0.425658  1
  Al  Al9  1  0.001073  0.337148  0.425658  1
  Al  Al10  1  0.663330  0.998589  0.574139  1
  Al  Al11  1  0.663330  0.998589  0.925861  1
  Al  Al12  1  0.337147  0.001072  0.074342  1
  Al  Al13  1  0.333009  0.333009  0.554596  1
  Al  Al14  1  0.665312  0.665312  0.448628  1
  Al  Al15  1  0.665312  0.665312  0.051372  1
  Al  Al16  1  0.333009  0.333009  0.945404  1
  Al  Al17  1  0.338774  0.550341  0.250000  1
  Al  Al18  1  0.660998  0.451470  0.750000  1
  Al  Al19  1  0.550341  0.338774  0.250000  1
  Al  Al20  1  0.451470  0.660998  0.750000  1
  Ga  Ga21  1  0.135411  0.135411  0.250000  1
  Ir  Ir22  1  0.670038  0.328516  0.999841  1
  Ir  Ir23  1  0.328516  0.670038  0.999842  1
  Ir  Ir24  1  0.328516  0.670038  0.500158  1
  Ir  Ir25  1  0.670038  0.328516  0.500159  1
  Ir  Ir26  1  0.999011  0.999011  0.998118  1
  Ir  Ir27  1  0.999011  0.999011  0.501882  1
