# generated using pymatgen
data_YScSi(PRu2)6
_symmetry_space_group_name_H-M   'P 1'
_cell_length_a   9.40769000
_cell_length_b   9.40768991
_cell_length_c   3.94147200
_cell_angle_alpha   90.00000000
_cell_angle_beta   90.00000000
_cell_angle_gamma   119.99999330
_symmetry_Int_Tables_number   1
_chemical_formula_structural   YScSi(PRu2)6
_chemical_formula_sum   'Y1 Sc1 Si1 P6 Ru12'
_cell_volume   302.10304229
_cell_formula_units_Z   1
loop_
 _symmetry_equiv_pos_site_id
 _symmetry_equiv_pos_as_xyz
  1  'x, y, z'
loop_
 _atom_site_type_symbol
 _atom_site_label
 _atom_site_symmetry_multiplicity
 _atom_site_fract_x
 _atom_site_fract_y
 _atom_site_fract_z
 _atom_site_occupancy
  Y  Y0  1  0.333333  0.666667  0.000000  1
  Sc  Sc1  1  0.666667  0.333333  0.500000  1
  Si  Si2  1  0.000000  0.000000  0.000000  1
  P  P3  1  0.602620  0.719987  0.500000  1
  P  P4  1  0.280013  0.882634  0.500000  1
  P  P5  1  0.117366  0.397380  0.500000  1
  P  P6  1  0.884607  0.572695  0.000000  1
  P  P7  1  0.427305  0.311911  0.000000  1
  P  P8  1  0.688089  0.115393  0.000000  1
  Ru  Ru9  1  0.556149  0.953713  0.500000  1
  Ru  Ru10  1  0.397566  0.443851  0.500000  1
  Ru  Ru11  1  0.912403  0.120116  0.500000  1
  Ru  Ru12  1  0.207713  0.087597  0.500000  1
  Ru  Ru13  1  0.879884  0.792287  0.500000  1
  Ru  Ru14  1  0.720095  0.886921  0.000000  1
  Ru  Ru15  1  0.113079  0.833172  0.000000  1
  Ru  Ru16  1  0.166828  0.279905  0.000000  1
  Ru  Ru17  1  0.426509  0.071321  0.000000  1
  Ru  Ru18  1  0.928679  0.355190  0.000000  1
  Ru  Ru19  1  0.644810  0.573491  0.000000  1
  Ru  Ru20  1  0.046287  0.602434  0.500000  1
