# generated using pymatgen
data_Y2Th2MgCdNi4
_symmetry_space_group_name_H-M   'P 1'
_cell_length_a   7.60192724
_cell_length_b   7.53367822
_cell_length_c   3.66380100
_cell_angle_alpha   90.00000000
_cell_angle_beta   90.00000000
_cell_angle_gamma   90.06536758
_symmetry_Int_Tables_number   1
_chemical_formula_structural   Y2Th2MgCdNi4
_chemical_formula_sum   'Y2 Th2 Mg1 Cd1 Ni4'
_cell_volume   209.82748225
_cell_formula_units_Z   1
loop_
 _symmetry_equiv_pos_site_id
 _symmetry_equiv_pos_as_xyz
  1  'x, y, z'
loop_
 _atom_site_type_symbol
 _atom_site_label
 _atom_site_symmetry_multiplicity
 _atom_site_fract_x
 _atom_site_fract_y
 _atom_site_fract_z
 _atom_site_occupancy
  Y  Y0  1  0.329935  0.173716  0.500000  1
  Y  Y1  1  0.825172  0.329582  0.500000  1
  Th  Th2  1  0.171804  0.666833  0.500000  1
  Th  Th3  1  0.671881  0.831680  0.500000  1
  Mg  Mg4  1  0.003163  0.010357  0.000000  1
  Cd  Cd5  1  0.503426  0.488676  0.000000  1
  Ni  Ni6  1  0.876918  0.633834  0.000000  1
  Ni  Ni7  1  0.374691  0.867948  0.000000  1
  Ni  Ni8  1  0.622981  0.110041  0.000000  1
  Ni  Ni9  1  0.120030  0.387333  0.000000  1
