# generated using pymatgen
data_La2Ti4O11
_symmetry_space_group_name_H-M   'P 1'
_cell_length_a   5.13540268
_cell_length_b   7.41393843
_cell_length_c   12.81485840
_cell_angle_alpha   97.48542571
_cell_angle_beta   101.55854927
_cell_angle_gamma   110.26326514
_symmetry_Int_Tables_number   1
_chemical_formula_structural   La2Ti4O11
_chemical_formula_sum   'La4 Ti8 O22'
_cell_volume   437.71912206
_cell_formula_units_Z   2
loop_
 _symmetry_equiv_pos_site_id
 _symmetry_equiv_pos_as_xyz
  1  'x, y, z'
loop_
 _atom_site_type_symbol
 _atom_site_label
 _atom_site_symmetry_multiplicity
 _atom_site_fract_x
 _atom_site_fract_y
 _atom_site_fract_z
 _atom_site_occupancy
  La  La0  1  0.891552  0.698500  0.094183  1
  La  La1  1  0.598869  0.801501  0.405817  1
  La  La2  1  0.401132  0.198500  0.594184  1
  La  La3  1  0.108449  0.301501  0.905816  1
  Ti  Ti4  1  0.574080  0.156953  0.096994  1
  Ti  Ti5  1  0.241378  0.407085  0.190339  1
  Ti  Ti6  1  0.143955  0.092917  0.309662  1
  Ti  Ti7  1  0.820130  0.343047  0.403005  1
  Ti  Ti8  1  0.179869  0.656952  0.596994  1
  Ti  Ti9  1  0.856045  0.907084  0.690338  1
  Ti  Ti10  1  0.758623  0.592916  0.809662  1
  Ti  Ti11  1  0.425920  0.843048  0.903006  1
  O  O12  1  0.636140  0.921523  0.055285  1
  O  O13  1  0.920964  0.338051  0.062679  1
  O  O14  1  0.481429  0.408749  0.096716  1
  O  O15  1  0.270278  0.079538  0.168964  1
  O  O16  1  0.278070  0.655845  0.223062  1
  O  O17  1  0.907472  0.250000  0.250000  1
  O  O18  1  0.899162  0.844156  0.276937  1
  O  O19  1  0.521775  0.420462  0.331036  1
  O  O20  1  0.475965  0.091251  0.403284  1
  O  O21  1  0.020236  0.161951  0.437321  1
  O  O22  1  0.159329  0.578477  0.444714  1
  O  O23  1  0.840670  0.421523  0.555286  1
  O  O24  1  0.979765  0.838050  0.562678  1
  O  O25  1  0.524034  0.908748  0.596716  1
  O  O26  1  0.478225  0.579537  0.668964  1
  O  O27  1  0.100838  0.155845  0.723063  1
  O  O28  1  0.092527  0.749999  0.750000  1
  O  O29  1  0.721931  0.344156  0.776937  1
  O  O30  1  0.729723  0.920463  0.831036  1
  O  O31  1  0.518571  0.591252  0.903284  1
  O  O32  1  0.079037  0.661950  0.937322  1
  O  O33  1  0.363860  0.078477  0.944714  1
