# generated using pymatgen
data_Tm7LuSc12Si15P
_symmetry_space_group_name_H-M   'P 1'
_cell_length_a   7.03025028
_cell_length_b   7.31713808
_cell_length_c   13.86653413
_cell_angle_alpha   89.98451047
_cell_angle_beta   89.99644440
_cell_angle_gamma   90.05091367
_symmetry_Int_Tables_number   1
_chemical_formula_structural   Tm7LuSc12Si15P
_chemical_formula_sum   'Tm7 Lu1 Sc12 Si15 P1'
_cell_volume   713.31240038
_cell_formula_units_Z   1
loop_
 _symmetry_equiv_pos_site_id
 _symmetry_equiv_pos_as_xyz
  1  'x, y, z'
loop_
 _atom_site_type_symbol
 _atom_site_label
 _atom_site_symmetry_multiplicity
 _atom_site_fract_x
 _atom_site_fract_y
 _atom_site_fract_z
 _atom_site_occupancy
  Tm  Tm0  1  0.990797  0.825617  0.901026  1
  Tm  Tm1  1  0.489548  0.676653  0.904290  1
  Tm  Tm2  1  0.990707  0.825605  0.599102  1
  Tm  Tm3  1  0.511356  0.323122  0.095689  1
  Tm  Tm4  1  0.010226  0.175869  0.404127  1
  Tm  Tm5  1  0.511314  0.323239  0.404184  1
  Tm  Tm6  1  0.489667  0.676676  0.595839  1
  Lu  Lu7  1  0.010322  0.176160  0.096180  1
  Sc  Sc8  1  0.160151  0.502944  0.750020  1
  Sc  Sc9  1  0.838491  0.496216  0.249878  1
  Sc  Sc10  1  0.338456  0.003652  0.249886  1
  Sc  Sc11  1  0.663182  0.998404  0.750013  1
  Sc  Sc12  1  0.327653  0.173598  0.627120  1
  Sc  Sc13  1  0.667981  0.823328  0.375514  1
  Sc  Sc14  1  0.167936  0.677601  0.375205  1
  Sc  Sc15  1  0.668053  0.823580  0.124372  1
  Sc  Sc16  1  0.832758  0.322332  0.626312  1
  Sc  Sc17  1  0.327554  0.173596  0.872926  1
  Sc  Sc18  1  0.832955  0.322094  0.873775  1
  Sc  Sc19  1  0.167830  0.677688  0.124685  1
  Si  Si20  1  0.965091  0.886696  0.249853  1
  Si  Si21  1  0.466313  0.612821  0.249977  1
  Si  Si22  1  0.531435  0.385242  0.750050  1
  Si  Si23  1  0.294755  0.862421  0.750016  1
  Si  Si24  1  0.715011  0.128493  0.249730  1
  Si  Si25  1  0.214724  0.370932  0.249752  1
  Si  Si26  1  0.786496  0.630607  0.750011  1
  Si  Si27  1  0.159435  0.464278  0.539737  1
  Si  Si28  1  0.840620  0.535039  0.461481  1
  Si  Si29  1  0.338649  0.965717  0.460781  1
  Si  Si30  1  0.840855  0.534558  0.038655  1
  Si  Si31  1  0.661397  0.036077  0.540135  1
  Si  Si32  1  0.159298  0.463850  0.960419  1
  Si  Si33  1  0.661533  0.036051  0.959894  1
  Si  Si34  1  0.337796  0.966150  0.039326  1
  P  P35  1  0.029653  0.123092  0.750040  1
