# generated using pymatgen
data_Nd4Tm16(Bi3Sb)3
_symmetry_space_group_name_H-M   'P 1'
_cell_length_a   8.13624976
_cell_length_b   9.40178500
_cell_length_c   11.87824600
_cell_angle_alpha   90.00000000
_cell_angle_beta   90.04720279
_cell_angle_gamma   90.00000000
_symmetry_Int_Tables_number   1
_chemical_formula_structural   Nd4Tm16(Bi3Sb)3
_chemical_formula_sum   'Nd4 Tm16 Bi9 Sb3'
_cell_volume   908.62933795
_cell_formula_units_Z   1
loop_
 _symmetry_equiv_pos_site_id
 _symmetry_equiv_pos_as_xyz
  1  'x, y, z'
loop_
 _atom_site_type_symbol
 _atom_site_label
 _atom_site_symmetry_multiplicity
 _atom_site_fract_x
 _atom_site_fract_y
 _atom_site_fract_z
 _atom_site_occupancy
  Nd  Nd0  1  0.320194  0.250000  0.217433  1
  Nd  Nd1  1  0.814763  0.250000  0.278385  1
  Nd  Nd2  1  0.681320  0.750000  0.781137  1
  Nd  Nd3  1  0.181529  0.750000  0.719080  1
  Tm  Tm4  1  0.351045  0.750000  0.215987  1
  Tm  Tm5  1  0.851954  0.750000  0.283480  1
  Tm  Tm6  1  0.648395  0.250000  0.783455  1
  Tm  Tm7  1  0.149362  0.250000  0.719549  1
  Tm  Tm8  1  0.687584  0.563855  0.059205  1
  Tm  Tm9  1  0.188954  0.932939  0.440490  1
  Tm  Tm10  1  0.312646  0.063695  0.940823  1
  Tm  Tm11  1  0.809581  0.438675  0.560829  1
  Tm  Tm12  1  0.312646  0.436305  0.940823  1
  Tm  Tm13  1  0.809581  0.061325  0.560829  1
  Tm  Tm14  1  0.687584  0.936145  0.059205  1
  Tm  Tm15  1  0.188954  0.567061  0.440490  1
  Tm  Tm16  1  0.478189  0.250000  0.487878  1
  Tm  Tm17  1  0.975581  0.250000  0.011613  1
  Tm  Tm18  1  0.526142  0.750000  0.512728  1
  Tm  Tm19  1  0.025168  0.750000  0.987991  1
  Bi  Bi20  1  0.096577  0.250000  0.462987  1
  Bi  Bi21  1  0.565204  0.990298  0.328073  1
  Bi  Bi22  1  0.065524  0.508717  0.171925  1
  Bi  Bi23  1  0.434043  0.490611  0.672162  1
  Bi  Bi24  1  0.934389  0.008925  0.828213  1
  Bi  Bi25  1  0.434043  0.009389  0.672162  1
  Bi  Bi26  1  0.934389  0.491075  0.828213  1
  Bi  Bi27  1  0.565204  0.509702  0.328073  1
  Bi  Bi28  1  0.065524  0.991283  0.171925  1
  Sb  Sb29  1  0.402669  0.750000  0.963916  1
  Sb  Sb30  1  0.903400  0.750000  0.535814  1
  Sb  Sb31  1  0.597860  0.250000  0.035125  1
