# generated using pymatgen
data_ReTc(Ir2Ru)2
_symmetry_space_group_name_H-M   'P 1'
_cell_length_a   5.51095507
_cell_length_b   5.51095391
_cell_length_c   4.38730800
_cell_angle_alpha   90.00000000
_cell_angle_beta   90.00000000
_cell_angle_gamma   120.27675363
_symmetry_Int_Tables_number   1
_chemical_formula_structural   ReTc(Ir2Ru)2
_chemical_formula_sum   'Re1 Tc1 Ir4 Ru2'
_cell_volume   115.07063166
_cell_formula_units_Z   1
loop_
 _symmetry_equiv_pos_site_id
 _symmetry_equiv_pos_as_xyz
  1  'x, y, z'
loop_
 _atom_site_type_symbol
 _atom_site_label
 _atom_site_symmetry_multiplicity
 _atom_site_fract_x
 _atom_site_fract_y
 _atom_site_fract_z
 _atom_site_occupancy
  Re  Re0  1  0.332341  0.667659  0.750000  1
  Tc  Tc1  1  0.667426  0.332574  0.250000  1
  Ir  Ir2  1  0.166301  0.333394  0.250000  1
  Ir  Ir3  1  0.666606  0.833699  0.250000  1
  Ir  Ir4  1  0.833947  0.666419  0.750000  1
  Ir  Ir5  1  0.333581  0.166053  0.750000  1
  Ru  Ru6  1  0.167124  0.832876  0.250000  1
  Ru  Ru7  1  0.832674  0.167326  0.750000  1
