# generated using pymatgen
data_ZnSi3Pd8
_symmetry_space_group_name_H-M   'P 1'
_cell_length_a   3.87635600
_cell_length_b   5.99939317
_cell_length_c   7.58598426
_cell_angle_alpha   90.12524898
_cell_angle_beta   90.00000000
_cell_angle_gamma   90.00000000
_symmetry_Int_Tables_number   1
_chemical_formula_structural   ZnSi3Pd8
_chemical_formula_sum   'Zn1 Si3 Pd8'
_cell_volume   176.41758752
_cell_formula_units_Z   1
loop_
 _symmetry_equiv_pos_site_id
 _symmetry_equiv_pos_as_xyz
  1  'x, y, z'
loop_
 _atom_site_type_symbol
 _atom_site_label
 _atom_site_symmetry_multiplicity
 _atom_site_fract_x
 _atom_site_fract_y
 _atom_site_fract_z
 _atom_site_occupancy
  Zn  Zn0  1  0.250000  0.261317  0.876335  1
  Si  Si1  1  0.750000  0.241013  0.382243  1
  Si  Si2  1  0.250000  0.755471  0.627908  1
  Si  Si3  1  0.750000  0.729677  0.114043  1
  Pd  Pd4  1  0.750000  0.137135  0.081623  1
  Pd  Pd5  1  0.250000  0.843056  0.940315  1
  Pd  Pd6  1  0.750000  0.650852  0.427765  1
  Pd  Pd7  1  0.250000  0.357554  0.554758  1
  Pd  Pd8  1  0.750000  0.028638  0.667182  1
  Pd  Pd9  1  0.250000  0.970913  0.337777  1
  Pd  Pd10  1  0.750000  0.552293  0.811759  1
  Pd  Pd11  1  0.250000  0.472080  0.178293  1
