# generated using pymatgen
data_Li3Dy3InGeP
_symmetry_space_group_name_H-M   'P 1'
_cell_length_a   7.12733300
_cell_length_b   7.12733324
_cell_length_c   4.22685500
_cell_angle_alpha   90.00000000
_cell_angle_beta   90.00000000
_cell_angle_gamma   119.99999427
_symmetry_Int_Tables_number   1
_chemical_formula_structural   Li3Dy3InGeP
_chemical_formula_sum   'Li3 Dy3 In1 Ge1 P1'
_cell_volume   185.95254275
_cell_formula_units_Z   1
loop_
 _symmetry_equiv_pos_site_id
 _symmetry_equiv_pos_as_xyz
  1  'x, y, z'
loop_
 _atom_site_type_symbol
 _atom_site_label
 _atom_site_symmetry_multiplicity
 _atom_site_fract_x
 _atom_site_fract_y
 _atom_site_fract_z
 _atom_site_occupancy
  Li  Li0  1  0.749831  0.748686  0.500000  1
  Li  Li1  1  0.251314  0.001145  0.500000  1
  Li  Li2  1  0.998855  0.250169  0.500000  1
  Dy  Dy3  1  0.441005  0.439654  0.000000  1
  Dy  Dy4  1  0.560346  0.001352  0.000000  1
  Dy  Dy5  1  0.998648  0.558995  0.000000  1
  In  In6  1  0.000000  0.000000  0.000000  1
  Ge  Ge7  1  0.333333  0.666667  0.500000  1
  P  P8  1  0.666667  0.333333  0.500000  1
