# generated using pymatgen
data_Li3Sm4Co12P12Rh5
_symmetry_space_group_name_H-M   'P 1'
_cell_length_a   3.73790300
_cell_length_b   10.45952705
_cell_length_c   12.23323003
_cell_angle_alpha   90.00942765
_cell_angle_beta   90.00000000
_cell_angle_gamma   90.00000000
_symmetry_Int_Tables_number   1
_chemical_formula_structural   Li3Sm4Co12P12Rh5
_chemical_formula_sum   'Li3 Sm4 Co12 P12 Rh5'
_cell_volume   478.27888779
_cell_formula_units_Z   1
loop_
 _symmetry_equiv_pos_site_id
 _symmetry_equiv_pos_as_xyz
  1  'x, y, z'
loop_
 _atom_site_type_symbol
 _atom_site_label
 _atom_site_symmetry_multiplicity
 _atom_site_fract_x
 _atom_site_fract_y
 _atom_site_fract_z
 _atom_site_occupancy
  Li  Li0  1  0.250000  0.703432  0.991755  1
  Li  Li1  1  0.250000  0.795949  0.491676  1
  Li  Li2  1  0.750000  0.296351  0.007903  1
  Sm  Sm3  1  0.250000  0.582732  0.708558  1
  Sm  Sm4  1  0.250000  0.918135  0.207534  1
  Sm  Sm5  1  0.750000  0.420132  0.292887  1
  Sm  Sm6  1  0.750000  0.082035  0.791372  1
  Co  Co7  1  0.250000  0.221248  0.179187  1
  Co  Co8  1  0.250000  0.278079  0.675821  1
  Co  Co9  1  0.750000  0.779184  0.822468  1
  Co  Co10  1  0.750000  0.721139  0.321724  1
  Co  Co11  1  0.250000  0.882298  0.695781  1
  Co  Co12  1  0.250000  0.618311  0.194566  1
  Co  Co13  1  0.750000  0.117557  0.305220  1
  Co  Co14  1  0.750000  0.381304  0.802883  1
  Co  Co15  1  0.250000  0.468074  0.933467  1
  Co  Co16  1  0.250000  0.034043  0.434331  1
  Co  Co17  1  0.750000  0.531020  0.065208  1
  Co  Co18  1  0.750000  0.962786  0.565332  1
  P  P19  1  0.250000  0.422935  0.112207  1
  P  P20  1  0.250000  0.075117  0.610607  1
  P  P21  1  0.750000  0.577122  0.887462  1
  P  P22  1  0.750000  0.921536  0.387565  1
  P  P23  1  0.250000  0.277856  0.858906  1
  P  P24  1  0.250000  0.222967  0.360955  1
  P  P25  1  0.750000  0.721170  0.140512  1
  P  P26  1  0.750000  0.776500  0.640508  1
  P  P27  1  0.250000  0.609763  0.380728  1
  P  P28  1  0.250000  0.891157  0.881716  1
  P  P29  1  0.750000  0.395092  0.617938  1
  P  P30  1  0.750000  0.109624  0.118903  1
  Rh  Rh31  1  0.750000  0.205676  0.515214  1
  Rh  Rh32  1  0.250000  0.402437  0.482634  1
  Rh  Rh33  1  0.250000  0.099547  0.984977  1
  Rh  Rh34  1  0.750000  0.596642  0.515785  1
  Rh  Rh35  1  0.750000  0.901047  0.015709  1
