# generated using pymatgen
data_Li4Ni9MoAs3P4
_symmetry_space_group_name_H-M   'P 1'
_cell_length_a   9.21728567
_cell_length_b   9.33650237
_cell_length_c   3.63447800
_cell_angle_alpha   90.00000000
_cell_angle_beta   90.00000000
_cell_angle_gamma   120.36236638
_symmetry_Int_Tables_number   1
_chemical_formula_structural   Li4Ni9MoAs3P4
_chemical_formula_sum   'Li4 Ni9 Mo1 As3 P4'
_cell_volume   269.87491857
_cell_formula_units_Z   1
loop_
 _symmetry_equiv_pos_site_id
 _symmetry_equiv_pos_as_xyz
  1  'x, y, z'
loop_
 _atom_site_type_symbol
 _atom_site_label
 _atom_site_symmetry_multiplicity
 _atom_site_fract_x
 _atom_site_fract_y
 _atom_site_fract_z
 _atom_site_occupancy
  Li  Li0  1  0.438185  0.206038  0.500000  1
  Li  Li1  1  0.794495  0.235725  0.500000  1
  Li  Li2  1  0.337157  0.669897  0.000000  1
  Li  Li3  1  0.991816  0.976221  0.500000  1
  Ni  Ni4  1  0.281914  0.395201  0.500000  1
  Ni  Ni5  1  0.609151  0.887978  0.500000  1
  Ni  Ni6  1  0.108534  0.721228  0.500000  1
  Ni  Ni7  1  0.498906  0.460092  0.000000  1
  Ni  Ni8  1  0.537895  0.039780  0.000000  1
  Ni  Ni9  1  0.963419  0.506745  0.000000  1
  Ni  Ni10  1  0.725783  0.762744  0.000000  1
  Ni  Ni11  1  0.230353  0.948858  0.000000  1
  Ni  Ni12  1  0.048049  0.295856  0.000000  1
  Mo  Mo13  1  0.764299  0.559662  0.500000  1
  As  As14  1  0.237121  0.205913  0.000000  1
  As  As15  1  0.795249  0.037799  0.000000  1
  As  As16  1  0.667492  0.333277  0.000000  1
  P  P17  1  0.964121  0.750514  0.000000  1
  P  P18  1  0.542648  0.624868  0.500000  1
  P  P19  1  0.375321  0.913073  0.500000  1
  P  P20  1  0.088094  0.468533  0.500000  1
