# generated using pymatgen
data_V3(TeSe)2
_symmetry_space_group_name_H-M   'P 1'
_cell_length_a   7.24246118
_cell_length_b   7.24246167
_cell_length_c   6.43771852
_cell_angle_alpha   63.05433241
_cell_angle_beta   63.05433178
_cell_angle_gamma   28.60138399
_symmetry_Int_Tables_number   1
_chemical_formula_structural   V3(TeSe)2
_chemical_formula_sum   'V3 Te2 Se2'
_cell_volume   142.88713519
_cell_formula_units_Z   1
loop_
 _symmetry_equiv_pos_site_id
 _symmetry_equiv_pos_as_xyz
  1  'x, y, z'
loop_
 _atom_site_type_symbol
 _atom_site_label
 _atom_site_symmetry_multiplicity
 _atom_site_fract_x
 _atom_site_fract_y
 _atom_site_fract_z
 _atom_site_occupancy
  V  V0  1  0.743059  0.743059  0.338295  1
  V  V1  1  0.256941  0.256941  0.661705  1
  V  V2  1  0.000000  0.000000  0.000000  1
  Te  Te3  1  0.359731  0.359731  0.966216  1
  Te  Te4  1  0.640269  0.640269  0.033784  1
  Se  Se5  1  0.888526  0.888526  0.444515  1
  Se  Se6  1  0.111474  0.111474  0.555485  1
