# generated using pymatgen
data_Rb8Al2O7
_symmetry_space_group_name_H-M   'P 1'
_cell_length_a   17.12332000
_cell_length_b   7.02890573
_cell_length_c   7.08033958
_cell_angle_alpha   59.90887126
_cell_angle_beta   90.00000000
_cell_angle_gamma   90.00000000
_symmetry_Int_Tables_number   1
_chemical_formula_structural   Rb8Al2O7
_chemical_formula_sum   'Rb16 Al4 O14'
_cell_volume   737.32825421
_cell_formula_units_Z   2
loop_
 _symmetry_equiv_pos_site_id
 _symmetry_equiv_pos_as_xyz
  1  'x, y, z'
loop_
 _atom_site_type_symbol
 _atom_site_label
 _atom_site_symmetry_multiplicity
 _atom_site_fract_x
 _atom_site_fract_y
 _atom_site_fract_z
 _atom_site_occupancy
  Rb  Rb0  1  0.993595  0.234132  0.230671  1
  Rb  Rb1  1  0.493595  0.265868  0.769329  1
  Rb  Rb2  1  0.006405  0.765868  0.769329  1
  Rb  Rb3  1  0.506405  0.734132  0.230671  1
  Rb  Rb4  1  0.191003  0.234334  0.220526  1
  Rb  Rb5  1  0.691003  0.265666  0.779474  1
  Rb  Rb6  1  0.808997  0.765666  0.779474  1
  Rb  Rb7  1  0.308997  0.734334  0.220526  1
  Rb  Rb8  1  0.786650  0.214603  0.234888  1
  Rb  Rb9  1  0.286650  0.285397  0.765112  1
  Rb  Rb10  1  0.213350  0.785397  0.765112  1
  Rb  Rb11  1  0.713350  0.714603  0.234888  1
  Rb  Rb12  1  0.918966  0.362380  0.633545  1
  Rb  Rb13  1  0.418966  0.137620  0.366455  1
  Rb  Rb14  1  0.081034  0.637620  0.366455  1
  Rb  Rb15  1  0.581034  0.862380  0.633545  1
  Al  Al16  1  0.593671  0.367723  0.133873  1
  Al  Al17  1  0.093671  0.132277  0.866127  1
  Al  Al18  1  0.406329  0.632277  0.866127  1
  Al  Al19  1  0.906329  0.867723  0.133873  1
  O  O20  1  0.500000  0.500000  0.000000  1
  O  O21  1  0.000000  0.000000  0.000000  1
  O  O22  1  0.598057  0.344192  0.400102  1
  O  O23  1  0.098057  0.155808  0.599898  1
  O  O24  1  0.401943  0.655808  0.599898  1
  O  O25  1  0.901943  0.844192  0.400102  1
  O  O26  1  0.327852  0.457667  0.038583  1
  O  O27  1  0.827852  0.042333  0.961417  1
  O  O28  1  0.672148  0.542333  0.961417  1
  O  O29  1  0.172148  0.957667  0.038583  1
  O  O30  1  0.599947  0.100952  0.154185  1
  O  O31  1  0.099947  0.399048  0.845815  1
  O  O32  1  0.400053  0.899048  0.845815  1
  O  O33  1  0.900053  0.600952  0.154185  1
