# generated using pymatgen
data_MgInNi6B
_symmetry_space_group_name_H-M   'P 1'
_cell_length_a   5.32407234
_cell_length_b   5.32407175
_cell_length_c   5.32407200
_cell_angle_alpha   59.99999847
_cell_angle_beta   60.00000213
_cell_angle_gamma   59.99999058
_symmetry_Int_Tables_number   1
_chemical_formula_structural   MgInNi6B
_chemical_formula_sum   'Mg1 In1 Ni6 B1'
_cell_volume   106.71285548
_cell_formula_units_Z   1
loop_
 _symmetry_equiv_pos_site_id
 _symmetry_equiv_pos_as_xyz
  1  'x, y, z'
loop_
 _atom_site_type_symbol
 _atom_site_label
 _atom_site_symmetry_multiplicity
 _atom_site_fract_x
 _atom_site_fract_y
 _atom_site_fract_z
 _atom_site_occupancy
  Mg  Mg0  1  0.249999  0.249999  0.249999  1
  In  In1  1  0.749999  0.749999  0.749999  1
  Ni  Ni2  1  0.740188  0.259812  0.259812  1
  Ni  Ni3  1  0.259812  0.740188  0.259812  1
  Ni  Ni4  1  0.740188  0.740188  0.259812  1
  Ni  Ni5  1  0.259812  0.259812  0.740188  1
  Ni  Ni6  1  0.740188  0.259812  0.740188  1
  Ni  Ni7  1  0.259812  0.740188  0.740188  1
  B  B8  1  0.000000  0.000000  0.000000  1
