# generated using pymatgen
data_CaHo3Tc3B16W
_symmetry_space_group_name_H-M   'P 1'
_cell_length_a   3.58464300
_cell_length_b   5.99253398
_cell_length_c   11.58823407
_cell_angle_alpha   90.05957763
_cell_angle_beta   90.00000000
_cell_angle_gamma   90.00000000
_symmetry_Int_Tables_number   1
_chemical_formula_structural   CaHo3Tc3B16W
_chemical_formula_sum   'Ca1 Ho3 Tc3 B16 W1'
_cell_volume   248.92782217
_cell_formula_units_Z   1
loop_
 _symmetry_equiv_pos_site_id
 _symmetry_equiv_pos_as_xyz
  1  'x, y, z'
loop_
 _atom_site_type_symbol
 _atom_site_label
 _atom_site_symmetry_multiplicity
 _atom_site_fract_x
 _atom_site_fract_y
 _atom_site_fract_z
 _atom_site_occupancy
  Ca  Ca0  1  0.000000  0.125935  0.152063  1
  Ho  Ho1  1  0.000000  0.871562  0.848596  1
  Ho  Ho2  1  0.000000  0.627728  0.350455  1
  Ho  Ho3  1  0.000000  0.372937  0.648212  1
  Tc  Tc4  1  0.000000  0.134785  0.414062  1
  Tc  Tc5  1  0.000000  0.866841  0.586132  1
  Tc  Tc6  1  0.000000  0.630609  0.084098  1
  B  B7  1  0.500000  0.479610  0.193933  1
  B  B8  1  0.500000  0.525544  0.805501  1
  B  B9  1  0.500000  0.976056  0.308159  1
  B  B10  1  0.500000  0.021994  0.691306  1
  B  B11  1  0.500000  0.286304  0.315353  1
  B  B12  1  0.500000  0.714316  0.683990  1
  B  B13  1  0.500000  0.785752  0.185718  1
  B  B14  1  0.500000  0.209246  0.812744  1
  B  B15  1  0.500000  0.364099  0.468509  1
  B  B16  1  0.500000  0.636151  0.531072  1
  B  B17  1  0.500000  0.865058  0.033159  1
  B  B18  1  0.500000  0.131437  0.968753  1
  B  B19  1  0.500000  0.386993  0.049550  1
  B  B20  1  0.500000  0.616874  0.953892  1
  B  B21  1  0.500000  0.886929  0.452485  1
  B  B22  1  0.500000  0.113173  0.546905  1
  W  W23  1  0.000000  0.370067  0.915354  1
