# generated using pymatgen
data_Lu12Co4RuPb
_symmetry_space_group_name_H-M   'P 1'
_cell_length_a   8.09495184
_cell_length_b   8.09495208
_cell_length_c   8.09495213
_cell_angle_alpha   111.43601295
_cell_angle_beta   111.00469153
_cell_angle_gamma   106.02720726
_symmetry_Int_Tables_number   1
_chemical_formula_structural   Lu12Co4RuPb
_chemical_formula_sum   'Lu12 Co4 Ru1 Pb1'
_cell_volume   407.23489395
_cell_formula_units_Z   1
loop_
 _symmetry_equiv_pos_site_id
 _symmetry_equiv_pos_as_xyz
  1  'x, y, z'
loop_
 _atom_site_type_symbol
 _atom_site_label
 _atom_site_symmetry_multiplicity
 _atom_site_fract_x
 _atom_site_fract_y
 _atom_site_fract_z
 _atom_site_occupancy
  Lu  Lu0  1  0.415710  0.219969  0.195741  1
  Lu  Lu1  1  0.584290  0.780031  0.804259  1
  Lu  Lu2  1  0.024226  0.219969  0.804259  1
  Lu  Lu3  1  0.975774  0.780031  0.195741  1
  Lu  Lu4  1  0.182610  0.279505  0.462115  1
  Lu  Lu5  1  0.817390  0.720495  0.537885  1
  Lu  Lu6  1  0.182610  0.720495  0.903107  1
  Lu  Lu7  1  0.817390  0.279505  0.096893  1
  Lu  Lu8  1  0.312922  0.620406  0.307483  1
  Lu  Lu9  1  0.687078  0.379594  0.692517  1
  Lu  Lu10  1  0.312922  0.005438  0.692517  1
  Lu  Lu11  1  0.687078  0.994562  0.307483  1
  Co  Co12  1  0.373824  0.000000  0.373824  1
  Co  Co13  1  0.626176  0.000000  0.626176  1
  Co  Co14  1  0.112349  0.612349  0.500000  1
  Co  Co15  1  0.887651  0.387651  0.500000  1
  Ru  Ru16  1  0.000000  0.000000  0.000000  1
  Pb  Pb17  1  0.500000  0.500000  0.000000  1
