# generated using pymatgen
data_Y4Be4ReIr9
_symmetry_space_group_name_H-M   'P 1'
_cell_length_a   5.50757000
_cell_length_b   5.50757040
_cell_length_c   21.76395200
_cell_angle_alpha   90.00000000
_cell_angle_beta   90.00000000
_cell_angle_gamma   119.99999757
_symmetry_Int_Tables_number   1
_chemical_formula_structural   Y4Be4ReIr9
_chemical_formula_sum   'Y8 Be8 Re2 Ir18'
_cell_volume   571.72671367
_cell_formula_units_Z   2
loop_
 _symmetry_equiv_pos_site_id
 _symmetry_equiv_pos_as_xyz
  1  'x, y, z'
loop_
 _atom_site_type_symbol
 _atom_site_label
 _atom_site_symmetry_multiplicity
 _atom_site_fract_x
 _atom_site_fract_y
 _atom_site_fract_z
 _atom_site_occupancy
  Y  Y0  1  0.333333  0.666667  0.527143  1
  Y  Y1  1  0.666667  0.333333  0.472857  1
  Y  Y2  1  0.666667  0.333333  0.027143  1
  Y  Y3  1  0.333333  0.666667  0.972857  1
  Y  Y4  1  0.333333  0.666667  0.675522  1
  Y  Y5  1  0.666667  0.333333  0.324478  1
  Y  Y6  1  0.666667  0.333333  0.175522  1
  Y  Y7  1  0.333333  0.666667  0.824478  1
  Be  Be8  1  0.333333  0.666667  0.174230  1
  Be  Be9  1  0.666667  0.333333  0.825770  1
  Be  Be10  1  0.666667  0.333333  0.674230  1
  Be  Be11  1  0.333333  0.666667  0.325770  1
  Be  Be12  1  0.000000  0.000000  0.170631  1
  Be  Be13  1  0.000000  0.000000  0.829369  1
  Be  Be14  1  0.000000  0.000000  0.670631  1
  Be  Be15  1  0.000000  0.000000  0.329369  1
  Re  Re16  1  0.000000  0.000000  0.000000  1
  Re  Re17  1  0.000000  0.000000  0.500000  1
  Ir  Ir18  1  0.169391  0.338781  0.093052  1
  Ir  Ir19  1  0.830609  0.661219  0.906948  1
  Ir  Ir20  1  0.661219  0.830609  0.093052  1
  Ir  Ir21  1  0.830609  0.661219  0.593052  1
  Ir  Ir22  1  0.338781  0.169391  0.906948  1
  Ir  Ir23  1  0.169391  0.338781  0.406948  1
  Ir  Ir24  1  0.169391  0.830609  0.093052  1
  Ir  Ir25  1  0.338781  0.169391  0.593052  1
  Ir  Ir26  1  0.830609  0.169391  0.906948  1
  Ir  Ir27  1  0.661219  0.830609  0.406948  1
  Ir  Ir28  1  0.830609  0.169391  0.593052  1
  Ir  Ir29  1  0.169391  0.830609  0.406948  1
  Ir  Ir30  1  0.165852  0.331703  0.250000  1
  Ir  Ir31  1  0.834148  0.668297  0.750000  1
  Ir  Ir32  1  0.668297  0.834148  0.250000  1
  Ir  Ir33  1  0.331703  0.165852  0.750000  1
  Ir  Ir34  1  0.165852  0.834148  0.250000  1
  Ir  Ir35  1  0.834148  0.165852  0.750000  1
