# generated using pymatgen
data_U4AlRe5Si6Ru
_symmetry_space_group_name_H-M   'P 1'
_cell_length_a   7.14652011
_cell_length_b   7.14538855
_cell_length_c   7.14651969
_cell_angle_alpha   109.18687375
_cell_angle_beta   108.75794756
_cell_angle_gamma   110.48036290
_symmetry_Int_Tables_number   1
_chemical_formula_structural   U4AlRe5Si6Ru
_chemical_formula_sum   'U4 Al1 Re5 Si6 Ru1'
_cell_volume   280.83509075
_cell_formula_units_Z   1
loop_
 _symmetry_equiv_pos_site_id
 _symmetry_equiv_pos_as_xyz
  1  'x, y, z'
loop_
 _atom_site_type_symbol
 _atom_site_label
 _atom_site_symmetry_multiplicity
 _atom_site_fract_x
 _atom_site_fract_y
 _atom_site_fract_z
 _atom_site_occupancy
  U  U0  1  0.494142  0.507403  0.498534  1
  U  U1  1  0.003199  0.992921  0.498900  1
  U  U2  1  0.494021  0.992921  0.989723  1
  U  U3  1  0.008869  0.507403  0.013259  1
  Al  Al4  1  0.749566  0.249548  0.499981  1
  Re  Re5  1  0.504524  0.757470  0.252946  1
  Re  Re6  1  0.243769  0.495516  0.747166  1
  Re  Re7  1  0.748350  0.495516  0.251746  1
  Re  Re8  1  0.249872  0.750423  0.500551  1
  Re  Re9  1  0.999879  0.999823  0.999944  1
  Si  Si10  1  0.313496  0.313207  0.999710  1
  Si  Si11  1  0.998390  0.303789  0.305399  1
  Si  Si12  1  0.997823  0.692379  0.694556  1
  Si  Si13  1  0.696134  0.003045  0.695303  1
  Si  Si14  1  0.307742  0.003045  0.306910  1
  Si  Si15  1  0.686011  0.684311  0.998300  1
  Ru  Ru16  1  0.504210  0.251283  0.747072  1
