# generated using pymatgen
data_Er6Zn16Ag7As
_symmetry_space_group_name_H-M   'P 1'
_cell_length_a   9.11681228
_cell_length_b   9.11670664
_cell_length_c   9.11665600
_cell_angle_alpha   60.21481547
_cell_angle_beta   60.21568785
_cell_angle_gamma   60.21316606
_symmetry_Int_Tables_number   1
_chemical_formula_structural   Er6Zn16Ag7As
_chemical_formula_sum   'Er6 Zn16 Ag7 As1'
_cell_volume   538.40144520
_cell_formula_units_Z   1
loop_
 _symmetry_equiv_pos_site_id
 _symmetry_equiv_pos_as_xyz
  1  'x, y, z'
loop_
 _atom_site_type_symbol
 _atom_site_label
 _atom_site_symmetry_multiplicity
 _atom_site_fract_x
 _atom_site_fract_y
 _atom_site_fract_z
 _atom_site_occupancy
  Er  Er0  1  0.713393  0.286780  0.286776  1
  Er  Er1  1  0.713952  0.286177  0.714080  1
  Er  Er2  1  0.713925  0.714055  0.286208  1
  Er  Er3  1  0.286251  0.713982  0.713985  1
  Er  Er4  1  0.286820  0.713445  0.286718  1
  Er  Er5  1  0.286843  0.286711  0.713431  1
  Zn  Zn6  1  0.878102  0.878056  0.878088  1
  Zn  Zn7  1  0.504286  0.998898  0.998894  1
  Zn  Zn8  1  0.499898  0.000658  0.499909  1
  Zn  Zn9  1  0.499904  0.499901  0.000666  1
  Zn  Zn10  1  0.000653  0.499903  0.499900  1
  Zn  Zn11  1  0.998903  0.504301  0.998891  1
  Zn  Zn12  1  0.998891  0.998911  0.504278  1
  Zn  Zn13  1  0.998064  0.998083  0.998050  1
  Zn  Zn14  1  0.013084  0.328664  0.328650  1
  Zn  Zn15  1  0.328681  0.013077  0.328664  1
  Zn  Zn16  1  0.328656  0.328678  0.013080  1
  Zn  Zn17  1  0.328553  0.328530  0.328526  1
  Zn  Zn18  1  0.985972  0.671347  0.671355  1
  Zn  Zn19  1  0.671330  0.985994  0.671335  1
  Zn  Zn20  1  0.671340  0.671333  0.985994  1
  Zn  Zn21  1  0.671257  0.671280  0.671284  1
  Ag  Ag22  1  0.638405  0.120224  0.120195  1
  Ag  Ag23  1  0.120177  0.638424  0.120229  1
  Ag  Ag24  1  0.120206  0.120209  0.638408  1
  Ag  Ag25  1  0.120556  0.120593  0.120587  1
  Ag  Ag26  1  0.361521  0.879996  0.880036  1
  Ag  Ag27  1  0.880074  0.361525  0.880018  1
  Ag  Ag28  1  0.880029  0.879997  0.361507  1
  As  As29  1  0.500272  0.500268  0.500261  1
