# generated using pymatgen
data_CsSc3(CuSe3)2
_symmetry_space_group_name_H-M   'P 1'
_cell_length_a   8.55844439
_cell_length_b   8.55844466
_cell_length_c   9.80091131
_cell_angle_alpha   67.47636665
_cell_angle_beta   67.47636552
_cell_angle_gamma   26.71880332
_symmetry_Int_Tables_number   1
_chemical_formula_structural   CsSc3(CuSe3)2
_chemical_formula_sum   'Cs1 Sc3 Cu2 Se6'
_cell_volume   296.70090001
_cell_formula_units_Z   1
loop_
 _symmetry_equiv_pos_site_id
 _symmetry_equiv_pos_as_xyz
  1  'x, y, z'
loop_
 _atom_site_type_symbol
 _atom_site_label
 _atom_site_symmetry_multiplicity
 _atom_site_fract_x
 _atom_site_fract_y
 _atom_site_fract_z
 _atom_site_occupancy
  Cs  Cs0  1  0.000000  0.000000  0.000000  1
  Sc  Sc1  1  0.286753  0.286753  0.633441  1
  Sc  Sc2  1  0.713247  0.713247  0.366559  1
  Sc  Sc3  1  0.000000  0.000000  0.500000  1
  Cu  Cu4  1  0.285401  0.285401  0.914904  1
  Cu  Cu5  1  0.714599  0.714599  0.085096  1
  Se  Se6  1  0.571429  0.571429  0.297283  1
  Se  Se7  1  0.142682  0.142682  0.569315  1
  Se  Se8  1  0.707142  0.707142  0.843584  1
  Se  Se9  1  0.857318  0.857318  0.430685  1
  Se  Se10  1  0.428571  0.428571  0.702717  1
  Se  Se11  1  0.292858  0.292858  0.156416  1
