# generated using pymatgen
data_K2Ni2PdSe4
_symmetry_space_group_name_H-M   'P 1'
_cell_length_a   8.55828804
_cell_length_b   7.46422254
_cell_length_c   6.02288897
_cell_angle_alpha   77.96633049
_cell_angle_beta   58.53920981
_cell_angle_gamma   45.45467808
_symmetry_Int_Tables_number   1
_chemical_formula_structural   K2Ni2PdSe4
_chemical_formula_sum   'K2 Ni2 Pd1 Se4'
_cell_volume   225.90019896
_cell_formula_units_Z   1
loop_
 _symmetry_equiv_pos_site_id
 _symmetry_equiv_pos_as_xyz
  1  'x, y, z'
loop_
 _atom_site_type_symbol
 _atom_site_label
 _atom_site_symmetry_multiplicity
 _atom_site_fract_x
 _atom_site_fract_y
 _atom_site_fract_z
 _atom_site_occupancy
  K  K0  1  0.352030  0.352030  0.647970  1
  K  K1  1  0.647970  0.647970  0.352030  1
  Ni  Ni2  1  0.000000  0.000000  0.500000  1
  Ni  Ni3  1  0.000000  0.000000  0.000000  1
  Pd  Pd4  1  0.500000  0.500000  0.000000  1
  Se  Se5  1  0.963380  0.270076  0.708063  1
  Se  Se6  1  0.036620  0.729924  0.291937  1
  Se  Se7  1  0.729924  0.036620  0.941519  1
  Se  Se8  1  0.270076  0.963380  0.058481  1
