# generated using pymatgen
data_Ca10SiTc3N14
_symmetry_space_group_name_H-M   'P 1'
_cell_length_a   5.93464332
_cell_length_b   8.67881819
_cell_length_c   8.65626000
_cell_angle_alpha   116.16457767
_cell_angle_beta   97.30802882
_cell_angle_gamma   89.00445427
_symmetry_Int_Tables_number   1
_chemical_formula_structural   Ca10SiTc3N14
_chemical_formula_sum   'Ca10 Si1 Tc3 N14'
_cell_volume   396.53507735
_cell_formula_units_Z   1
loop_
 _symmetry_equiv_pos_site_id
 _symmetry_equiv_pos_as_xyz
  1  'x, y, z'
loop_
 _atom_site_type_symbol
 _atom_site_label
 _atom_site_symmetry_multiplicity
 _atom_site_fract_x
 _atom_site_fract_y
 _atom_site_fract_z
 _atom_site_occupancy
  Ca  Ca0  1  0.841663  0.608053  0.319599  1
  Ca  Ca1  1  0.250008  0.986868  0.551559  1
  Ca  Ca2  1  0.718046  0.434334  0.868201  1
  Ca  Ca3  1  0.289875  0.596501  0.142817  1
  Ca  Ca4  1  0.410921  0.793941  0.942725  1
  Ca  Ca5  1  0.608304  0.200498  0.068013  1
  Ca  Ca6  1  0.157717  0.413789  0.681131  1
  Ca  Ca7  1  0.889055  0.834871  0.775058  1
  Ca  Ca8  1  0.103508  0.125738  0.232904  1
  Ca  Ca9  1  0.719673  0.990696  0.401246  1
  Si  Si10  1  0.882102  0.782297  0.083163  1
  Tc  Tc11  1  0.587075  0.355435  0.475496  1
  Tc  Tc12  1  0.417137  0.647974  0.527177  1
  Tc  Tc13  1  0.118588  0.214926  0.913856  1
  N  N14  1  0.535091  0.559324  0.689640  1
  N  N15  1  0.470859  0.446761  0.312391  1
  N  N16  1  0.132114  0.710527  0.558541  1
  N  N17  1  0.869857  0.284845  0.442251  1
  N  N18  1  0.410220  0.183230  0.468120  1
  N  N19  1  0.590922  0.824376  0.539577  1
  N  N20  1  0.931786  0.138380  0.710378  1
  N  N21  1  0.062155  0.858959  0.280309  1
  N  N22  1  0.233831  0.041443  0.957562  1
  N  N23  1  0.766012  0.955212  0.048943  1
  N  N24  1  0.364793  0.323969  0.893320  1
  N  N25  1  0.964330  0.358871  0.089373  1
  N  N26  1  0.032452  0.644797  0.913922  1
  N  N27  1  0.641907  0.683386  0.112726  1
