# generated using pymatgen
data_Lu3MgGa4Ni
_symmetry_space_group_name_H-M   'P 1'
_cell_length_a   6.92217400
_cell_length_b   6.84022009
_cell_length_c   4.23835200
_cell_angle_alpha   90.00000000
_cell_angle_beta   90.00000000
_cell_angle_gamma   120.39714173
_symmetry_Int_Tables_number   1
_chemical_formula_structural   Lu3MgGa4Ni
_chemical_formula_sum   'Lu3 Mg1 Ga4 Ni1'
_cell_volume   173.09650820
_cell_formula_units_Z   1
loop_
 _symmetry_equiv_pos_site_id
 _symmetry_equiv_pos_as_xyz
  1  'x, y, z'
loop_
 _atom_site_type_symbol
 _atom_site_label
 _atom_site_symmetry_multiplicity
 _atom_site_fract_x
 _atom_site_fract_y
 _atom_site_fract_z
 _atom_site_occupancy
  Lu  Lu0  1  0.596479  0.000000  0.500000  1
  Lu  Lu1  1  0.413217  0.412298  0.500000  1
  Lu  Lu2  1  0.000919  0.587702  0.500000  1
  Mg  Mg3  1  0.230273  0.000000  0.000000  1
  Ga  Ga4  1  0.000925  0.236364  0.000000  1
  Ga  Ga5  1  0.672086  0.335404  0.000000  1
  Ga  Ga6  1  0.336681  0.664596  0.000000  1
  Ga  Ga7  1  0.764561  0.763636  0.000000  1
  Ni  Ni8  1  0.984860  0.000000  0.500000  1
