# generated using pymatgen
data_K3NiO3
_symmetry_space_group_name_H-M   'P 1'
_cell_length_a   6.67138614
_cell_length_b   7.05327110
_cell_length_c   11.07405763
_cell_angle_alpha   90.03609997
_cell_angle_beta   90.02951620
_cell_angle_gamma   100.88356767
_symmetry_Int_Tables_number   1
_chemical_formula_structural   K3NiO3
_chemical_formula_sum   'K12 Ni4 O12'
_cell_volume   511.71771605
_cell_formula_units_Z   4
loop_
 _symmetry_equiv_pos_site_id
 _symmetry_equiv_pos_as_xyz
  1  'x, y, z'
loop_
 _atom_site_type_symbol
 _atom_site_label
 _atom_site_symmetry_multiplicity
 _atom_site_fract_x
 _atom_site_fract_y
 _atom_site_fract_z
 _atom_site_occupancy
  K  K0  1  0.994397  0.064277  0.262429  1
  K  K1  1  0.005684  0.935699  0.737634  1
  K  K2  1  0.994358  0.564325  0.237569  1
  K  K3  1  0.005615  0.435637  0.762432  1
  K  K4  1  0.540980  0.498450  0.698610  1
  K  K5  1  0.540879  0.998370  0.801403  1
  K  K6  1  0.459104  0.501542  0.301439  1
  K  K7  1  0.459040  0.001543  0.198622  1
  K  K8  1  0.347185  0.632311  0.982892  1
  K  K9  1  0.347277  0.132316  0.517109  1
  K  K10  1  0.652666  0.867550  0.482952  1
  K  K11  1  0.652873  0.367883  0.017115  1
  Ni  Ni12  1  0.846131  0.836128  0.008328  1
  Ni  Ni13  1  0.153343  0.663912  0.508109  1
  Ni  Ni14  1  0.153961  0.163998  0.991614  1
  Ni  Ni15  1  0.846487  0.335656  0.491644  1
  O  O16  1  0.245433  0.818222  0.378274  1
  O  O17  1  0.754573  0.682319  0.878558  1
  O  O18  1  0.754526  0.181637  0.621693  1
  O  O19  1  0.245602  0.318109  0.121658  1
  O  O20  1  0.861572  0.106778  0.963278  1
  O  O21  1  0.138680  0.393582  0.463266  1
  O  O22  1  0.861139  0.606077  0.536698  1
  O  O23  1  0.138651  0.893758  0.036725  1
  O  O24  1  0.298867  0.753638  0.643885  1
  O  O25  1  0.700902  0.246062  0.355993  1
  O  O26  1  0.700764  0.746335  0.144196  1
  O  O27  1  0.299313  0.253885  0.855877  1
