# generated using pymatgen
data_Y4Tm5LuRu4
_symmetry_space_group_name_H-M   'P 1'
_cell_length_a   6.29335690
_cell_length_b   7.25724613
_cell_length_c   8.39790436
_cell_angle_alpha   96.95143093
_cell_angle_beta   112.00564421
_cell_angle_gamma   90.00000112
_symmetry_Int_Tables_number   1
_chemical_formula_structural   Y4Tm5LuRu4
_chemical_formula_sum   'Y4 Tm5 Lu1 Ru4'
_cell_volume   352.56694690
_cell_formula_units_Z   1
loop_
 _symmetry_equiv_pos_site_id
 _symmetry_equiv_pos_as_xyz
  1  'x, y, z'
loop_
 _atom_site_type_symbol
 _atom_site_label
 _atom_site_symmetry_multiplicity
 _atom_site_fract_x
 _atom_site_fract_y
 _atom_site_fract_z
 _atom_site_occupancy
  Y  Y0  1  0.523049  0.082514  0.811875  1
  Y  Y1  1  0.477399  0.916678  0.188232  1
  Y  Y2  1  0.711174  0.417486  0.188125  1
  Y  Y3  1  0.289166  0.583322  0.811768  1
  Tm  Tm4  1  0.297037  0.314951  0.433763  1
  Tm  Tm5  1  0.702744  0.685270  0.566663  1
  Tm  Tm6  1  0.863275  0.185049  0.566237  1
  Tm  Tm7  1  0.136079  0.814730  0.433337  1
  Tm  Tm8  1  0.079009  0.250000  0.000000  1
  Lu  Lu9  1  0.922010  0.750000  0.000000  1
  Ru  Ru10  1  0.317452  0.575490  0.221974  1
  Ru  Ru11  1  0.682290  0.425292  0.778450  1
  Ru  Ru12  1  0.095480  0.924510  0.778026  1
  Ru  Ru13  1  0.903839  0.074708  0.221550  1
