# generated using pymatgen
data_Dy3NbCo7NiP6
_symmetry_space_group_name_H-M   'P 1'
_cell_length_a   3.74170100
_cell_length_b   10.64710500
_cell_length_c   12.33047500
_cell_angle_alpha   90.00000000
_cell_angle_beta   90.00000000
_cell_angle_gamma   90.00000000
_symmetry_Int_Tables_number   1
_chemical_formula_structural   Dy3NbCo7NiP6
_chemical_formula_sum   'Dy6 Nb2 Co14 Ni2 P12'
_cell_volume   491.22495782
_cell_formula_units_Z   2
loop_
 _symmetry_equiv_pos_site_id
 _symmetry_equiv_pos_as_xyz
  1  'x, y, z'
loop_
 _atom_site_type_symbol
 _atom_site_label
 _atom_site_symmetry_multiplicity
 _atom_site_fract_x
 _atom_site_fract_y
 _atom_site_fract_z
 _atom_site_occupancy
  Dy  Dy0  1  0.000000  0.500000  0.523725  1
  Dy  Dy1  1  0.500000  0.000000  0.476275  1
  Dy  Dy2  1  0.500000  0.818879  0.204265  1
  Dy  Dy3  1  0.500000  0.181121  0.204265  1
  Dy  Dy4  1  0.000000  0.681121  0.795735  1
  Dy  Dy5  1  0.000000  0.318879  0.795735  1
  Nb  Nb6  1  0.500000  0.500000  0.156366  1
  Nb  Nb7  1  0.000000  0.000000  0.843634  1
  Co  Co8  1  0.000000  0.500000  0.986312  1
  Co  Co9  1  0.500000  0.000000  0.013688  1
  Co  Co10  1  0.500000  0.332643  0.991293  1
  Co  Co11  1  0.500000  0.667357  0.991293  1
  Co  Co12  1  0.000000  0.167357  0.008707  1
  Co  Co13  1  0.000000  0.832643  0.008707  1
  Co  Co14  1  0.500000  0.296080  0.432617  1
  Co  Co15  1  0.500000  0.703920  0.432617  1
  Co  Co16  1  0.000000  0.203920  0.567383  1
  Co  Co17  1  0.000000  0.796080  0.567383  1
  Co  Co18  1  0.500000  0.877300  0.705422  1
  Co  Co19  1  0.500000  0.122700  0.705422  1
  Co  Co20  1  0.000000  0.622700  0.294578  1
  Co  Co21  1  0.000000  0.377300  0.294578  1
  Ni  Ni22  1  0.500000  0.500000  0.701976  1
  Ni  Ni23  1  0.000000  0.000000  0.298024  1
  P  P24  1  0.500000  0.500000  0.883348  1
  P  P25  1  0.000000  0.000000  0.116652  1
  P  P26  1  0.500000  0.500000  0.354483  1
  P  P27  1  0.000000  0.000000  0.645517  1
  P  P28  1  0.500000  0.309816  0.615352  1
  P  P29  1  0.500000  0.690184  0.615352  1
  P  P30  1  0.000000  0.190184  0.384648  1
  P  P31  1  0.000000  0.809816  0.384648  1
  P  P32  1  0.500000  0.841711  0.893891  1
  P  P33  1  0.500000  0.158289  0.893891  1
  P  P34  1  0.000000  0.658289  0.106109  1
  P  P35  1  0.000000  0.341711  0.106109  1
