# generated using pymatgen
data_PrYHo2(Sn5Rh3)2
_symmetry_space_group_name_H-M   'P 1'
_cell_length_a   13.51011829
_cell_length_b   13.51011745
_cell_length_c   7.27089521
_cell_angle_alpha   89.93509824
_cell_angle_beta   90.06490061
_cell_angle_gamma   161.01447836
_symmetry_Int_Tables_number   1
_chemical_formula_structural   PrYHo2(Sn5Rh3)2
_chemical_formula_sum   'Pr1 Y1 Ho2 Sn10 Rh6'
_cell_volume   431.74661560
_cell_formula_units_Z   1
loop_
 _symmetry_equiv_pos_site_id
 _symmetry_equiv_pos_as_xyz
  1  'x, y, z'
loop_
 _atom_site_type_symbol
 _atom_site_label
 _atom_site_symmetry_multiplicity
 _atom_site_fract_x
 _atom_site_fract_y
 _atom_site_fract_z
 _atom_site_occupancy
  Pr  Pr0  1  0.172883  0.827117  0.748118  1
  Y  Y1  1  0.828561  0.171439  0.247333  1
  Ho  Ho2  1  0.475640  0.524360  0.759944  1
  Ho  Ho3  1  0.523193  0.476807  0.261225  1
  Sn  Sn4  1  0.881483  0.118517  0.769753  1
  Sn  Sn5  1  0.118787  0.881213  0.267042  1
  Sn  Sn6  1  0.704576  0.295424  0.450153  1
  Sn  Sn7  1  0.296013  0.703987  0.953659  1
  Sn  Sn8  1  0.594372  0.405628  0.884747  1
  Sn  Sn9  1  0.403819  0.596181  0.385257  1
  Sn  Sn10  1  0.952580  0.047420  0.099999  1
  Sn  Sn11  1  0.046670  0.953330  0.600162  1
  Sn  Sn12  1  0.291386  0.708614  0.523532  1
  Sn  Sn13  1  0.710467  0.289533  0.027911  1
  Rh  Rh14  1  0.049496  0.950504  0.981250  1
  Rh  Rh15  1  0.949645  0.050355  0.480452  1
  Rh  Rh16  1  0.778716  0.221284  0.738021  1
  Rh  Rh17  1  0.222856  0.777144  0.238348  1
  Rh  Rh18  1  0.394612  0.605388  0.015822  1
  Rh  Rh19  1  0.604242  0.395758  0.511271  1
