# generated using pymatgen
data_Nd4Zn4Ir3Pd
_symmetry_space_group_name_H-M   'P 1'
_cell_length_a   4.18705300
_cell_length_b   7.16201017
_cell_length_c   8.30674208
_cell_angle_alpha   90.14692186
_cell_angle_beta   90.00000000
_cell_angle_gamma   90.00000000
_symmetry_Int_Tables_number   1
_chemical_formula_structural   Nd4Zn4Ir3Pd
_chemical_formula_sum   'Nd4 Zn4 Ir3 Pd1'
_cell_volume   249.09940488
_cell_formula_units_Z   1
loop_
 _symmetry_equiv_pos_site_id
 _symmetry_equiv_pos_as_xyz
  1  'x, y, z'
loop_
 _atom_site_type_symbol
 _atom_site_label
 _atom_site_symmetry_multiplicity
 _atom_site_fract_x
 _atom_site_fract_y
 _atom_site_fract_z
 _atom_site_occupancy
  Nd  Nd0  1  0.750000  0.468310  0.179111  1
  Nd  Nd1  1  0.750000  0.955748  0.313344  1
  Nd  Nd2  1  0.250000  0.535977  0.813919  1
  Nd  Nd3  1  0.250000  0.030007  0.691438  1
  Zn  Zn4  1  0.750000  0.859958  0.935149  1
  Zn  Zn5  1  0.750000  0.363494  0.567840  1
  Zn  Zn6  1  0.250000  0.138690  0.062423  1
  Zn  Zn7  1  0.250000  0.642651  0.434272  1
  Ir  Ir8  1  0.750000  0.240497  0.880941  1
  Ir  Ir9  1  0.750000  0.739800  0.617123  1
  Ir  Ir10  1  0.250000  0.761280  0.119739  1
  Pd  Pd11  1  0.250000  0.263590  0.384701  1
