# generated using pymatgen
data_Nd16Y4Si15Os
_symmetry_space_group_name_H-M   'P 1'
_cell_length_a   7.64454188
_cell_length_b   7.98138937
_cell_length_c   15.08942800
_cell_angle_alpha   90.00000000
_cell_angle_beta   90.00000000
_cell_angle_gamma   89.84604130
_symmetry_Int_Tables_number   1
_chemical_formula_structural   Nd16Y4Si15Os
_chemical_formula_sum   'Nd16 Y4 Si15 Os1'
_cell_volume   920.66402193
_cell_formula_units_Z   1
loop_
 _symmetry_equiv_pos_site_id
 _symmetry_equiv_pos_as_xyz
  1  'x, y, z'
loop_
 _atom_site_type_symbol
 _atom_site_label
 _atom_site_symmetry_multiplicity
 _atom_site_fract_x
 _atom_site_fract_y
 _atom_site_fract_z
 _atom_site_occupancy
  Nd  Nd0  1  0.809747  0.322263  0.621774  1
  Nd  Nd1  1  0.464140  0.688084  0.900626  1
  Nd  Nd2  1  0.964891  0.815150  0.902340  1
  Nd  Nd3  1  0.199052  0.675304  0.127022  1
  Nd  Nd4  1  0.682117  0.814693  0.124791  1
  Nd  Nd5  1  0.310124  0.180343  0.877142  1
  Nd  Nd6  1  0.199052  0.675304  0.372978  1
  Nd  Nd7  1  0.035001  0.185170  0.098783  1
  Nd  Nd8  1  0.310124  0.180343  0.622858  1
  Nd  Nd9  1  0.529672  0.323041  0.400110  1
  Nd  Nd10  1  0.809747  0.322263  0.878226  1
  Nd  Nd11  1  0.964891  0.815150  0.597660  1
  Nd  Nd12  1  0.464140  0.688084  0.599374  1
  Nd  Nd13  1  0.035001  0.185170  0.401217  1
  Nd  Nd14  1  0.682117  0.814693  0.375209  1
  Nd  Nd15  1  0.529672  0.323041  0.099890  1
  Y  Y16  1  0.140825  0.517460  0.750000  1
  Y  Y17  1  0.847657  0.485426  0.250000  1
  Y  Y18  1  0.363242  0.015247  0.250000  1
  Y  Y19  1  0.639849  0.985208  0.750000  1
  Si  Si20  1  0.243959  0.365357  0.250000  1
  Si  Si21  1  0.867852  0.524729  0.457944  1
  Si  Si22  1  0.514183  0.405568  0.750000  1
  Si  Si23  1  0.635989  0.024516  0.958037  1
  Si  Si24  1  0.011067  0.096304  0.750000  1
  Si  Si25  1  0.756789  0.626474  0.750000  1
  Si  Si26  1  0.750683  0.123229  0.250000  1
  Si  Si27  1  0.360075  0.976574  0.458771  1
  Si  Si28  1  0.988172  0.904811  0.250000  1
  Si  Si29  1  0.360075  0.976574  0.041229  1
  Si  Si30  1  0.635989  0.024516  0.541963  1
  Si  Si31  1  0.141093  0.474909  0.959931  1
  Si  Si32  1  0.141093  0.474909  0.540069  1
  Si  Si33  1  0.867852  0.524729  0.042056  1
  Si  Si34  1  0.253469  0.874345  0.750000  1
  Os  Os35  1  0.490598  0.591018  0.250000  1
