# generated using pymatgen
data_Ac5Pr(Hg2Pb3)2
_symmetry_space_group_name_H-M   'P 1'
_cell_length_a   6.94254800
_cell_length_b   6.94254856
_cell_length_c   11.10412100
_cell_angle_alpha   90.00000000
_cell_angle_beta   90.00000000
_cell_angle_gamma   102.28466285
_symmetry_Int_Tables_number   1
_chemical_formula_structural   Ac5Pr(Hg2Pb3)2
_chemical_formula_sum   'Ac5 Pr1 Hg4 Pb6'
_cell_volume   522.95239439
_cell_formula_units_Z   1
loop_
 _symmetry_equiv_pos_site_id
 _symmetry_equiv_pos_as_xyz
  1  'x, y, z'
loop_
 _atom_site_type_symbol
 _atom_site_label
 _atom_site_symmetry_multiplicity
 _atom_site_fract_x
 _atom_site_fract_y
 _atom_site_fract_z
 _atom_site_occupancy
  Ac  Ac0  1  0.612923  0.612923  0.250000  1
  Ac  Ac1  1  0.206818  0.792603  0.500229  1
  Ac  Ac2  1  0.206818  0.792603  0.999771  1
  Ac  Ac3  1  0.792603  0.206818  0.500229  1
  Ac  Ac4  1  0.792603  0.206818  0.999771  1
  Pr  Pr5  1  0.382336  0.382336  0.750000  1
  Hg  Hg6  1  0.312203  0.312203  0.034473  1
  Hg  Hg7  1  0.685473  0.685473  0.954448  1
  Hg  Hg8  1  0.312203  0.312203  0.465527  1
  Hg  Hg9  1  0.685473  0.685473  0.545552  1
  Pb  Pb10  1  0.016899  0.016899  0.250000  1
  Pb  Pb11  1  0.989595  0.989595  0.750000  1
  Pb  Pb12  1  0.487734  0.068772  0.250000  1
  Pb  Pb13  1  0.937819  0.509728  0.750000  1
  Pb  Pb14  1  0.509728  0.937819  0.750000  1
  Pb  Pb15  1  0.068772  0.487734  0.250000  1
