# generated using pymatgen
data_Dy3Ho9Os3Pd
_symmetry_space_group_name_H-M   'P 1'
_cell_length_a   6.31104900
_cell_length_b   7.36434098
_cell_length_c   9.05657500
_cell_angle_alpha   90.00000000
_cell_angle_beta   90.00000000
_cell_angle_gamma   89.93335510
_symmetry_Int_Tables_number   1
_chemical_formula_structural   Dy3Ho9Os3Pd
_chemical_formula_sum   'Dy3 Ho9 Os3 Pd1'
_cell_volume   420.91958661
_cell_formula_units_Z   1
loop_
 _symmetry_equiv_pos_site_id
 _symmetry_equiv_pos_as_xyz
  1  'x, y, z'
loop_
 _atom_site_type_symbol
 _atom_site_label
 _atom_site_symmetry_multiplicity
 _atom_site_fract_x
 _atom_site_fract_y
 _atom_site_fract_z
 _atom_site_occupancy
  Dy  Dy0  1  0.869303  0.536917  0.250000  1
  Dy  Dy1  1  0.123115  0.459550  0.750000  1
  Dy  Dy2  1  0.370663  0.968518  0.750000  1
  Ho  Ho3  1  0.325230  0.676715  0.067908  1
  Ho  Ho4  1  0.170693  0.176808  0.436749  1
  Ho  Ho5  1  0.669786  0.316129  0.558642  1
  Ho  Ho6  1  0.838378  0.830022  0.941764  1
  Ho  Ho7  1  0.669786  0.316129  0.941358  1
  Ho  Ho8  1  0.838378  0.830022  0.558236  1
  Ho  Ho9  1  0.325230  0.676715  0.432092  1
  Ho  Ho10  1  0.170693  0.176808  0.063251  1
  Ho  Ho11  1  0.625287  0.037354  0.250000  1
  Os  Os12  1  0.037064  0.884719  0.250000  1
  Os  Os13  1  0.459783  0.384100  0.250000  1
  Os  Os14  1  0.956887  0.116303  0.750000  1
  Pd  Pd15  1  0.549720  0.613191  0.750000  1
