# generated using pymatgen
data_LaNd3Al18(CoPt2)2
_symmetry_space_group_name_H-M   'P 1'
_cell_length_a   7.62610799
_cell_length_b   7.62811744
_cell_length_c   9.56516514
_cell_angle_alpha   89.81767833
_cell_angle_beta   89.85120679
_cell_angle_gamma   119.62084023
_symmetry_Int_Tables_number   1
_chemical_formula_structural   LaNd3Al18(CoPt2)2
_chemical_formula_sum   'La1 Nd3 Al18 Co2 Pt4'
_cell_volume   483.70756233
_cell_formula_units_Z   1
loop_
 _symmetry_equiv_pos_site_id
 _symmetry_equiv_pos_as_xyz
  1  'x, y, z'
loop_
 _atom_site_type_symbol
 _atom_site_label
 _atom_site_symmetry_multiplicity
 _atom_site_fract_x
 _atom_site_fract_y
 _atom_site_fract_z
 _atom_site_occupancy
  La  La0  1  0.004650  0.330767  0.749942  1
  Nd  Nd1  1  0.333713  0.008682  0.749653  1
  Nd  Nd2  1  0.991196  0.666231  0.250489  1
  Nd  Nd3  1  0.669476  0.995331  0.249864  1
  Al  Al4  1  0.655991  0.988570  0.928513  1
  Al  Al5  1  0.000393  0.675905  0.570838  1
  Al  Al6  1  0.127720  0.125892  0.256110  1
  Al  Al7  1  0.659352  0.666583  0.049378  1
  Al  Al8  1  0.326992  0.326314  0.547456  1
  Al  Al9  1  0.334558  0.340858  0.952395  1
  Al  Al10  1  0.673655  0.674115  0.450598  1
  Al  Al11  1  0.333441  0.990116  0.072285  1
  Al  Al12  1  0.002043  0.326073  0.426631  1
  Al  Al13  1  0.340433  0.550803  0.242540  1
  Al  Al14  1  0.010518  0.342775  0.073722  1
  Al  Al15  1  0.540806  0.339447  0.249896  1
  Al  Al16  1  0.658647  0.459089  0.750055  1
  Al  Al17  1  0.872592  0.870262  0.743882  1
  Al  Al18  1  0.009847  0.667846  0.928831  1
  Al  Al19  1  0.672631  0.996938  0.571144  1
  Al  Al20  1  0.325558  0.999473  0.428129  1
  Al  Al21  1  0.451973  0.661719  0.757576  1
  Co  Co22  1  0.000046  0.999776  0.499878  1
  Co  Co23  1  0.330924  0.669170  0.000205  1
  Pt  Pt24  1  0.671333  0.328693  0.499746  1
  Pt  Pt25  1  0.671642  0.328436  0.000252  1
  Pt  Pt26  1  0.329629  0.670656  0.499704  1
  Pt  Pt27  1  0.000238  0.999483  0.000287  1
