# generated using pymatgen
data_YHo5CoP12Ir17
_symmetry_space_group_name_H-M   'P 1'
_cell_length_a   3.95585600
_cell_length_b   11.14683500
_cell_length_c   12.78182200
_cell_angle_alpha   90.00000000
_cell_angle_beta   90.00000000
_cell_angle_gamma   90.00000000
_symmetry_Int_Tables_number   1
_chemical_formula_structural   YHo5CoP12Ir17
_chemical_formula_sum   'Y1 Ho5 Co1 P12 Ir17'
_cell_volume   563.61794479
_cell_formula_units_Z   1
loop_
 _symmetry_equiv_pos_site_id
 _symmetry_equiv_pos_as_xyz
  1  'x, y, z'
loop_
 _atom_site_type_symbol
 _atom_site_label
 _atom_site_symmetry_multiplicity
 _atom_site_fract_x
 _atom_site_fract_y
 _atom_site_fract_z
 _atom_site_occupancy
  Y  Y0  1  0.500000  0.000000  0.477368  1
  Ho  Ho1  1  0.000000  0.500000  0.522302  1
  Ho  Ho2  1  0.500000  0.819069  0.202618  1
  Ho  Ho3  1  0.500000  0.180931  0.202618  1
  Ho  Ho4  1  0.000000  0.688057  0.797963  1
  Ho  Ho5  1  0.000000  0.311943  0.797963  1
  Co  Co6  1  0.500000  0.000000  0.023746  1
  P  P7  1  0.500000  0.315165  0.618351  1
  P  P8  1  0.500000  0.684835  0.618351  1
  P  P9  1  0.000000  0.184493  0.381046  1
  P  P10  1  0.000000  0.815507  0.381046  1
  P  P11  1  0.500000  0.500000  0.876597  1
  P  P12  1  0.000000  0.000000  0.121745  1
  P  P13  1  0.500000  0.854009  0.896505  1
  P  P14  1  0.500000  0.145991  0.896505  1
  P  P15  1  0.000000  0.657843  0.105978  1
  P  P16  1  0.000000  0.342157  0.105978  1
  P  P17  1  0.500000  0.500000  0.358135  1
  P  P18  1  0.000000  0.000000  0.640577  1
  Ir  Ir19  1  0.000000  0.500000  0.972732  1
  Ir  Ir20  1  0.500000  0.295156  0.429694  1
  Ir  Ir21  1  0.500000  0.704844  0.429694  1
  Ir  Ir22  1  0.000000  0.207174  0.570100  1
  Ir  Ir23  1  0.000000  0.792826  0.570100  1
  Ir  Ir24  1  0.500000  0.870003  0.714118  1
  Ir  Ir25  1  0.500000  0.129997  0.714118  1
  Ir  Ir26  1  0.000000  0.630825  0.285073  1
  Ir  Ir27  1  0.000000  0.369175  0.285073  1
  Ir  Ir28  1  0.500000  0.333280  0.000249  1
  Ir  Ir29  1  0.500000  0.666720  0.000249  1
  Ir  Ir30  1  0.000000  0.157566  0.002510  1
  Ir  Ir31  1  0.000000  0.842434  0.002510  1
  Ir  Ir32  1  0.500000  0.500000  0.178908  1
  Ir  Ir33  1  0.000000  0.000000  0.820373  1
  Ir  Ir34  1  0.500000  0.500000  0.700133  1
  Ir  Ir35  1  0.000000  0.000000  0.298973  1
