# generated using pymatgen
data_Dy2Lu3Pb4
_symmetry_space_group_name_H-M   'P 1'
_cell_length_a   8.13452100
_cell_length_b   8.19217000
_cell_length_c   15.45133700
_cell_angle_alpha   90.00000000
_cell_angle_beta   90.00000000
_cell_angle_gamma   90.00000000
_symmetry_Int_Tables_number   1
_chemical_formula_structural   Dy2Lu3Pb4
_chemical_formula_sum   'Dy8 Lu12 Pb16'
_cell_volume   1029.66750086
_cell_formula_units_Z   4
loop_
 _symmetry_equiv_pos_site_id
 _symmetry_equiv_pos_as_xyz
  1  'x, y, z'
loop_
 _atom_site_type_symbol
 _atom_site_label
 _atom_site_symmetry_multiplicity
 _atom_site_fract_x
 _atom_site_fract_y
 _atom_site_fract_z
 _atom_site_occupancy
  Dy  Dy0  1  0.539119  0.323441  0.900491  1
  Dy  Dy1  1  0.039119  0.176559  0.599509  1
  Dy  Dy2  1  0.460881  0.676559  0.400491  1
  Dy  Dy3  1  0.960881  0.823441  0.099509  1
  Dy  Dy4  1  0.460881  0.676559  0.099509  1
  Dy  Dy5  1  0.960881  0.823441  0.400491  1
  Dy  Dy6  1  0.539119  0.323441  0.599509  1
  Dy  Dy7  1  0.039119  0.176559  0.900491  1
  Lu  Lu8  1  0.377190  0.842832  0.878108  1
  Lu  Lu9  1  0.877190  0.657168  0.621892  1
  Lu  Lu10  1  0.622810  0.157168  0.378108  1
  Lu  Lu11  1  0.122810  0.342832  0.121892  1
  Lu  Lu12  1  0.622810  0.157168  0.121892  1
  Lu  Lu13  1  0.122810  0.342832  0.378108  1
  Lu  Lu14  1  0.377190  0.842832  0.621892  1
  Lu  Lu15  1  0.877190  0.657168  0.878108  1
  Lu  Lu16  1  0.208716  0.505640  0.750000  1
  Lu  Lu17  1  0.708716  0.994360  0.750000  1
  Lu  Lu18  1  0.791284  0.494360  0.250000  1
  Lu  Lu19  1  0.291284  0.005640  0.250000  1
  Pb  Pb20  1  0.281710  0.034116  0.042876  1
  Pb  Pb21  1  0.781710  0.465884  0.457124  1
  Pb  Pb22  1  0.718290  0.965884  0.542876  1
  Pb  Pb23  1  0.218290  0.534116  0.957124  1
  Pb  Pb24  1  0.718290  0.965884  0.957124  1
  Pb  Pb25  1  0.218290  0.534116  0.542876  1
  Pb  Pb26  1  0.281710  0.034116  0.457124  1
  Pb  Pb27  1  0.781710  0.465884  0.042876  1
  Pb  Pb28  1  0.571056  0.628080  0.750000  1
  Pb  Pb29  1  0.071056  0.871920  0.750000  1
  Pb  Pb30  1  0.428944  0.371920  0.250000  1
  Pb  Pb31  1  0.928944  0.128080  0.250000  1
  Pb  Pb32  1  0.349791  0.155599  0.750000  1
  Pb  Pb33  1  0.849791  0.344401  0.750000  1
  Pb  Pb34  1  0.650209  0.844401  0.250000  1
  Pb  Pb35  1  0.150209  0.655599  0.250000  1
