# generated using pymatgen
data_Er12TcOs2Ru
_symmetry_space_group_name_H-M   'P 1'
_cell_length_a   6.24376308
_cell_length_b   7.35840237
_cell_length_c   8.98757500
_cell_angle_alpha   90.00000000
_cell_angle_beta   90.00000000
_cell_angle_gamma   90.14286009
_symmetry_Int_Tables_number   1
_chemical_formula_structural   Er12TcOs2Ru
_chemical_formula_sum   'Er12 Tc1 Os2 Ru1'
_cell_volume   412.92494993
_cell_formula_units_Z   1
loop_
 _symmetry_equiv_pos_site_id
 _symmetry_equiv_pos_as_xyz
  1  'x, y, z'
loop_
 _atom_site_type_symbol
 _atom_site_label
 _atom_site_symmetry_multiplicity
 _atom_site_fract_x
 _atom_site_fract_y
 _atom_site_fract_z
 _atom_site_occupancy
  Er  Er0  1  0.334723  0.675256  0.062374  1
  Er  Er1  1  0.166572  0.175817  0.436796  1
  Er  Er2  1  0.666192  0.324351  0.561892  1
  Er  Er3  1  0.834564  0.824424  0.937347  1
  Er  Er4  1  0.666192  0.324351  0.938108  1
  Er  Er5  1  0.834564  0.824424  0.562653  1
  Er  Er6  1  0.334723  0.675256  0.437626  1
  Er  Er7  1  0.166572  0.175817  0.063204  1
  Er  Er8  1  0.871109  0.538908  0.250000  1
  Er  Er9  1  0.627247  0.039024  0.250000  1
  Er  Er10  1  0.129848  0.459732  0.750000  1
  Er  Er11  1  0.369053  0.961136  0.750000  1
  Tc  Tc12  1  0.038590  0.883156  0.250000  1
  Os  Os13  1  0.460248  0.381864  0.250000  1
  Os  Os14  1  0.539556  0.617768  0.750000  1
  Ru  Ru15  1  0.960246  0.118716  0.750000  1
