# generated using pymatgen
data_Ho6Tm2Ti7Si16Tc5
_symmetry_space_group_name_H-M   'P 1'
_cell_length_a   6.90971061
_cell_length_b   6.91946241
_cell_length_c   12.73854510
_cell_angle_alpha   89.81040911
_cell_angle_beta   89.90265795
_cell_angle_gamma   89.93158669
_symmetry_Int_Tables_number   1
_chemical_formula_structural   Ho6Tm2Ti7Si16Tc5
_chemical_formula_sum   'Ho6 Tm2 Ti7 Si16 Tc5'
_cell_volume   609.04408704
_cell_formula_units_Z   1
loop_
 _symmetry_equiv_pos_site_id
 _symmetry_equiv_pos_as_xyz
  1  'x, y, z'
loop_
 _atom_site_type_symbol
 _atom_site_label
 _atom_site_symmetry_multiplicity
 _atom_site_fract_x
 _atom_site_fract_y
 _atom_site_fract_z
 _atom_site_occupancy
  Ho  Ho0  1  0.499582  0.159134  0.218791  1
  Ho  Ho1  1  0.839424  0.498565  0.280099  1
  Ho  Ho2  1  0.159805  0.499284  0.781847  1
  Ho  Ho3  1  0.658953  0.999497  0.968200  1
  Ho  Ho4  1  0.000814  0.340879  0.531297  1
  Ho  Ho5  1  0.997473  0.658365  0.028916  1
  Tm  Tm6  1  0.340472  0.999819  0.470179  1
  Tm  Tm7  1  0.498786  0.840510  0.719688  1
  Ti  Ti8  1  0.493570  0.657959  0.126924  1
  Ti  Ti9  1  0.501590  0.346116  0.628578  1
  Ti  Ti10  1  0.655918  0.496734  0.873227  1
  Ti  Ti11  1  0.346149  0.504994  0.373571  1
  Ti  Ti12  1  0.846246  0.996649  0.376662  1
  Ti  Ti13  1  0.004095  0.155687  0.126048  1
  Ti  Ti14  1  0.996017  0.846909  0.622751  1
  Si  Si15  1  0.197581  0.127255  0.686708  1
  Si  Si16  1  0.375895  0.702231  0.933500  1
  Si  Si17  1  0.627462  0.299074  0.434450  1
  Si  Si18  1  0.700412  0.371480  0.065706  1
  Si  Si19  1  0.300668  0.630582  0.566644  1
  Si  Si20  1  0.800177  0.871079  0.183362  1
  Si  Si21  1  0.129962  0.200217  0.317877  1
  Si  Si22  1  0.874476  0.805931  0.815472  1
  Si  Si23  1  0.289912  0.958848  0.062125  1
  Si  Si24  1  0.546318  0.791537  0.317955  1
  Si  Si25  1  0.446801  0.209647  0.818910  1
  Si  Si26  1  0.789840  0.548981  0.682816  1
  Si  Si27  1  0.209257  0.453734  0.182778  1
  Si  Si28  1  0.707913  0.046076  0.567442  1
  Si  Si29  1  0.962041  0.279500  0.931850  1
  Si  Si30  1  0.046957  0.710499  0.431856  1
  Tc  Tc31  1  0.328835  0.332090  0.001040  1
  Tc  Tc32  1  0.169955  0.830925  0.247682  1
  Tc  Tc33  1  0.825735  0.169658  0.748239  1
  Tc  Tc34  1  0.669689  0.670358  0.500680  1
  Tc  Tc35  1  0.161215  0.989196  0.876132  1
