# generated using pymatgen
data_Tb2Sc8BiSb5
_symmetry_space_group_name_H-M   'P 1'
_cell_length_a   7.76271800
_cell_length_b   8.90007758
_cell_length_c   11.41189574
_cell_angle_alpha   90.04136157
_cell_angle_beta   90.00000000
_cell_angle_gamma   90.00000000
_symmetry_Int_Tables_number   1
_chemical_formula_structural   Tb2Sc8BiSb5
_chemical_formula_sum   'Tb4 Sc16 Bi2 Sb10'
_cell_volume   788.43389081
_cell_formula_units_Z   2
loop_
 _symmetry_equiv_pos_site_id
 _symmetry_equiv_pos_as_xyz
  1  'x, y, z'
loop_
 _atom_site_type_symbol
 _atom_site_label
 _atom_site_symmetry_multiplicity
 _atom_site_fract_x
 _atom_site_fract_y
 _atom_site_fract_z
 _atom_site_occupancy
  Tb  Tb0  1  0.317863  0.250753  0.219196  1
  Tb  Tb1  1  0.817863  0.249247  0.280804  1
  Tb  Tb2  1  0.682900  0.750080  0.780497  1
  Tb  Tb3  1  0.182900  0.749920  0.719503  1
  Sc  Sc4  1  0.348437  0.750458  0.218397  1
  Sc  Sc5  1  0.848437  0.749542  0.281603  1
  Sc  Sc6  1  0.651440  0.250009  0.780996  1
  Sc  Sc7  1  0.151440  0.249991  0.719004  1
  Sc  Sc8  1  0.693054  0.564371  0.060781  1
  Sc  Sc9  1  0.193054  0.935629  0.439219  1
  Sc  Sc10  1  0.308884  0.064416  0.935741  1
  Sc  Sc11  1  0.808884  0.435584  0.564259  1
  Sc  Sc12  1  0.307962  0.436045  0.937111  1
  Sc  Sc13  1  0.807962  0.063955  0.562889  1
  Sc  Sc14  1  0.689793  0.935419  0.062100  1
  Sc  Sc15  1  0.189793  0.564581  0.437900  1
  Sc  Sc16  1  0.478186  0.247839  0.490452  1
  Sc  Sc17  1  0.978186  0.252161  0.009548  1
  Sc  Sc18  1  0.520743  0.752292  0.512757  1
  Sc  Sc19  1  0.020743  0.747708  0.987243  1
  Bi  Bi20  1  0.564149  0.510902  0.328898  1
  Bi  Bi21  1  0.064149  0.989098  0.171102  1
  Sb  Sb22  1  0.403820  0.750000  0.968232  1
  Sb  Sb23  1  0.903820  0.750000  0.531768  1
  Sb  Sb24  1  0.596111  0.250056  0.031677  1
  Sb  Sb25  1  0.096111  0.249944  0.468323  1
  Sb  Sb26  1  0.563189  0.989099  0.329286  1
  Sb  Sb27  1  0.063189  0.510901  0.170714  1
  Sb  Sb28  1  0.436841  0.489221  0.670406  1
  Sb  Sb29  1  0.936841  0.010779  0.829594  1
  Sb  Sb30  1  0.436628  0.010800  0.670973  1
  Sb  Sb31  1  0.936628  0.489200  0.829027  1
