# generated using pymatgen
data_Tb12TlNi4Rh
_symmetry_space_group_name_H-M   'P 1'
_cell_length_a   8.39101169
_cell_length_b   8.39101206
_cell_length_c   8.39101100
_cell_angle_alpha   107.24180695
_cell_angle_beta   109.52111496
_cell_angle_gamma   111.68112753
_symmetry_Int_Tables_number   1
_chemical_formula_structural   Tb12TlNi4Rh
_chemical_formula_sum   'Tb12 Tl1 Ni4 Rh1'
_cell_volume   454.11842603
_cell_formula_units_Z   1
loop_
 _symmetry_equiv_pos_site_id
 _symmetry_equiv_pos_as_xyz
  1  'x, y, z'
loop_
 _atom_site_type_symbol
 _atom_site_label
 _atom_site_symmetry_multiplicity
 _atom_site_fract_x
 _atom_site_fract_y
 _atom_site_fract_z
 _atom_site_occupancy
  Tb  Tb0  1  0.690402  0.288249  0.978651  1
  Tb  Tb1  1  0.309598  0.711751  0.021349  1
  Tb  Tb2  1  0.690402  0.711751  0.402153  1
  Tb  Tb3  1  0.309598  0.288249  0.597847  1
  Tb  Tb4  1  0.806191  0.127838  0.321647  1
  Tb  Tb5  1  0.806191  0.484543  0.678353  1
  Tb  Tb6  1  0.193809  0.872162  0.678353  1
  Tb  Tb7  1  0.193809  0.515457  0.321647  1
  Tb  Tb8  1  0.613885  0.796040  0.817845  1
  Tb  Tb9  1  0.978199  0.796040  0.182155  1
  Tb  Tb10  1  0.021801  0.203960  0.817845  1
  Tb  Tb11  1  0.386115  0.203960  0.182155  1
  Tl  Tl12  1  0.500000  0.000000  0.500000  1
  Ni  Ni13  1  0.866041  0.500000  0.366041  1
  Ni  Ni14  1  0.133959  0.500000  0.633959  1
  Ni  Ni15  1  0.000000  0.124013  0.124013  1
  Ni  Ni16  1  0.000000  0.875987  0.875987  1
  Rh  Rh17  1  0.500000  0.500000  0.000000  1
