# generated using pymatgen
data_K6TlS4Br
_symmetry_space_group_name_H-M   'P 1'
_cell_length_a   10.60809700
_cell_length_b   10.60809819
_cell_length_c   7.76991400
_cell_angle_alpha   90.00000000
_cell_angle_beta   90.00000000
_cell_angle_gamma   120.00000563
_symmetry_Int_Tables_number   1
_chemical_formula_structural   K6TlS4Br
_chemical_formula_sum   'K12 Tl2 S8 Br2'
_cell_volume   757.21957477
_cell_formula_units_Z   2
loop_
 _symmetry_equiv_pos_site_id
 _symmetry_equiv_pos_as_xyz
  1  'x, y, z'
loop_
 _atom_site_type_symbol
 _atom_site_label
 _atom_site_symmetry_multiplicity
 _atom_site_fract_x
 _atom_site_fract_y
 _atom_site_fract_z
 _atom_site_occupancy
  K  K0  1  0.137968  0.862032  0.509092  1
  K  K1  1  0.724063  0.862032  0.509092  1
  K  K2  1  0.938319  0.469159  0.324225  1
  K  K3  1  0.530841  0.469159  0.324225  1
  K  K4  1  0.862032  0.724063  0.009092  1
  K  K5  1  0.275937  0.137968  0.009092  1
  K  K6  1  0.530841  0.061681  0.324225  1
  K  K7  1  0.137968  0.275937  0.509092  1
  K  K8  1  0.862032  0.137968  0.009092  1
  K  K9  1  0.061681  0.530841  0.824225  1
  K  K10  1  0.469159  0.938319  0.824225  1
  K  K11  1  0.469159  0.530841  0.824225  1
  Tl  Tl12  1  0.666667  0.333333  0.711414  1
  Tl  Tl13  1  0.333333  0.666667  0.211414  1
  S  S14  1  0.402700  0.201351  0.604058  1
  S  S15  1  0.597300  0.798649  0.104058  1
  S  S16  1  0.666667  0.333333  0.049113  1
  S  S17  1  0.798649  0.597300  0.604058  1
  S  S18  1  0.201351  0.402700  0.104058  1
  S  S19  1  0.333333  0.666667  0.549113  1
  S  S20  1  0.201351  0.798649  0.104058  1
  S  S21  1  0.798649  0.201351  0.604058  1
  Br  Br22  1  0.000000  0.000000  0.267950  1
  Br  Br23  1  0.000000  0.000000  0.767950  1
