# generated using pymatgen
data_Tm12Ni4AgBi
_symmetry_space_group_name_H-M   'P 1'
_cell_length_a   8.27698212
_cell_length_b   8.28028498
_cell_length_c   8.27866371
_cell_angle_alpha   106.86039949
_cell_angle_beta   109.03581685
_cell_angle_gamma   112.58885886
_symmetry_Int_Tables_number   1
_chemical_formula_structural   Tm12Ni4AgBi
_chemical_formula_sum   'Tm12 Ni4 Ag1 Bi1'
_cell_volume   435.54937351
_cell_formula_units_Z   1
loop_
 _symmetry_equiv_pos_site_id
 _symmetry_equiv_pos_as_xyz
  1  'x, y, z'
loop_
 _atom_site_type_symbol
 _atom_site_label
 _atom_site_symmetry_multiplicity
 _atom_site_fract_x
 _atom_site_fract_y
 _atom_site_fract_z
 _atom_site_occupancy
  Tm  Tm0  1  0.702641  0.277985  0.980620  1
  Tm  Tm1  1  0.297316  0.722270  0.019591  1
  Tm  Tm2  1  0.702641  0.722041  0.424695  1
  Tm  Tm3  1  0.297307  0.277711  0.575002  1
  Tm  Tm4  1  0.808326  0.129936  0.321669  1
  Tm  Tm5  1  0.808300  0.486768  0.678432  1
  Tm  Tm6  1  0.191697  0.870057  0.678362  1
  Tm  Tm7  1  0.191733  0.513239  0.321603  1
  Tm  Tm8  1  0.612812  0.791604  0.821295  1
  Tm  Tm9  1  0.970223  0.791596  0.178706  1
  Tm  Tm10  1  0.029674  0.208356  0.821244  1
  Tm  Tm11  1  0.387197  0.208461  0.178656  1
  Ni  Ni12  1  0.857285  0.499948  0.357388  1
  Ni  Ni13  1  0.142976  0.500011  0.642865  1
  Ni  Ni14  1  0.000080  0.125650  0.125784  1
  Ni  Ni15  1  0.000004  0.874359  0.874309  1
  Ag  Ag16  1  0.499700  0.500004  0.999688  1
  Bi  Bi17  1  0.500084  0.000004  0.500088  1
