# generated using pymatgen
data_Pu3ScAs3
_symmetry_space_group_name_H-M   'P 1'
_cell_length_a   7.53686930
_cell_length_b   7.51609782
_cell_length_c   7.46402053
_cell_angle_alpha   109.37425246
_cell_angle_beta   109.48755622
_cell_angle_gamma   109.88797869
_symmetry_Int_Tables_number   1
_chemical_formula_structural   Pu3ScAs3
_chemical_formula_sum   'Pu6 Sc2 As6'
_cell_volume   324.12489782
_cell_formula_units_Z   2
loop_
 _symmetry_equiv_pos_site_id
 _symmetry_equiv_pos_as_xyz
  1  'x, y, z'
loop_
 _atom_site_type_symbol
 _atom_site_label
 _atom_site_symmetry_multiplicity
 _atom_site_fract_x
 _atom_site_fract_y
 _atom_site_fract_z
 _atom_site_occupancy
  Pu  Pu0  1  0.138614  0.148731  0.140048  1
  Pu  Pu1  1  0.498565  0.008682  0.859952  1
  Pu  Pu2  1  0.855181  0.496484  0.007128  1
  Pu  Pu3  1  0.008273  0.856579  0.499240  1
  Pu  Pu4  1  0.348053  0.489355  0.992872  1
  Pu  Pu5  1  0.009032  0.357339  0.500760  1
  Sc  Sc6  1  0.498294  0.000262  0.358211  1
  Sc  Sc7  1  0.640082  0.642050  0.641789  1
  As  As8  1  0.624578  0.377498  0.268443  1
  As  As9  1  0.272347  0.638307  0.383954  1
  As  As10  1  0.739989  0.869416  0.117528  1
  As  As11  1  0.122461  0.751888  0.882472  1
  As  As12  1  0.388394  0.254354  0.616046  1
  As  As13  1  0.856135  0.109054  0.731557  1
