# generated using pymatgen
data_Er4Ga2(TcOs)3
_symmetry_space_group_name_H-M   'P 1'
_cell_length_a   5.34127338
_cell_length_b   5.32290445
_cell_length_c   8.83106800
_cell_angle_alpha   90.00000000
_cell_angle_beta   90.00000000
_cell_angle_gamma   119.88630876
_symmetry_Int_Tables_number   1
_chemical_formula_structural   Er4Ga2(TcOs)3
_chemical_formula_sum   'Er4 Ga2 Tc3 Os3'
_cell_volume   217.68762362
_cell_formula_units_Z   1
loop_
 _symmetry_equiv_pos_site_id
 _symmetry_equiv_pos_as_xyz
  1  'x, y, z'
loop_
 _atom_site_type_symbol
 _atom_site_label
 _atom_site_symmetry_multiplicity
 _atom_site_fract_x
 _atom_site_fract_y
 _atom_site_fract_z
 _atom_site_occupancy
  Er  Er0  1  0.343899  0.671950  0.443490  1
  Er  Er1  1  0.672174  0.336086  0.566026  1
  Er  Er2  1  0.672174  0.336086  0.933974  1
  Er  Er3  1  0.343899  0.671950  0.056510  1
  Ga  Ga4  1  0.813408  0.160957  0.250000  1
  Ga  Ga5  1  0.813408  0.652451  0.250000  1
  Tc  Tc6  1  0.318595  0.159297  0.250000  1
  Tc  Tc7  1  0.168986  0.833371  0.750000  1
  Tc  Tc8  1  0.168986  0.335614  0.750000  1
  Os  Os9  1  0.017252  0.008626  0.496526  1
  Os  Os10  1  0.017252  0.008626  0.003474  1
  Os  Os11  1  0.649970  0.824985  0.750000  1
