# generated using pymatgen
data_Th7Tc2Ir
_symmetry_space_group_name_H-M   'P 1'
_cell_length_a   10.01685159
_cell_length_b   9.97421599
_cell_length_c   6.33670851
_cell_angle_alpha   90.00000220
_cell_angle_beta   89.85458927
_cell_angle_gamma   119.85929511
_symmetry_Int_Tables_number   1
_chemical_formula_structural   Th7Tc2Ir
_chemical_formula_sum   'Th14 Tc4 Ir2'
_cell_volume   549.05585024
_cell_formula_units_Z   2
loop_
 _symmetry_equiv_pos_site_id
 _symmetry_equiv_pos_as_xyz
  1  'x, y, z'
loop_
 _atom_site_type_symbol
 _atom_site_label
 _atom_site_symmetry_multiplicity
 _atom_site_fract_x
 _atom_site_fract_y
 _atom_site_fract_z
 _atom_site_occupancy
  Th  Th0  1  0.462513  0.541983  0.296239  1
  Th  Th1  1  0.075831  0.537916  0.293029  1
  Th  Th2  1  0.917460  0.458729  0.800233  1
  Th  Th3  1  0.256894  0.128447  0.502681  1
  Th  Th4  1  0.542561  0.081529  0.799368  1
  Th  Th5  1  0.752738  0.876369  0.002581  1
  Th  Th6  1  0.666597  0.333298  0.285352  1
  Th  Th7  1  0.125425  0.875951  0.003526  1
  Th  Th8  1  0.462513  0.920531  0.296239  1
  Th  Th9  1  0.542561  0.461031  0.799368  1
  Th  Th10  1  0.870559  0.123270  0.503228  1
  Th  Th11  1  0.125425  0.249474  0.003526  1
  Th  Th12  1  0.870559  0.747290  0.503228  1
  Th  Th13  1  0.334650  0.667326  0.795291  1
  Tc  Tc14  1  0.816178  0.630931  0.048114  1
  Tc  Tc15  1  0.816178  0.185247  0.048114  1
  Tc  Tc16  1  0.622281  0.811141  0.551806  1
  Tc  Tc17  1  0.369143  0.184571  0.047428  1
  Ir  Ir18  1  0.184968  0.375193  0.552325  1
  Ir  Ir19  1  0.184968  0.809775  0.552325  1
