# generated using pymatgen
data_Ho5Er7InCo6
_symmetry_space_group_name_H-M   'P 1'
_cell_length_a   8.28872972
_cell_length_b   8.29124871
_cell_length_c   8.28873033
_cell_angle_alpha   109.51750361
_cell_angle_beta   109.47816811
_cell_angle_gamma   109.40570048
_symmetry_Int_Tables_number   1
_chemical_formula_structural   Ho5Er7InCo6
_chemical_formula_sum   'Ho5 Er7 In1 Co6'
_cell_volume   438.57065971
_cell_formula_units_Z   1
loop_
 _symmetry_equiv_pos_site_id
 _symmetry_equiv_pos_as_xyz
  1  'x, y, z'
loop_
 _atom_site_type_symbol
 _atom_site_label
 _atom_site_symmetry_multiplicity
 _atom_site_fract_x
 _atom_site_fract_y
 _atom_site_fract_z
 _atom_site_occupancy
  Ho  Ho0  1  0.301887  0.108642  0.806754  1
  Ho  Ho1  1  0.505087  0.806413  0.698424  1
  Ho  Ho2  1  0.495115  0.193473  0.301690  1
  Ho  Ho3  1  0.107989  0.806413  0.301325  1
  Ho  Ho4  1  0.891783  0.193473  0.698359  1
  Er  Er5  1  0.806456  0.697777  0.504311  1
  Er  Er6  1  0.193377  0.302161  0.495421  1
  Er  Er7  1  0.193465  0.697777  0.891321  1
  Er  Er8  1  0.806742  0.302161  0.108785  1
  Er  Er9  1  0.697824  0.504760  0.806937  1
  Er  Er10  1  0.302335  0.495586  0.193250  1
  Er  Er11  1  0.697791  0.890986  0.193195  1
  In  In12  1  0.999855  0.999911  0.000056  1
  Co  Co13  1  0.886003  0.385951  0.499948  1
  Co  Co14  1  0.113915  0.613884  0.499969  1
  Co  Co15  1  0.385978  0.500351  0.886043  1
  Co  Co16  1  0.614308  0.500351  0.114373  1
  Co  Co17  1  0.499969  0.885635  0.385666  1
  Co  Co18  1  0.500123  0.114296  0.614173  1
