# generated using pymatgen
data_Tm20Cd3Ni2Au3
_symmetry_space_group_name_H-M   'P 1'
_cell_length_a   9.45089900
_cell_length_b   9.45091023
_cell_length_c   9.37233100
_cell_angle_alpha   90.00000000
_cell_angle_beta   90.00000000
_cell_angle_gamma   119.99985268
_symmetry_Int_Tables_number   1
_chemical_formula_structural   Tm20Cd3Ni2Au3
_chemical_formula_sum   'Tm20 Cd3 Ni2 Au3'
_cell_volume   724.97938047
_cell_formula_units_Z   1
loop_
 _symmetry_equiv_pos_site_id
 _symmetry_equiv_pos_as_xyz
  1  'x, y, z'
loop_
 _atom_site_type_symbol
 _atom_site_label
 _atom_site_symmetry_multiplicity
 _atom_site_fract_x
 _atom_site_fract_y
 _atom_site_fract_z
 _atom_site_occupancy
  Tm  Tm0  1  0.000021  0.999989  0.460069  1
  Tm  Tm1  1  0.000021  0.999989  0.039931  1
  Tm  Tm2  1  0.541724  0.458217  0.250000  1
  Tm  Tm3  1  0.541778  0.083510  0.250000  1
  Tm  Tm4  1  0.916480  0.458276  0.250000  1
  Tm  Tm5  1  0.457084  0.542882  0.750000  1
  Tm  Tm6  1  0.457138  0.914232  0.750000  1
  Tm  Tm7  1  0.085761  0.542886  0.750000  1
  Tm  Tm8  1  0.210204  0.789831  0.438089  1
  Tm  Tm9  1  0.210152  0.420353  0.438072  1
  Tm  Tm10  1  0.579649  0.789809  0.438070  1
  Tm  Tm11  1  0.790554  0.209449  0.559359  1
  Tm  Tm12  1  0.790537  0.581104  0.559371  1
  Tm  Tm13  1  0.418900  0.209456  0.559370  1
  Tm  Tm14  1  0.790554  0.209449  0.940641  1
  Tm  Tm15  1  0.790537  0.581104  0.940629  1
  Tm  Tm16  1  0.418900  0.209456  0.940630  1
  Tm  Tm17  1  0.210204  0.789831  0.061911  1
  Tm  Tm18  1  0.210152  0.420353  0.061928  1
  Tm  Tm19  1  0.579649  0.789809  0.061930  1
  Cd  Cd20  1  0.110061  0.889952  0.750000  1
  Cd  Cd21  1  0.110049  0.220092  0.750000  1
  Cd  Cd22  1  0.779910  0.889940  0.750000  1
  Ni  Ni23  1  0.333327  0.666676  0.250000  1
  Ni  Ni24  1  0.666673  0.333332  0.750000  1
  Au  Au25  1  0.869649  0.130397  0.250000  1
  Au  Au26  1  0.869563  0.739236  0.250000  1
  Au  Au27  1  0.260767  0.130393  0.250000  1
