# generated using pymatgen
data_Sr21Al7GaSn6Bi
_symmetry_space_group_name_H-M   'P 1'
_cell_length_a   12.20837560
_cell_length_b   12.20837576
_cell_length_c   12.20837458
_cell_angle_alpha   60.02722640
_cell_angle_beta   60.02722440
_cell_angle_gamma   60.02722004
_symmetry_Int_Tables_number   1
_chemical_formula_structural   Sr21Al7GaSn6Bi
_chemical_formula_sum   'Sr21 Al7 Ga1 Sn6 Bi1'
_cell_volume   1287.43866431
_cell_formula_units_Z   1
loop_
 _symmetry_equiv_pos_site_id
 _symmetry_equiv_pos_as_xyz
  1  'x, y, z'
loop_
 _atom_site_type_symbol
 _atom_site_label
 _atom_site_symmetry_multiplicity
 _atom_site_fract_x
 _atom_site_fract_y
 _atom_site_fract_z
 _atom_site_occupancy
  Sr  Sr0  1  0.871201  0.871201  0.386244  1
  Sr  Sr1  1  0.612611  0.129519  0.129519  1
  Sr  Sr2  1  0.871201  0.386244  0.871201  1
  Sr  Sr3  1  0.128951  0.128951  0.128951  1
  Sr  Sr4  1  0.386244  0.871201  0.871201  1
  Sr  Sr5  1  0.871217  0.871217  0.871217  1
  Sr  Sr6  1  0.179117  0.820821  0.500054  1
  Sr  Sr7  1  0.820157  0.500244  0.500244  1
  Sr  Sr8  1  0.129519  0.129519  0.612611  1
  Sr  Sr9  1  0.820821  0.179117  0.500054  1
  Sr  Sr10  1  0.178877  0.498901  0.498901  1
  Sr  Sr11  1  0.129519  0.612611  0.129519  1
  Sr  Sr12  1  0.498901  0.498901  0.178877  1
  Sr  Sr13  1  0.500054  0.179117  0.820821  1
  Sr  Sr14  1  0.500054  0.820821  0.179117  1
  Sr  Sr15  1  0.500244  0.500244  0.820157  1
  Sr  Sr16  1  0.498901  0.178877  0.498901  1
  Sr  Sr17  1  0.179117  0.500054  0.820821  1
  Sr  Sr18  1  0.999866  0.999866  0.999866  1
  Sr  Sr19  1  0.500244  0.820157  0.500244  1
  Sr  Sr20  1  0.820821  0.500054  0.179117  1
  Al  Al21  1  0.693823  0.918009  0.693823  1
  Al  Al22  1  0.693823  0.693823  0.918009  1
  Al  Al23  1  0.693828  0.693828  0.693828  1
  Al  Al24  1  0.306259  0.083012  0.306259  1
  Al  Al25  1  0.918009  0.693823  0.693823  1
  Al  Al26  1  0.306259  0.306259  0.083012  1
  Al  Al27  1  0.083012  0.306259  0.306259  1
  Ga  Ga28  1  0.307242  0.307242  0.307242  1
  Sn  Sn29  1  0.787108  0.212784  0.787108  1
  Sn  Sn30  1  0.786910  0.213193  0.213193  1
  Sn  Sn31  1  0.213193  0.786910  0.213193  1
  Sn  Sn32  1  0.212784  0.787108  0.787108  1
  Sn  Sn33  1  0.787108  0.787108  0.212784  1
  Sn  Sn34  1  0.213193  0.213193  0.786910  1
  Bi  Bi35  1  0.499811  0.499811  0.499811  1
