# generated using pymatgen
data_LaYbNbIr3
_symmetry_space_group_name_H-M   'P 1'
_cell_length_a   5.30172682
_cell_length_b   5.30172611
_cell_length_c   5.30172573
_cell_angle_alpha   65.60168687
_cell_angle_beta   65.60169157
_cell_angle_gamma   65.60167570
_symmetry_Int_Tables_number   1
_chemical_formula_structural   LaYbNbIr3
_chemical_formula_sum   'La1 Yb1 Nb1 Ir3'
_cell_volume   118.19562253
_cell_formula_units_Z   1
loop_
 _symmetry_equiv_pos_site_id
 _symmetry_equiv_pos_as_xyz
  1  'x, y, z'
loop_
 _atom_site_type_symbol
 _atom_site_label
 _atom_site_symmetry_multiplicity
 _atom_site_fract_x
 _atom_site_fract_y
 _atom_site_fract_z
 _atom_site_occupancy
  La  La0  1  0.248336  0.248336  0.248336  1
  Yb  Yb1  1  0.998141  0.998141  0.998141  1
  Nb  Nb2  1  0.624645  0.624645  0.624645  1
  Ir  Ir3  1  0.627662  0.627662  0.123555  1
  Ir  Ir4  1  0.627662  0.123555  0.627662  1
  Ir  Ir5  1  0.123555  0.627662  0.627662  1
