# generated using pymatgen
data_CeNd4Er3(CdRu)2
_symmetry_space_group_name_H-M   'P 1'
_cell_length_a   9.85462694
_cell_length_b   9.70294827
_cell_length_c   9.76168212
_cell_angle_alpha   59.65467107
_cell_angle_beta   59.68452750
_cell_angle_gamma   59.48152745
_symmetry_Int_Tables_number   1
_chemical_formula_structural   CeNd4Er3(CdRu)2
_chemical_formula_sum   'Ce2 Nd8 Er6 Cd4 Ru4'
_cell_volume   654.11314077
_cell_formula_units_Z   2
loop_
 _symmetry_equiv_pos_site_id
 _symmetry_equiv_pos_as_xyz
  1  'x, y, z'
loop_
 _atom_site_type_symbol
 _atom_site_label
 _atom_site_symmetry_multiplicity
 _atom_site_fract_x
 _atom_site_fract_y
 _atom_site_fract_z
 _atom_site_occupancy
  Ce  Ce0  1  0.976076  0.340600  0.336876  1
  Ce  Ce1  1  0.346449  0.340600  0.336876  1
  Nd  Nd2  1  0.557868  0.560116  0.943050  1
  Nd  Nd3  1  0.938966  0.560116  0.943050  1
  Nd  Nd4  1  0.557890  0.938726  0.945495  1
  Nd  Nd5  1  0.941708  0.941187  0.555857  1
  Nd  Nd6  1  0.561248  0.941187  0.555857  1
  Nd  Nd7  1  0.940835  0.562346  0.555984  1
  Nd  Nd8  1  0.189052  0.186318  0.813910  1
  Nd  Nd9  1  0.810719  0.186318  0.813910  1
  Er  Er10  1  0.188702  0.809396  0.813198  1
  Er  Er11  1  0.812680  0.812824  0.189666  1
  Er  Er12  1  0.184830  0.812823  0.189665  1
  Er  Er13  1  0.811442  0.185760  0.191357  1
  Er  Er14  1  0.345866  0.348918  0.959350  1
  Er  Er15  1  0.348031  0.956164  0.347776  1
  Cd  Cd16  1  0.580203  0.578165  0.261427  1
  Cd  Cd17  1  0.580627  0.261289  0.577454  1
  Cd  Cd18  1  0.262584  0.580449  0.578597  1
  Cd  Cd19  1  0.578367  0.580449  0.578597  1
  Ru  Ru20  1  0.141295  0.149021  0.568388  1
  Ru  Ru21  1  0.139135  0.573306  0.148423  1
  Ru  Ru22  1  0.572752  0.146960  0.147615  1
  Ru  Ru23  1  0.132673  0.146960  0.147615  1
