# generated using pymatgen
data_TbMgScB2Rh5
_symmetry_space_group_name_H-M   'P 1'
_cell_length_a   9.57863166
_cell_length_b   9.57863166
_cell_length_c   3.12847800
_cell_angle_alpha   90.00000000
_cell_angle_beta   90.00000000
_cell_angle_gamma   91.61022261
_symmetry_Int_Tables_number   1
_chemical_formula_structural   TbMgScB2Rh5
_chemical_formula_sum   'Tb2 Mg2 Sc2 B4 Rh10'
_cell_volume   286.92508688
_cell_formula_units_Z   2
loop_
 _symmetry_equiv_pos_site_id
 _symmetry_equiv_pos_as_xyz
  1  'x, y, z'
loop_
 _atom_site_type_symbol
 _atom_site_label
 _atom_site_symmetry_multiplicity
 _atom_site_fract_x
 _atom_site_fract_y
 _atom_site_fract_z
 _atom_site_occupancy
  Tb  Tb0  1  0.177504  0.322496  0.000000  1
  Tb  Tb1  1  0.822496  0.677504  0.000000  1
  Mg  Mg2  1  0.000000  0.000000  0.000000  1
  Mg  Mg3  1  0.500000  0.500000  0.000000  1
  Sc  Sc4  1  0.674565  0.174565  0.000000  1
  Sc  Sc5  1  0.325435  0.825435  0.000000  1
  B  B6  1  0.126096  0.626096  0.000000  1
  B  B7  1  0.873904  0.373904  0.000000  1
  B  B8  1  0.621314  0.878686  0.000000  1
  B  B9  1  0.378686  0.121314  0.000000  1
  Rh  Rh10  1  0.500000  0.000000  0.500000  1
  Rh  Rh11  1  0.000000  0.500000  0.500000  1
  Rh  Rh12  1  0.226449  0.062593  0.500000  1
  Rh  Rh13  1  0.773551  0.937407  0.500000  1
  Rh  Rh14  1  0.078467  0.780171  0.500000  1
  Rh  Rh15  1  0.719829  0.421533  0.500000  1
  Rh  Rh16  1  0.921533  0.219829  0.500000  1
  Rh  Rh17  1  0.280171  0.578467  0.500000  1
  Rh  Rh18  1  0.562593  0.726449  0.500000  1
  Rh  Rh19  1  0.437407  0.273551  0.500000  1
