# generated using pymatgen
data_Ho10In8Co3Cu
_symmetry_space_group_name_H-M   'P 1'
_cell_length_a   3.56143400
_cell_length_b   8.01258846
_cell_length_c   17.94511665
_cell_angle_alpha   90.11292196
_cell_angle_beta   90.00000000
_cell_angle_gamma   90.00000000
_symmetry_Int_Tables_number   1
_chemical_formula_structural   Ho10In8Co3Cu
_chemical_formula_sum   'Ho10 In8 Co3 Cu1'
_cell_volume   512.08632684
_cell_formula_units_Z   1
loop_
 _symmetry_equiv_pos_site_id
 _symmetry_equiv_pos_as_xyz
  1  'x, y, z'
loop_
 _atom_site_type_symbol
 _atom_site_label
 _atom_site_symmetry_multiplicity
 _atom_site_fract_x
 _atom_site_fract_y
 _atom_site_fract_z
 _atom_site_occupancy
  Ho  Ho0  1  0.000000  0.500349  0.500458  1
  Ho  Ho1  1  0.000000  0.001265  0.998974  1
  Ho  Ho2  1  0.000000  0.762597  0.281220  1
  Ho  Ho3  1  0.000000  0.252231  0.722053  1
  Ho  Ho4  1  0.000000  0.753982  0.777376  1
  Ho  Ho5  1  0.000000  0.226899  0.223335  1
  Ho  Ho6  1  0.000000  0.620101  0.084397  1
  Ho  Ho7  1  0.000000  0.384321  0.908267  1
  Ho  Ho8  1  0.000000  0.883386  0.591451  1
  Ho  Ho9  1  0.000000  0.116112  0.412126  1
  In  In10  1  0.500000  0.705448  0.929204  1
  In  In11  1  0.500000  0.295143  0.067645  1
  In  In12  1  0.500000  0.795112  0.432571  1
  In  In13  1  0.500000  0.204499  0.569194  1
  In  In14  1  0.500000  0.566411  0.651962  1
  In  In15  1  0.500000  0.425828  0.348384  1
  In  In16  1  0.500000  0.926195  0.150829  1
  In  In17  1  0.500000  0.069127  0.847913  1
  Co  Co18  1  0.500000  0.482456  0.803656  1
  Co  Co19  1  0.500000  0.982663  0.695644  1
  Co  Co20  1  0.500000  0.022931  0.304919  1
  Cu  Cu21  1  0.500000  0.522945  0.198425  1
