# generated using pymatgen
data_Er3Al12FeCoCuRu
_symmetry_space_group_name_H-M   'P 1'
_cell_length_a   8.71027200
_cell_length_b   8.69253307
_cell_length_c   9.33242900
_cell_angle_alpha   90.00000000
_cell_angle_beta   90.00000000
_cell_angle_gamma   119.41591871
_symmetry_Int_Tables_number   1
_chemical_formula_structural   Er3Al12FeCoCuRu
_chemical_formula_sum   'Er6 Al24 Fe2 Co2 Cu2 Ru2'
_cell_volume   615.50204949
_cell_formula_units_Z   2
loop_
 _symmetry_equiv_pos_site_id
 _symmetry_equiv_pos_as_xyz
  1  'x, y, z'
loop_
 _atom_site_type_symbol
 _atom_site_label
 _atom_site_symmetry_multiplicity
 _atom_site_fract_x
 _atom_site_fract_y
 _atom_site_fract_z
 _atom_site_occupancy
  Er  Er0  1  0.190237  0.387824  0.250000  1
  Er  Er1  1  0.809763  0.612176  0.750000  1
  Er  Er2  1  0.614065  0.809041  0.250000  1
  Er  Er3  1  0.385935  0.190959  0.750000  1
  Er  Er4  1  0.194530  0.803309  0.250000  1
  Er  Er5  1  0.805470  0.196691  0.750000  1
  Al  Al6  1  0.334889  0.673121  0.020222  1
  Al  Al7  1  0.665111  0.326879  0.979778  1
  Al  Al8  1  0.665111  0.326879  0.520222  1
  Al  Al9  1  0.334889  0.673121  0.479778  1
  Al  Al10  1  0.154622  0.317942  0.577109  1
  Al  Al11  1  0.845378  0.682058  0.422891  1
  Al  Al12  1  0.681446  0.848175  0.576952  1
  Al  Al13  1  0.845378  0.682058  0.077109  1
  Al  Al14  1  0.318554  0.151825  0.423048  1
  Al  Al15  1  0.154622  0.317942  0.922891  1
  Al  Al16  1  0.163407  0.840662  0.577475  1
  Al  Al17  1  0.318554  0.151825  0.076952  1
  Al  Al18  1  0.836593  0.159338  0.422525  1
  Al  Al19  1  0.681446  0.848175  0.923048  1
  Al  Al20  1  0.836593  0.159338  0.077475  1
  Al  Al21  1  0.163407  0.840662  0.922525  1
  Al  Al22  1  0.557979  0.117285  0.250000  1
  Al  Al23  1  0.442021  0.882715  0.750000  1
  Al  Al24  1  0.875302  0.437913  0.250000  1
  Al  Al25  1  0.124698  0.562087  0.750000  1
  Al  Al26  1  0.560470  0.437858  0.250000  1
  Al  Al27  1  0.439530  0.562142  0.750000  1
  Al  Al28  1  0.998141  0.000432  0.250000  1
  Al  Al29  1  0.001859  0.999568  0.750000  1
  Fe  Fe30  1  0.000000  0.000000  0.000000  1
  Fe  Fe31  1  0.000000  0.000000  0.500000  1
  Co  Co32  1  0.500000  0.000000  0.000000  1
  Co  Co33  1  0.500000  0.000000  0.500000  1
  Cu  Cu34  1  0.500000  0.500000  0.000000  1
  Cu  Cu35  1  0.500000  0.500000  0.500000  1
  Ru  Ru36  1  0.000000  0.500000  0.000000  1
  Ru  Ru37  1  0.000000  0.500000  0.500000  1
