# generated using pymatgen
data_Tb2Ce3Er(Al3Ru)8
_symmetry_space_group_name_H-M   'P 1'
_cell_length_a   8.86406452
_cell_length_b   8.83825221
_cell_length_c   9.57211500
_cell_angle_alpha   90.00000000
_cell_angle_beta   90.00000000
_cell_angle_gamma   119.90371400
_symmetry_Int_Tables_number   1
_chemical_formula_structural   Tb2Ce3Er(Al3Ru)8
_chemical_formula_sum   'Tb2 Ce3 Er1 Al24 Ru8'
_cell_volume   650.06740649
_cell_formula_units_Z   1
loop_
 _symmetry_equiv_pos_site_id
 _symmetry_equiv_pos_as_xyz
  1  'x, y, z'
loop_
 _atom_site_type_symbol
 _atom_site_label
 _atom_site_symmetry_multiplicity
 _atom_site_fract_x
 _atom_site_fract_y
 _atom_site_fract_z
 _atom_site_occupancy
  Tb  Tb0  1  0.191901  0.807638  0.750000  1
  Tb  Tb1  1  0.191901  0.384262  0.750000  1
  Ce  Ce2  1  0.388654  0.194326  0.250000  1
  Ce  Ce3  1  0.806609  0.195150  0.250000  1
  Ce  Ce4  1  0.806609  0.611458  0.250000  1
  Er  Er5  1  0.613413  0.806706  0.750000  1
  Al  Al6  1  0.437289  0.873970  0.250000  1
  Al  Al7  1  0.126364  0.563182  0.250000  1
  Al  Al8  1  0.437289  0.563319  0.250000  1
  Al  Al9  1  0.559097  0.118179  0.750000  1
  Al  Al10  1  0.881267  0.440633  0.750000  1
  Al  Al11  1  0.559097  0.440918  0.750000  1
  Al  Al12  1  0.163005  0.837396  0.424225  1
  Al  Al13  1  0.163005  0.325609  0.424225  1
  Al  Al14  1  0.674724  0.837362  0.424900  1
  Al  Al15  1  0.837505  0.161436  0.579432  1
  Al  Al16  1  0.837505  0.676069  0.579432  1
  Al  Al17  1  0.324261  0.162130  0.579539  1
  Al  Al18  1  0.837505  0.161436  0.920568  1
  Al  Al19  1  0.837505  0.676069  0.920568  1
  Al  Al20  1  0.324261  0.162130  0.920461  1
  Al  Al21  1  0.163005  0.837396  0.075775  1
  Al  Al22  1  0.163005  0.325609  0.075775  1
  Al  Al23  1  0.674724  0.837362  0.075100  1
  Al  Al24  1  0.333033  0.666517  0.518267  1
  Al  Al25  1  0.667087  0.333543  0.494983  1
  Al  Al26  1  0.667087  0.333543  0.005017  1
  Al  Al27  1  0.333033  0.666517  0.981733  1
  Al  Al28  1  0.001096  0.000548  0.250000  1
  Al  Al29  1  0.997588  0.998794  0.750000  1
  Ru  Ru30  1  0.000276  0.000138  0.500719  1
  Ru  Ru31  1  0.000276  0.000138  0.999281  1
  Ru  Ru32  1  0.501120  0.001513  0.497205  1
  Ru  Ru33  1  0.998275  0.499137  0.496729  1
  Ru  Ru34  1  0.501120  0.499606  0.497205  1
  Ru  Ru35  1  0.501120  0.001513  0.002795  1
  Ru  Ru36  1  0.998275  0.499137  0.003271  1
  Ru  Ru37  1  0.501120  0.499606  0.002795  1
