# generated using pymatgen
data_La3Nd17(SiSb2)4
_symmetry_space_group_name_H-M   'P 1'
_cell_length_a   8.25185384
_cell_length_b   9.35731600
_cell_length_c   12.55103868
_cell_angle_alpha   90.00000000
_cell_angle_beta   90.14851423
_cell_angle_gamma   90.00000000
_symmetry_Int_Tables_number   1
_chemical_formula_structural   La3Nd17(SiSb2)4
_chemical_formula_sum   'La3 Nd17 Si4 Sb8'
_cell_volume   969.12775592
_cell_formula_units_Z   1
loop_
 _symmetry_equiv_pos_site_id
 _symmetry_equiv_pos_as_xyz
  1  'x, y, z'
loop_
 _atom_site_type_symbol
 _atom_site_label
 _atom_site_symmetry_multiplicity
 _atom_site_fract_x
 _atom_site_fract_y
 _atom_site_fract_z
 _atom_site_occupancy
  La  La0  1  0.657635  0.250000  0.287293  1
  La  La1  1  0.842094  0.250000  0.786576  1
  La  La2  1  0.157449  0.750000  0.212630  1
  Nd  Nd3  1  0.036409  0.750000  0.501131  1
  Nd  Nd4  1  0.965397  0.250000  0.499441  1
  Nd  Nd5  1  0.535267  0.250000  0.998245  1
  Nd  Nd6  1  0.463330  0.750000  0.000692  1
  Nd  Nd7  1  0.865017  0.750000  0.792825  1
  Nd  Nd8  1  0.135623  0.250000  0.206993  1
  Nd  Nd9  1  0.364052  0.250000  0.706780  1
  Nd  Nd10  1  0.635035  0.750000  0.293963  1
  Nd  Nd11  1  0.691006  0.543393  0.563423  1
  Nd  Nd12  1  0.309100  0.457005  0.437555  1
  Nd  Nd13  1  0.191040  0.457656  0.936912  1
  Nd  Nd14  1  0.309100  0.042995  0.437555  1
  Nd  Nd15  1  0.808588  0.543203  0.062199  1
  Nd  Nd16  1  0.691006  0.956607  0.563423  1
  Nd  Nd17  1  0.808588  0.956797  0.062199  1
  Nd  Nd18  1  0.191040  0.042344  0.936912  1
  Nd  Nd19  1  0.343088  0.750000  0.711706  1
  Si  Si20  1  0.073131  0.750000  0.981451  1
  Si  Si21  1  0.925999  0.250000  0.018628  1
  Si  Si22  1  0.574522  0.250000  0.519340  1
  Si  Si23  1  0.426360  0.750000  0.483077  1
  Sb  Sb24  1  0.572932  0.510632  0.826336  1
  Sb  Sb25  1  0.425381  0.490947  0.172462  1
  Sb  Sb26  1  0.076545  0.492444  0.673152  1
  Sb  Sb27  1  0.425381  0.009053  0.172462  1
  Sb  Sb28  1  0.925205  0.509080  0.327575  1
  Sb  Sb29  1  0.572932  0.989368  0.826336  1
  Sb  Sb30  1  0.925205  0.990920  0.327575  1
  Sb  Sb31  1  0.076545  0.007556  0.673152  1
