# generated using pymatgen
data_HoTc3As4Rh3
_symmetry_space_group_name_H-M   'P 1'
_cell_length_a   7.20829200
_cell_length_b   7.20848736
_cell_length_c   3.90531300
_cell_angle_alpha   90.00000000
_cell_angle_beta   90.00000000
_cell_angle_gamma   120.00089293
_symmetry_Int_Tables_number   1
_chemical_formula_structural   HoTc3As4Rh3
_chemical_formula_sum   'Ho1 Tc3 As4 Rh3'
_cell_volume   175.73533095
_cell_formula_units_Z   1
loop_
 _symmetry_equiv_pos_site_id
 _symmetry_equiv_pos_as_xyz
  1  'x, y, z'
loop_
 _atom_site_type_symbol
 _atom_site_label
 _atom_site_symmetry_multiplicity
 _atom_site_fract_x
 _atom_site_fract_y
 _atom_site_fract_z
 _atom_site_occupancy
  Ho  Ho0  1  0.999990  0.999995  0.000000  1
  Tc  Tc1  1  0.536131  0.072254  0.000000  1
  Tc  Tc2  1  0.536131  0.463876  0.000000  1
  Tc  Tc3  1  0.927761  0.463880  0.000000  1
  As  As4  1  0.808545  0.617066  0.500000  1
  As  As5  1  0.333329  0.666665  0.000000  1
  As  As6  1  0.382900  0.191449  0.500000  1
  As  As7  1  0.808545  0.191479  0.500000  1
  Rh  Rh8  1  0.606767  0.803384  0.500000  1
  Rh  Rh9  1  0.196617  0.393211  0.500000  1
  Rh  Rh10  1  0.196617  0.803406  0.500000  1
