# generated using pymatgen
data_Dy4CoB16Ir3
_symmetry_space_group_name_H-M   'P 1'
_cell_length_a   3.54101500
_cell_length_b   5.96120166
_cell_length_c   11.54980301
_cell_angle_alpha   89.85674366
_cell_angle_beta   90.00000000
_cell_angle_gamma   90.00000000
_symmetry_Int_Tables_number   1
_chemical_formula_structural   Dy4CoB16Ir3
_chemical_formula_sum   'Dy4 Co1 B16 Ir3'
_cell_volume   243.80061692
_cell_formula_units_Z   1
loop_
 _symmetry_equiv_pos_site_id
 _symmetry_equiv_pos_as_xyz
  1  'x, y, z'
loop_
 _atom_site_type_symbol
 _atom_site_label
 _atom_site_symmetry_multiplicity
 _atom_site_fract_x
 _atom_site_fract_y
 _atom_site_fract_z
 _atom_site_occupancy
  Dy  Dy0  1  0.500000  0.372522  0.147311  1
  Dy  Dy1  1  0.500000  0.629658  0.854476  1
  Dy  Dy2  1  0.500000  0.130726  0.649861  1
  Dy  Dy3  1  0.500000  0.869303  0.346145  1
  Co  Co4  1  0.500000  0.857745  0.095502  1
  B  B5  1  0.000000  0.111260  0.046738  1
  B  B6  1  0.000000  0.887008  0.955149  1
  B  B7  1  0.000000  0.387684  0.546447  1
  B  B8  1  0.000000  0.612901  0.452285  1
  B  B9  1  0.000000  0.135969  0.468325  1
  B  B10  1  0.000000  0.864267  0.530026  1
  B  B11  1  0.000000  0.364237  0.969698  1
  B  B12  1  0.000000  0.639350  0.032914  1
  B  B13  1  0.000000  0.020349  0.189756  1
  B  B14  1  0.000000  0.976090  0.808872  1
  B  B15  1  0.000000  0.473658  0.692702  1
  B  B16  1  0.000000  0.526731  0.306083  1
  B  B17  1  0.000000  0.209693  0.310878  1
  B  B18  1  0.000000  0.790478  0.688369  1
  B  B19  1  0.000000  0.288602  0.814261  1
  B  B20  1  0.000000  0.715103  0.183863  1
  Ir  Ir21  1  0.500000  0.356989  0.404282  1
  Ir  Ir22  1  0.500000  0.644695  0.596878  1
  Ir  Ir23  1  0.500000  0.134981  0.909179  1
