# generated using pymatgen
data_Eu2Th(SnRh)3
_symmetry_space_group_name_H-M   'P 1'
_cell_length_a   7.49143749
_cell_length_b   7.68667181
_cell_length_c   4.15896800
_cell_angle_alpha   90.00000000
_cell_angle_beta   90.00000000
_cell_angle_gamma   120.86589829
_symmetry_Int_Tables_number   1
_chemical_formula_structural   Eu2Th(SnRh)3
_chemical_formula_sum   'Eu2 Th1 Sn3 Rh3'
_cell_volume   205.57193035
_cell_formula_units_Z   1
loop_
 _symmetry_equiv_pos_site_id
 _symmetry_equiv_pos_as_xyz
  1  'x, y, z'
loop_
 _atom_site_type_symbol
 _atom_site_label
 _atom_site_symmetry_multiplicity
 _atom_site_fract_x
 _atom_site_fract_y
 _atom_site_fract_z
 _atom_site_occupancy
  Eu  Eu0  1  0.411481  0.412806  0.500000  1
  Eu  Eu1  1  0.588519  0.001325  0.500000  1
  Th  Th2  1  0.000000  0.586488  0.500000  1
  Sn  Sn3  1  0.736382  0.748479  0.000000  1
  Sn  Sn4  1  0.263618  0.012096  0.000000  1
  Sn  Sn5  1  0.000000  0.237799  0.000000  1
  Rh  Rh6  1  0.700508  0.360642  0.000000  1
  Rh  Rh7  1  0.299492  0.660135  0.000000  1
  Rh  Rh8  1  0.000000  0.980229  0.500000  1
