# generated using pymatgen
data_KAlPd3O8
_symmetry_space_group_name_H-M   'P 1'
_cell_length_a   3.07843588
_cell_length_b   7.35131243
_cell_length_c   7.26313022
_cell_angle_alpha   92.48784689
_cell_angle_beta   102.22343961
_cell_angle_gamma   77.86885071
_symmetry_Int_Tables_number   1
_chemical_formula_structural   KAlPd3O8
_chemical_formula_sum   'K1 Al1 Pd3 O8'
_cell_volume   157.05486440
_cell_formula_units_Z   1
loop_
 _symmetry_equiv_pos_site_id
 _symmetry_equiv_pos_as_xyz
  1  'x, y, z'
loop_
 _atom_site_type_symbol
 _atom_site_label
 _atom_site_symmetry_multiplicity
 _atom_site_fract_x
 _atom_site_fract_y
 _atom_site_fract_z
 _atom_site_occupancy
  K  K0  1  0.049684  0.017028  0.009208  1
  Al  Al1  1  0.679609  0.485507  0.813002  1
  Pd  Pd2  1  0.346230  0.515371  0.176059  1
  Pd  Pd3  1  0.873194  0.813538  0.526883  1
  Pd  Pd4  1  0.169813  0.183380  0.489993  1
  O  O5  1  0.972065  0.360156  0.272062  1
  O  O6  1  0.068591  0.607056  0.712656  1
  O  O7  1  0.685208  0.294224  0.632282  1
  O  O8  1  0.340969  0.722286  0.371129  1
  O  O9  1  0.712626  0.643416  0.036954  1
  O  O10  1  0.307794  0.358994  0.940807  1
  O  O11  1  0.671192  0.048240  0.355680  1
  O  O12  1  0.373026  0.950805  0.663287  1
