# generated using pymatgen
data_La3Pr5TiPd24
_symmetry_space_group_name_H-M   'P 1'
_cell_length_a   8.55209065
_cell_length_b   8.55209065
_cell_length_c   8.55155713
_cell_angle_alpha   89.98575352
_cell_angle_beta   90.01424648
_cell_angle_gamma   90.04250329
_symmetry_Int_Tables_number   1
_chemical_formula_structural   La3Pr5TiPd24
_chemical_formula_sum   'La3 Pr5 Ti1 Pd24'
_cell_volume   625.44575168
_cell_formula_units_Z   1
loop_
 _symmetry_equiv_pos_site_id
 _symmetry_equiv_pos_as_xyz
  1  'x, y, z'
loop_
 _atom_site_type_symbol
 _atom_site_label
 _atom_site_symmetry_multiplicity
 _atom_site_fract_x
 _atom_site_fract_y
 _atom_site_fract_z
 _atom_site_occupancy
  La  La0  1  0.253283  0.746717  0.253208  1
  La  La1  1  0.253266  0.746734  0.746837  1
  La  La2  1  0.746672  0.253328  0.253359  1
  Pr  Pr3  1  0.252358  0.252341  0.252456  1
  Pr  Pr4  1  0.747584  0.747461  0.747483  1
  Pr  Pr5  1  0.747659  0.747642  0.252456  1
  Pr  Pr6  1  0.747512  0.252488  0.747613  1
  Pr  Pr7  1  0.252539  0.252416  0.747483  1
  Ti  Ti8  1  0.999564  0.000436  0.999564  1
  Pd  Pd9  1  0.263113  0.500122  0.999941  1
  Pd  Pd10  1  0.736846  0.499879  0.000040  1
  Pd  Pd11  1  0.999858  0.263144  0.499960  1
  Pd  Pd12  1  0.500121  0.263154  0.000040  1
  Pd  Pd13  1  0.000125  0.736898  0.500048  1
  Pd  Pd14  1  0.499878  0.736887  0.999941  1
  Pd  Pd15  1  0.500047  0.000058  0.263107  1
  Pd  Pd16  1  0.263102  0.999875  0.500048  1
  Pd  Pd17  1  0.499958  0.999955  0.736844  1
  Pd  Pd18  1  0.736856  0.000142  0.499960  1
  Pd  Pd19  1  0.999942  0.499953  0.263107  1
  Pd  Pd20  1  0.000045  0.500042  0.736844  1
  Pd  Pd21  1  0.254311  0.500116  0.500046  1
  Pd  Pd22  1  0.745719  0.499881  0.499957  1
  Pd  Pd23  1  0.500119  0.254281  0.499957  1
  Pd  Pd24  1  0.499884  0.745689  0.500046  1
  Pd  Pd25  1  0.500044  0.499956  0.254296  1
  Pd  Pd26  1  0.499956  0.500044  0.745718  1
  Pd  Pd27  1  0.297579  0.000277  0.000005  1
  Pd  Pd28  1  0.702327  0.999849  0.999854  1
  Pd  Pd29  1  0.000151  0.297673  0.999854  1
  Pd  Pd30  1  0.999723  0.702421  0.000005  1
  Pd  Pd31  1  0.000004  0.999996  0.297582  1
  Pd  Pd32  1  0.999855  0.000145  0.702339  1
