# generated using pymatgen
data_LaNd2(ZnRh2)3
_symmetry_space_group_name_H-M   'P 1'
_cell_length_a   5.50013900
_cell_length_b   5.50013866
_cell_length_c   16.21806300
_cell_angle_alpha   90.00000000
_cell_angle_beta   90.00000000
_cell_angle_gamma   119.99999600
_symmetry_Int_Tables_number   1
_chemical_formula_structural   LaNd2(ZnRh2)3
_chemical_formula_sum   'La2 Nd4 Zn6 Rh12'
_cell_volume   424.89041708
_cell_formula_units_Z   2
loop_
 _symmetry_equiv_pos_site_id
 _symmetry_equiv_pos_as_xyz
  1  'x, y, z'
loop_
 _atom_site_type_symbol
 _atom_site_label
 _atom_site_symmetry_multiplicity
 _atom_site_fract_x
 _atom_site_fract_y
 _atom_site_fract_z
 _atom_site_occupancy
  La  La0  1  0.333333  0.666667  0.750000  1
  La  La1  1  0.666667  0.333333  0.250000  1
  Nd  Nd2  1  0.333333  0.666667  0.540814  1
  Nd  Nd3  1  0.666667  0.333333  0.459186  1
  Nd  Nd4  1  0.666667  0.333333  0.040814  1
  Nd  Nd5  1  0.333333  0.666667  0.959186  1
  Zn  Zn6  1  0.000000  0.000000  0.250000  1
  Zn  Zn7  1  0.000000  0.000000  0.750000  1
  Zn  Zn8  1  0.333333  0.666667  0.250000  1
  Zn  Zn9  1  0.666667  0.333333  0.750000  1
  Zn  Zn10  1  0.000000  0.000000  0.000000  1
  Zn  Zn11  1  0.000000  0.000000  0.500000  1
  Rh  Rh12  1  0.167715  0.335430  0.125199  1
  Rh  Rh13  1  0.832285  0.664570  0.874801  1
  Rh  Rh14  1  0.664570  0.832285  0.125199  1
  Rh  Rh15  1  0.832285  0.664570  0.625199  1
  Rh  Rh16  1  0.335430  0.167715  0.874801  1
  Rh  Rh17  1  0.167715  0.335430  0.374801  1
  Rh  Rh18  1  0.167715  0.832285  0.125199  1
  Rh  Rh19  1  0.335430  0.167715  0.625199  1
  Rh  Rh20  1  0.832285  0.167715  0.874801  1
  Rh  Rh21  1  0.664570  0.832285  0.374801  1
  Rh  Rh22  1  0.832285  0.167715  0.625199  1
  Rh  Rh23  1  0.167715  0.832285  0.374801  1
