# generated using pymatgen
data_CaYb3(CuSi3)2
_symmetry_space_group_name_H-M   'P 1'
_cell_length_a   8.17839309
_cell_length_b   8.05717173
_cell_length_c   5.86303095
_cell_angle_alpha   69.93974513
_cell_angle_beta   67.73018060
_cell_angle_gamma   42.33006887
_symmetry_Int_Tables_number   1
_chemical_formula_structural   CaYb3(CuSi3)2
_chemical_formula_sum   'Ca1 Yb3 Cu2 Si6'
_cell_volume   239.53031780
_cell_formula_units_Z   1
loop_
 _symmetry_equiv_pos_site_id
 _symmetry_equiv_pos_as_xyz
  1  'x, y, z'
loop_
 _atom_site_type_symbol
 _atom_site_label
 _atom_site_symmetry_multiplicity
 _atom_site_fract_x
 _atom_site_fract_y
 _atom_site_fract_z
 _atom_site_occupancy
  Ca  Ca0  1  0.247414  0.752586  0.247415  1
  Yb  Yb1  1  0.250017  0.249983  0.250016  1
  Yb  Yb2  1  0.750016  0.749984  0.750016  1
  Yb  Yb3  1  0.751521  0.248479  0.751522  1
  Cu  Cu4  1  0.668112  0.666289  0.333712  1
  Cu  Cu5  1  0.333711  0.331888  0.668114  1
  Si  Si6  1  0.831819  0.832867  0.167134  1
  Si  Si7  1  0.831393  0.336065  0.168733  1
  Si  Si8  1  0.663935  0.168607  0.336191  1
  Si  Si9  1  0.336189  0.831268  0.663936  1
  Si  Si10  1  0.168731  0.663810  0.831394  1
  Si  Si11  1  0.167132  0.168180  0.831821  1
