# generated using pymatgen
data_La16Mg2NiHg2Os3
_symmetry_space_group_name_H-M   'P 1'
_cell_length_a   10.02031983
_cell_length_b   10.14299042
_cell_length_c   10.20434900
_cell_angle_alpha   59.79910318
_cell_angle_beta   59.38975709
_cell_angle_gamma   59.78235281
_symmetry_Int_Tables_number   1
_chemical_formula_structural   La16Mg2NiHg2Os3
_chemical_formula_sum   'La16 Mg2 Ni1 Hg2 Os3'
_cell_volume   727.62309054
_cell_formula_units_Z   1
loop_
 _symmetry_equiv_pos_site_id
 _symmetry_equiv_pos_as_xyz
  1  'x, y, z'
loop_
 _atom_site_type_symbol
 _atom_site_label
 _atom_site_symmetry_multiplicity
 _atom_site_fract_x
 _atom_site_fract_y
 _atom_site_fract_z
 _atom_site_occupancy
  La  La0  1  0.597254  0.593555  0.594014  1
  La  La1  1  0.597253  0.593559  0.215168  1
  La  La2  1  0.598811  0.209576  0.595808  1
  La  La3  1  0.213331  0.596186  0.595239  1
  La  La4  1  0.060817  0.439149  0.439934  1
  La  La5  1  0.435813  0.061176  0.062529  1
  La  La6  1  0.435810  0.061175  0.440489  1
  La  La7  1  0.060820  0.439146  0.060103  1
  La  La8  1  0.438065  0.438165  0.061890  1
  La  La9  1  0.054530  0.051820  0.446823  1
  La  La10  1  0.191756  0.805390  0.809322  1
  La  La11  1  0.803704  0.190246  0.191115  1
  La  La12  1  0.803701  0.190246  0.814946  1
  La  La13  1  0.191759  0.805389  0.193527  1
  La  La14  1  0.801909  0.814597  0.191752  1
  La  La15  1  0.190007  0.195650  0.807176  1
  Mg  Mg16  1  0.828576  0.527098  0.822164  1
  Mg  Mg17  1  0.528105  0.830014  0.820940  1
  Ni  Ni18  1  0.829396  0.389960  0.390295  1
  Hg  Hg19  1  0.830014  0.829852  0.838136  1
  Hg  Hg20  1  0.830021  0.829851  0.501996  1
  Os  Os21  1  0.392784  0.388244  0.386136  1
  Os  Os22  1  0.392794  0.388243  0.832835  1
  Os  Os23  1  0.392971  0.831712  0.387661  1
