# generated using pymatgen
data_GaIr2(RhO4)3
_symmetry_space_group_name_H-M   'P 1'
_cell_length_a   4.55837761
_cell_length_b   4.55837761
_cell_length_c   9.40926700
_cell_angle_alpha   90.00000000
_cell_angle_beta   90.00000000
_cell_angle_gamma   89.87744895
_symmetry_Int_Tables_number   1
_chemical_formula_structural   GaIr2(RhO4)3
_chemical_formula_sum   'Ga1 Ir2 Rh3 O12'
_cell_volume   195.51289018
_cell_formula_units_Z   1
loop_
 _symmetry_equiv_pos_site_id
 _symmetry_equiv_pos_as_xyz
  1  'x, y, z'
loop_
 _atom_site_type_symbol
 _atom_site_label
 _atom_site_symmetry_multiplicity
 _atom_site_fract_x
 _atom_site_fract_y
 _atom_site_fract_z
 _atom_site_occupancy
  Ga  Ga0  1  0.000000  0.000000  0.333142  1
  Ir  Ir1  1  0.000000  0.000000  0.001908  1
  Ir  Ir2  1  0.500000  0.500000  0.499637  1
  Rh  Rh3  1  0.000000  0.000000  0.664692  1
  Rh  Rh4  1  0.500000  0.500000  0.833344  1
  Rh  Rh5  1  0.500000  0.500000  0.167051  1
  O  O6  1  0.302006  0.302006  0.000275  1
  O  O7  1  0.697994  0.697994  0.000275  1
  O  O8  1  0.196554  0.803446  0.497963  1
  O  O9  1  0.803446  0.196554  0.497963  1
  O  O10  1  0.308342  0.308342  0.334865  1
  O  O11  1  0.691329  0.691329  0.665374  1
  O  O12  1  0.691658  0.691658  0.334865  1
  O  O13  1  0.190540  0.809460  0.834653  1
  O  O14  1  0.190553  0.809447  0.166983  1
  O  O15  1  0.308671  0.308671  0.665374  1
  O  O16  1  0.809447  0.190553  0.166983  1
  O  O17  1  0.809460  0.190540  0.834653  1
