# generated using pymatgen
data_TlSCl7
_symmetry_space_group_name_H-M   'P 1'
_cell_length_a   12.52011100
_cell_length_b   6.78959200
_cell_length_c   14.75102252
_cell_angle_alpha   80.33860343
_cell_angle_beta   90.00000000
_cell_angle_gamma   90.00000000
_symmetry_Int_Tables_number   1
_chemical_formula_structural   TlSCl7
_chemical_formula_sum   'Tl4 S4 Cl28'
_cell_volume   1236.14718156
_cell_formula_units_Z   4
loop_
 _symmetry_equiv_pos_site_id
 _symmetry_equiv_pos_as_xyz
  1  'x, y, z'
loop_
 _atom_site_type_symbol
 _atom_site_label
 _atom_site_symmetry_multiplicity
 _atom_site_fract_x
 _atom_site_fract_y
 _atom_site_fract_z
 _atom_site_occupancy
  Tl  Tl0  1  0.516235  0.597007  0.763965  1
  Tl  Tl1  1  0.016235  0.402993  0.736035  1
  Tl  Tl2  1  0.483765  0.402993  0.236035  1
  Tl  Tl3  1  0.983765  0.597007  0.263965  1
  S  S4  1  0.253611  0.975569  0.086500  1
  S  S5  1  0.753611  0.024431  0.413500  1
  S  S6  1  0.746389  0.024431  0.913500  1
  S  S7  1  0.246389  0.975569  0.586500  1
  Cl  Cl8  1  0.354386  0.144585  0.998107  1
  Cl  Cl9  1  0.861454  0.824301  0.893927  1
  Cl  Cl10  1  0.938995  0.359719  0.405080  1
  Cl  Cl11  1  0.561005  0.359719  0.905080  1
  Cl  Cl12  1  0.138546  0.175699  0.106073  1
  Cl  Cl13  1  0.956661  0.456416  0.120776  1
  Cl  Cl14  1  0.043339  0.543584  0.879224  1
  Cl  Cl15  1  0.456661  0.543584  0.379224  1
  Cl  Cl16  1  0.381964  0.088704  0.246772  1
  Cl  Cl17  1  0.061005  0.640281  0.594920  1
  Cl  Cl18  1  0.177924  0.816112  0.001679  1
  Cl  Cl19  1  0.176567  0.672875  0.265129  1
  Cl  Cl20  1  0.638546  0.824301  0.393927  1
  Cl  Cl21  1  0.323433  0.672875  0.765129  1
  Cl  Cl22  1  0.438995  0.640281  0.094920  1
  Cl  Cl23  1  0.881964  0.911296  0.253228  1
  Cl  Cl24  1  0.145614  0.144585  0.498107  1
  Cl  Cl25  1  0.118036  0.088704  0.746772  1
  Cl  Cl26  1  0.543339  0.456416  0.620776  1
  Cl  Cl27  1  0.822076  0.183888  0.998321  1
  Cl  Cl28  1  0.823433  0.327125  0.734871  1
  Cl  Cl29  1  0.322076  0.816112  0.501679  1
  Cl  Cl30  1  0.361454  0.175699  0.606073  1
  Cl  Cl31  1  0.677924  0.183888  0.498321  1
  Cl  Cl32  1  0.676567  0.327125  0.234871  1
  Cl  Cl33  1  0.645614  0.855415  0.001893  1
  Cl  Cl34  1  0.854386  0.855415  0.501893  1
  Cl  Cl35  1  0.618036  0.911296  0.753228  1
