# generated using pymatgen
data_HoLu3(Hf4Pb5)2
_symmetry_space_group_name_H-M   'P 1'
_cell_length_a   6.02526594
_cell_length_b   9.13502508
_cell_length_c   11.30252975
_cell_angle_alpha   113.87489368
_cell_angle_beta   105.45877897
_cell_angle_gamma   90.00000343
_symmetry_Int_Tables_number   1
_chemical_formula_structural   HoLu3(Hf4Pb5)2
_chemical_formula_sum   'Ho1 Lu3 Hf8 Pb10'
_cell_volume   544.16631425
_cell_formula_units_Z   1
loop_
 _symmetry_equiv_pos_site_id
 _symmetry_equiv_pos_as_xyz
  1  'x, y, z'
loop_
 _atom_site_type_symbol
 _atom_site_label
 _atom_site_symmetry_multiplicity
 _atom_site_fract_x
 _atom_site_fract_y
 _atom_site_fract_z
 _atom_site_occupancy
  Ho  Ho0  1  0.143852  0.253642  0.287705  1
  Lu  Lu1  1  0.856094  0.746532  0.712188  1
  Lu  Lu2  1  0.643945  0.033907  0.287889  1
  Lu  Lu3  1  0.356122  0.965667  0.712245  1
  Hf  Hf4  1  0.562146  0.312101  0.624320  1
  Hf  Hf5  1  0.437921  0.687694  0.375825  1
  Hf  Hf6  1  0.937903  0.687694  0.375825  1
  Hf  Hf7  1  0.062176  0.312101  0.624320  1
  Hf  Hf8  1  0.433980  0.671585  0.867960  1
  Hf  Hf9  1  0.565913  0.328634  0.131826  1
  Hf  Hf10  1  0.934153  0.196324  0.868305  1
  Hf  Hf11  1  0.066033  0.803759  0.132066  1
  Pb  Pb12  1  0.288845  0.591147  0.577689  1
  Pb  Pb13  1  0.711396  0.409598  0.422792  1
  Pb  Pb14  1  0.788636  0.986701  0.577273  1
  Pb  Pb15  1  0.211566  0.012522  0.423132  1
  Pb  Pb16  1  0.249993  0.999631  0.999664  1
  Pb  Pb17  1  0.749671  0.999631  0.999664  1
  Pb  Pb18  1  0.066868  0.462017  0.133735  1
  Pb  Pb19  1  0.932822  0.539184  0.865644  1
  Pb  Pb20  1  0.567147  0.673450  0.134293  1
  Pb  Pb21  1  0.432819  0.326476  0.865639  1
