# generated using pymatgen
data_MgGaFeB2Rh5
_symmetry_space_group_name_H-M   'P 1'
_cell_length_a   9.38083038
_cell_length_b   9.38082966
_cell_length_c   2.91535100
_cell_angle_alpha   90.00000000
_cell_angle_beta   90.00000000
_cell_angle_gamma   90.61449411
_symmetry_Int_Tables_number   1
_chemical_formula_structural   MgGaFeB2Rh5
_chemical_formula_sum   'Mg2 Ga2 Fe2 B4 Rh10'
_cell_volume   256.53605118
_cell_formula_units_Z   2
loop_
 _symmetry_equiv_pos_site_id
 _symmetry_equiv_pos_as_xyz
  1  'x, y, z'
loop_
 _atom_site_type_symbol
 _atom_site_label
 _atom_site_symmetry_multiplicity
 _atom_site_fract_x
 _atom_site_fract_y
 _atom_site_fract_z
 _atom_site_occupancy
  Mg  Mg0  1  0.177039  0.322961  0.000000  1
  Mg  Mg1  1  0.822961  0.677039  0.000000  1
  Ga  Ga2  1  0.000000  0.000000  0.000000  1
  Ga  Ga3  1  0.500000  0.500000  0.000000  1
  Fe  Fe4  1  0.676250  0.176250  0.000000  1
  Fe  Fe5  1  0.323750  0.823750  0.000000  1
  B  B6  1  0.126419  0.626419  0.000000  1
  B  B7  1  0.873581  0.373581  0.000000  1
  B  B8  1  0.626194  0.873806  0.000000  1
  B  B9  1  0.373806  0.126194  0.000000  1
  Rh  Rh10  1  0.500000  0.000000  0.500000  1
  Rh  Rh11  1  0.000000  0.500000  0.500000  1
  Rh  Rh12  1  0.218396  0.063818  0.500000  1
  Rh  Rh13  1  0.781604  0.936182  0.500000  1
  Rh  Rh14  1  0.078144  0.787382  0.500000  1
  Rh  Rh15  1  0.712618  0.421856  0.500000  1
  Rh  Rh16  1  0.921856  0.212618  0.500000  1
  Rh  Rh17  1  0.287382  0.578144  0.500000  1
  Rh  Rh18  1  0.563818  0.718396  0.500000  1
  Rh  Rh19  1  0.436182  0.281604  0.500000  1
