# generated using pymatgen
data_Ho3Er5Ga12CoCu3
_symmetry_space_group_name_H-M   'P 1'
_cell_length_a   6.93593900
_cell_length_b   8.77111960
_cell_length_c   8.77112002
_cell_angle_alpha   120.00755627
_cell_angle_beta   89.99737350
_cell_angle_gamma   90.00262794
_symmetry_Int_Tables_number   1
_chemical_formula_structural   Ho3Er5Ga12CoCu3
_chemical_formula_sum   'Ho3 Er5 Ga12 Co1 Cu3'
_cell_volume   462.07546565
_cell_formula_units_Z   1
loop_
 _symmetry_equiv_pos_site_id
 _symmetry_equiv_pos_as_xyz
  1  'x, y, z'
loop_
 _atom_site_type_symbol
 _atom_site_label
 _atom_site_symmetry_multiplicity
 _atom_site_fract_x
 _atom_site_fract_y
 _atom_site_fract_z
 _atom_site_occupancy
  Ho  Ho0  1  0.745973  0.999993  0.000007  1
  Ho  Ho1  1  0.250739  0.999993  0.000007  1
  Ho  Ho2  1  0.749927  0.484102  0.515898  1
  Er  Er3  1  0.256410  0.523112  0.476888  1
  Er  Er4  1  0.749930  0.031567  0.515788  1
  Er  Er5  1  0.256460  0.953815  0.476916  1
  Er  Er6  1  0.749930  0.484212  0.968433  1
  Er  Er7  1  0.256460  0.523084  0.046185  1
  Ga  Ga8  1  0.960771  0.830989  0.169011  1
  Ga  Ga9  1  0.041566  0.170563  0.829437  1
  Ga  Ga10  1  0.960911  0.337967  0.168858  1
  Ga  Ga11  1  0.461643  0.169927  0.830073  1
  Ga  Ga12  1  0.041691  0.658889  0.829507  1
  Ga  Ga13  1  0.542768  0.826642  0.173358  1
  Ga  Ga14  1  0.960911  0.831142  0.662033  1
  Ga  Ga15  1  0.461512  0.660165  0.830154  1
  Ga  Ga16  1  0.041691  0.170493  0.341111  1
  Ga  Ga17  1  0.542616  0.346669  0.173185  1
  Ga  Ga18  1  0.461512  0.169846  0.339835  1
  Ga  Ga19  1  0.542616  0.826815  0.653331  1
  Co  Co20  1  0.515738  0.666709  0.333291  1
  Cu  Cu21  1  0.946635  0.666739  0.333261  1
  Cu  Cu22  1  0.047759  0.333285  0.666715  1
  Cu  Cu23  1  0.453831  0.333278  0.666722  1
