# generated using pymatgen
data_YEr3CdPd
_symmetry_space_group_name_H-M   'P 1'
_cell_length_a   9.65740075
_cell_length_b   9.65211193
_cell_length_c   9.65211300
_cell_angle_alpha   60.03625324
_cell_angle_beta   59.98187618
_cell_angle_gamma   59.98186858
_symmetry_Int_Tables_number   1
_chemical_formula_structural   YEr3CdPd
_chemical_formula_sum   'Y4 Er12 Cd4 Pd4'
_cell_volume   636.19424425
_cell_formula_units_Z   4
loop_
 _symmetry_equiv_pos_site_id
 _symmetry_equiv_pos_as_xyz
  1  'x, y, z'
loop_
 _atom_site_type_symbol
 _atom_site_label
 _atom_site_symmetry_multiplicity
 _atom_site_fract_x
 _atom_site_fract_y
 _atom_site_fract_z
 _atom_site_occupancy
  Y  Y0  1  0.565543  0.934457  0.565543  1
  Y  Y1  1  0.934457  0.565543  0.934457  1
  Y  Y2  1  0.565543  0.565543  0.934457  1
  Y  Y3  1  0.934457  0.934457  0.565543  1
  Er  Er4  1  0.353432  0.353687  0.353687  1
  Er  Er5  1  0.353687  0.353432  0.939193  1
  Er  Er6  1  0.353687  0.939193  0.353432  1
  Er  Er7  1  0.939193  0.353687  0.353687  1
  Er  Er8  1  0.810689  0.189311  0.189311  1
  Er  Er9  1  0.189311  0.810689  0.810689  1
  Er  Er10  1  0.189315  0.810685  0.189315  1
  Er  Er11  1  0.810685  0.189315  0.810685  1
  Er  Er12  1  0.189315  0.189315  0.810685  1
  Er  Er13  1  0.810685  0.810685  0.189315  1
  Er  Er14  1  0.936169  0.563831  0.563831  1
  Er  Er15  1  0.563831  0.936169  0.936169  1
  Cd  Cd16  1  0.582337  0.581592  0.581592  1
  Cd  Cd17  1  0.581592  0.582337  0.254480  1
  Cd  Cd18  1  0.581592  0.254480  0.582337  1
  Cd  Cd19  1  0.254480  0.581592  0.581592  1
  Pd  Pd20  1  0.145086  0.143779  0.143779  1
  Pd  Pd21  1  0.143779  0.145086  0.567356  1
  Pd  Pd22  1  0.143779  0.567356  0.145086  1
  Pd  Pd23  1  0.567356  0.143779  0.143779  1
