# generated using pymatgen
data_TmLuMn4(FeP)6
_symmetry_space_group_name_H-M   'P 1'
_cell_length_a   3.62565600
_cell_length_b   10.22225600
_cell_length_c   12.07685200
_cell_angle_alpha   90.00000000
_cell_angle_beta   90.00000000
_cell_angle_gamma   90.00000000
_symmetry_Int_Tables_number   1
_chemical_formula_structural   TmLuMn4(FeP)6
_chemical_formula_sum   'Tm2 Lu2 Mn8 Fe12 P12'
_cell_volume   447.59692392
_cell_formula_units_Z   2
loop_
 _symmetry_equiv_pos_site_id
 _symmetry_equiv_pos_as_xyz
  1  'x, y, z'
loop_
 _atom_site_type_symbol
 _atom_site_label
 _atom_site_symmetry_multiplicity
 _atom_site_fract_x
 _atom_site_fract_y
 _atom_site_fract_z
 _atom_site_occupancy
  Tm  Tm0  1  0.250000  0.580548  0.710547  1
  Tm  Tm1  1  0.250000  0.919452  0.210547  1
  Lu  Lu2  1  0.750000  0.419569  0.289354  1
  Lu  Lu3  1  0.750000  0.080431  0.789354  1
  Mn  Mn4  1  0.250000  0.706371  0.991429  1
  Mn  Mn5  1  0.250000  0.793629  0.491429  1
  Mn  Mn6  1  0.750000  0.293665  0.008400  1
  Mn  Mn7  1  0.750000  0.206335  0.508400  1
  Mn  Mn8  1  0.250000  0.408547  0.490023  1
  Mn  Mn9  1  0.250000  0.091453  0.990023  1
  Mn  Mn10  1  0.750000  0.591370  0.509268  1
  Mn  Mn11  1  0.750000  0.908630  0.009268  1
  Fe  Fe12  1  0.250000  0.220688  0.172664  1
  Fe  Fe13  1  0.250000  0.279312  0.672664  1
  Fe  Fe14  1  0.750000  0.779916  0.827499  1
  Fe  Fe15  1  0.750000  0.720084  0.327499  1
  Fe  Fe16  1  0.250000  0.877630  0.696084  1
  Fe  Fe17  1  0.250000  0.622370  0.196084  1
  Fe  Fe18  1  0.750000  0.123228  0.304262  1
  Fe  Fe19  1  0.750000  0.376772  0.804262  1
  Fe  Fe20  1  0.250000  0.462417  0.935903  1
  Fe  Fe21  1  0.250000  0.037583  0.435903  1
  Fe  Fe22  1  0.750000  0.536895  0.064478  1
  Fe  Fe23  1  0.750000  0.963105  0.564478  1
  P  P24  1  0.250000  0.422909  0.114352  1
  P  P25  1  0.250000  0.077091  0.614352  1
  P  P26  1  0.750000  0.577121  0.886314  1
  P  P27  1  0.750000  0.922879  0.386314  1
  P  P28  1  0.250000  0.266810  0.861412  1
  P  P29  1  0.250000  0.233190  0.361412  1
  P  P30  1  0.750000  0.732269  0.138400  1
  P  P31  1  0.750000  0.767731  0.638400  1
  P  P32  1  0.250000  0.601353  0.380419  1
  P  P33  1  0.250000  0.898647  0.880419  1
  P  P34  1  0.750000  0.397865  0.619193  1
  P  P35  1  0.750000  0.102135  0.119193  1
