# generated using pymatgen
data_Pr2Pa2P7Ir8
_symmetry_space_group_name_H-M   'P 1'
_cell_length_a   3.97448500
_cell_length_b   12.76631082
_cell_length_c   13.28036517
_cell_angle_alpha   80.90722648
_cell_angle_beta   90.00000000
_cell_angle_gamma   90.00000000
_symmetry_Int_Tables_number   1
_chemical_formula_structural   Pr2Pa2P7Ir8
_chemical_formula_sum   'Pr4 Pa4 P14 Ir16'
_cell_volume   665.37159849
_cell_formula_units_Z   2
loop_
 _symmetry_equiv_pos_site_id
 _symmetry_equiv_pos_as_xyz
  1  'x, y, z'
loop_
 _atom_site_type_symbol
 _atom_site_label
 _atom_site_symmetry_multiplicity
 _atom_site_fract_x
 _atom_site_fract_y
 _atom_site_fract_z
 _atom_site_occupancy
  Pr  Pr0  1  0.750000  0.718337  0.900523  1
  Pr  Pr1  1  0.250000  0.107063  0.789416  1
  Pr  Pr2  1  0.750000  0.892937  0.210584  1
  Pr  Pr3  1  0.250000  0.281663  0.099477  1
  Pa  Pa4  1  0.750000  0.790342  0.561380  1
  Pa  Pa5  1  0.250000  0.209658  0.438620  1
  Pa  Pa6  1  0.750000  0.486565  0.709306  1
  Pa  Pa7  1  0.250000  0.513435  0.290694  1
  P  P8  1  0.250000  0.908766  0.408081  1
  P  P9  1  0.750000  0.467230  0.127906  1
  P  P10  1  0.250000  0.532770  0.872094  1
  P  P11  1  0.750000  0.091234  0.591919  1
  P  P12  1  0.250000  0.744744  0.082402  1
  P  P13  1  0.750000  0.255256  0.917598  1
  P  P14  1  0.750000  0.160083  0.280241  1
  P  P15  1  0.250000  0.839917  0.719759  1
  P  P16  1  0.250000  0.050764  0.101571  1
  P  P17  1  0.750000  0.949236  0.898429  1
  P  P18  1  0.250000  0.317998  0.689199  1
  P  P19  1  0.750000  0.682002  0.310801  1
  P  P20  1  0.250000  0.606763  0.561633  1
  P  P21  1  0.750000  0.393237  0.438367  1
  Ir  Ir22  1  0.250000  0.990291  0.574272  1
  Ir  Ir23  1  0.750000  0.009709  0.425728  1
  Ir  Ir24  1  0.250000  0.657514  0.719634  1
  Ir  Ir25  1  0.750000  0.342486  0.280366  1
  Ir  Ir26  1  0.250000  0.550242  0.050526  1
  Ir  Ir27  1  0.750000  0.449758  0.949474  1
  Ir  Ir28  1  0.250000  0.064394  0.275946  1
  Ir  Ir29  1  0.750000  0.935606  0.724054  1
  Ir  Ir30  1  0.250000  0.424379  0.527737  1
  Ir  Ir31  1  0.750000  0.575621  0.472263  1
  Ir  Ir32  1  0.250000  0.917284  0.993738  1
  Ir  Ir33  1  0.750000  0.082716  0.006262  1
  Ir  Ir34  1  0.250000  0.727328  0.399515  1
  Ir  Ir35  1  0.750000  0.272672  0.600485  1
  Ir  Ir36  1  0.250000  0.343691  0.857273  1
  Ir  Ir37  1  0.750000  0.656309  0.142727  1
