# generated using pymatgen
data_Er3Tm9(IrOs)2
_symmetry_space_group_name_H-M   'P 1'
_cell_length_a   7.28958305
_cell_length_b   8.94193900
_cell_length_c   6.28938287
_cell_angle_alpha   90.00000000
_cell_angle_beta   89.96287438
_cell_angle_gamma   90.00000000
_symmetry_Int_Tables_number   1
_chemical_formula_structural   Er3Tm9(IrOs)2
_chemical_formula_sum   'Er3 Tm9 Ir2 Os2'
_cell_volume   409.96080167
_cell_formula_units_Z   1
loop_
 _symmetry_equiv_pos_site_id
 _symmetry_equiv_pos_as_xyz
  1  'x, y, z'
loop_
 _atom_site_type_symbol
 _atom_site_label
 _atom_site_symmetry_multiplicity
 _atom_site_fract_x
 _atom_site_fract_y
 _atom_site_fract_z
 _atom_site_occupancy
  Er  Er0  1  0.036500  0.250000  0.626479  1
  Er  Er1  1  0.963340  0.750000  0.373519  1
  Er  Er2  1  0.462692  0.750000  0.127693  1
  Tm  Tm3  1  0.537414  0.250000  0.872283  1
  Tm  Tm4  1  0.174390  0.061668  0.167476  1
  Tm  Tm5  1  0.825584  0.938539  0.832397  1
  Tm  Tm6  1  0.322213  0.936897  0.672081  1
  Tm  Tm7  1  0.825584  0.561461  0.832397  1
  Tm  Tm8  1  0.677968  0.063553  0.327650  1
  Tm  Tm9  1  0.174390  0.438332  0.167476  1
  Tm  Tm10  1  0.677968  0.436447  0.327650  1
  Tm  Tm11  1  0.322213  0.563103  0.672081  1
  Ir  Ir12  1  0.384734  0.250000  0.460304  1
  Ir  Ir13  1  0.615489  0.750000  0.540956  1
  Os  Os14  1  0.116954  0.750000  0.960887  1
  Os  Os15  1  0.882569  0.250000  0.038674  1
