# generated using pymatgen
data_DyHo5(Al3Os)8
_symmetry_space_group_name_H-M   'P 1'
_cell_length_a   8.82582900
_cell_length_b   8.82365291
_cell_length_c   9.55848900
_cell_angle_alpha   90.00000000
_cell_angle_beta   90.00000000
_cell_angle_gamma   120.00816221
_symmetry_Int_Tables_number   1
_chemical_formula_structural   DyHo5(Al3Os)8
_chemical_formula_sum   'Dy1 Ho5 Al24 Os8'
_cell_volume   644.59669695
_cell_formula_units_Z   1
loop_
 _symmetry_equiv_pos_site_id
 _symmetry_equiv_pos_as_xyz
  1  'x, y, z'
loop_
 _atom_site_type_symbol
 _atom_site_label
 _atom_site_symmetry_multiplicity
 _atom_site_fract_x
 _atom_site_fract_y
 _atom_site_fract_z
 _atom_site_occupancy
  Dy  Dy0  1  0.193388  0.386775  0.250000  1
  Ho  Ho1  1  0.806650  0.613299  0.750000  1
  Ho  Ho2  1  0.613055  0.806536  0.250000  1
  Ho  Ho3  1  0.386723  0.193370  0.750000  1
  Ho  Ho4  1  0.193481  0.806536  0.250000  1
  Ho  Ho5  1  0.806647  0.193370  0.750000  1
  Al  Al6  1  0.333379  0.666759  0.015743  1
  Al  Al7  1  0.666674  0.333347  0.984270  1
  Al  Al8  1  0.666674  0.333347  0.515730  1
  Al  Al9  1  0.333379  0.666759  0.484257  1
  Al  Al10  1  0.162648  0.325296  0.576235  1
  Al  Al11  1  0.837330  0.674661  0.423880  1
  Al  Al12  1  0.674706  0.837359  0.576150  1
  Al  Al13  1  0.837330  0.674661  0.076120  1
  Al  Al14  1  0.325341  0.162591  0.423881  1
  Al  Al15  1  0.162648  0.325296  0.923765  1
  Al  Al16  1  0.162653  0.837359  0.576150  1
  Al  Al17  1  0.325341  0.162591  0.076119  1
  Al  Al18  1  0.837251  0.162591  0.423881  1
  Al  Al19  1  0.674706  0.837359  0.923850  1
  Al  Al20  1  0.837251  0.162591  0.076119  1
  Al  Al21  1  0.162653  0.837359  0.923850  1
  Al  Al22  1  0.560133  0.120267  0.250000  1
  Al  Al23  1  0.439864  0.879727  0.750000  1
  Al  Al24  1  0.879572  0.439882  0.250000  1
  Al  Al25  1  0.120253  0.560136  0.750000  1
  Al  Al26  1  0.560309  0.439882  0.250000  1
  Al  Al27  1  0.439884  0.560136  0.750000  1
  Al  Al28  1  0.999915  0.999830  0.250000  1
  Al  Al29  1  0.000000  0.000000  0.750000  1
  Os  Os30  1  0.500042  0.000084  0.999947  1
  Os  Os31  1  0.999901  0.500039  0.999887  1
  Os  Os32  1  0.500042  0.000084  0.500053  1
  Os  Os33  1  0.500139  0.500039  0.999887  1
  Os  Os34  1  0.999901  0.500039  0.500113  1
  Os  Os35  1  0.500139  0.500039  0.500113  1
  Os  Os36  1  0.000000  0.000001  0.999947  1
  Os  Os37  1  0.000000  0.000001  0.500053  1
