# generated using pymatgen
data_CePa3F15
_symmetry_space_group_name_H-M   'P 1'
_cell_length_a   7.98385345
_cell_length_b   7.98385274
_cell_length_c   7.98385500
_cell_angle_alpha   112.86665848
_cell_angle_beta   112.86665633
_cell_angle_gamma   112.86666895
_symmetry_Int_Tables_number   1
_chemical_formula_structural   CePa3F15
_chemical_formula_sum   'Ce1 Pa3 F15'
_cell_volume   333.57409243
_cell_formula_units_Z   1
loop_
 _symmetry_equiv_pos_site_id
 _symmetry_equiv_pos_as_xyz
  1  'x, y, z'
loop_
 _atom_site_type_symbol
 _atom_site_label
 _atom_site_symmetry_multiplicity
 _atom_site_fract_x
 _atom_site_fract_y
 _atom_site_fract_z
 _atom_site_occupancy
  Ce  Ce0  1  0.492918  0.492918  0.492918  1
  Pa  Pa1  1  0.852500  0.279865  0.852500  1
  Pa  Pa2  1  0.279865  0.852500  0.852500  1
  Pa  Pa3  1  0.852500  0.852500  0.279865  1
  F  F4  1  0.606723  0.936423  0.148069  1
  F  F5  1  0.936423  0.148069  0.606723  1
  F  F6  1  0.148069  0.606723  0.936423  1
  F  F7  1  0.936423  0.606723  0.148069  1
  F  F8  1  0.595138  0.595138  0.262784  1
  F  F9  1  0.262784  0.595138  0.595138  1
  F  F10  1  0.595138  0.262784  0.595138  1
  F  F11  1  0.145076  0.145076  0.360644  1
  F  F12  1  0.360644  0.145076  0.145076  1
  F  F13  1  0.145076  0.360644  0.145076  1
  F  F14  1  0.665296  0.665296  0.892509  1
  F  F15  1  0.892509  0.665296  0.665296  1
  F  F16  1  0.665296  0.892509  0.665296  1
  F  F17  1  0.148069  0.936423  0.606723  1
  F  F18  1  0.606723  0.148069  0.936423  1
