# generated using pymatgen
data_ErSc(Ni2As)4
_symmetry_space_group_name_H-M   'P 1'
_cell_length_a   7.14416541
_cell_length_b   7.14416541
_cell_length_c   3.77122500
_cell_angle_alpha   90.00000000
_cell_angle_beta   90.00000000
_cell_angle_gamma   89.63919833
_symmetry_Int_Tables_number   1
_chemical_formula_structural   ErSc(Ni2As)4
_chemical_formula_sum   'Er1 Sc1 Ni8 As4'
_cell_volume   192.47611144
_cell_formula_units_Z   1
loop_
 _symmetry_equiv_pos_site_id
 _symmetry_equiv_pos_as_xyz
  1  'x, y, z'
loop_
 _atom_site_type_symbol
 _atom_site_label
 _atom_site_symmetry_multiplicity
 _atom_site_fract_x
 _atom_site_fract_y
 _atom_site_fract_z
 _atom_site_occupancy
  Er  Er0  1  0.500000  0.500000  0.000000  1
  Sc  Sc1  1  0.000000  0.000000  0.500000  1
  Ni  Ni2  1  0.088879  0.345357  0.000000  1
  Ni  Ni3  1  0.846540  0.409513  0.500000  1
  Ni  Ni4  1  0.153460  0.590487  0.500000  1
  Ni  Ni5  1  0.911121  0.654643  0.000000  1
  Ni  Ni6  1  0.409513  0.846540  0.500000  1
  Ni  Ni7  1  0.590487  0.153460  0.500000  1
  Ni  Ni8  1  0.345357  0.088879  0.000000  1
  Ni  Ni9  1  0.654643  0.911121  0.000000  1
  As  As10  1  0.787909  0.212091  0.000000  1
  As  As11  1  0.722304  0.722304  0.500000  1
  As  As12  1  0.277696  0.277696  0.500000  1
  As  As13  1  0.212091  0.787909  0.000000  1
