# generated using pymatgen
data_Ho2Co9As7Ru3
_symmetry_space_group_name_H-M   'P 1'
_cell_length_a   3.80965300
_cell_length_b   9.37681835
_cell_length_c   9.37681800
_cell_angle_alpha   119.99999876
_cell_angle_beta   90.00000000
_cell_angle_gamma   90.00000000
_symmetry_Int_Tables_number   1
_chemical_formula_structural   Ho2Co9As7Ru3
_chemical_formula_sum   'Ho2 Co9 As7 Ru3'
_cell_volume   290.08618506
_cell_formula_units_Z   1
loop_
 _symmetry_equiv_pos_site_id
 _symmetry_equiv_pos_as_xyz
  1  'x, y, z'
loop_
 _atom_site_type_symbol
 _atom_site_label
 _atom_site_symmetry_multiplicity
 _atom_site_fract_x
 _atom_site_fract_y
 _atom_site_fract_z
 _atom_site_occupancy
  Ho  Ho0  1  0.000000  0.666667  0.333333  1
  Ho  Ho1  1  0.500000  0.333333  0.666667  1
  Co  Co2  1  0.000000  0.568765  0.940590  1
  Co  Co3  1  0.000000  0.371825  0.431235  1
  Co  Co4  1  0.000000  0.059410  0.628175  1
  Co  Co5  1  0.000000  0.875937  0.158373  1
  Co  Co6  1  0.000000  0.282435  0.124063  1
  Co  Co7  1  0.000000  0.841627  0.717565  1
  Co  Co8  1  0.500000  0.946680  0.383126  1
  Co  Co9  1  0.500000  0.436445  0.053320  1
  Co  Co10  1  0.500000  0.616874  0.563555  1
  As  As11  1  0.000000  0.000000  0.000000  1
  As  As12  1  0.500000  0.708201  0.117541  1
  As  As13  1  0.500000  0.409341  0.291799  1
  As  As14  1  0.500000  0.882459  0.590659  1
  As  As15  1  0.000000  0.587544  0.701415  1
  As  As16  1  0.000000  0.113871  0.412456  1
  As  As17  1  0.000000  0.298585  0.886129  1
  Ru  Ru18  1  0.500000  0.780347  0.900106  1
  Ru  Ru19  1  0.500000  0.119758  0.219653  1
  Ru  Ru20  1  0.500000  0.099894  0.880242  1
