# generated using pymatgen
data_Sc4As6Ru7
_symmetry_space_group_name_H-M   'P 1'
_cell_length_a   7.06397791
_cell_length_b   7.06397250
_cell_length_c   7.06397200
_cell_angle_alpha   109.47116134
_cell_angle_beta   109.47124284
_cell_angle_gamma   109.47123926
_symmetry_Int_Tables_number   1
_chemical_formula_structural   Sc4As6Ru7
_chemical_formula_sum   'Sc4 As6 Ru7'
_cell_volume   271.34730338
_cell_formula_units_Z   1
loop_
 _symmetry_equiv_pos_site_id
 _symmetry_equiv_pos_as_xyz
  1  'x, y, z'
loop_
 _atom_site_type_symbol
 _atom_site_label
 _atom_site_symmetry_multiplicity
 _atom_site_fract_x
 _atom_site_fract_y
 _atom_site_fract_z
 _atom_site_occupancy
  Sc  Sc0  1  0.000000  0.000000  0.500000  1
  Sc  Sc1  1  0.500000  0.000000  0.000000  1
  Sc  Sc2  1  0.000000  0.500000  0.000000  1
  Sc  Sc3  1  0.500000  0.500000  0.500000  1
  As  As4  1  0.311322  0.000001  0.311321  1
  As  As5  1  0.000000  0.311321  0.311321  1
  As  As6  1  0.000000  0.688679  0.688679  1
  As  As7  1  0.311322  0.311321  0.000001  1
  As  As8  1  0.688678  0.688679  0.999999  1
  As  As9  1  0.688678  0.999999  0.688679  1
  Ru  Ru10  1  0.749994  0.499998  0.249996  1
  Ru  Ru11  1  0.500000  0.750000  0.250000  1
  Ru  Ru12  1  0.500000  0.250000  0.750000  1
  Ru  Ru13  1  0.749994  0.249996  0.499998  1
  Ru  Ru14  1  0.250006  0.750004  0.500002  1
  Ru  Ru15  1  0.250006  0.500002  0.750004  1
  Ru  Ru16  1  0.000000  0.000000  0.000000  1
