# generated using pymatgen
data_Sr2Si7(MoPt3)3
_symmetry_space_group_name_H-M   'P 1'
_cell_length_a   9.89347100
_cell_length_b   9.89347056
_cell_length_c   4.04268700
_cell_angle_alpha   90.00000000
_cell_angle_beta   90.00000000
_cell_angle_gamma   119.99999812
_symmetry_Int_Tables_number   1
_chemical_formula_structural   Sr2Si7(MoPt3)3
_chemical_formula_sum   'Sr2 Si7 Mo3 Pt9'
_cell_volume   342.68737813
_cell_formula_units_Z   1
loop_
 _symmetry_equiv_pos_site_id
 _symmetry_equiv_pos_as_xyz
  1  'x, y, z'
loop_
 _atom_site_type_symbol
 _atom_site_label
 _atom_site_symmetry_multiplicity
 _atom_site_fract_x
 _atom_site_fract_y
 _atom_site_fract_z
 _atom_site_occupancy
  Sr  Sr0  1  0.000000  0.000000  0.000000  1
  Sr  Sr1  1  0.333333  0.666667  0.500000  1
  Si  Si2  1  0.267411  0.222905  0.500000  1
  Si  Si3  1  0.777095  0.044507  0.500000  1
  Si  Si4  1  0.955493  0.732589  0.500000  1
  Si  Si5  1  0.553195  0.628493  0.000000  1
  Si  Si6  1  0.371507  0.924701  0.000000  1
  Si  Si7  1  0.075299  0.446805  0.000000  1
  Si  Si8  1  0.666667  0.333333  0.000000  1
  Mo  Mo9  1  0.877238  0.452624  0.500000  1
  Mo  Mo10  1  0.575387  0.122762  0.500000  1
  Mo  Mo11  1  0.547376  0.424613  0.500000  1
  Pt  Pt12  1  0.230046  0.943734  0.500000  1
  Pt  Pt13  1  0.056266  0.286313  0.500000  1
  Pt  Pt14  1  0.713687  0.769954  0.500000  1
  Pt  Pt15  1  0.300337  0.401104  0.000000  1
  Pt  Pt16  1  0.598896  0.899233  0.000000  1
  Pt  Pt17  1  0.100767  0.699663  0.000000  1
  Pt  Pt18  1  0.391138  0.175694  0.000000  1
  Pt  Pt19  1  0.824306  0.215444  0.000000  1
  Pt  Pt20  1  0.784556  0.608862  0.000000  1
