# generated using pymatgen
data_Dy8Y4ZnGaCo4
_symmetry_space_group_name_H-M   'P 1'
_cell_length_a   8.26258367
_cell_length_b   8.26258358
_cell_length_c   8.26258388
_cell_angle_alpha   106.88756631
_cell_angle_beta   109.51088580
_cell_angle_gamma   112.05641422
_symmetry_Int_Tables_number   1
_chemical_formula_structural   Dy8Y4ZnGaCo4
_chemical_formula_sum   'Dy8 Y4 Zn1 Ga1 Co4'
_cell_volume   433.35287218
_cell_formula_units_Z   1
loop_
 _symmetry_equiv_pos_site_id
 _symmetry_equiv_pos_as_xyz
  1  'x, y, z'
loop_
 _atom_site_type_symbol
 _atom_site_label
 _atom_site_symmetry_multiplicity
 _atom_site_fract_x
 _atom_site_fract_y
 _atom_site_fract_z
 _atom_site_occupancy
  Dy  Dy0  1  0.187651  0.514750  0.327099  1
  Dy  Dy1  1  0.187651  0.860551  0.672901  1
  Dy  Dy2  1  0.812349  0.485250  0.672901  1
  Dy  Dy3  1  0.812349  0.139449  0.327099  1
  Dy  Dy4  1  0.398686  0.219174  0.179512  1
  Dy  Dy5  1  0.039661  0.219174  0.820488  1
  Dy  Dy6  1  0.960339  0.780826  0.179512  1
  Dy  Dy7  1  0.601314  0.780826  0.820488  1
  Y  Y8  1  0.305717  0.262268  0.567983  1
  Y  Y9  1  0.694283  0.737732  0.432017  1
  Y  Y10  1  0.305717  0.737732  0.043449  1
  Y  Y11  1  0.694283  0.262268  0.956551  1
  Zn  Zn12  1  0.500000  0.500000  0.000000  1
  Ga  Ga13  1  0.500000  0.000000  0.500000  1
  Co  Co14  1  0.162924  0.500000  0.662924  1
  Co  Co15  1  0.837076  0.500000  0.337076  1
  Co  Co16  1  0.000000  0.114657  0.114657  1
  Co  Co17  1  0.000000  0.885343  0.885343  1
