# generated using pymatgen
data_Cu4Sb12Br
_symmetry_space_group_name_H-M   'P 1'
_cell_length_a   8.30967726
_cell_length_b   8.30967733
_cell_length_c   8.30967700
_cell_angle_alpha   109.47121739
_cell_angle_beta   109.47121757
_cell_angle_gamma   109.47122697
_symmetry_Int_Tables_number   1
_chemical_formula_structural   Cu4Sb12Br
_chemical_formula_sum   'Cu4 Sb12 Br1'
_cell_volume   441.70322359
_cell_formula_units_Z   1
loop_
 _symmetry_equiv_pos_site_id
 _symmetry_equiv_pos_as_xyz
  1  'x, y, z'
loop_
 _atom_site_type_symbol
 _atom_site_label
 _atom_site_symmetry_multiplicity
 _atom_site_fract_x
 _atom_site_fract_y
 _atom_site_fract_z
 _atom_site_occupancy
  Cu  Cu0  1  0.000000  0.000000  0.500000  1
  Cu  Cu1  1  0.000000  0.500000  0.000000  1
  Cu  Cu2  1  0.500000  0.500000  0.500000  1
  Cu  Cu3  1  0.500000  0.000000  0.000000  1
  Sb  Sb4  1  0.652929  0.807191  0.154262  1
  Sb  Sb5  1  0.845738  0.347071  0.192809  1
  Sb  Sb6  1  0.498668  0.845738  0.652929  1
  Sb  Sb7  1  0.845738  0.652929  0.498668  1
  Sb  Sb8  1  0.501332  0.154262  0.347071  1
  Sb  Sb9  1  0.154262  0.652929  0.807191  1
  Sb  Sb10  1  0.807191  0.154262  0.652929  1
  Sb  Sb11  1  0.192809  0.845738  0.347071  1
  Sb  Sb12  1  0.154262  0.347071  0.501332  1
  Sb  Sb13  1  0.652929  0.498668  0.845738  1
  Sb  Sb14  1  0.347071  0.501332  0.154262  1
  Sb  Sb15  1  0.347071  0.192809  0.845738  1
  Br  Br16  1  0.000000  0.000000  0.000000  1
