# generated using pymatgen
data_Nd4Lu3ScPt4
_symmetry_space_group_name_H-M   'P 1'
_cell_length_a   4.76950200
_cell_length_b   7.16957361
_cell_length_c   8.74402090
_cell_angle_alpha   90.01572272
_cell_angle_beta   90.00000000
_cell_angle_gamma   90.00000000
_symmetry_Int_Tables_number   1
_chemical_formula_structural   Nd4Lu3ScPt4
_chemical_formula_sum   'Nd4 Lu3 Sc1 Pt4'
_cell_volume   299.00436862
_cell_formula_units_Z   1
loop_
 _symmetry_equiv_pos_site_id
 _symmetry_equiv_pos_as_xyz
  1  'x, y, z'
loop_
 _atom_site_type_symbol
 _atom_site_label
 _atom_site_symmetry_multiplicity
 _atom_site_fract_x
 _atom_site_fract_y
 _atom_site_fract_z
 _atom_site_occupancy
  Nd  Nd0  1  0.250000  0.985016  0.325471  1
  Nd  Nd1  1  0.750000  0.009841  0.680050  1
  Nd  Nd2  1  0.250000  0.490460  0.169486  1
  Nd  Nd3  1  0.750000  0.519572  0.824222  1
  Lu  Lu4  1  0.750000  0.639997  0.422496  1
  Lu  Lu5  1  0.250000  0.356730  0.575334  1
  Lu  Lu6  1  0.750000  0.141695  0.075281  1
  Sc  Sc7  1  0.250000  0.862807  0.926305  1
  Pt  Pt8  1  0.250000  0.241848  0.904357  1
  Pt  Pt9  1  0.750000  0.756975  0.090309  1
  Pt  Pt10  1  0.250000  0.745403  0.599223  1
  Pt  Pt11  1  0.750000  0.249654  0.407467  1
