# generated using pymatgen
data_Nd3Be2Pt7
_symmetry_space_group_name_H-M   'P 1'
_cell_length_a   8.65907035
_cell_length_b   8.65907077
_cell_length_c   8.65907126
_cell_angle_alpha   37.19922122
_cell_angle_beta   37.19922626
_cell_angle_gamma   37.19922056
_symmetry_Int_Tables_number   1
_chemical_formula_structural   Nd3Be2Pt7
_chemical_formula_sum   'Nd3 Be2 Pt7'
_cell_volume   212.71815925
_cell_formula_units_Z   1
loop_
 _symmetry_equiv_pos_site_id
 _symmetry_equiv_pos_as_xyz
  1  'x, y, z'
loop_
 _atom_site_type_symbol
 _atom_site_label
 _atom_site_symmetry_multiplicity
 _atom_site_fract_x
 _atom_site_fract_y
 _atom_site_fract_z
 _atom_site_occupancy
  Nd  Nd0  1  0.858573  0.858573  0.858573  1
  Nd  Nd1  1  0.141427  0.141427  0.141427  1
  Nd  Nd2  1  0.000000  0.000000  0.000000  1
  Be  Be3  1  0.667238  0.667238  0.667238  1
  Be  Be4  1  0.332762  0.332762  0.332762  1
  Pt  Pt5  1  0.428246  0.928136  0.428246  1
  Pt  Pt6  1  0.428246  0.428246  0.928136  1
  Pt  Pt7  1  0.928136  0.428246  0.428246  1
  Pt  Pt8  1  0.571754  0.071864  0.571754  1
  Pt  Pt9  1  0.571754  0.571754  0.071864  1
  Pt  Pt10  1  0.071864  0.571754  0.571754  1
  Pt  Pt11  1  0.500000  0.500000  0.500000  1
