# generated using pymatgen
data_Nd3Sn3PdPtRh
_symmetry_space_group_name_H-M   'P 1'
_cell_length_a   7.64092000
_cell_length_b   7.64091928
_cell_length_c   4.11355800
_cell_angle_alpha   90.00000000
_cell_angle_beta   90.00000000
_cell_angle_gamma   120.00000311
_symmetry_Int_Tables_number   1
_chemical_formula_structural   Nd3Sn3PdPtRh
_chemical_formula_sum   'Nd3 Sn3 Pd1 Pt1 Rh1'
_cell_volume   207.98858858
_cell_formula_units_Z   1
loop_
 _symmetry_equiv_pos_site_id
 _symmetry_equiv_pos_as_xyz
  1  'x, y, z'
loop_
 _atom_site_type_symbol
 _atom_site_label
 _atom_site_symmetry_multiplicity
 _atom_site_fract_x
 _atom_site_fract_y
 _atom_site_fract_z
 _atom_site_occupancy
  Nd  Nd0  1  0.003730  0.591723  0.000000  1
  Nd  Nd1  1  0.408277  0.412007  0.000000  1
  Nd  Nd2  1  0.587993  0.996270  0.000000  1
  Sn  Sn3  1  0.751997  0.749714  0.500000  1
  Sn  Sn4  1  0.997717  0.248003  0.500000  1
  Sn  Sn5  1  0.250286  0.002283  0.500000  1
  Pd  Pd6  1  0.666667  0.333333  0.500000  1
  Pt  Pt7  1  0.333333  0.666667  0.500000  1
  Rh  Rh8  1  0.000000  0.000000  0.000000  1
