# generated using pymatgen
data_Li8Zr3NpBr24
_symmetry_space_group_name_H-M   'P 1'
_cell_length_a   6.78719100
_cell_length_b   6.78718917
_cell_length_c   28.02988200
_cell_angle_alpha   90.00000000
_cell_angle_beta   90.00000000
_cell_angle_gamma   120.00000405
_symmetry_Int_Tables_number   1
_chemical_formula_structural   Li8Zr3NpBr24
_chemical_formula_sum   'Li8 Zr3 Np1 Br24'
_cell_volume   1118.23197939
_cell_formula_units_Z   1
loop_
 _symmetry_equiv_pos_site_id
 _symmetry_equiv_pos_as_xyz
  1  'x, y, z'
loop_
 _atom_site_type_symbol
 _atom_site_label
 _atom_site_symmetry_multiplicity
 _atom_site_fract_x
 _atom_site_fract_y
 _atom_site_fract_z
 _atom_site_occupancy
  Li  Li0  1  0.000000  0.000000  0.249982  1
  Li  Li1  1  0.000000  0.000000  0.750018  1
  Li  Li2  1  0.333333  0.666667  0.999989  1
  Li  Li3  1  0.333333  0.666667  0.500011  1
  Li  Li4  1  0.333333  0.666667  0.249977  1
  Li  Li5  1  0.666667  0.333333  0.750023  1
  Li  Li6  1  0.666667  0.333333  0.000011  1
  Li  Li7  1  0.666667  0.333333  0.499989  1
  Zr  Zr8  1  0.000000  0.000000  0.000000  1
  Zr  Zr9  1  0.333333  0.666667  0.750100  1
  Zr  Zr10  1  0.666667  0.333333  0.249900  1
  Np  Np11  1  0.000000  0.000000  0.500000  1
  Br  Br12  1  0.346294  0.012714  0.304448  1
  Br  Br13  1  0.333571  0.987145  0.804483  1
  Br  Br14  1  0.000690  0.320857  0.054426  1
  Br  Br15  1  0.999122  0.334391  0.556621  1
  Br  Br16  1  0.987286  0.333579  0.304448  1
  Br  Br17  1  0.012855  0.346424  0.804483  1
  Br  Br18  1  0.346424  0.333571  0.195517  1
  Br  Br19  1  0.333579  0.346294  0.695552  1
  Br  Br20  1  0.334391  0.335269  0.443379  1
  Br  Br21  1  0.320857  0.320168  0.945574  1
  Br  Br22  1  0.664731  0.999122  0.443379  1
  Br  Br23  1  0.320168  0.999310  0.054426  1
  Br  Br24  1  0.335269  0.000878  0.556621  1
  Br  Br25  1  0.679143  0.679832  0.054426  1
  Br  Br26  1  0.665609  0.664731  0.556621  1
  Br  Br27  1  0.666421  0.653706  0.304448  1
  Br  Br28  1  0.653576  0.666429  0.804483  1
  Br  Br29  1  0.987145  0.653576  0.195517  1
  Br  Br30  1  0.012714  0.666421  0.695552  1
  Br  Br31  1  0.000878  0.665609  0.443379  1
  Br  Br32  1  0.999310  0.679143  0.945574  1
  Br  Br33  1  0.679832  0.000690  0.945574  1
  Br  Br34  1  0.666429  0.012855  0.195517  1
  Br  Br35  1  0.653706  0.987286  0.695552  1
