# generated using pymatgen
data_Yb2Eu2Si10RuPt5
_symmetry_space_group_name_H-M   'P 1'
_cell_length_a   8.30116610
_cell_length_b   8.28605811
_cell_length_c   8.28605750
_cell_angle_alpha   138.39428987
_cell_angle_beta   104.69053411
_cell_angle_gamma   89.89748778
_symmetry_Int_Tables_number   1
_chemical_formula_structural   Yb2Eu2Si10RuPt5
_chemical_formula_sum   'Yb2 Eu2 Si10 Ru1 Pt5'
_cell_volume   350.07054715
_cell_formula_units_Z   1
loop_
 _symmetry_equiv_pos_site_id
 _symmetry_equiv_pos_as_xyz
  1  'x, y, z'
loop_
 _atom_site_type_symbol
 _atom_site_label
 _atom_site_symmetry_multiplicity
 _atom_site_fract_x
 _atom_site_fract_y
 _atom_site_fract_z
 _atom_site_occupancy
  Yb  Yb0  1  0.103110  0.869819  0.233127  1
  Yb  Yb1  1  0.896890  0.130017  0.766709  1
  Eu  Eu2  1  0.638072  0.370754  0.267171  1
  Eu  Eu3  1  0.361928  0.629098  0.732682  1
  Si  Si4  1  0.000000  0.749068  0.749068  1
  Si  Si5  1  0.000000  0.250996  0.250996  1
  Si  Si6  1  0.269946  0.021289  0.748831  1
  Si  Si7  1  0.730054  0.478885  0.751343  1
  Si  Si8  1  0.726570  0.975734  0.251247  1
  Si  Si9  1  0.273430  0.524677  0.249164  1
  Si  Si10  1  0.758608  0.615984  0.155804  1
  Si  Si11  1  0.241392  0.397197  0.857376  1
  Si  Si12  1  0.458186  0.101397  0.344141  1
  Si  Si13  1  0.541814  0.885955  0.643212  1
  Ru  Ru14  1  0.500000  0.749521  0.249521  1
  Pt  Pt15  1  0.500000  0.250167  0.750167  1
  Pt  Pt16  1  0.022637  0.636677  0.382125  1
  Pt  Pt17  1  0.977363  0.359488  0.614039  1
  Pt  Pt18  1  0.249481  0.137883  0.114876  1
  Pt  Pt19  1  0.750519  0.865394  0.888402  1
