# generated using pymatgen
data_LiPd2F9
_symmetry_space_group_name_H-M   'P 1'
_cell_length_a   5.03631616
_cell_length_b   5.03474836
_cell_length_c   7.15275306
_cell_angle_alpha   90.00000025
_cell_angle_beta   89.99577311
_cell_angle_gamma   119.98970218
_symmetry_Int_Tables_number   1
_chemical_formula_structural   LiPd2F9
_chemical_formula_sum   'Li1 Pd2 F9'
_cell_volume   157.08679307
_cell_formula_units_Z   1
loop_
 _symmetry_equiv_pos_site_id
 _symmetry_equiv_pos_as_xyz
  1  'x, y, z'
loop_
 _atom_site_type_symbol
 _atom_site_label
 _atom_site_symmetry_multiplicity
 _atom_site_fract_x
 _atom_site_fract_y
 _atom_site_fract_z
 _atom_site_occupancy
  Li  Li0  1  0.000000  0.000002  0.000001  1
  Pd  Pd1  1  0.666473  0.333251  0.338961  1
  Pd  Pd2  1  0.333527  0.666778  0.661038  1
  F  F3  1  0.345441  0.307728  0.184521  1
  F  F4  1  0.961969  0.654204  0.184398  1
  F  F5  1  0.691883  0.037840  0.184442  1
  F  F6  1  0.659442  0.659467  0.500023  1
  F  F7  1  0.999999  0.340218  0.500001  1
  F  F8  1  0.340559  0.000026  0.499977  1
  F  F9  1  0.308117  0.345957  0.815557  1
  F  F10  1  0.038031  0.692237  0.815603  1
  F  F11  1  0.654561  0.962288  0.815478  1
