# generated using pymatgen
data_Hf7Zr6Al9Ir7
_symmetry_space_group_name_H-M   'P 1'
_cell_length_a   9.11226951
_cell_length_b   9.11226944
_cell_length_c   9.11226935
_cell_angle_alpha   59.58038277
_cell_angle_beta   59.58038692
_cell_angle_gamma   59.58038625
_symmetry_Int_Tables_number   1
_chemical_formula_structural   Hf7Zr6Al9Ir7
_chemical_formula_sum   'Hf7 Zr6 Al9 Ir7'
_cell_volume   529.91017749
_cell_formula_units_Z   1
loop_
 _symmetry_equiv_pos_site_id
 _symmetry_equiv_pos_as_xyz
  1  'x, y, z'
loop_
 _atom_site_type_symbol
 _atom_site_label
 _atom_site_symmetry_multiplicity
 _atom_site_fract_x
 _atom_site_fract_y
 _atom_site_fract_z
 _atom_site_occupancy
  Hf  Hf0  1  0.881635  0.881635  0.364924  1
  Hf  Hf1  1  0.881635  0.364924  0.881635  1
  Hf  Hf2  1  0.364924  0.881635  0.881635  1
  Hf  Hf3  1  0.876337  0.876337  0.876337  1
  Hf  Hf4  1  0.123642  0.123642  0.629426  1
  Hf  Hf5  1  0.123642  0.629426  0.123642  1
  Hf  Hf6  1  0.629426  0.123642  0.123642  1
  Zr  Zr7  1  0.684481  0.684481  0.316999  1
  Zr  Zr8  1  0.311365  0.691673  0.311365  1
  Zr  Zr9  1  0.691673  0.311365  0.311365  1
  Zr  Zr10  1  0.311365  0.311365  0.691673  1
  Zr  Zr11  1  0.684481  0.316999  0.684481  1
  Zr  Zr12  1  0.316999  0.684481  0.684481  1
  Al  Al13  1  0.121431  0.121431  0.121431  1
  Al  Al14  1  0.656591  0.656591  0.027484  1
  Al  Al15  1  0.656591  0.027484  0.656591  1
  Al  Al16  1  0.027484  0.656591  0.656591  1
  Al  Al17  1  0.659279  0.659279  0.659279  1
  Al  Al18  1  0.336249  0.336249  0.980507  1
  Al  Al19  1  0.336249  0.980507  0.336249  1
  Al  Al20  1  0.980507  0.336249  0.336249  1
  Al  Al21  1  0.344656  0.344656  0.344656  1
  Ir  Ir22  1  0.998135  0.998135  0.998135  1
  Ir  Ir23  1  0.999955  0.999955  0.501478  1
  Ir  Ir24  1  0.500492  0.998851  0.500492  1
  Ir  Ir25  1  0.998851  0.500492  0.500492  1
  Ir  Ir26  1  0.500492  0.500492  0.998851  1
  Ir  Ir27  1  0.999955  0.501478  0.999955  1
  Ir  Ir28  1  0.501478  0.999955  0.999955  1
