# generated using pymatgen
data_HoEr9In8(PtAu)2
_symmetry_space_group_name_H-M   'P 1'
_cell_length_a   3.63056300
_cell_length_b   8.14178444
_cell_length_c   18.23973715
_cell_angle_alpha   90.04541588
_cell_angle_beta   90.00000000
_cell_angle_gamma   90.00000000
_symmetry_Int_Tables_number   1
_chemical_formula_structural   HoEr9In8(PtAu)2
_chemical_formula_sum   'Ho1 Er9 In8 Pt2 Au2'
_cell_volume   539.15298792
_cell_formula_units_Z   1
loop_
 _symmetry_equiv_pos_site_id
 _symmetry_equiv_pos_as_xyz
  1  'x, y, z'
loop_
 _atom_site_type_symbol
 _atom_site_label
 _atom_site_symmetry_multiplicity
 _atom_site_fract_x
 _atom_site_fract_y
 _atom_site_fract_z
 _atom_site_occupancy
  Ho  Ho0  1  0.000000  0.000000  0.000000  1
  Er  Er1  1  0.000000  0.119980  0.418744  1
  Er  Er2  1  0.000000  0.880020  0.581256  1
  Er  Er3  1  0.000000  0.384558  0.915818  1
  Er  Er4  1  0.000000  0.615442  0.084182  1
  Er  Er5  1  0.000000  0.251820  0.217555  1
  Er  Er6  1  0.000000  0.748180  0.782445  1
  Er  Er7  1  0.000000  0.267956  0.721201  1
  Er  Er8  1  0.000000  0.732044  0.278799  1
  Er  Er9  1  0.000000  0.500000  0.500000  1
  In  In10  1  0.500000  0.423430  0.352649  1
  In  In11  1  0.500000  0.576570  0.647351  1
  In  In12  1  0.500000  0.077494  0.852843  1
  In  In13  1  0.500000  0.922506  0.147157  1
  In  In14  1  0.500000  0.291970  0.065728  1
  In  In15  1  0.500000  0.708030  0.934272  1
  In  In16  1  0.500000  0.209623  0.566280  1
  In  In17  1  0.500000  0.790377  0.433720  1
  Pt  Pt18  1  0.500000  0.473589  0.803451  1
  Pt  Pt19  1  0.500000  0.526411  0.196549  1
  Au  Au20  1  0.500000  0.027434  0.302509  1
  Au  Au21  1  0.500000  0.972566  0.697491  1
