# generated using pymatgen
data_La18Dy2Si15Pd
_symmetry_space_group_name_H-M   'P 1'
_cell_length_a   8.03011128
_cell_length_b   8.04217675
_cell_length_c   15.26613500
_cell_angle_alpha   90.41783621
_cell_angle_beta   89.41101430
_cell_angle_gamma   89.81500207
_symmetry_Int_Tables_number   1
_chemical_formula_structural   La18Dy2Si15Pd
_chemical_formula_sum   'La18 Dy2 Si15 Pd1'
_cell_volume   985.79681283
_cell_formula_units_Z   1
loop_
 _symmetry_equiv_pos_site_id
 _symmetry_equiv_pos_as_xyz
  1  'x, y, z'
loop_
 _atom_site_type_symbol
 _atom_site_label
 _atom_site_symmetry_multiplicity
 _atom_site_fract_x
 _atom_site_fract_y
 _atom_site_fract_z
 _atom_site_occupancy
  La  La0  1  0.979156  0.130770  0.130011  1
  La  La1  1  0.027790  0.870823  0.617871  1
  La  La2  1  0.627762  0.519421  0.874051  1
  La  La3  1  0.485667  0.377039  0.622365  1
  La  La4  1  0.512643  0.624646  0.130665  1
  La  La5  1  0.126323  0.979015  0.876754  1
  La  La6  1  0.989373  0.620893  0.057034  1
  La  La7  1  0.019176  0.364840  0.541535  1
  La  La8  1  0.621905  0.987069  0.949689  1
  La  La9  1  0.121684  0.507727  0.802073  1
  La  La10  1  0.866196  0.480129  0.297852  1
  La  La11  1  0.505533  0.121948  0.202104  1
  La  La12  1  0.494926  0.878321  0.694912  1
  La  La13  1  0.384697  0.023659  0.451251  1
  La  La14  1  0.703977  0.694277  0.496252  1
  La  La15  1  0.813011  0.190449  0.747421  1
  La  La16  1  0.182201  0.802487  0.262906  1
  La  La17  1  0.301518  0.305778  0.001763  1
  Dy  Dy18  1  0.378336  0.480139  0.374828  1
  Dy  Dy19  1  0.857998  0.023072  0.370412  1
  Si  Si20  1  0.918506  0.288607  0.941272  1
  Si  Si21  1  0.716616  0.083160  0.554344  1
  Si  Si22  1  0.214056  0.417675  0.198633  1
  Si  Si23  1  0.796506  0.577620  0.687735  1
  Si  Si24  1  0.423511  0.209190  0.808058  1
  Si  Si25  1  0.572360  0.790518  0.312226  1
  Si  Si26  1  0.286342  0.921141  0.063734  1
  Si  Si27  1  0.832800  0.804165  0.795250  1
  Si  Si28  1  0.159839  0.203830  0.312487  1
  Si  Si29  1  0.797261  0.835320  0.203767  1
  Si  Si30  1  0.314574  0.668118  0.538309  1
  Si  Si31  1  0.694459  0.331768  0.049333  1
  Si  Si32  1  0.667597  0.304011  0.444858  1
  Si  Si33  1  0.329466  0.695145  0.956253  1
  Si  Si34  1  0.202403  0.167348  0.697914  1
  Pd  Pd35  1  0.073836  0.719884  0.434074  1
