# generated using pymatgen
data_LiTa8BiS16
_symmetry_space_group_name_H-M   'P 1'
_cell_length_a   6.70398800
_cell_length_b   6.70398857
_cell_length_c   13.43602700
_cell_angle_alpha   90.00000000
_cell_angle_beta   90.00000000
_cell_angle_gamma   120.00000704
_symmetry_Int_Tables_number   1
_chemical_formula_structural   LiTa8BiS16
_chemical_formula_sum   'Li1 Ta8 Bi1 S16'
_cell_volume   522.95938649
_cell_formula_units_Z   1
loop_
 _symmetry_equiv_pos_site_id
 _symmetry_equiv_pos_as_xyz
  1  'x, y, z'
loop_
 _atom_site_type_symbol
 _atom_site_label
 _atom_site_symmetry_multiplicity
 _atom_site_fract_x
 _atom_site_fract_y
 _atom_site_fract_z
 _atom_site_occupancy
  Li  Li0  1  0.000000  0.000000  0.000000  1
  Ta  Ta1  1  0.504393  0.495607  0.765790  1
  Ta  Ta2  1  0.008786  0.504393  0.234210  1
  Ta  Ta3  1  0.495607  0.991214  0.234210  1
  Ta  Ta4  1  0.504393  0.008786  0.765790  1
  Ta  Ta5  1  0.991214  0.495607  0.765790  1
  Ta  Ta6  1  0.495607  0.504393  0.234210  1
  Ta  Ta7  1  0.000000  0.000000  0.766543  1
  Ta  Ta8  1  0.000000  0.000000  0.233457  1
  Bi  Bi9  1  0.000000  0.000000  0.500000  1
  S  S10  1  0.831492  0.168508  0.349295  1
  S  S11  1  0.831492  0.662983  0.349295  1
  S  S12  1  0.337017  0.168508  0.349295  1
  S  S13  1  0.664778  0.832388  0.880023  1
  S  S14  1  0.168508  0.337017  0.650705  1
  S  S15  1  0.167612  0.832388  0.880023  1
  S  S16  1  0.167612  0.335222  0.880023  1
  S  S17  1  0.832388  0.167612  0.119977  1
  S  S18  1  0.335222  0.167612  0.119977  1
  S  S19  1  0.662983  0.831492  0.650705  1
  S  S20  1  0.333333  0.666667  0.116897  1
  S  S21  1  0.666667  0.333333  0.647705  1
  S  S22  1  0.666667  0.333333  0.883103  1
  S  S23  1  0.333333  0.666667  0.352295  1
  S  S24  1  0.832388  0.664778  0.119977  1
  S  S25  1  0.168508  0.831492  0.650705  1
