# generated using pymatgen
data_HoSn5BiRu4
_symmetry_space_group_name_H-M   'P 1'
_cell_length_a   6.93035741
_cell_length_b   6.93035722
_cell_length_c   7.00435579
_cell_angle_alpha   119.82071795
_cell_angle_beta   119.82071663
_cell_angle_gamma   89.85474275
_symmetry_Int_Tables_number   1
_chemical_formula_structural   HoSn5BiRu4
_chemical_formula_sum   'Ho1 Sn5 Bi1 Ru4'
_cell_volume   239.46201122
_cell_formula_units_Z   1
loop_
 _symmetry_equiv_pos_site_id
 _symmetry_equiv_pos_as_xyz
  1  'x, y, z'
loop_
 _atom_site_type_symbol
 _atom_site_label
 _atom_site_symmetry_multiplicity
 _atom_site_fract_x
 _atom_site_fract_y
 _atom_site_fract_z
 _atom_site_occupancy
  Ho  Ho0  1  0.994314  0.994314  0.992743  1
  Sn  Sn1  1  0.118033  0.118033  0.587409  1
  Sn  Sn2  1  0.882805  0.533075  0.411943  1
  Sn  Sn3  1  0.533075  0.882805  0.411943  1
  Sn  Sn4  1  0.002992  0.500737  0.003918  1
  Sn  Sn5  1  0.500737  0.002992  0.003918  1
  Bi  Bi6  1  0.465027  0.465027  0.585009  1
  Ru  Ru7  1  0.404189  0.404189  0.151749  1
  Ru  Ru8  1  0.751976  0.751976  0.155874  1
  Ru  Ru9  1  0.245906  0.600946  0.847746  1
  Ru  Ru10  1  0.600946  0.245906  0.847746  1
