# generated using pymatgen
data_Tm5ZrRuO12
_symmetry_space_group_name_H-M   'P 1'
_cell_length_a   6.38711278
_cell_length_b   6.34824763
_cell_length_c   6.35410600
_cell_angle_alpha   99.14484081
_cell_angle_beta   98.89756946
_cell_angle_gamma   98.78122426
_symmetry_Int_Tables_number   1
_chemical_formula_structural   Tm5ZrRuO12
_chemical_formula_sum   'Tm5 Zr1 Ru1 O12'
_cell_volume   247.12041011
_cell_formula_units_Z   1
loop_
 _symmetry_equiv_pos_site_id
 _symmetry_equiv_pos_as_xyz
  1  'x, y, z'
loop_
 _atom_site_type_symbol
 _atom_site_label
 _atom_site_symmetry_multiplicity
 _atom_site_fract_x
 _atom_site_fract_y
 _atom_site_fract_z
 _atom_site_occupancy
  Tm  Tm0  1  0.390529  0.690092  0.856940  1
  Tm  Tm1  1  0.861493  0.387481  0.694616  1
  Tm  Tm2  1  0.314731  0.145471  0.607873  1
  Tm  Tm3  1  0.611451  0.309138  0.138185  1
  Tm  Tm4  1  0.138732  0.610025  0.306516  1
  Zr  Zr5  1  0.683471  0.855496  0.388436  1
  Ru  Ru6  1  0.000148  0.997436  0.000930  1
  O  O7  1  0.438325  0.597792  0.182610  1
  O  O8  1  0.175783  0.432811  0.584891  1
  O  O9  1  0.595971  0.171643  0.429159  1
  O  O10  1  0.567489  0.412143  0.820322  1
  O  O11  1  0.818683  0.580351  0.414453  1
  O  O12  1  0.426213  0.823356  0.565086  1
  O  O13  1  0.908630  0.028790  0.691930  1
  O  O14  1  0.954490  0.304785  0.070017  1
  O  O15  1  0.299899  0.076048  0.952087  1
  O  O16  1  0.073614  0.959037  0.306486  1
  O  O17  1  0.045366  0.694360  0.930055  1
  O  O18  1  0.694984  0.923744  0.059405  1
