# generated using pymatgen
data_LaB2IrOs
_symmetry_space_group_name_H-M   'P 1'
_cell_length_a   7.00010782
_cell_length_b   6.13264425
_cell_length_c   5.63979297
_cell_angle_alpha   72.83480302
_cell_angle_beta   56.83053832
_cell_angle_gamma   50.33465491
_symmetry_Int_Tables_number   1
_chemical_formula_structural   LaB2IrOs
_chemical_formula_sum   'La2 B4 Ir2 Os2'
_cell_volume   155.45475494
_cell_formula_units_Z   2
loop_
 _symmetry_equiv_pos_site_id
 _symmetry_equiv_pos_as_xyz
  1  'x, y, z'
loop_
 _atom_site_type_symbol
 _atom_site_label
 _atom_site_symmetry_multiplicity
 _atom_site_fract_x
 _atom_site_fract_y
 _atom_site_fract_z
 _atom_site_occupancy
  La  La0  1  0.000000  0.000000  0.000000  1
  La  La1  1  0.250000  0.250000  0.250000  1
  B  B2  1  0.316303  0.683697  0.316303  1
  B  B3  1  0.683697  0.316303  0.683697  1
  B  B4  1  0.576566  0.923434  0.576566  1
  B  B5  1  0.923434  0.576566  0.923434  1
  Ir  Ir6  1  0.633751  0.633751  0.366249  1
  Ir  Ir7  1  0.366249  0.366249  0.633751  1
  Os  Os8  1  0.615110  0.615110  0.884890  1
  Os  Os9  1  0.884890  0.884890  0.615110  1
