# generated using pymatgen
data_CaLa7SiPd24
_symmetry_space_group_name_H-M   'P 1'
_cell_length_a   8.53052201
_cell_length_b   8.53052201
_cell_length_c   8.53052201
_cell_angle_alpha   90.00393584
_cell_angle_beta   90.00393584
_cell_angle_gamma   90.00393584
_symmetry_Int_Tables_number   1
_chemical_formula_structural   CaLa7SiPd24
_chemical_formula_sum   'Ca1 La7 Si1 Pd24'
_cell_volume   620.76442535
_cell_formula_units_Z   1
loop_
 _symmetry_equiv_pos_site_id
 _symmetry_equiv_pos_as_xyz
  1  'x, y, z'
loop_
 _atom_site_type_symbol
 _atom_site_label
 _atom_site_symmetry_multiplicity
 _atom_site_fract_x
 _atom_site_fract_y
 _atom_site_fract_z
 _atom_site_occupancy
  Ca  Ca0  1  0.252590  0.252590  0.252590  1
  La  La1  1  0.746793  0.746793  0.746793  1
  La  La2  1  0.746540  0.746540  0.253177  1
  La  La3  1  0.746540  0.253177  0.746540  1
  La  La4  1  0.253412  0.253412  0.746432  1
  La  La5  1  0.253412  0.746432  0.253412  1
  La  La6  1  0.253177  0.746540  0.746540  1
  La  La7  1  0.746432  0.253412  0.253412  1
  Si  Si8  1  0.000544  0.000544  0.000544  1
  Pd  Pd9  1  0.258240  0.499477  0.000459  1
  Pd  Pd10  1  0.741839  0.500102  0.999838  1
  Pd  Pd11  1  0.000459  0.258240  0.499477  1
  Pd  Pd12  1  0.499477  0.258240  0.000459  1
  Pd  Pd13  1  0.999838  0.741839  0.500102  1
  Pd  Pd14  1  0.500102  0.741839  0.999838  1
  Pd  Pd15  1  0.499477  0.000459  0.258240  1
  Pd  Pd16  1  0.258240  0.000459  0.499477  1
  Pd  Pd17  1  0.500102  0.999838  0.741839  1
  Pd  Pd18  1  0.741839  0.999838  0.500102  1
  Pd  Pd19  1  0.000459  0.499477  0.258240  1
  Pd  Pd20  1  0.999838  0.500102  0.741839  1
  Pd  Pd21  1  0.252888  0.499351  0.499351  1
  Pd  Pd22  1  0.747085  0.500129  0.500129  1
  Pd  Pd23  1  0.499351  0.252888  0.499351  1
  Pd  Pd24  1  0.500129  0.747085  0.500129  1
  Pd  Pd25  1  0.499351  0.499351  0.252888  1
  Pd  Pd26  1  0.500129  0.500129  0.747085  1
  Pd  Pd27  1  0.282010  0.000982  0.000982  1
  Pd  Pd28  1  0.717600  0.000071  0.000071  1
  Pd  Pd29  1  0.000982  0.282010  0.000982  1
  Pd  Pd30  1  0.000071  0.717600  0.000071  1
  Pd  Pd31  1  0.000982  0.000982  0.282010  1
  Pd  Pd32  1  0.000071  0.000071  0.717600  1
