# generated using pymatgen
data_Li4NdP12Ir17Ru2
_symmetry_space_group_name_H-M   'P 1'
_cell_length_a   12.55129300
_cell_length_b   12.61701831
_cell_length_c   3.92257200
_cell_angle_alpha   90.00000000
_cell_angle_beta   90.00000000
_cell_angle_gamma   119.82783606
_symmetry_Int_Tables_number   1
_chemical_formula_structural   Li4NdP12Ir17Ru2
_chemical_formula_sum   'Li4 Nd1 P12 Ir17 Ru2'
_cell_volume   538.88683791
_cell_formula_units_Z   1
loop_
 _symmetry_equiv_pos_site_id
 _symmetry_equiv_pos_as_xyz
  1  'x, y, z'
loop_
 _atom_site_type_symbol
 _atom_site_label
 _atom_site_symmetry_multiplicity
 _atom_site_fract_x
 _atom_site_fract_y
 _atom_site_fract_z
 _atom_site_occupancy
  Li  Li0  1  0.334494  0.667339  0.500000  1
  Li  Li1  1  0.667156  0.332661  0.500000  1
  Li  Li2  1  0.001595  0.824165  0.000000  1
  Li  Li3  1  0.177430  0.175835  0.000000  1
  Nd  Nd4  1  0.823184  0.000000  0.000000  1
  P  P5  1  0.999059  0.636387  0.500000  1
  P  P6  1  0.362673  0.363613  0.500000  1
  P  P7  1  0.638534  0.000000  0.500000  1
  P  P8  1  0.510997  0.685114  0.000000  1
  P  P9  1  0.309454  0.821502  0.000000  1
  P  P10  1  0.171862  0.488710  0.000000  1
  P  P11  1  0.487952  0.178498  0.000000  1
  P  P12  1  0.683150  0.511290  0.000000  1
  P  P13  1  0.825883  0.314886  0.000000  1
  P  P14  1  0.010222  0.183763  0.500000  1
  P  P15  1  0.826458  0.816237  0.500000  1
  P  P16  1  0.182928  0.000000  0.500000  1
  Ir  Ir17  1  0.507228  0.866478  0.000000  1
  Ir  Ir18  1  0.124846  0.639432  0.000000  1
  Ir  Ir19  1  0.357039  0.492082  0.000000  1
  Ir  Ir20  1  0.485416  0.360568  0.000000  1
  Ir  Ir21  1  0.864959  0.507918  0.000000  1
  Ir  Ir22  1  0.640751  0.133522  0.000000  1
  Ir  Ir23  1  0.457967  0.000000  0.500000  1
  Ir  Ir24  1  0.000022  0.290720  0.000000  1
  Ir  Ir25  1  0.709302  0.709280  0.000000  1
  Ir  Ir26  1  0.292280  0.000000  0.000000  1
  Ir  Ir27  1  0.624495  0.804427  0.500000  1
  Ir  Ir28  1  0.195946  0.817330  0.500000  1
  Ir  Ir29  1  0.182877  0.378605  0.500000  1
  Ir  Ir30  1  0.378615  0.182670  0.500000  1
  Ir  Ir31  1  0.804271  0.621395  0.500000  1
  Ir  Ir32  1  0.820067  0.195573  0.500000  1
  Ir  Ir33  1  0.003847  0.000000  0.500000  1
  Ru  Ru34  1  0.994347  0.451652  0.500000  1
  Ru  Ru35  1  0.542695  0.548348  0.500000  1
