# generated using pymatgen
data_Tb8Mg2Si3GeB16
_symmetry_space_group_name_H-M   'P 1'
_cell_length_a   7.19747083
_cell_length_b   7.19747083
_cell_length_c   7.92707500
_cell_angle_alpha   90.00000000
_cell_angle_beta   90.00000000
_cell_angle_gamma   89.94491304
_symmetry_Int_Tables_number   1
_chemical_formula_structural   Tb8Mg2Si3GeB16
_chemical_formula_sum   'Tb8 Mg2 Si3 Ge1 B16'
_cell_volume   410.65072464
_cell_formula_units_Z   1
loop_
 _symmetry_equiv_pos_site_id
 _symmetry_equiv_pos_as_xyz
  1  'x, y, z'
loop_
 _atom_site_type_symbol
 _atom_site_label
 _atom_site_symmetry_multiplicity
 _atom_site_fract_x
 _atom_site_fract_y
 _atom_site_fract_z
 _atom_site_occupancy
  Tb  Tb0  1  0.682937  0.182937  0.233368  1
  Tb  Tb1  1  0.317595  0.817595  0.767373  1
  Tb  Tb2  1  0.317595  0.817595  0.232627  1
  Tb  Tb3  1  0.816266  0.683067  0.232643  1
  Tb  Tb4  1  0.816266  0.683067  0.767357  1
  Tb  Tb5  1  0.682937  0.182937  0.766632  1
  Tb  Tb6  1  0.183067  0.316266  0.767357  1
  Tb  Tb7  1  0.183067  0.316266  0.232643  1
  Mg  Mg8  1  0.999606  0.001154  0.500000  1
  Mg  Mg9  1  0.501154  0.499606  0.500000  1
  Si  Si10  1  0.882197  0.382197  0.500000  1
  Si  Si11  1  0.384769  0.115151  0.500000  1
  Si  Si12  1  0.615151  0.884769  0.500000  1
  Ge  Ge13  1  0.117689  0.617689  0.500000  1
  B  B14  1  0.173371  0.039912  0.000000  1
  B  B15  1  0.826598  0.960020  0.000000  1
  B  B16  1  0.960034  0.173511  0.000000  1
  B  B17  1  0.326380  0.539936  0.000000  1
  B  B18  1  0.039936  0.826380  0.000000  1
  B  B19  1  0.673511  0.460034  0.000000  1
  B  B20  1  0.539912  0.673371  0.000000  1
  B  B21  1  0.460020  0.326598  0.000000  1
  B  B22  1  0.089585  0.589585  0.000000  1
  B  B23  1  0.910416  0.410416  0.000000  1
  B  B24  1  0.410158  0.089909  0.000000  1
  B  B25  1  0.589909  0.910158  0.000000  1
  B  B26  1  0.000006  0.999931  0.160397  1
  B  B27  1  0.000006  0.999931  0.839603  1
  B  B28  1  0.499931  0.500006  0.839603  1
  B  B29  1  0.499931  0.500006  0.160397  1
