# generated using pymatgen
data_Tm12InGaSi4
_symmetry_space_group_name_H-M   'P 1'
_cell_length_a   8.35932692
_cell_length_b   8.35932542
_cell_length_c   8.35932618
_cell_angle_alpha   112.02337120
_cell_angle_beta   111.54778220
_cell_angle_gamma   104.93589592
_symmetry_Int_Tables_number   1
_chemical_formula_structural   Tm12InGaSi4
_chemical_formula_sum   'Tm12 In1 Ga1 Si4'
_cell_volume   447.56846231
_cell_formula_units_Z   1
loop_
 _symmetry_equiv_pos_site_id
 _symmetry_equiv_pos_as_xyz
  1  'x, y, z'
loop_
 _atom_site_type_symbol
 _atom_site_label
 _atom_site_symmetry_multiplicity
 _atom_site_fract_x
 _atom_site_fract_y
 _atom_site_fract_z
 _atom_site_occupancy
  Tm  Tm0  1  0.566689  0.264841  0.301848  1
  Tm  Tm1  1  0.181972  0.227404  0.409376  1
  Tm  Tm2  1  0.181972  0.772596  0.954571  1
  Tm  Tm3  1  0.679827  0.477485  0.797658  1
  Tm  Tm4  1  0.679827  0.882170  0.202342  1
  Tm  Tm5  1  0.962993  0.264841  0.698152  1
  Tm  Tm6  1  0.037007  0.735159  0.301848  1
  Tm  Tm7  1  0.320173  0.117830  0.797658  1
  Tm  Tm8  1  0.320173  0.522515  0.202342  1
  Tm  Tm9  1  0.818028  0.227404  0.045429  1
  Tm  Tm10  1  0.818028  0.772596  0.590624  1
  Tm  Tm11  1  0.433311  0.735159  0.698152  1
  In  In12  1  0.500000  0.000000  0.500000  1
  Ga  Ga13  1  0.000000  0.500000  0.500000  1
  Si  Si14  1  0.882851  0.882851  0.000000  1
  Si  Si15  1  0.367551  0.500000  0.867551  1
  Si  Si16  1  0.632449  0.500000  0.132449  1
  Si  Si17  1  0.117149  0.117149  0.000000  1
