# generated using pymatgen
data_Tb2Dy2Ga18(RuPt)3
_symmetry_space_group_name_H-M   'P 1'
_cell_length_a   7.63248953
_cell_length_b   7.63617006
_cell_length_c   9.57863420
_cell_angle_alpha   89.92259837
_cell_angle_beta   89.94829272
_cell_angle_gamma   120.15922253
_symmetry_Int_Tables_number   1
_chemical_formula_structural   Tb2Dy2Ga18(RuPt)3
_chemical_formula_sum   'Tb2 Dy2 Ga18 Ru3 Pt3'
_cell_volume   482.69841438
_cell_formula_units_Z   1
loop_
 _symmetry_equiv_pos_site_id
 _symmetry_equiv_pos_as_xyz
  1  'x, y, z'
loop_
 _atom_site_type_symbol
 _atom_site_label
 _atom_site_symmetry_multiplicity
 _atom_site_fract_x
 _atom_site_fract_y
 _atom_site_fract_z
 _atom_site_occupancy
  Tb  Tb0  1  0.670234  0.997876  0.251213  1
  Tb  Tb1  1  0.331460  0.004795  0.748811  1
  Dy  Dy2  1  0.995566  0.668594  0.251046  1
  Dy  Dy3  1  0.002058  0.329862  0.748846  1
  Ga  Ga4  1  0.134610  0.132208  0.249815  1
  Ga  Ga5  1  0.867701  0.865523  0.750194  1
  Ga  Ga6  1  0.005439  0.339280  0.080792  1
  Ga  Ga7  1  0.005458  0.665728  0.919242  1
  Ga  Ga8  1  0.000951  0.660546  0.578350  1
  Ga  Ga9  1  0.338882  0.999060  0.421306  1
  Ga  Ga10  1  0.000949  0.339247  0.420255  1
  Ga  Ga11  1  0.661444  0.998938  0.580011  1
  Ga  Ga12  1  0.661054  0.994659  0.919031  1
  Ga  Ga13  1  0.333826  0.994231  0.081057  1
  Ga  Ga14  1  0.340210  0.340192  0.563635  1
  Ga  Ga15  1  0.659976  0.659522  0.436279  1
  Ga  Ga16  1  0.659236  0.665125  0.067424  1
  Ga  Ga17  1  0.334716  0.340904  0.932678  1
  Ga  Ga18  1  0.336930  0.552642  0.250835  1
  Ga  Ga19  1  0.664547  0.454225  0.745894  1
  Ga  Ga20  1  0.545975  0.335610  0.254155  1
  Ga  Ga21  1  0.447177  0.662761  0.749140  1
  Ru  Ru22  1  0.328257  0.671596  0.999925  1
  Ru  Ru23  1  0.327808  0.672081  0.500024  1
  Ru  Ru24  1  0.673250  0.327046  0.500079  1
  Pt  Pt25  1  0.671885  0.328239  0.999991  1
  Pt  Pt26  1  0.000329  0.999668  0.999959  1
  Pt  Pt27  1  0.000069  0.999843  0.500015  1
