# generated using pymatgen
data_Nd17Er3(Sn3Bi)4
_symmetry_space_group_name_H-M   'P 1'
_cell_length_a   8.38222044
_cell_length_b   8.40235677
_cell_length_c   16.06136689
_cell_angle_alpha   89.84640856
_cell_angle_beta   91.22368383
_cell_angle_gamma   90.00955797
_symmetry_Int_Tables_number   1
_chemical_formula_structural   Nd17Er3(Sn3Bi)4
_chemical_formula_sum   'Nd17 Er3 Sn12 Bi4'
_cell_volume   1130.94654963
_cell_formula_units_Z   1
loop_
 _symmetry_equiv_pos_site_id
 _symmetry_equiv_pos_as_xyz
  1  'x, y, z'
loop_
 _atom_site_type_symbol
 _atom_site_label
 _atom_site_symmetry_multiplicity
 _atom_site_fract_x
 _atom_site_fract_y
 _atom_site_fract_z
 _atom_site_occupancy
  Nd  Nd0  1  0.057634  0.167883  0.389938  1
  Nd  Nd1  1  0.381317  0.837427  0.119603  1
  Nd  Nd2  1  0.111244  0.335640  0.619596  1
  Nd  Nd3  1  0.466594  0.672479  0.898956  1
  Nd  Nd4  1  0.881125  0.662019  0.120479  1
  Nd  Nd5  1  0.120343  0.341532  0.879895  1
  Nd  Nd6  1  0.444853  0.675826  0.611017  1
  Nd  Nd7  1  0.606351  0.158283  0.618985  1
  Nd  Nd8  1  0.782090  0.499580  0.756585  1
  Nd  Nd9  1  0.889942  0.660395  0.379291  1
  Nd  Nd10  1  0.031299  0.180243  0.102270  1
  Nd  Nd11  1  0.957534  0.821514  0.897309  1
  Nd  Nd12  1  0.621660  0.161854  0.881419  1
  Nd  Nd13  1  0.540052  0.328768  0.104846  1
  Nd  Nd14  1  0.387797  0.842350  0.381317  1
  Nd  Nd15  1  0.951066  0.831760  0.610748  1
  Nd  Nd16  1  0.550738  0.326959  0.388746  1
  Er  Er17  1  0.219637  0.501154  0.244501  1
  Er  Er18  1  0.719095  0.999388  0.243812  1
  Er  Er19  1  0.281263  0.000837  0.748877  1
  Sn  Sn20  1  0.647982  0.860062  0.751800  1
  Sn  Sn21  1  0.850552  0.355467  0.250185  1
  Sn  Sn22  1  0.784168  0.466987  0.958269  1
  Sn  Sn23  1  0.581801  0.628852  0.251934  1
  Sn  Sn24  1  0.219960  0.526796  0.045785  1
  Sn  Sn25  1  0.414878  0.371509  0.749232  1
  Sn  Sn26  1  0.153580  0.645302  0.752168  1
  Sn  Sn27  1  0.917909  0.123819  0.750043  1
  Sn  Sn28  1  0.267363  0.017382  0.548819  1
  Sn  Sn29  1  0.719844  0.971225  0.046168  1
  Sn  Sn30  1  0.349160  0.143882  0.247747  1
  Sn  Sn31  1  0.083092  0.873751  0.249747  1
  Bi  Bi32  1  0.766558  0.484084  0.546887  1
  Bi  Bi33  1  0.732527  0.983798  0.450120  1
  Bi  Bi34  1  0.231328  0.515948  0.450288  1
  Bi  Bi35  1  0.277663  0.025248  0.952620  1
