# generated using pymatgen
data_NaVIrSe3S
_symmetry_space_group_name_H-M   'P 1'
_cell_length_a   3.65424600
_cell_length_b   5.85794986
_cell_length_c   7.76453324
_cell_angle_alpha   67.48642531
_cell_angle_beta   90.00000000
_cell_angle_gamma   90.00000000
_symmetry_Int_Tables_number   1
_chemical_formula_structural   NaVIrSe3S
_chemical_formula_sum   'Na1 V1 Ir1 Se3 S1'
_cell_volume   153.54352098
_cell_formula_units_Z   1
loop_
 _symmetry_equiv_pos_site_id
 _symmetry_equiv_pos_as_xyz
  1  'x, y, z'
loop_
 _atom_site_type_symbol
 _atom_site_label
 _atom_site_symmetry_multiplicity
 _atom_site_fract_x
 _atom_site_fract_y
 _atom_site_fract_z
 _atom_site_occupancy
  Na  Na0  1  0.500000  0.592340  0.501367  1
  V  V1  1  0.500000  0.566907  0.013019  1
  Ir  Ir2  1  0.000000  0.971704  0.998278  1
  Se  Se3  1  0.500000  0.076016  0.177336  1
  Se  Se4  1  0.000000  0.437907  0.827514  1
  Se  Se5  1  0.500000  0.965121  0.771108  1
  S  S6  1  0.000000  0.555104  0.216077  1
