# generated using pymatgen
data_La7Nd9Cd4Pd3Ru
_symmetry_space_group_name_H-M   'P 1'
_cell_length_a   10.10658921
_cell_length_b   10.10825260
_cell_length_c   10.13890207
_cell_angle_alpha   59.65377868
_cell_angle_beta   59.62138170
_cell_angle_gamma   59.60839356
_symmetry_Int_Tables_number   1
_chemical_formula_structural   La7Nd9Cd4Pd3Ru
_chemical_formula_sum   'La7 Nd9 Cd4 Pd3 Ru1'
_cell_volume   726.21967099
_cell_formula_units_Z   1
loop_
 _symmetry_equiv_pos_site_id
 _symmetry_equiv_pos_as_xyz
  1  'x, y, z'
loop_
 _atom_site_type_symbol
 _atom_site_label
 _atom_site_symmetry_multiplicity
 _atom_site_fract_x
 _atom_site_fract_y
 _atom_site_fract_z
 _atom_site_occupancy
  La  La0  1  0.352407  0.351695  0.351915  1
  La  La1  1  0.347018  0.345680  0.951001  1
  La  La2  1  0.347986  0.951424  0.346919  1
  La  La3  1  0.952044  0.347199  0.347337  1
  La  La4  1  0.819860  0.188362  0.186794  1
  La  La5  1  0.188898  0.808403  0.808137  1
  La  La6  1  0.188225  0.819555  0.188897  1
  Nd  Nd7  1  0.806906  0.189958  0.808410  1
  Nd  Nd8  1  0.189764  0.192522  0.812908  1
  Nd  Nd9  1  0.805534  0.807378  0.190656  1
  Nd  Nd10  1  0.932619  0.566742  0.567078  1
  Nd  Nd11  1  0.563188  0.934502  0.933841  1
  Nd  Nd12  1  0.567403  0.934494  0.565719  1
  Nd  Nd13  1  0.934407  0.561237  0.935561  1
  Nd  Nd14  1  0.566950  0.564677  0.935195  1
  Nd  Nd15  1  0.934896  0.937022  0.560843  1
  Cd  Cd16  1  0.581471  0.579726  0.579809  1
  Cd  Cd17  1  0.581541  0.581776  0.255930  1
  Cd  Cd18  1  0.580050  0.256077  0.582322  1
  Cd  Cd19  1  0.256432  0.579386  0.581414  1
  Pd  Pd20  1  0.145357  0.144309  0.572079  1
  Pd  Pd21  1  0.145830  0.572339  0.143945  1
  Pd  Pd22  1  0.572179  0.145429  0.144771  1
  Ru  Ru23  1  0.139036  0.140108  0.148520  1
