# generated using pymatgen
data_Yb4Zn(RuO4)3
_symmetry_space_group_name_H-M   'P 1'
_cell_length_a   5.60601074
_cell_length_b   5.30873854
_cell_length_c   7.64681856
_cell_angle_alpha   89.61203490
_cell_angle_beta   90.31419950
_cell_angle_gamma   90.05687366
_symmetry_Int_Tables_number   1
_chemical_formula_structural   Yb4Zn(RuO4)3
_chemical_formula_sum   'Yb4 Zn1 Ru3 O12'
_cell_volume   227.56704078
_cell_formula_units_Z   1
loop_
 _symmetry_equiv_pos_site_id
 _symmetry_equiv_pos_as_xyz
  1  'x, y, z'
loop_
 _atom_site_type_symbol
 _atom_site_label
 _atom_site_symmetry_multiplicity
 _atom_site_fract_x
 _atom_site_fract_y
 _atom_site_fract_z
 _atom_site_occupancy
  Yb  Yb0  1  0.565154  0.478196  0.760574  1
  Yb  Yb1  1  0.073706  0.021603  0.763306  1
  Yb  Yb2  1  0.434846  0.521804  0.239426  1
  Yb  Yb3  1  0.926294  0.978397  0.236694  1
  Zn  Zn4  1  0.500000  0.000000  0.000000  1
  Ru  Ru5  1  0.000000  0.500000  0.500000  1
  Ru  Ru6  1  0.500000  0.000000  0.500000  1
  Ru  Ru7  1  0.000000  0.500000  0.000000  1
  O  O8  1  0.706729  0.683606  0.050113  1
  O  O9  1  0.201375  0.801221  0.440600  1
  O  O10  1  0.297689  0.304033  0.558028  1
  O  O11  1  0.811121  0.198668  0.952280  1
  O  O12  1  0.293271  0.316394  0.949887  1
  O  O13  1  0.798625  0.198779  0.559400  1
  O  O14  1  0.702311  0.695967  0.441972  1
  O  O15  1  0.188879  0.801332  0.047720  1
  O  O16  1  0.468733  0.892961  0.740856  1
  O  O17  1  0.966588  0.606024  0.748244  1
  O  O18  1  0.531267  0.107039  0.259144  1
  O  O19  1  0.033412  0.393976  0.251756  1
