# generated using pymatgen
data_Tb5Dy(Er2Sn3)2
_symmetry_space_group_name_H-M   'P 1'
_cell_length_a   8.96592813
_cell_length_b   8.96860099
_cell_length_c   6.52436900
_cell_angle_alpha   90.00000000
_cell_angle_beta   90.00000000
_cell_angle_gamma   120.00986410
_symmetry_Int_Tables_number   1
_chemical_formula_structural   Tb5Dy(Er2Sn3)2
_chemical_formula_sum   'Tb5 Dy1 Er4 Sn6'
_cell_volume   454.30333729
_cell_formula_units_Z   1
loop_
 _symmetry_equiv_pos_site_id
 _symmetry_equiv_pos_as_xyz
  1  'x, y, z'
loop_
 _atom_site_type_symbol
 _atom_site_label
 _atom_site_symmetry_multiplicity
 _atom_site_fract_x
 _atom_site_fract_y
 _atom_site_fract_z
 _atom_site_occupancy
  Tb  Tb0  1  0.000000  0.239049  0.250000  1
  Tb  Tb1  1  0.761057  0.761013  0.250000  1
  Tb  Tb2  1  0.761031  0.999962  0.750000  1
  Tb  Tb3  1  0.238969  0.238931  0.750000  1
  Tb  Tb4  1  0.238943  0.999956  0.250000  1
  Dy  Dy5  1  0.000000  0.760966  0.750000  1
  Er  Er6  1  0.333307  0.666671  0.500009  1
  Er  Er7  1  0.666693  0.333363  0.999991  1
  Er  Er8  1  0.666693  0.333363  0.500009  1
  Er  Er9  1  0.333307  0.666671  0.999991  1
  Sn  Sn10  1  0.396099  0.999887  0.750000  1
  Sn  Sn11  1  0.396297  0.396292  0.250000  1
  Sn  Sn12  1  0.000000  0.603688  0.250000  1
  Sn  Sn13  1  0.000000  0.396405  0.750000  1
  Sn  Sn14  1  0.603901  0.603788  0.750000  1
  Sn  Sn15  1  0.603703  0.999994  0.250000  1
