# generated using pymatgen
data_CaNd4Ga2Ge
_symmetry_space_group_name_H-M   'P 1'
_cell_length_a   9.07631505
_cell_length_b   9.07631455
_cell_length_c   9.07631394
_cell_angle_alpha   128.36467939
_cell_angle_beta   128.36467989
_cell_angle_gamma   76.03500250
_symmetry_Int_Tables_number   1
_chemical_formula_structural   CaNd4Ga2Ge
_chemical_formula_sum   'Ca2 Nd8 Ga4 Ge2'
_cell_volume   446.90015522
_cell_formula_units_Z   2
loop_
 _symmetry_equiv_pos_site_id
 _symmetry_equiv_pos_as_xyz
  1  'x, y, z'
loop_
 _atom_site_type_symbol
 _atom_site_label
 _atom_site_symmetry_multiplicity
 _atom_site_fract_x
 _atom_site_fract_y
 _atom_site_fract_z
 _atom_site_occupancy
  Ca  Ca0  1  0.500000  0.500000  0.000000  1
  Ca  Ca1  1  0.000000  0.000000  0.000000  1
  Nd  Nd2  1  0.523262  0.023262  0.844122  1
  Nd  Nd3  1  0.179139  0.679139  0.155878  1
  Nd  Nd4  1  0.023262  0.179139  0.500000  1
  Nd  Nd5  1  0.679139  0.523262  0.500000  1
  Nd  Nd6  1  0.476738  0.976738  0.155878  1
  Nd  Nd7  1  0.820861  0.320861  0.844122  1
  Nd  Nd8  1  0.976738  0.820861  0.500000  1
  Nd  Nd9  1  0.320861  0.476738  0.500000  1
  Ga  Ga10  1  0.882134  0.382134  0.264267  1
  Ga  Ga11  1  0.117866  0.617866  0.735733  1
  Ga  Ga12  1  0.382134  0.117866  0.500000  1
  Ga  Ga13  1  0.617866  0.882134  0.500000  1
  Ge  Ge14  1  0.250000  0.250000  0.000000  1
  Ge  Ge15  1  0.750000  0.750000  0.000000  1
