# generated using pymatgen
data_La3Sn3Rh2Au
_symmetry_space_group_name_H-M   'P 1'
_cell_length_a   7.72637000
_cell_length_b   7.72636889
_cell_length_c   4.21652600
_cell_angle_alpha   90.00000000
_cell_angle_beta   90.00000000
_cell_angle_gamma   119.99999617
_symmetry_Int_Tables_number   1
_chemical_formula_structural   La3Sn3Rh2Au
_chemical_formula_sum   'La3 Sn3 Rh2 Au1'
_cell_volume   217.98990018
_cell_formula_units_Z   1
loop_
 _symmetry_equiv_pos_site_id
 _symmetry_equiv_pos_as_xyz
  1  'x, y, z'
loop_
 _atom_site_type_symbol
 _atom_site_label
 _atom_site_symmetry_multiplicity
 _atom_site_fract_x
 _atom_site_fract_y
 _atom_site_fract_z
 _atom_site_occupancy
  La  La0  1  0.987057  0.579674  0.000000  1
  La  La1  1  0.420326  0.407383  0.000000  1
  La  La2  1  0.592617  0.012943  0.000000  1
  Sn  Sn3  1  0.760196  0.753116  0.500000  1
  Sn  Sn4  1  0.992920  0.239804  0.500000  1
  Sn  Sn5  1  0.246884  0.007080  0.500000  1
  Rh  Rh6  1  0.666667  0.333333  0.500000  1
  Rh  Rh7  1  0.000000  0.000000  0.000000  1
  Au  Au8  1  0.333333  0.666667  0.500000  1
