# generated using pymatgen
data_YbHo3Ir7Ru
_symmetry_space_group_name_H-M   'P 1'
_cell_length_a   5.33038670
_cell_length_b   5.34875671
_cell_length_c   8.71394951
_cell_angle_alpha   90.00113343
_cell_angle_beta   90.05788688
_cell_angle_gamma   120.11403570
_symmetry_Int_Tables_number   1
_chemical_formula_structural   YbHo3Ir7Ru
_chemical_formula_sum   'Yb1 Ho3 Ir7 Ru1'
_cell_volume   214.91005467
_cell_formula_units_Z   1
loop_
 _symmetry_equiv_pos_site_id
 _symmetry_equiv_pos_as_xyz
  1  'x, y, z'
loop_
 _atom_site_type_symbol
 _atom_site_label
 _atom_site_symmetry_multiplicity
 _atom_site_fract_x
 _atom_site_fract_y
 _atom_site_fract_z
 _atom_site_occupancy
  Yb  Yb0  1  0.667071  0.333531  0.565182  1
  Ho  Ho1  1  0.333082  0.666546  0.437660  1
  Ho  Ho2  1  0.333634  0.666827  0.068678  1
  Ho  Ho3  1  0.667304  0.333648  0.925453  1
  Ir  Ir4  1  0.002598  0.001294  0.500078  1
  Ir  Ir5  1  0.003443  0.001724  0.001104  1
  Ir  Ir6  1  0.169475  0.338767  0.751011  1
  Ir  Ir7  1  0.169482  0.830666  0.750998  1
  Ir  Ir8  1  0.658939  0.829456  0.751438  1
  Ir  Ir9  1  0.827183  0.658421  0.249184  1
  Ir  Ir10  1  0.827189  0.168790  0.249191  1
  Ru  Ru11  1  0.340602  0.170330  0.250023  1
