# generated using pymatgen
data_Ca8PrNd11Sn16
_symmetry_space_group_name_H-M   'P 1'
_cell_length_a   8.02347357
_cell_length_b   8.53251676
_cell_length_c   16.15412990
_cell_angle_alpha   89.99109162
_cell_angle_beta   90.24896107
_cell_angle_gamma   90.07212643
_symmetry_Int_Tables_number   1
_chemical_formula_structural   Ca8PrNd11Sn16
_chemical_formula_sum   'Ca8 Pr1 Nd11 Sn16'
_cell_volume   1105.90723193
_cell_formula_units_Z   1
loop_
 _symmetry_equiv_pos_site_id
 _symmetry_equiv_pos_as_xyz
  1  'x, y, z'
loop_
 _atom_site_type_symbol
 _atom_site_label
 _atom_site_symmetry_multiplicity
 _atom_site_fract_x
 _atom_site_fract_y
 _atom_site_fract_z
 _atom_site_occupancy
  Ca  Ca0  1  0.331701  0.828226  0.123031  1
  Ca  Ca1  1  0.167431  0.328092  0.622850  1
  Ca  Ca2  1  0.500953  0.682426  0.906459  1
  Ca  Ca3  1  0.830713  0.672326  0.123299  1
  Ca  Ca4  1  0.162723  0.497006  0.248441  1
  Ca  Ca5  1  0.664217  0.003369  0.248269  1
  Ca  Ca6  1  0.338043  0.994661  0.749506  1
  Ca  Ca7  1  0.834060  0.506315  0.750367  1
  Pr  Pr8  1  0.994782  0.184659  0.405606  1
  Nd  Nd9  1  0.168038  0.329655  0.875200  1
  Nd  Nd10  1  0.506940  0.682457  0.593380  1
  Nd  Nd11  1  0.667293  0.173970  0.624590  1
  Nd  Nd12  1  0.834725  0.674711  0.375696  1
  Nd  Nd13  1  0.990383  0.185916  0.095281  1
  Nd  Nd14  1  0.008801  0.813159  0.903746  1
  Nd  Nd15  1  0.667351  0.171133  0.876892  1
  Nd  Nd16  1  0.490665  0.314472  0.096818  1
  Nd  Nd17  1  0.335729  0.826592  0.375306  1
  Nd  Nd18  1  0.010780  0.815033  0.596402  1
  Nd  Nd19  1  0.492841  0.316453  0.404235  1
  Sn  Sn20  1  0.826824  0.464716  0.537348  1
  Sn  Sn21  1  0.676201  0.964624  0.462414  1
  Sn  Sn22  1  0.710344  0.862827  0.749158  1
  Sn  Sn23  1  0.175029  0.537227  0.462144  1
  Sn  Sn24  1  0.326074  0.038343  0.962786  1
  Sn  Sn25  1  0.789713  0.360199  0.251266  1
  Sn  Sn26  1  0.829874  0.465875  0.961794  1
  Sn  Sn27  1  0.532632  0.603205  0.249729  1
  Sn  Sn28  1  0.167584  0.531980  0.039565  1
  Sn  Sn29  1  0.466326  0.390768  0.749138  1
  Sn  Sn30  1  0.209315  0.640271  0.748942  1
  Sn  Sn31  1  0.969393  0.100045  0.750864  1
  Sn  Sn32  1  0.327935  0.033297  0.538460  1
  Sn  Sn33  1  0.670566  0.969292  0.040595  1
  Sn  Sn34  1  0.289992  0.140279  0.250256  1
  Sn  Sn35  1  0.034028  0.896423  0.250167  1
