# generated using pymatgen
data_Sr4ScAl2FeO10
_symmetry_space_group_name_H-M   'P 1'
_cell_length_a   5.63623405
_cell_length_b   5.87642980
_cell_length_c   8.56322603
_cell_angle_alpha   110.17134042
_cell_angle_beta   109.21388048
_cell_angle_gamma   89.99999499
_symmetry_Int_Tables_number   1
_chemical_formula_structural   Sr4ScAl2FeO10
_chemical_formula_sum   'Sr4 Sc1 Al2 Fe1 O10'
_cell_volume   249.32771147
_cell_formula_units_Z   1
loop_
 _symmetry_equiv_pos_site_id
 _symmetry_equiv_pos_as_xyz
  1  'x, y, z'
loop_
 _atom_site_type_symbol
 _atom_site_label
 _atom_site_symmetry_multiplicity
 _atom_site_fract_x
 _atom_site_fract_y
 _atom_site_fract_z
 _atom_site_occupancy
  Sr  Sr0  1  0.118863  0.632429  0.226344  1
  Sr  Sr1  1  0.892519  0.367571  0.773656  1
  Sr  Sr2  1  0.391518  0.908644  0.772518  1
  Sr  Sr3  1  0.619000  0.091356  0.227482  1
  Sc  Sc4  1  0.001197  0.000000  0.000000  1
  Al  Al5  1  0.279187  0.326609  0.500516  1
  Al  Al6  1  0.778671  0.673391  0.499484  1
  Fe  Fe7  1  0.501543  0.500000  0.000000  1
  O  O8  1  0.246748  0.736529  0.978555  1
  O  O9  1  0.268193  0.263471  0.021445  1
  O  O10  1  0.759781  0.268215  0.021610  1
  O  O11  1  0.738171  0.731785  0.978390  1
  O  O12  1  0.635627  0.712508  0.295209  1
  O  O13  1  0.340420  0.287492  0.704791  1
  O  O14  1  0.842066  0.914770  0.706077  1
  O  O15  1  0.135988  0.085230  0.293923  1
  O  O16  1  0.080734  0.568068  0.499962  1
  O  O17  1  0.580772  0.431932  0.500038  1
