# generated using pymatgen
data_LuInTc2F14
_symmetry_space_group_name_H-M   'P 1'
_cell_length_a   5.48850894
_cell_length_b   8.70483376
_cell_length_c   11.81982646
_cell_angle_alpha   63.06798115
_cell_angle_beta   90.25564717
_cell_angle_gamma   89.97181498
_symmetry_Int_Tables_number   1
_chemical_formula_structural   LuInTc2F14
_chemical_formula_sum   'Lu2 In2 Tc4 F28'
_cell_volume   503.45766989
_cell_formula_units_Z   2
loop_
 _symmetry_equiv_pos_site_id
 _symmetry_equiv_pos_as_xyz
  1  'x, y, z'
loop_
 _atom_site_type_symbol
 _atom_site_label
 _atom_site_symmetry_multiplicity
 _atom_site_fract_x
 _atom_site_fract_y
 _atom_site_fract_z
 _atom_site_occupancy
  Lu  Lu0  1  0.758334  0.183827  0.235793  1
  Lu  Lu1  1  0.241666  0.816173  0.764207  1
  In  In2  1  0.262260  0.814993  0.263547  1
  In  In3  1  0.737740  0.185007  0.736453  1
  Tc  Tc4  1  0.760390  0.727768  0.044484  1
  Tc  Tc5  1  0.239610  0.272232  0.955516  1
  Tc  Tc6  1  0.259928  0.274425  0.457176  1
  Tc  Tc7  1  0.740072  0.725575  0.542824  1
  F  F8  1  0.942442  0.701522  0.417253  1
  F  F9  1  0.057558  0.298478  0.582747  1
  F  F10  1  0.446090  0.291788  0.083403  1
  F  F11  1  0.553910  0.708212  0.916597  1
  F  F12  1  0.469472  0.726407  0.141904  1
  F  F13  1  0.530528  0.273593  0.858096  1
  F  F14  1  0.973014  0.270391  0.358817  1
  F  F15  1  0.026986  0.729609  0.641183  1
  F  F16  1  0.960037  0.744498  0.178974  1
  F  F17  1  0.039963  0.255502  0.821026  1
  F  F18  1  0.459090  0.253216  0.325578  1
  F  F19  1  0.540910  0.746784  0.674422  1
  F  F20  1  0.774970  0.475292  0.142078  1
  F  F21  1  0.225030  0.524708  0.857922  1
  F  F22  1  0.276115  0.527070  0.355474  1
  F  F23  1  0.723885  0.472930  0.644526  1
  F  F24  1  0.942582  0.274945  0.047794  1
  F  F25  1  0.057418  0.725055  0.952206  1
  F  F26  1  0.436092  0.721945  0.453053  1
  F  F27  1  0.563908  0.278055  0.546947  1
  F  F28  1  0.741702  0.975868  0.445355  1
  F  F29  1  0.258298  0.024132  0.554645  1
  F  F30  1  0.241113  0.022184  0.049678  1
  F  F31  1  0.758887  0.977816  0.950322  1
  F  F32  1  0.581376  0.968360  0.231430  1
  F  F33  1  0.418624  0.031640  0.768570  1
  F  F34  1  0.083188  0.025356  0.268831  1
  F  F35  1  0.916812  0.974644  0.731169  1
