# generated using pymatgen
data_K2Si2SnS6
_symmetry_space_group_name_H-M   'P 1'
_cell_length_a   8.58019582
_cell_length_b   8.58019685
_cell_length_c   9.18915785
_cell_angle_alpha   90.01502973
_cell_angle_beta   90.01503126
_cell_angle_gamma   114.54221717
_symmetry_Int_Tables_number   1
_chemical_formula_structural   K2Si2SnS6
_chemical_formula_sum   'K4 Si4 Sn2 S12'
_cell_volume   615.38519784
_cell_formula_units_Z   2
loop_
 _symmetry_equiv_pos_site_id
 _symmetry_equiv_pos_as_xyz
  1  'x, y, z'
loop_
 _atom_site_type_symbol
 _atom_site_label
 _atom_site_symmetry_multiplicity
 _atom_site_fract_x
 _atom_site_fract_y
 _atom_site_fract_z
 _atom_site_occupancy
  K  K0  1  0.260934  0.532757  0.518773  1
  K  K1  1  0.739066  0.467243  0.481227  1
  K  K2  1  0.467243  0.739066  0.981227  1
  K  K3  1  0.532757  0.260934  0.018773  1
  Si  Si4  1  0.978368  0.650481  0.056059  1
  Si  Si5  1  0.021632  0.349519  0.943941  1
  Si  Si6  1  0.349519  0.021632  0.443941  1
  Si  Si7  1  0.650481  0.978368  0.556059  1
  Sn  Sn8  1  0.004709  0.995291  0.250000  1
  Sn  Sn9  1  0.995291  0.004709  0.750000  1
  S  S10  1  0.649905  0.760850  0.660054  1
  S  S11  1  0.920186  0.520431  0.845140  1
  S  S12  1  0.239150  0.350095  0.839946  1
  S  S13  1  0.520431  0.920186  0.345140  1
  S  S14  1  0.350095  0.239150  0.339946  1
  S  S15  1  0.900872  0.173212  0.542288  1
  S  S16  1  0.826788  0.099128  0.957712  1
  S  S17  1  0.173212  0.900872  0.042288  1
  S  S18  1  0.079814  0.479569  0.154860  1
  S  S19  1  0.479569  0.079814  0.654860  1
  S  S20  1  0.099128  0.826788  0.457712  1
  S  S21  1  0.760850  0.649905  0.160054  1
