# generated using pymatgen
data_Lu3Mg3IrAu2
_symmetry_space_group_name_H-M   'P 1'
_cell_length_a   7.58525000
_cell_length_b   7.58524970
_cell_length_c   3.88297500
_cell_angle_alpha   90.00000000
_cell_angle_beta   90.00000000
_cell_angle_gamma   120.00000653
_symmetry_Int_Tables_number   1
_chemical_formula_structural   Lu3Mg3IrAu2
_chemical_formula_sum   'Lu3 Mg3 Ir1 Au2'
_cell_volume   193.47950985
_cell_formula_units_Z   1
loop_
 _symmetry_equiv_pos_site_id
 _symmetry_equiv_pos_as_xyz
  1  'x, y, z'
loop_
 _atom_site_type_symbol
 _atom_site_label
 _atom_site_symmetry_multiplicity
 _atom_site_fract_x
 _atom_site_fract_y
 _atom_site_fract_z
 _atom_site_occupancy
  Lu  Lu0  1  0.424615  0.029170  0.000000  1
  Lu  Lu1  1  0.970830  0.395445  0.000000  1
  Lu  Lu2  1  0.604555  0.575385  0.000000  1
  Mg  Mg3  1  0.001623  0.743171  0.500000  1
  Mg  Mg4  1  0.741549  0.998377  0.500000  1
  Mg  Mg5  1  0.256829  0.258451  0.500000  1
  Ir  Ir6  1  0.666667  0.333333  0.500000  1
  Au  Au7  1  0.000000  0.000000  0.000000  1
  Au  Au8  1  0.333333  0.666667  0.500000  1
