# generated using pymatgen
data_Ta3MnCrSi3Ru
_symmetry_space_group_name_H-M   'P 1'
_cell_length_a   7.37628237
_cell_length_b   7.37056402
_cell_length_c   7.37056506
_cell_angle_alpha   127.34156274
_cell_angle_beta   123.68310556
_cell_angle_gamma   80.70780074
_symmetry_Int_Tables_number   1
_chemical_formula_structural   Ta3MnCrSi3Ru
_chemical_formula_sum   'Ta6 Mn2 Cr2 Si6 Ru2'
_cell_volume   255.66411585
_cell_formula_units_Z   2
loop_
 _symmetry_equiv_pos_site_id
 _symmetry_equiv_pos_as_xyz
  1  'x, y, z'
loop_
 _atom_site_type_symbol
 _atom_site_label
 _atom_site_symmetry_multiplicity
 _atom_site_fract_x
 _atom_site_fract_y
 _atom_site_fract_z
 _atom_site_occupancy
  Ta  Ta0  1  0.942696  0.901644  0.460046  1
  Ta  Ta1  1  0.057304  0.517351  0.958949  1
  Ta  Ta2  1  0.535539  0.509759  0.471705  1
  Ta  Ta3  1  0.464461  0.936165  0.974218  1
  Ta  Ta4  1  0.749129  0.081340  0.835515  1
  Ta  Ta5  1  0.250871  0.086386  0.332212  1
  Mn  Mn6  1  0.909961  0.251692  0.413434  1
  Mn  Mn7  1  0.090039  0.503474  0.341732  1
  Cr  Cr8  1  0.500000  0.750569  0.250569  1
  Cr  Cr9  1  0.000000  0.751207  0.751207  1
  Si  Si10  1  0.733116  0.460982  0.247242  1
  Si  Si11  1  0.266884  0.514126  0.727866  1
  Si  Si12  1  0.675800  0.174571  0.510679  1
  Si  Si13  1  0.324200  0.834878  0.498771  1
  Si  Si14  1  0.161170  0.178054  0.005816  1
  Si  Si15  1  0.838830  0.844645  0.016884  1
  Ru  Ru16  1  0.342626  0.255441  0.848143  1
  Ru  Ru17  1  0.657374  0.505517  0.912815  1
