# generated using pymatgen
data_DyErPa2(B4Os)4
_symmetry_space_group_name_H-M   'P 1'
_cell_length_a   3.58151500
_cell_length_b   5.98209628
_cell_length_c   11.59496129
_cell_angle_alpha   89.85649426
_cell_angle_beta   90.00000000
_cell_angle_gamma   90.00000000
_symmetry_Int_Tables_number   1
_chemical_formula_structural   DyErPa2(B4Os)4
_chemical_formula_sum   'Dy1 Er1 Pa2 B16 Os4'
_cell_volume   248.42089036
_cell_formula_units_Z   1
loop_
 _symmetry_equiv_pos_site_id
 _symmetry_equiv_pos_as_xyz
  1  'x, y, z'
loop_
 _atom_site_type_symbol
 _atom_site_label
 _atom_site_symmetry_multiplicity
 _atom_site_fract_x
 _atom_site_fract_y
 _atom_site_fract_z
 _atom_site_occupancy
  Dy  Dy0  1  0.000000  0.128908  0.147733  1
  Er  Er1  1  0.000000  0.871058  0.852271  1
  Pa  Pa2  1  0.000000  0.628923  0.348939  1
  Pa  Pa3  1  0.000000  0.371065  0.651114  1
  B  B4  1  0.500000  0.790389  0.185806  1
  B  B5  1  0.500000  0.209154  0.814182  1
  B  B6  1  0.500000  0.290555  0.312146  1
  B  B7  1  0.500000  0.709542  0.688027  1
  B  B8  1  0.500000  0.863701  0.030761  1
  B  B9  1  0.500000  0.136091  0.968916  1
  B  B10  1  0.500000  0.365905  0.467418  1
  B  B11  1  0.500000  0.634104  0.532599  1
  B  B12  1  0.500000  0.887363  0.453430  1
  B  B13  1  0.500000  0.112624  0.546606  1
  B  B14  1  0.500000  0.386385  0.045283  1
  B  B15  1  0.500000  0.614118  0.954464  1
  B  B16  1  0.500000  0.973215  0.307820  1
  B  B17  1  0.500000  0.026648  0.692410  1
  B  B18  1  0.500000  0.471049  0.189708  1
  B  B19  1  0.500000  0.529313  0.810286  1
  Os  Os20  1  0.000000  0.640340  0.095080  1
  Os  Os21  1  0.000000  0.359552  0.904671  1
  Os  Os22  1  0.000000  0.141508  0.404385  1
  Os  Os23  1  0.000000  0.858489  0.595944  1
