# generated using pymatgen
data_HoEr4In4CuPt
_symmetry_space_group_name_H-M   'P 1'
_cell_length_a   3.60689600
_cell_length_b   8.04331090
_cell_length_c   18.04060208
_cell_angle_alpha   90.07495306
_cell_angle_beta   90.00000000
_cell_angle_gamma   90.00000000
_symmetry_Int_Tables_number   1
_chemical_formula_structural   HoEr4In4CuPt
_chemical_formula_sum   'Ho2 Er8 In8 Cu2 Pt2'
_cell_volume   523.38242142
_cell_formula_units_Z   2
loop_
 _symmetry_equiv_pos_site_id
 _symmetry_equiv_pos_as_xyz
  1  'x, y, z'
loop_
 _atom_site_type_symbol
 _atom_site_label
 _atom_site_symmetry_multiplicity
 _atom_site_fract_x
 _atom_site_fract_y
 _atom_site_fract_z
 _atom_site_occupancy
  Ho  Ho0  1  0.000000  0.000000  0.000000  1
  Ho  Ho1  1  0.000000  0.500000  0.500000  1
  Er  Er2  1  0.000000  0.117282  0.415333  1
  Er  Er3  1  0.000000  0.882718  0.584667  1
  Er  Er4  1  0.000000  0.383243  0.915638  1
  Er  Er5  1  0.000000  0.616757  0.084362  1
  Er  Er6  1  0.000000  0.246331  0.219585  1
  Er  Er7  1  0.000000  0.753669  0.780415  1
  Er  Er8  1  0.000000  0.260314  0.720215  1
  Er  Er9  1  0.000000  0.739686  0.279785  1
  In  In10  1  0.500000  0.421136  0.352232  1
  In  In11  1  0.500000  0.578864  0.647768  1
  In  In12  1  0.500000  0.074709  0.849588  1
  In  In13  1  0.500000  0.925291  0.150412  1
  In  In14  1  0.500000  0.292201  0.066487  1
  In  In15  1  0.500000  0.707799  0.933513  1
  In  In16  1  0.500000  0.206552  0.568067  1
  In  In17  1  0.500000  0.793448  0.431933  1
  Cu  Cu18  1  0.500000  0.026302  0.302283  1
  Cu  Cu19  1  0.500000  0.973698  0.697717  1
  Pt  Pt20  1  0.500000  0.473119  0.802512  1
  Pt  Pt21  1  0.500000  0.526881  0.197488  1
