# generated using pymatgen
data_Y9ScCd3Fe
_symmetry_space_group_name_H-M   'P 1'
_cell_length_a   9.51869100
_cell_length_b   9.51869056
_cell_length_c   9.78111300
_cell_angle_alpha   90.00000000
_cell_angle_beta   90.00000000
_cell_angle_gamma   119.99999805
_symmetry_Int_Tables_number   1
_chemical_formula_structural   Y9ScCd3Fe
_chemical_formula_sum   'Y18 Sc2 Cd6 Fe2'
_cell_volume   767.49111084
_cell_formula_units_Z   2
loop_
 _symmetry_equiv_pos_site_id
 _symmetry_equiv_pos_as_xyz
  1  'x, y, z'
loop_
 _atom_site_type_symbol
 _atom_site_label
 _atom_site_symmetry_multiplicity
 _atom_site_fract_x
 _atom_site_fract_y
 _atom_site_fract_z
 _atom_site_occupancy
  Y  Y0  1  0.210353  0.789647  0.437322  1
  Y  Y1  1  0.210353  0.420705  0.437322  1
  Y  Y2  1  0.579295  0.789647  0.437322  1
  Y  Y3  1  0.789647  0.210353  0.562678  1
  Y  Y4  1  0.789647  0.579295  0.562678  1
  Y  Y5  1  0.420705  0.210353  0.562678  1
  Y  Y6  1  0.789647  0.210353  0.937322  1
  Y  Y7  1  0.789647  0.579295  0.937322  1
  Y  Y8  1  0.420705  0.210353  0.937322  1
  Y  Y9  1  0.210353  0.789647  0.062678  1
  Y  Y10  1  0.210353  0.420705  0.062678  1
  Y  Y11  1  0.579295  0.789647  0.062678  1
  Y  Y12  1  0.540912  0.459088  0.250000  1
  Y  Y13  1  0.540912  0.081824  0.250000  1
  Y  Y14  1  0.918176  0.459088  0.250000  1
  Y  Y15  1  0.459088  0.540912  0.750000  1
  Y  Y16  1  0.459088  0.918176  0.750000  1
  Y  Y17  1  0.081824  0.540912  0.750000  1
  Sc  Sc18  1  0.000000  0.000000  0.500000  1
  Sc  Sc19  1  0.000000  0.000000  0.000000  1
  Cd  Cd20  1  0.889725  0.110275  0.250000  1
  Cd  Cd21  1  0.889725  0.779452  0.250000  1
  Cd  Cd22  1  0.220548  0.110275  0.250000  1
  Cd  Cd23  1  0.110275  0.889725  0.750000  1
  Cd  Cd24  1  0.110275  0.220548  0.750000  1
  Cd  Cd25  1  0.779452  0.889725  0.750000  1
  Fe  Fe26  1  0.333333  0.666667  0.250000  1
  Fe  Fe27  1  0.666667  0.333333  0.750000  1
