# generated using pymatgen
data_NdY19Sn16
_symmetry_space_group_name_H-M   'P 1'
_cell_length_a   8.07063102
_cell_length_b   8.21209438
_cell_length_c   15.53440392
_cell_angle_alpha   89.99071973
_cell_angle_beta   89.85228142
_cell_angle_gamma   90.10350327
_symmetry_Int_Tables_number   1
_chemical_formula_structural   NdY19Sn16
_chemical_formula_sum   'Nd1 Y19 Sn16'
_cell_volume   1029.56521123
_cell_formula_units_Z   1
loop_
 _symmetry_equiv_pos_site_id
 _symmetry_equiv_pos_as_xyz
  1  'x, y, z'
loop_
 _atom_site_type_symbol
 _atom_site_label
 _atom_site_symmetry_multiplicity
 _atom_site_fract_x
 _atom_site_fract_y
 _atom_site_fract_z
 _atom_site_occupancy
  Nd  Nd0  1  0.517872  0.319724  0.403209  1
  Y  Y1  1  0.019916  0.178816  0.402186  1
  Y  Y2  1  0.367805  0.836869  0.121216  1
  Y  Y3  1  0.133175  0.336982  0.622317  1
  Y  Y4  1  0.480052  0.679519  0.902135  1
  Y  Y5  1  0.867983  0.663070  0.121514  1
  Y  Y6  1  0.132018  0.337269  0.878101  1
  Y  Y7  1  0.198749  0.502959  0.249276  1
  Y  Y8  1  0.699086  0.997402  0.249493  1
  Y  Y9  1  0.480629  0.680246  0.598074  1
  Y  Y10  1  0.301045  0.002447  0.750202  1
  Y  Y11  1  0.633172  0.162517  0.622185  1
  Y  Y12  1  0.801230  0.497559  0.750249  1
  Y  Y13  1  0.867286  0.663166  0.377830  1
  Y  Y14  1  0.019968  0.179269  0.097124  1
  Y  Y15  1  0.980043  0.820512  0.902107  1
  Y  Y16  1  0.632170  0.162802  0.878129  1
  Y  Y17  1  0.520343  0.320248  0.098115  1
  Y  Y18  1  0.367377  0.837184  0.378110  1
  Y  Y19  1  0.980467  0.820126  0.597944  1
  Sn  Sn20  1  0.795422  0.465413  0.543080  1
  Sn  Sn21  1  0.708951  0.961377  0.459047  1
  Sn  Sn22  1  0.671164  0.853409  0.750108  1
  Sn  Sn23  1  0.203795  0.539763  0.459423  1
  Sn  Sn24  1  0.291901  0.036716  0.958330  1
  Sn  Sn25  1  0.830314  0.353505  0.249343  1
  Sn  Sn26  1  0.791930  0.463515  0.958428  1
  Sn  Sn27  1  0.565737  0.620706  0.249663  1
  Sn  Sn28  1  0.208358  0.535913  0.041438  1
  Sn  Sn29  1  0.434557  0.380681  0.750140  1
  Sn  Sn30  1  0.171409  0.646430  0.750028  1
  Sn  Sn31  1  0.934550  0.118912  0.750111  1
  Sn  Sn32  1  0.291894  0.036298  0.541740  1
  Sn  Sn33  1  0.707938  0.963486  0.041380  1
  Sn  Sn34  1  0.326238  0.144760  0.248370  1
  Sn  Sn35  1  0.065457  0.880428  0.249856  1
