# generated using pymatgen
data_Yb3Dy2Er3(B6Ru)4
_symmetry_space_group_name_H-M   'P 1'
_cell_length_a   3.64744000
_cell_length_b   9.12594803
_cell_length_c   11.51410800
_cell_angle_alpha   89.93449721
_cell_angle_beta   90.00000000
_cell_angle_gamma   90.00000000
_symmetry_Int_Tables_number   1
_chemical_formula_structural   Yb3Dy2Er3(B6Ru)4
_chemical_formula_sum   'Yb3 Dy2 Er3 B24 Ru4'
_cell_volume   383.26235400
_cell_formula_units_Z   1
loop_
 _symmetry_equiv_pos_site_id
 _symmetry_equiv_pos_as_xyz
  1  'x, y, z'
loop_
 _atom_site_type_symbol
 _atom_site_label
 _atom_site_symmetry_multiplicity
 _atom_site_fract_x
 _atom_site_fract_y
 _atom_site_fract_z
 _atom_site_occupancy
  Yb  Yb0  1  0.000000  0.325118  0.414746  1
  Yb  Yb1  1  0.000000  0.674848  0.584796  1
  Yb  Yb2  1  0.000000  0.823572  0.085791  1
  Dy  Dy3  1  0.000000  0.175673  0.915184  1
  Dy  Dy4  1  0.000000  0.941092  0.366771  1
  Er  Er5  1  0.000000  0.058255  0.631915  1
  Er  Er6  1  0.000000  0.442985  0.132879  1
  Er  Er7  1  0.000000  0.558776  0.867828  1
  B  B8  1  0.500000  0.553293  0.432953  1
  B  B9  1  0.500000  0.445778  0.567929  1
  B  B10  1  0.500000  0.054086  0.066856  1
  B  B11  1  0.500000  0.945658  0.933070  1
  B  B12  1  0.500000  0.747751  0.417279  1
  B  B13  1  0.500000  0.251277  0.582775  1
  B  B14  1  0.500000  0.249341  0.082068  1
  B  B15  1  0.500000  0.751522  0.917759  1
  B  B16  1  0.500000  0.789994  0.264065  1
  B  B17  1  0.500000  0.208817  0.736006  1
  B  B18  1  0.500000  0.291275  0.234977  1
  B  B19  1  0.500000  0.709996  0.764779  1
  B  B20  1  0.500000  0.630636  0.185663  1
  B  B21  1  0.500000  0.369214  0.815159  1
  B  B22  1  0.500000  0.131491  0.313233  1
  B  B23  1  0.500000  0.869476  0.685332  1
  B  B24  1  0.500000  0.983787  0.210126  1
  B  B25  1  0.500000  0.016628  0.788690  1
  B  B26  1  0.500000  0.483585  0.289075  1
  B  B27  1  0.500000  0.516090  0.711592  1
  B  B28  1  0.500000  0.598759  0.027263  1
  B  B29  1  0.500000  0.400863  0.972785  1
  B  B30  1  0.500000  0.097523  0.473389  1
  B  B31  1  0.500000  0.902925  0.527037  1
  Ru  Ru32  1  0.000000  0.638219  0.320200  1
  Ru  Ru33  1  0.000000  0.359877  0.681224  1
  Ru  Ru34  1  0.000000  0.139281  0.178652  1
  Ru  Ru35  1  0.000000  0.862538  0.820153  1
