# generated using pymatgen
data_ErPu2Sb4Au3
_symmetry_space_group_name_H-M   'P 1'
_cell_length_a   8.66113469
_cell_length_b   8.64646757
_cell_length_c   8.66113500
_cell_angle_alpha   109.40067826
_cell_angle_beta   109.50526927
_cell_angle_gamma   109.40068442
_symmetry_Int_Tables_number   1
_chemical_formula_structural   ErPu2Sb4Au3
_chemical_formula_sum   'Er2 Pu4 Sb8 Au6'
_cell_volume   499.96361345
_cell_formula_units_Z   2
loop_
 _symmetry_equiv_pos_site_id
 _symmetry_equiv_pos_as_xyz
  1  'x, y, z'
loop_
 _atom_site_type_symbol
 _atom_site_label
 _atom_site_symmetry_multiplicity
 _atom_site_fract_x
 _atom_site_fract_y
 _atom_site_fract_z
 _atom_site_occupancy
  Er  Er0  1  0.372730  0.124907  0.751468  1
  Er  Er1  1  0.251468  0.624908  0.872729  1
  Pu  Pu2  1  0.875295  0.749638  0.123520  1
  Pu  Pu3  1  0.125787  0.376158  0.251952  1
  Pu  Pu4  1  0.623520  0.249638  0.375295  1
  Pu  Pu5  1  0.751952  0.876158  0.625787  1
  Sb  Sb6  1  0.177985  0.005321  0.004662  1
  Sb  Sb7  1  0.682407  0.001724  0.000457  1
  Sb  Sb8  1  0.500457  0.501724  0.182408  1
  Sb  Sb9  1  0.321687  0.818228  0.324475  1
  Sb  Sb10  1  0.993830  0.673740  0.493527  1
  Sb  Sb11  1  0.993528  0.173740  0.493830  1
  Sb  Sb12  1  0.504662  0.505321  0.677984  1
  Sb  Sb13  1  0.824476  0.318229  0.821688  1
  Au  Au14  1  0.736938  0.368044  0.113407  1
  Au  Au15  1  0.613408  0.868043  0.236938  1
  Au  Au16  1  0.254308  0.123459  0.387427  1
  Au  Au17  1  0.371949  0.758779  0.636187  1
  Au  Au18  1  0.887427  0.623459  0.754308  1
  Au  Au19  1  0.136186  0.258780  0.871949  1
