# generated using pymatgen
data_Ho3Mg3Hg2Pt
_symmetry_space_group_name_H-M   'P 1'
_cell_length_a   7.72438600
_cell_length_b   7.72438543
_cell_length_c   4.08768700
_cell_angle_alpha   90.00000000
_cell_angle_beta   90.00000000
_cell_angle_gamma   119.99998532
_symmetry_Int_Tables_number   1
_chemical_formula_structural   Ho3Mg3Hg2Pt
_chemical_formula_sum   'Ho3 Mg3 Hg2 Pt1'
_cell_volume   211.22058144
_cell_formula_units_Z   1
loop_
 _symmetry_equiv_pos_site_id
 _symmetry_equiv_pos_as_xyz
  1  'x, y, z'
loop_
 _atom_site_type_symbol
 _atom_site_label
 _atom_site_symmetry_multiplicity
 _atom_site_fract_x
 _atom_site_fract_y
 _atom_site_fract_z
 _atom_site_occupancy
  Ho  Ho0  1  0.425824  0.398994  0.000000  1
  Ho  Ho1  1  0.601006  0.026830  0.000000  1
  Ho  Ho2  1  0.973170  0.574176  0.000000  1
  Mg  Mg3  1  0.745105  0.742731  0.500000  1
  Mg  Mg4  1  0.257269  0.002374  0.500000  1
  Mg  Mg5  1  0.997626  0.254895  0.500000  1
  Hg  Hg6  1  0.000000  0.000000  0.000000  1
  Hg  Hg7  1  0.333333  0.666667  0.500000  1
  Pt  Pt8  1  0.666667  0.333333  0.500000  1
