# generated using pymatgen
data_Sr18Ca3Mn14O56
_symmetry_space_group_name_H-M   'P 1'
_cell_length_a   11.24755482
_cell_length_b   11.24755584
_cell_length_c   14.92897300
_cell_angle_alpha   90.00000000
_cell_angle_beta   67.87043973
_cell_angle_gamma   120.00000060
_symmetry_Int_Tables_number   1
_chemical_formula_structural   Sr18Ca3Mn14O56
_chemical_formula_sum   'Sr18 Ca3 Mn14 O56'
_cell_volume   1472.76032256
_cell_formula_units_Z   1
loop_
 _symmetry_equiv_pos_site_id
 _symmetry_equiv_pos_as_xyz
  1  'x, y, z'
loop_
 _atom_site_type_symbol
 _atom_site_label
 _atom_site_symmetry_multiplicity
 _atom_site_fract_x
 _atom_site_fract_y
 _atom_site_fract_z
 _atom_site_occupancy
  Sr  Sr0  1  0.969109  0.276858  0.310680  1
  Sr  Sr1  1  0.997069  0.720210  0.310680  1
  Sr  Sr2  1  0.412460  0.692251  0.310680  1
  Sr  Sr3  1  0.378794  0.197281  0.821486  1
  Sr  Sr4  1  0.997001  0.799721  0.821486  1
  Sr  Sr5  1  0.981234  0.181513  0.821486  1
  Sr  Sr6  1  0.753499  0.082666  0.601838  1
  Sr  Sr7  1  0.727330  0.644664  0.601838  1
  Sr  Sr8  1  0.315495  0.670832  0.601838  1
  Sr  Sr9  1  0.310816  0.144145  0.105460  1
  Sr  Sr10  1  0.727869  0.583725  0.105460  1
  Sr  Sr11  1  0.750395  0.166671  0.105460  1
  Sr  Sr12  1  0.196853  0.395733  0.993170  1
  Sr  Sr13  1  0.205709  0.809977  0.993170  1
  Sr  Sr14  1  0.611098  0.801121  0.993170  1
  Sr  Sr15  1  0.610940  0.311847  0.496108  1
  Sr  Sr16  1  0.204801  0.892953  0.496108  1
  Sr  Sr17  1  0.192045  0.299091  0.496108  1
  Ca  Ca18  1  0.856269  0.428135  0.715595  1
  Ca  Ca19  1  0.468243  0.234121  0.297635  1
  Ca  Ca20  1  0.471711  0.735855  0.792435  1
  Mn  Mn21  1  0.377460  0.919483  0.198292  1
  Mn  Mn22  1  0.343732  0.424248  0.198292  1
  Mn  Mn23  1  0.882225  0.457975  0.198292  1
  Mn  Mn24  1  0.880229  0.922817  0.698836  1
  Mn  Mn25  1  0.343753  0.420937  0.698836  1
  Mn  Mn26  1  0.378348  0.957412  0.698836  1
  Mn  Mn27  1  0.604685  0.069564  0.890197  1
  Mn  Mn28  1  0.574682  0.505118  0.890197  1
  Mn  Mn29  1  0.040239  0.535121  0.890197  1
  Mn  Mn30  1  0.049107  0.008893  0.395892  1
  Mn  Mn31  1  0.563893  0.555000  0.395892  1
  Mn  Mn32  1  0.595214  0.040214  0.395892  1
  Mn  Mn33  1  0.000181  0.500090  0.499729  1
  Mn  Mn34  1  0.002987  0.001494  0.995519  1
  O  O35  1  0.268225  0.837986  0.321726  1
  O  O36  1  0.248035  0.410048  0.321726  1
  O  O37  1  0.840287  0.430238  0.321726  1
  O  O38  1  0.832654  0.907232  0.823434  1
  O  O39  1  0.251144  0.343912  0.823434  1
  O  O40  1  0.269335  0.925424  0.823434  1
  O  O41  1  0.082929  0.541465  0.375606  1
  O  O42  1  0.088803  0.044401  0.866796  1
  O  O43  1  0.705960  0.076505  0.954730  1
  O  O44  1  0.415814  0.339309  0.954730  1
  O  O45  1  0.968765  0.629455  0.954730  1
  O  O46  1  0.969421  0.838288  0.459226  1
  O  O47  1  0.409640  0.571353  0.459226  1
  O  O48  1  0.702488  0.131135  0.459226  1
  O  O49  1  0.741087  0.180640  0.772926  1
  O  O50  1  0.666627  0.485987  0.772926  1
  O  O51  1  0.046434  0.560448  0.772926  1
  O  O52  1  0.089380  0.998081  0.276026  1
  O  O53  1  0.632676  0.634595  0.276026  1
  O  O54  1  0.725893  0.091298  0.276026  1
  O  O55  1  0.500012  0.888751  0.896722  1
  O  O56  1  0.492017  0.603266  0.896722  1
  O  O57  1  0.214527  0.611260  0.896722  1
  O  O58  1  0.214164  0.102107  0.413706  1
  O  O59  1  0.474237  0.372130  0.413706  1
  O  O60  1  0.484186  0.112057  0.413706  1
  O  O61  1  0.516732  0.881863  0.156242  1
  O  O62  1  0.208889  0.327026  0.156242  1
  O  O63  1  0.961895  0.634869  0.156242  1
  O  O64  1  0.960415  0.825625  0.661526  1
  O  O65  1  0.203684  0.378059  0.661526  1
  O  O66  1  0.512850  0.134791  0.661526  1
  O  O67  1  0.822182  0.478044  0.554656  1
  O  O68  1  0.101207  0.623162  0.554656  1
  O  O69  1  0.967300  0.344137  0.554656  1
  O  O70  1  0.974477  0.135031  0.026984  1
  O  O71  1  0.133570  0.998539  0.026984  1
  O  O72  1  0.837984  0.839446  0.026984  1
  O  O73  1  0.255757  0.863733  0.143437  1
  O  O74  1  0.464539  0.600806  0.143437  1
  O  O75  1  0.992830  0.392024  0.143437  1
  O  O76  1  0.989345  0.099754  0.648179  1
  O  O77  1  0.462229  0.362475  0.648179  1
  O  O78  1  0.252067  0.889592  0.648179  1
  O  O79  1  0.469735  0.100788  0.177225  1
  O  O80  1  0.453828  0.353040  0.177225  1
  O  O81  1  0.721987  0.368947  0.177225  1
  O  O82  1  0.723624  0.853715  0.673667  1
  O  O83  1  0.456423  0.602709  0.673667  1
  O  O84  1  0.472617  0.869910  0.673667  1
  O  O85  1  0.474351  0.113604  0.940762  1
  O  O86  1  0.698491  0.584887  0.940762  1
  O  O87  1  0.945634  0.360748  0.940762  1
  O  O88  1  0.956180  0.094734  0.438629  1
  O  O89  1  0.699924  0.605190  0.438629  1
  O  O90  1  0.466636  0.861446  0.438629  1
