# generated using pymatgen
data_Sr6CdSn3Pd4
_symmetry_space_group_name_H-M   'P 1'
_cell_length_a   6.19860600
_cell_length_b   8.91819600
_cell_length_c   14.50425900
_cell_angle_alpha   90.00000000
_cell_angle_beta   90.00000000
_cell_angle_gamma   90.00000000
_symmetry_Int_Tables_number   1
_chemical_formula_structural   Sr6CdSn3Pd4
_chemical_formula_sum   'Sr12 Cd2 Sn6 Pd8'
_cell_volume   801.80099606
_cell_formula_units_Z   2
loop_
 _symmetry_equiv_pos_site_id
 _symmetry_equiv_pos_as_xyz
  1  'x, y, z'
loop_
 _atom_site_type_symbol
 _atom_site_label
 _atom_site_symmetry_multiplicity
 _atom_site_fract_x
 _atom_site_fract_y
 _atom_site_fract_z
 _atom_site_occupancy
  Sr  Sr0  1  0.153759  0.401731  0.599193  1
  Sr  Sr1  1  0.846241  0.598269  0.099193  1
  Sr  Sr2  1  0.153759  0.098269  0.400807  1
  Sr  Sr3  1  0.846241  0.901731  0.900807  1
  Sr  Sr4  1  0.855343  0.608782  0.402726  1
  Sr  Sr5  1  0.144657  0.391218  0.902726  1
  Sr  Sr6  1  0.855343  0.891218  0.597274  1
  Sr  Sr7  1  0.144657  0.108782  0.097274  1
  Sr  Sr8  1  0.646971  0.249298  0.750851  1
  Sr  Sr9  1  0.353029  0.750702  0.250851  1
  Sr  Sr10  1  0.646971  0.250702  0.249149  1
  Sr  Sr11  1  0.353029  0.749298  0.749149  1
  Cd  Cd12  1  0.636901  0.250000  0.500000  1
  Cd  Cd13  1  0.363099  0.750000  0.000000  1
  Sn  Sn14  1  0.355483  0.750000  0.500000  1
  Sn  Sn15  1  0.644517  0.250000  0.000000  1
  Sn  Sn16  1  0.153947  0.099781  0.746895  1
  Sn  Sn17  1  0.846053  0.900219  0.246895  1
  Sn  Sn18  1  0.153947  0.400219  0.253105  1
  Sn  Sn19  1  0.846053  0.599781  0.753105  1
  Pd  Pd20  1  0.376627  0.025122  0.589821  1
  Pd  Pd21  1  0.623373  0.974878  0.089821  1
  Pd  Pd22  1  0.376627  0.474878  0.410179  1
  Pd  Pd23  1  0.623373  0.525122  0.910179  1
  Pd  Pd24  1  0.620390  0.958762  0.408550  1
  Pd  Pd25  1  0.379610  0.041238  0.908550  1
  Pd  Pd26  1  0.620390  0.541238  0.591450  1
  Pd  Pd27  1  0.379610  0.458762  0.091450  1
