# generated using pymatgen
data_Pm4Mg(PdO4)3
_symmetry_space_group_name_H-M   'P 1'
_cell_length_a   5.48908955
_cell_length_b   5.86328962
_cell_length_c   7.85570982
_cell_angle_alpha   89.44916735
_cell_angle_beta   89.92844715
_cell_angle_gamma   90.20210644
_symmetry_Int_Tables_number   1
_chemical_formula_structural   Pm4Mg(PdO4)3
_chemical_formula_sum   'Pm4 Mg1 Pd3 O12'
_cell_volume   252.81565679
_cell_formula_units_Z   1
loop_
 _symmetry_equiv_pos_site_id
 _symmetry_equiv_pos_as_xyz
  1  'x, y, z'
loop_
 _atom_site_type_symbol
 _atom_site_label
 _atom_site_symmetry_multiplicity
 _atom_site_fract_x
 _atom_site_fract_y
 _atom_site_fract_z
 _atom_site_occupancy
  Pm  Pm0  1  0.974354  0.074969  0.252514  1
  Pm  Pm1  1  0.515333  0.570493  0.251497  1
  Pm  Pm2  1  0.484668  0.429508  0.748504  1
  Pm  Pm3  1  0.025647  0.925032  0.747486  1
  Mg  Mg4  1  0.000001  0.500001  0.500000  1
  Pd  Pd5  1  0.500000  0.000000  0.000000  1
  Pd  Pd6  1  0.000001  0.500000  0.000000  1
  Pd  Pd7  1  0.500000  0.000001  0.500000  1
  O  O8  1  0.686223  0.305168  0.057500  1
  O  O9  1  0.811081  0.804788  0.058901  1
  O  O10  1  0.105941  0.462727  0.248573  1
  O  O11  1  0.382192  0.958434  0.251085  1
  O  O12  1  0.688895  0.299600  0.445807  1
  O  O13  1  0.802497  0.805414  0.446890  1
  O  O14  1  0.197503  0.194586  0.553110  1
  O  O15  1  0.311106  0.700400  0.554193  1
  O  O16  1  0.617808  0.041567  0.748915  1
  O  O17  1  0.894060  0.537273  0.751427  1
  O  O18  1  0.188919  0.195212  0.941099  1
  O  O19  1  0.313777  0.694833  0.942499  1
