# generated using pymatgen
data_Lu5Tl2Sb
_symmetry_space_group_name_H-M   'P 1'
_cell_length_a   6.47338900
_cell_length_b   8.79345860
_cell_length_c   8.77619653
_cell_angle_alpha   119.89462849
_cell_angle_beta   89.99996435
_cell_angle_gamma   90.00012537
_symmetry_Int_Tables_number   1
_chemical_formula_structural   Lu5Tl2Sb
_chemical_formula_sum   'Lu10 Tl4 Sb2'
_cell_volume   433.10036830
_cell_formula_units_Z   2
loop_
 _symmetry_equiv_pos_site_id
 _symmetry_equiv_pos_as_xyz
  1  'x, y, z'
loop_
 _atom_site_type_symbol
 _atom_site_label
 _atom_site_symmetry_multiplicity
 _atom_site_fract_x
 _atom_site_fract_y
 _atom_site_fract_z
 _atom_site_occupancy
  Lu  Lu0  1  0.495825  0.334275  0.668614  1
  Lu  Lu1  1  0.495613  0.665631  0.334184  1
  Lu  Lu2  1  0.004385  0.665678  0.334222  1
  Lu  Lu3  1  0.004142  0.334230  0.668601  1
  Lu  Lu4  1  0.750007  0.232275  0.994602  1
  Lu  Lu5  1  0.750019  0.767652  0.762439  1
  Lu  Lu6  1  0.750036  0.999683  0.237160  1
  Lu  Lu7  1  0.250013  0.764611  0.000729  1
  Lu  Lu8  1  0.250014  0.235702  0.236470  1
  Lu  Lu9  1  0.250001  0.000125  0.764394  1
  Tl  Tl10  1  0.749965  0.000482  0.597265  1
  Tl  Tl11  1  0.249973  0.395108  0.001696  1
  Tl  Tl12  1  0.249989  0.605233  0.607322  1
  Tl  Tl13  1  0.250017  0.999556  0.397884  1
  Sb  Sb14  1  0.749997  0.605572  0.000266  1
  Sb  Sb15  1  0.750005  0.394189  0.394152  1
