# generated using pymatgen
data_CaYbCu2(NiAs2)2
_symmetry_space_group_name_H-M   'P 1'
_cell_length_a   4.17052700
_cell_length_b   4.17052700
_cell_length_c   9.79109000
_cell_angle_alpha   90.00000000
_cell_angle_beta   90.00000000
_cell_angle_gamma   90.00000000
_symmetry_Int_Tables_number   1
_chemical_formula_structural   CaYbCu2(NiAs2)2
_chemical_formula_sum   'Ca1 Yb1 Cu2 Ni2 As4'
_cell_volume   170.29932122
_cell_formula_units_Z   1
loop_
 _symmetry_equiv_pos_site_id
 _symmetry_equiv_pos_as_xyz
  1  'x, y, z'
loop_
 _atom_site_type_symbol
 _atom_site_label
 _atom_site_symmetry_multiplicity
 _atom_site_fract_x
 _atom_site_fract_y
 _atom_site_fract_z
 _atom_site_occupancy
  Ca  Ca0  1  0.500000  0.000000  0.746955  1
  Yb  Yb1  1  0.000000  0.500000  0.253347  1
  Cu  Cu2  1  0.500000  0.500000  0.002709  1
  Cu  Cu3  1  0.000000  0.000000  0.002709  1
  Ni  Ni4  1  0.500000  0.000000  0.379759  1
  Ni  Ni5  1  0.000000  0.500000  0.617328  1
  As  As6  1  0.500000  0.000000  0.143088  1
  As  As7  1  0.000000  0.500000  0.857416  1
  As  As8  1  0.500000  0.500000  0.498343  1
  As  As9  1  0.000000  0.000000  0.498343  1
