# generated using pymatgen
data_LaCd2Cu9
_symmetry_space_group_name_H-M   'P 1'
_cell_length_a   5.15139500
_cell_length_b   5.15140272
_cell_length_c   15.95858000
_cell_angle_alpha   90.00000000
_cell_angle_beta   90.00000000
_cell_angle_gamma   120.00114825
_symmetry_Int_Tables_number   1
_chemical_formula_structural   LaCd2Cu9
_chemical_formula_sum   'La2 Cd4 Cu18'
_cell_volume   366.75007096
_cell_formula_units_Z   2
loop_
 _symmetry_equiv_pos_site_id
 _symmetry_equiv_pos_as_xyz
  1  'x, y, z'
loop_
 _atom_site_type_symbol
 _atom_site_label
 _atom_site_symmetry_multiplicity
 _atom_site_fract_x
 _atom_site_fract_y
 _atom_site_fract_z
 _atom_site_occupancy
  La  La0  1  0.666665  0.333333  0.250000  1
  La  La1  1  0.333335  0.666667  0.750000  1
  Cd  Cd2  1  0.666667  0.333333  0.467132  1
  Cd  Cd3  1  0.333333  0.666667  0.967132  1
  Cd  Cd4  1  0.666667  0.333333  0.032868  1
  Cd  Cd5  1  0.333333  0.666667  0.532868  1
  Cu  Cu6  1  0.333334  0.666665  0.250000  1
  Cu  Cu7  1  0.666666  0.333335  0.750000  1
  Cu  Cu8  1  0.168340  0.831658  0.377025  1
  Cu  Cu9  1  0.168337  0.336676  0.377025  1
  Cu  Cu10  1  0.000001  0.000000  0.750000  1
  Cu  Cu11  1  0.999999  0.000000  0.250000  1
  Cu  Cu12  1  0.000000  0.000000  0.000000  1
  Cu  Cu13  1  0.000000  0.000000  0.500000  1
  Cu  Cu14  1  0.168337  0.336676  0.122975  1
  Cu  Cu15  1  0.831660  0.168342  0.622975  1
  Cu  Cu16  1  0.336680  0.168339  0.622974  1
  Cu  Cu17  1  0.663320  0.831661  0.122974  1
  Cu  Cu18  1  0.168340  0.831658  0.122975  1
  Cu  Cu19  1  0.831663  0.663324  0.877025  1
  Cu  Cu20  1  0.831660  0.168342  0.877025  1
  Cu  Cu21  1  0.831663  0.663324  0.622975  1
  Cu  Cu22  1  0.336680  0.168339  0.877026  1
  Cu  Cu23  1  0.663320  0.831661  0.377026  1
