# generated using pymatgen
data_Tb3SmGeBr6
_symmetry_space_group_name_H-M   'P 1'
_cell_length_a   4.11793800
_cell_length_b   13.46701371
_cell_length_c   14.19713961
_cell_angle_alpha   89.28638864
_cell_angle_beta   90.00000000
_cell_angle_gamma   90.00000000
_symmetry_Int_Tables_number   1
_chemical_formula_structural   Tb3SmGeBr6
_chemical_formula_sum   'Tb6 Sm2 Ge2 Br12'
_cell_volume   787.26015854
_cell_formula_units_Z   2
loop_
 _symmetry_equiv_pos_site_id
 _symmetry_equiv_pos_as_xyz
  1  'x, y, z'
loop_
 _atom_site_type_symbol
 _atom_site_label
 _atom_site_symmetry_multiplicity
 _atom_site_fract_x
 _atom_site_fract_y
 _atom_site_fract_z
 _atom_site_occupancy
  Tb  Tb0  1  0.500000  0.119078  0.340061  1
  Tb  Tb1  1  0.500000  0.880922  0.659939  1
  Tb  Tb2  1  0.500000  0.617142  0.158322  1
  Tb  Tb3  1  0.500000  0.382858  0.841678  1
  Tb  Tb4  1  0.000000  0.617573  0.921096  1
  Tb  Tb5  1  0.000000  0.382427  0.078904  1
  Sm  Sm6  1  0.000000  0.120454  0.580257  1
  Sm  Sm7  1  0.000000  0.879546  0.419743  1
  Ge  Ge8  1  0.500000  0.000000  0.500000  1
  Ge  Ge9  1  0.500000  0.500000  0.000000  1
  Br  Br10  1  0.500000  0.248544  0.163975  1
  Br  Br11  1  0.500000  0.751456  0.836025  1
  Br  Br12  1  0.500000  0.741448  0.332131  1
  Br  Br13  1  0.500000  0.258552  0.667869  1
  Br  Br14  1  0.000000  0.254078  0.406711  1
  Br  Br15  1  0.000000  0.745922  0.593289  1
  Br  Br16  1  0.000000  0.751393  0.086470  1
  Br  Br17  1  0.000000  0.248607  0.913530  1
  Br  Br18  1  0.000000  0.007522  0.242207  1
  Br  Br19  1  0.000000  0.992478  0.757793  1
  Br  Br20  1  0.000000  0.500874  0.254223  1
  Br  Br21  1  0.000000  0.499126  0.745777  1
