# generated using pymatgen
data_CePr2S5
_symmetry_space_group_name_H-M   'P 1'
_cell_length_a   7.57409500
_cell_length_b   8.18240900
_cell_length_c   12.02984500
_cell_angle_alpha   90.00000000
_cell_angle_beta   90.00000000
_cell_angle_gamma   90.00000000
_symmetry_Int_Tables_number   1
_chemical_formula_structural   CePr2S5
_chemical_formula_sum   'Ce4 Pr8 S20'
_cell_volume   745.54174141
_cell_formula_units_Z   4
loop_
 _symmetry_equiv_pos_site_id
 _symmetry_equiv_pos_as_xyz
  1  'x, y, z'
loop_
 _atom_site_type_symbol
 _atom_site_label
 _atom_site_symmetry_multiplicity
 _atom_site_fract_x
 _atom_site_fract_y
 _atom_site_fract_z
 _atom_site_occupancy
  Ce  Ce0  1  0.070750  0.750000  0.491349  1
  Ce  Ce1  1  0.429250  0.750000  0.991349  1
  Ce  Ce2  1  0.929250  0.250000  0.508651  1
  Ce  Ce3  1  0.570750  0.250000  0.008651  1
  Pr  Pr4  1  0.526107  0.500522  0.323203  1
  Pr  Pr5  1  0.973893  0.999478  0.823203  1
  Pr  Pr6  1  0.473893  0.000522  0.676797  1
  Pr  Pr7  1  0.026107  0.499478  0.176797  1
  Pr  Pr8  1  0.473893  0.499478  0.676797  1
  Pr  Pr9  1  0.026107  0.000522  0.176797  1
  Pr  Pr10  1  0.526107  0.999478  0.323203  1
  Pr  Pr11  1  0.973893  0.500522  0.823203  1
  S  S12  1  0.836376  0.958561  0.594732  1
  S  S13  1  0.663624  0.541439  0.094732  1
  S  S14  1  0.163624  0.458561  0.405268  1
  S  S15  1  0.336376  0.041439  0.905268  1
  S  S16  1  0.163624  0.041439  0.405268  1
  S  S17  1  0.336376  0.458561  0.905268  1
  S  S18  1  0.836376  0.541439  0.594732  1
  S  S19  1  0.663624  0.958561  0.094732  1
  S  S20  1  0.832594  0.750000  0.310669  1
  S  S21  1  0.667406  0.750000  0.810669  1
  S  S22  1  0.167406  0.250000  0.689331  1
  S  S23  1  0.332594  0.250000  0.189331  1
  S  S24  1  0.455275  0.750000  0.499063  1
  S  S25  1  0.044725  0.750000  0.999063  1
  S  S26  1  0.544725  0.250000  0.500937  1
  S  S27  1  0.955275  0.250000  0.000937  1
  S  S28  1  0.194028  0.750000  0.714399  1
  S  S29  1  0.305972  0.750000  0.214399  1
  S  S30  1  0.805972  0.250000  0.285601  1
  S  S31  1  0.694028  0.250000  0.785601  1
