# generated using pymatgen
data_YbDy2Y5(B6Ru)4
_symmetry_space_group_name_H-M   'P 1'
_cell_length_a   3.66892200
_cell_length_b   9.15914264
_cell_length_c   11.54549502
_cell_angle_alpha   89.91161365
_cell_angle_beta   90.00000000
_cell_angle_gamma   90.00000000
_symmetry_Int_Tables_number   1
_chemical_formula_structural   YbDy2Y5(B6Ru)4
_chemical_formula_sum   'Yb1 Dy2 Y5 B24 Ru4'
_cell_volume   387.97643026
_cell_formula_units_Z   1
loop_
 _symmetry_equiv_pos_site_id
 _symmetry_equiv_pos_as_xyz
  1  'x, y, z'
loop_
 _atom_site_type_symbol
 _atom_site_label
 _atom_site_symmetry_multiplicity
 _atom_site_fract_x
 _atom_site_fract_y
 _atom_site_fract_z
 _atom_site_occupancy
  Yb  Yb0  1  0.000000  0.324085  0.413672  1
  Dy  Dy1  1  0.000000  0.442850  0.129904  1
  Dy  Dy2  1  0.000000  0.556177  0.871965  1
  Y  Y3  1  0.000000  0.675360  0.584883  1
  Y  Y4  1  0.000000  0.822878  0.086356  1
  Y  Y5  1  0.000000  0.177514  0.914568  1
  Y  Y6  1  0.000000  0.944136  0.371345  1
  Y  Y7  1  0.000000  0.058012  0.627807  1
  B  B8  1  0.500000  0.553758  0.432431  1
  B  B9  1  0.500000  0.445591  0.567236  1
  B  B10  1  0.500000  0.053464  0.066884  1
  B  B11  1  0.500000  0.945811  0.932358  1
  B  B12  1  0.500000  0.747795  0.419190  1
  B  B13  1  0.500000  0.252695  0.580608  1
  B  B14  1  0.500000  0.247272  0.080766  1
  B  B15  1  0.500000  0.752073  0.919489  1
  B  B16  1  0.500000  0.791067  0.266270  1
  B  B17  1  0.500000  0.210051  0.733863  1
  B  B18  1  0.500000  0.289747  0.233658  1
  B  B19  1  0.500000  0.709454  0.766404  1
  B  B20  1  0.500000  0.632080  0.186220  1
  B  B21  1  0.500000  0.368247  0.814835  1
  B  B22  1  0.500000  0.131791  0.313999  1
  B  B23  1  0.500000  0.868285  0.685331  1
  B  B24  1  0.500000  0.983868  0.211864  1
  B  B25  1  0.500000  0.016214  0.787332  1
  B  B26  1  0.500000  0.484176  0.287981  1
  B  B27  1  0.500000  0.515870  0.712554  1
  B  B28  1  0.500000  0.608707  0.030373  1
  B  B29  1  0.500000  0.391361  0.970411  1
  B  B30  1  0.500000  0.105602  0.470682  1
  B  B31  1  0.500000  0.893684  0.529354  1
  Ru  Ru32  1  0.000000  0.639083  0.320742  1
  Ru  Ru33  1  0.000000  0.362219  0.679873  1
  Ru  Ru34  1  0.000000  0.136951  0.177648  1
  Ru  Ru35  1  0.000000  0.862072  0.821145  1
