# generated using pymatgen
data_LuCo4ReP3
_symmetry_space_group_name_H-M   'P 1'
_cell_length_a   3.69908500
_cell_length_b   10.29947500
_cell_length_c   11.76440600
_cell_angle_alpha   90.00000000
_cell_angle_beta   90.00000000
_cell_angle_gamma   90.00000000
_symmetry_Int_Tables_number   1
_chemical_formula_structural   LuCo4ReP3
_chemical_formula_sum   'Lu4 Co16 Re4 P12'
_cell_volume   448.20779231
_cell_formula_units_Z   4
loop_
 _symmetry_equiv_pos_site_id
 _symmetry_equiv_pos_as_xyz
  1  'x, y, z'
loop_
 _atom_site_type_symbol
 _atom_site_label
 _atom_site_symmetry_multiplicity
 _atom_site_fract_x
 _atom_site_fract_y
 _atom_site_fract_z
 _atom_site_occupancy
  Lu  Lu0  1  0.250000  0.583426  0.704735  1
  Lu  Lu1  1  0.250000  0.916574  0.204735  1
  Lu  Lu2  1  0.750000  0.416574  0.295265  1
  Lu  Lu3  1  0.750000  0.083426  0.795265  1
  Co  Co4  1  0.250000  0.406902  0.487136  1
  Co  Co5  1  0.250000  0.093098  0.987136  1
  Co  Co6  1  0.750000  0.593098  0.512864  1
  Co  Co7  1  0.750000  0.906902  0.012864  1
  Co  Co8  1  0.250000  0.222206  0.176914  1
  Co  Co9  1  0.250000  0.277794  0.676914  1
  Co  Co10  1  0.750000  0.777794  0.823086  1
  Co  Co11  1  0.750000  0.722206  0.323086  1
  Co  Co12  1  0.250000  0.886047  0.701922  1
  Co  Co13  1  0.250000  0.613953  0.201922  1
  Co  Co14  1  0.750000  0.113953  0.298078  1
  Co  Co15  1  0.750000  0.386047  0.798078  1
  Co  Co16  1  0.250000  0.464142  0.932025  1
  Co  Co17  1  0.250000  0.035858  0.432025  1
  Co  Co18  1  0.750000  0.535858  0.067975  1
  Co  Co19  1  0.750000  0.964142  0.567975  1
  Re  Re20  1  0.250000  0.711067  0.989327  1
  Re  Re21  1  0.250000  0.788933  0.489327  1
  Re  Re22  1  0.750000  0.288933  0.010673  1
  Re  Re23  1  0.750000  0.211067  0.510673  1
  P  P24  1  0.250000  0.420223  0.114829  1
  P  P25  1  0.250000  0.079777  0.614829  1
  P  P26  1  0.750000  0.579777  0.885171  1
  P  P27  1  0.750000  0.920223  0.385171  1
  P  P28  1  0.250000  0.267488  0.865292  1
  P  P29  1  0.250000  0.232512  0.365292  1
  P  P30  1  0.750000  0.732512  0.134708  1
  P  P31  1  0.750000  0.767488  0.634708  1
  P  P32  1  0.250000  0.594728  0.389505  1
  P  P33  1  0.250000  0.905272  0.889505  1
  P  P34  1  0.750000  0.405272  0.610495  1
  P  P35  1  0.750000  0.094728  0.110495  1
