# generated using pymatgen
data_Nd8Y12Sn9Bi7
_symmetry_space_group_name_H-M   'P 1'
_cell_length_a   8.28758908
_cell_length_b   8.30084734
_cell_length_c   15.76934485
_cell_angle_alpha   89.92959606
_cell_angle_beta   90.02928909
_cell_angle_gamma   89.95437139
_symmetry_Int_Tables_number   1
_chemical_formula_structural   Nd8Y12Sn9Bi7
_chemical_formula_sum   'Nd8 Y12 Sn9 Bi7'
_cell_volume   1084.83519033
_cell_formula_units_Z   1
loop_
 _symmetry_equiv_pos_site_id
 _symmetry_equiv_pos_as_xyz
  1  'x, y, z'
loop_
 _atom_site_type_symbol
 _atom_site_label
 _atom_site_symmetry_multiplicity
 _atom_site_fract_x
 _atom_site_fract_y
 _atom_site_fract_z
 _atom_site_occupancy
  Nd  Nd0  1  0.463554  0.821666  0.895474  1
  Nd  Nd1  1  0.960073  0.675109  0.605727  1
  Nd  Nd2  1  0.539432  0.175114  0.393842  1
  Nd  Nd3  1  0.034198  0.327908  0.104468  1
  Nd  Nd4  1  0.539290  0.179757  0.105114  1
  Nd  Nd5  1  0.039308  0.325312  0.393883  1
  Nd  Nd6  1  0.460054  0.825864  0.606385  1
  Nd  Nd7  1  0.957338  0.672115  0.895995  1
  Y  Y8  1  0.625847  0.342797  0.877202  1
  Y  Y9  1  0.123860  0.159870  0.625958  1
  Y  Y10  1  0.376687  0.660723  0.374917  1
  Y  Y11  1  0.874058  0.835991  0.123983  1
  Y  Y12  1  0.381836  0.658895  0.124186  1
  Y  Y13  1  0.876951  0.839827  0.374599  1
  Y  Y14  1  0.623144  0.339792  0.624966  1
  Y  Y15  1  0.123209  0.159192  0.874983  1
  Y  Y16  1  0.290146  0.500719  0.750331  1
  Y  Y17  1  0.789884  0.998655  0.750479  1
  Y  Y18  1  0.709902  0.499782  0.246696  1
  Y  Y19  1  0.209708  0.001351  0.249007  1
  Sn  Sn20  1  0.717690  0.532318  0.044235  1
  Sn  Sn21  1  0.653287  0.642254  0.749704  1
  Sn  Sn22  1  0.152869  0.856176  0.750748  1
  Sn  Sn23  1  0.345437  0.358175  0.250312  1
  Sn  Sn24  1  0.846309  0.141914  0.249743  1
  Sn  Sn25  1  0.426243  0.128771  0.751094  1
  Sn  Sn26  1  0.925185  0.371547  0.749908  1
  Sn  Sn27  1  0.574536  0.872849  0.250342  1
  Sn  Sn28  1  0.076026  0.628816  0.250020  1
  Bi  Bi29  1  0.217484  0.967425  0.043747  1
  Bi  Bi30  1  0.716994  0.532387  0.455525  1
  Bi  Bi31  1  0.783188  0.032527  0.543749  1
  Bi  Bi32  1  0.283958  0.466055  0.956480  1
  Bi  Bi33  1  0.783002  0.032214  0.956035  1
  Bi  Bi34  1  0.282346  0.467873  0.543887  1
  Bi  Bi35  1  0.216965  0.968257  0.456274  1
