# generated using pymatgen
data_Yb3YOs3Ru5
_symmetry_space_group_name_H-M   'P 1'
_cell_length_a   5.26729682
_cell_length_b   5.23205804
_cell_length_c   8.90423795
_cell_angle_alpha   90.00000238
_cell_angle_beta   89.85133683
_cell_angle_gamma   119.77894410
_symmetry_Int_Tables_number   1
_chemical_formula_structural   Yb3YOs3Ru5
_chemical_formula_sum   'Yb3 Y1 Os3 Ru5'
_cell_volume   212.98493395
_cell_formula_units_Z   1
loop_
 _symmetry_equiv_pos_site_id
 _symmetry_equiv_pos_as_xyz
  1  'x, y, z'
loop_
 _atom_site_type_symbol
 _atom_site_label
 _atom_site_symmetry_multiplicity
 _atom_site_fract_x
 _atom_site_fract_y
 _atom_site_fract_z
 _atom_site_occupancy
  Yb  Yb0  1  0.340616  0.670309  0.439349  1
  Yb  Yb1  1  0.670911  0.335454  0.564304  1
  Yb  Yb2  1  0.669062  0.334530  0.930732  1
  Y  Y3  1  0.336732  0.668367  0.067274  1
  Os  Os4  1  0.163832  0.337757  0.749392  1
  Os  Os5  1  0.163832  0.826076  0.749392  1
  Os  Os6  1  0.323709  0.161854  0.251946  1
  Ru  Ru7  1  0.818226  0.645929  0.249071  1
  Ru  Ru8  1  0.647223  0.823612  0.751060  1
  Ru  Ru9  1  0.021499  0.010749  0.999520  1
  Ru  Ru10  1  0.818226  0.172298  0.249071  1
  Ru  Ru11  1  0.026133  0.013067  0.498890  1
