# generated using pymatgen
data_Tb4ScZn2Bi
_symmetry_space_group_name_H-M   'P 1'
_cell_length_a   8.52492642
_cell_length_b   8.52492662
_cell_length_c   8.52492662
_cell_angle_alpha   123.14475319
_cell_angle_beta   123.14474208
_cell_angle_gamma   84.63431172
_symmetry_Int_Tables_number   1
_chemical_formula_structural   Tb4ScZn2Bi
_chemical_formula_sum   'Tb8 Sc2 Zn4 Bi2'
_cell_volume   415.27018463
_cell_formula_units_Z   2
loop_
 _symmetry_equiv_pos_site_id
 _symmetry_equiv_pos_as_xyz
  1  'x, y, z'
loop_
 _atom_site_type_symbol
 _atom_site_label
 _atom_site_symmetry_multiplicity
 _atom_site_fract_x
 _atom_site_fract_y
 _atom_site_fract_z
 _atom_site_occupancy
  Tb  Tb0  1  0.511735  0.011735  0.806842  1
  Tb  Tb1  1  0.204893  0.704893  0.193158  1
  Tb  Tb2  1  0.011735  0.204893  0.500000  1
  Tb  Tb3  1  0.704893  0.511735  0.500000  1
  Tb  Tb4  1  0.488265  0.988265  0.193158  1
  Tb  Tb5  1  0.795107  0.295107  0.806842  1
  Tb  Tb6  1  0.988265  0.795107  0.500000  1
  Tb  Tb7  1  0.295107  0.488265  0.500000  1
  Sc  Sc8  1  0.500000  0.500000  0.000000  1
  Sc  Sc9  1  0.000000  0.000000  0.000000  1
  Zn  Zn10  1  0.142942  0.642942  0.785885  1
  Zn  Zn11  1  0.857058  0.357058  0.214115  1
  Zn  Zn12  1  0.642942  0.857058  0.500000  1
  Zn  Zn13  1  0.357058  0.142942  0.500000  1
  Bi  Bi14  1  0.250000  0.250000  0.000000  1
  Bi  Bi15  1  0.750000  0.750000  0.000000  1
