# generated using pymatgen
data_LiPrHo(P3Pd10)2
_symmetry_space_group_name_H-M   'P 1'
_cell_length_a   8.67311395
_cell_length_b   8.67311396
_cell_length_c   8.67311400
_cell_angle_alpha   59.99999984
_cell_angle_beta   59.99999982
_cell_angle_gamma   60.00000210
_symmetry_Int_Tables_number   1
_chemical_formula_structural   LiPrHo(P3Pd10)2
_chemical_formula_sum   'Li1 Pr1 Ho1 P6 Pd20'
_cell_volume   461.32837537
_cell_formula_units_Z   1
loop_
 _symmetry_equiv_pos_site_id
 _symmetry_equiv_pos_as_xyz
  1  'x, y, z'
loop_
 _atom_site_type_symbol
 _atom_site_label
 _atom_site_symmetry_multiplicity
 _atom_site_fract_x
 _atom_site_fract_y
 _atom_site_fract_z
 _atom_site_occupancy
  Li  Li0  1  0.000000  0.000000  0.000000  1
  Pr  Pr1  1  0.250000  0.250000  0.250000  1
  Ho  Ho2  1  0.750000  0.750000  0.750000  1
  P  P3  1  0.740116  0.259884  0.259884  1
  P  P4  1  0.259884  0.740116  0.740116  1
  P  P5  1  0.259884  0.740116  0.259884  1
  P  P6  1  0.740116  0.259884  0.740116  1
  P  P7  1  0.259884  0.259884  0.740116  1
  P  P8  1  0.740116  0.740116  0.259884  1
  Pd  Pd9  1  0.387983  0.387983  0.387983  1
  Pd  Pd10  1  0.616380  0.616380  0.616380  1
  Pd  Pd11  1  0.387983  0.387983  0.836052  1
  Pd  Pd12  1  0.387983  0.836052  0.387983  1
  Pd  Pd13  1  0.616380  0.616380  0.150859  1
  Pd  Pd14  1  0.616380  0.150859  0.616380  1
  Pd  Pd15  1  0.836052  0.387983  0.387983  1
  Pd  Pd16  1  0.150859  0.616380  0.616380  1
  Pd  Pd17  1  0.347001  0.998397  0.998397  1
  Pd  Pd18  1  0.656206  0.998397  0.998397  1
  Pd  Pd19  1  0.998397  0.347001  0.656206  1
  Pd  Pd20  1  0.998397  0.656206  0.347001  1
  Pd  Pd21  1  0.998397  0.347001  0.998397  1
  Pd  Pd22  1  0.656206  0.998397  0.347001  1
  Pd  Pd23  1  0.998397  0.656206  0.998397  1
  Pd  Pd24  1  0.347001  0.998397  0.656206  1
  Pd  Pd25  1  0.998397  0.998397  0.347001  1
  Pd  Pd26  1  0.998397  0.998397  0.656206  1
  Pd  Pd27  1  0.656206  0.347001  0.998397  1
  Pd  Pd28  1  0.347001  0.656206  0.998397  1
