# generated using pymatgen
data_PaCl4F
_symmetry_space_group_name_H-M   'P 1'
_cell_length_a   11.17079998
_cell_length_b   11.17079907
_cell_length_c   11.17080007
_cell_angle_alpha   99.87492338
_cell_angle_beta   99.87492236
_cell_angle_gamma   131.07179606
_symmetry_Int_Tables_number   1
_chemical_formula_structural   PaCl4F
_chemical_formula_sum   'Pa4 Cl16 F4'
_cell_volume   956.54582537
_cell_formula_units_Z   4
loop_
 _symmetry_equiv_pos_site_id
 _symmetry_equiv_pos_as_xyz
  1  'x, y, z'
loop_
 _atom_site_type_symbol
 _atom_site_label
 _atom_site_symmetry_multiplicity
 _atom_site_fract_x
 _atom_site_fract_y
 _atom_site_fract_z
 _atom_site_occupancy
  Pa  Pa0  1  0.965590  0.793411  0.732811  1
  Pa  Pa1  1  0.767221  0.034410  0.827822  1
  Pa  Pa2  1  0.206589  0.939400  0.172178  1
  Pa  Pa3  1  0.060600  0.232779  0.267189  1
  Cl  Cl4  1  0.698392  0.525651  0.739450  1
  Cl  Cl5  1  0.786200  0.958943  0.260550  1
  Cl  Cl6  1  0.474349  0.213800  0.172741  1
  Cl  Cl7  1  0.041057  0.301608  0.827259  1
  Cl  Cl8  1  0.221765  0.327810  0.503595  1
  Cl  Cl9  1  0.281831  0.778235  0.106045  1
  Cl  Cl10  1  0.672190  0.175785  0.893955  1
  Cl  Cl11  1  0.824215  0.718169  0.496405  1
  Cl  Cl12  1  0.610026  0.918587  0.586294  1
  Cl  Cl13  1  0.976268  0.389974  0.308561  1
  Cl  Cl14  1  0.081413  0.667707  0.691439  1
  Cl  Cl15  1  0.332293  0.023732  0.413706  1
  Cl  Cl16  1  0.323175  0.470882  0.233723  1
  Cl  Cl17  1  0.910548  0.676825  0.147707  1
  Cl  Cl18  1  0.529118  0.762841  0.852293  1
  Cl  Cl19  1  0.237159  0.089452  0.766277  1
  F  F20  1  0.124397  0.079580  0.207791  1
  F  F21  1  0.871789  0.916605  0.792209  1
  F  F22  1  0.920420  0.128211  0.044817  1
  F  F23  1  0.083395  0.875603  0.955183  1
