# generated using pymatgen
data_Y2CdPdAu
_symmetry_space_group_name_H-M   'P 1'
_cell_length_a   7.82060100
_cell_length_b   7.81303100
_cell_length_c   3.80084000
_cell_angle_alpha   90.00000000
_cell_angle_beta   90.00000000
_cell_angle_gamma   90.00000000
_symmetry_Int_Tables_number   1
_chemical_formula_structural   Y2CdPdAu
_chemical_formula_sum   'Y4 Cd2 Pd2 Au2'
_cell_volume   232.24119878
_cell_formula_units_Z   2
loop_
 _symmetry_equiv_pos_site_id
 _symmetry_equiv_pos_as_xyz
  1  'x, y, z'
loop_
 _atom_site_type_symbol
 _atom_site_label
 _atom_site_symmetry_multiplicity
 _atom_site_fract_x
 _atom_site_fract_y
 _atom_site_fract_z
 _atom_site_occupancy
  Y  Y0  1  0.331025  0.821700  0.500000  1
  Y  Y1  1  0.831025  0.678300  0.500000  1
  Y  Y2  1  0.171609  0.339368  0.500000  1
  Y  Y3  1  0.671609  0.160632  0.500000  1
  Cd  Cd4  1  0.998327  0.995332  0.000000  1
  Cd  Cd5  1  0.498327  0.504668  0.000000  1
  Pd  Pd6  1  0.129337  0.631400  0.000000  1
  Pd  Pd7  1  0.629337  0.868600  0.000000  1
  Au  Au8  1  0.369702  0.126873  0.000000  1
  Au  Au9  1  0.869702  0.373127  0.000000  1
