# generated using pymatgen
data_Zn14CuB6Ir12Rh5
_symmetry_space_group_name_H-M   'P 1'
_cell_length_a   2.89889600
_cell_length_b   11.36125500
_cell_length_c   14.93544000
_cell_angle_alpha   90.00000000
_cell_angle_beta   90.00000000
_cell_angle_gamma   90.00000000
_symmetry_Int_Tables_number   1
_chemical_formula_structural   Zn14CuB6Ir12Rh5
_chemical_formula_sum   'Zn14 Cu1 B6 Ir12 Rh5'
_cell_volume   491.90016028
_cell_formula_units_Z   1
loop_
 _symmetry_equiv_pos_site_id
 _symmetry_equiv_pos_as_xyz
  1  'x, y, z'
loop_
 _atom_site_type_symbol
 _atom_site_label
 _atom_site_symmetry_multiplicity
 _atom_site_fract_x
 _atom_site_fract_y
 _atom_site_fract_z
 _atom_site_occupancy
  Zn  Zn0  1  0.500000  0.500000  0.347789  1
  Zn  Zn1  1  0.500000  0.000000  0.651996  1
  Zn  Zn2  1  0.500000  0.387447  0.000964  1
  Zn  Zn3  1  0.500000  0.111480  0.998573  1
  Zn  Zn4  1  0.500000  0.612553  0.000964  1
  Zn  Zn5  1  0.500000  0.888520  0.998573  1
  Zn  Zn6  1  0.500000  0.373271  0.770702  1
  Zn  Zn7  1  0.500000  0.126926  0.231146  1
  Zn  Zn8  1  0.500000  0.626729  0.770702  1
  Zn  Zn9  1  0.500000  0.873074  0.231146  1
  Zn  Zn10  1  0.500000  0.298461  0.603714  1
  Zn  Zn11  1  0.500000  0.201901  0.396440  1
  Zn  Zn12  1  0.500000  0.701539  0.603714  1
  Zn  Zn13  1  0.500000  0.798099  0.396440  1
  Cu  Cu14  1  0.000000  0.000000  0.121042  1
  B  B15  1  0.500000  0.500000  0.529575  1
  B  B16  1  0.500000  0.000000  0.469939  1
  B  B17  1  0.500000  0.143705  0.821856  1
  B  B18  1  0.500000  0.355125  0.177582  1
  B  B19  1  0.500000  0.856295  0.821856  1
  B  B20  1  0.500000  0.644875  0.177582  1
  Ir  Ir21  1  0.000000  0.247000  0.895011  1
  Ir  Ir22  1  0.000000  0.246924  0.105102  1
  Ir  Ir23  1  0.000000  0.753000  0.895011  1
  Ir  Ir24  1  0.000000  0.753076  0.105102  1
  Ir  Ir25  1  0.000000  0.172774  0.717130  1
  Ir  Ir26  1  0.000000  0.327654  0.282295  1
  Ir  Ir27  1  0.000000  0.827226  0.717130  1
  Ir  Ir28  1  0.000000  0.672346  0.282295  1
  Ir  Ir29  1  0.000000  0.122551  0.528904  1
  Ir  Ir30  1  0.000000  0.377319  0.470549  1
  Ir  Ir31  1  0.000000  0.877449  0.528904  1
  Ir  Ir32  1  0.000000  0.622681  0.470549  1
  Rh  Rh33  1  0.000000  0.500000  0.643490  1
  Rh  Rh34  1  0.000000  0.000000  0.354959  1
  Rh  Rh35  1  0.000000  0.500000  0.136625  1
  Rh  Rh36  1  0.000000  0.000000  0.864008  1
  Rh  Rh37  1  0.000000  0.500000  0.880636  1
