# generated using pymatgen
data_TbTm2Fe9
_symmetry_space_group_name_H-M   'P 1'
_cell_length_a   5.07242876
_cell_length_b   5.07242947
_cell_length_c   8.51701098
_cell_angle_alpha   72.67554596
_cell_angle_beta   72.67554252
_cell_angle_gamma   59.99999975
_symmetry_Int_Tables_number   1
_chemical_formula_structural   TbTm2Fe9
_chemical_formula_sum   'Tb1 Tm2 Fe9'
_cell_volume   178.20786470
_cell_formula_units_Z   1
loop_
 _symmetry_equiv_pos_site_id
 _symmetry_equiv_pos_as_xyz
  1  'x, y, z'
loop_
 _atom_site_type_symbol
 _atom_site_label
 _atom_site_symmetry_multiplicity
 _atom_site_fract_x
 _atom_site_fract_y
 _atom_site_fract_z
 _atom_site_occupancy
  Tb  Tb0  1  0.000000  0.000000  0.000000  1
  Tm  Tm1  1  0.142150  0.142150  0.573549  1
  Tm  Tm2  1  0.857850  0.857850  0.426451  1
  Fe  Fe3  1  0.081805  0.582527  0.753139  1
  Fe  Fe4  1  0.582527  0.582527  0.753139  1
  Fe  Fe5  1  0.582527  0.081805  0.753139  1
  Fe  Fe6  1  0.918195  0.417473  0.246861  1
  Fe  Fe7  1  0.417473  0.417473  0.246861  1
  Fe  Fe8  1  0.417473  0.918195  0.246861  1
  Fe  Fe9  1  0.332898  0.332898  0.001307  1
  Fe  Fe10  1  0.667102  0.667102  0.998693  1
  Fe  Fe11  1  0.500000  0.500000  0.500000  1
