# generated using pymatgen
data_Ho19LuSn3Pb13
_symmetry_space_group_name_H-M   'P 1'
_cell_length_a   8.16252571
_cell_length_b   15.56006600
_cell_length_c   8.21123262
_cell_angle_alpha   90.00000000
_cell_angle_beta   89.86287382
_cell_angle_gamma   90.00000000
_symmetry_Int_Tables_number   1
_chemical_formula_structural   Ho19LuSn3Pb13
_chemical_formula_sum   'Ho19 Lu1 Sn3 Pb13'
_cell_volume   1042.90106038
_cell_formula_units_Z   1
loop_
 _symmetry_equiv_pos_site_id
 _symmetry_equiv_pos_as_xyz
  1  'x, y, z'
loop_
 _atom_site_type_symbol
 _atom_site_label
 _atom_site_symmetry_multiplicity
 _atom_site_fract_x
 _atom_site_fract_y
 _atom_site_fract_z
 _atom_site_occupancy
  Ho  Ho0  1  0.620904  0.623156  0.161601  1
  Ho  Ho1  1  0.121260  0.877030  0.338432  1
  Ho  Ho2  1  0.381125  0.122224  0.838102  1
  Ho  Ho3  1  0.876716  0.378867  0.659371  1
  Ho  Ho4  1  0.381125  0.377776  0.838102  1
  Ho  Ho5  1  0.876716  0.121133  0.659371  1
  Ho  Ho6  1  0.620904  0.876844  0.161601  1
  Ho  Ho7  1  0.121260  0.622970  0.338432  1
  Ho  Ho8  1  0.462850  0.601567  0.672536  1
  Ho  Ho9  1  0.963075  0.898449  0.827645  1
  Ho  Ho10  1  0.537032  0.100753  0.327418  1
  Ho  Ho11  1  0.036716  0.400138  0.175874  1
  Ho  Ho12  1  0.537032  0.399247  0.327418  1
  Ho  Ho13  1  0.036716  0.099862  0.175874  1
  Ho  Ho14  1  0.462850  0.898433  0.672536  1
  Ho  Ho15  1  0.963075  0.601551  0.827645  1
  Ho  Ho16  1  0.288512  0.750000  0.007169  1
  Ho  Ho17  1  0.212153  0.250000  0.505479  1
  Ho  Ho18  1  0.709106  0.250000  0.993462  1
  Lu  Lu19  1  0.788613  0.750000  0.492551  1
  Sn  Sn20  1  0.425470  0.750000  0.376391  1
  Sn  Sn21  1  0.925019  0.750000  0.124746  1
  Sn  Sn22  1  0.575363  0.250000  0.623705  1
  Pb  Pb23  1  0.717990  0.458319  0.967933  1
  Pb  Pb24  1  0.218242  0.041654  0.532881  1
  Pb  Pb25  1  0.282517  0.957908  0.031887  1
  Pb  Pb26  1  0.781910  0.542594  0.466496  1
  Pb  Pb27  1  0.282517  0.542092  0.031887  1
  Pb  Pb28  1  0.781910  0.957406  0.466496  1
  Pb  Pb29  1  0.717990  0.041681  0.967933  1
  Pb  Pb30  1  0.218242  0.458346  0.532881  1
  Pb  Pb31  1  0.073416  0.250000  0.875430  1
  Pb  Pb32  1  0.652140  0.750000  0.846841  1
  Pb  Pb33  1  0.152137  0.750000  0.652770  1
  Pb  Pb34  1  0.349327  0.250000  0.153847  1
  Pb  Pb35  1  0.848079  0.250000  0.347256  1
