# generated using pymatgen
data_YEr3Al24CuPd8
_symmetry_space_group_name_H-M   'P 1'
_cell_length_a   7.53548267
_cell_length_b   7.55495472
_cell_length_c   13.10931441
_cell_angle_alpha   84.59888609
_cell_angle_beta   79.01688692
_cell_angle_gamma   59.93611762
_symmetry_Int_Tables_number   1
_chemical_formula_structural   YEr3Al24CuPd8
_chemical_formula_sum   'Y1 Er3 Al24 Cu1 Pd8'
_cell_volume   634.08071443
_cell_formula_units_Z   1
loop_
 _symmetry_equiv_pos_site_id
 _symmetry_equiv_pos_as_xyz
  1  'x, y, z'
loop_
 _atom_site_type_symbol
 _atom_site_label
 _atom_site_symmetry_multiplicity
 _atom_site_fract_x
 _atom_site_fract_y
 _atom_site_fract_z
 _atom_site_occupancy
  Y  Y0  1  0.392551  0.169015  0.808269  1
  Er  Er1  1  0.606401  0.831515  0.192137  1
  Er  Er2  1  0.734421  0.498368  0.807469  1
  Er  Er3  1  0.266628  0.501764  0.192247  1
  Al  Al4  1  0.684579  0.832757  0.944965  1
  Al  Al5  1  0.315993  0.166159  0.056395  1
  Al  Al6  1  0.145433  0.834746  0.561926  1
  Al  Al7  1  0.855086  0.166677  0.436212  1
  Al  Al8  1  0.479555  0.167573  0.559825  1
  Al  Al9  1  0.520541  0.833558  0.439522  1
  Al  Al10  1  0.218126  0.165493  0.328492  1
  Al  Al11  1  0.785556  0.831415  0.670687  1
  Al  Al12  1  0.433512  0.506958  0.671051  1
  Al  Al13  1  0.563571  0.493622  0.328058  1
  Al  Al14  1  0.109027  0.162702  0.669567  1
  Al  Al15  1  0.890727  0.840210  0.329510  1
  Al  Al16  1  0.353068  0.499434  0.944802  1
  Al  Al17  1  0.646707  0.500986  0.055886  1
  Al  Al18  1  0.014455  0.167572  0.955259  1
  Al  Al19  1  0.984264  0.831739  0.046906  1
  Al  Al20  1  0.186324  0.500637  0.441910  1
  Al  Al21  1  0.813755  0.500128  0.559815  1
  Al  Al22  1  0.732741  0.164064  0.184126  1
  Al  Al23  1  0.266507  0.834760  0.816024  1
  Al  Al24  1  0.061401  0.628846  0.813145  1
  Al  Al25  1  0.938427  0.370124  0.185305  1
  Al  Al26  1  0.855694  0.041646  0.815777  1
  Al  Al27  1  0.144942  0.957470  0.184156  1
  Cu  Cu28  1  0.119402  0.491961  0.639142  1
  Pd  Pd29  1  0.880427  0.508178  0.362320  1
  Pd  Pd30  1  0.656955  0.171295  0.999742  1
  Pd  Pd31  1  0.343173  0.828172  0.999923  1
  Pd  Pd32  1  0.536498  0.167787  0.362509  1
  Pd  Pd33  1  0.462337  0.833163  0.637646  1
  Pd  Pd34  1  0.778875  0.175352  0.636951  1
  Pd  Pd35  1  0.221891  0.824194  0.362567  1
  Pd  Pd36  1  0.000451  0.499959  0.999754  1
