# generated using pymatgen
data_Tb3GdDy2Ta2O14
_symmetry_space_group_name_H-M   'P 1'
_cell_length_a   6.51505775
_cell_length_b   6.51464952
_cell_length_c   7.51102279
_cell_angle_alpha   90.01484879
_cell_angle_beta   90.02250047
_cell_angle_gamma   108.68894629
_symmetry_Int_Tables_number   1
_chemical_formula_structural   Tb3GdDy2Ta2O14
_chemical_formula_sum   'Tb3 Gd1 Dy2 Ta2 O14'
_cell_volume   301.98341274
_cell_formula_units_Z   1
loop_
 _symmetry_equiv_pos_site_id
 _symmetry_equiv_pos_as_xyz
  1  'x, y, z'
loop_
 _atom_site_type_symbol
 _atom_site_label
 _atom_site_symmetry_multiplicity
 _atom_site_fract_x
 _atom_site_fract_y
 _atom_site_fract_z
 _atom_site_occupancy
  Tb  Tb0  1  0.999729  0.535205  0.242761  1
  Tb  Tb1  1  0.464929  0.999810  0.256637  1
  Tb  Tb2  1  0.463432  0.463969  0.999531  1
  Gd  Gd3  1  0.529726  0.530381  0.500337  1
  Dy  Dy4  1  0.999476  0.465114  0.743223  1
  Dy  Dy5  1  0.535021  0.000102  0.757421  1
  Ta  Ta6  1  0.002415  0.002386  0.500611  1
  Ta  Ta7  1  0.997207  0.997203  0.999441  1
  O  O8  1  0.932645  0.067536  0.749955  1
  O  O9  1  0.640627  0.359438  0.752074  1
  O  O10  1  0.309153  0.051952  0.542728  1
  O  O11  1  0.950848  0.692321  0.957024  1
  O  O12  1  0.629797  0.369984  0.247964  1
  O  O13  1  0.921062  0.674361  0.526870  1
  O  O14  1  0.326435  0.081060  0.973497  1
  O  O15  1  0.081309  0.326501  0.024968  1
  O  O16  1  0.674224  0.920699  0.474728  1
  O  O17  1  0.369203  0.630557  0.751912  1
  O  O18  1  0.691527  0.948504  0.040970  1
  O  O19  1  0.054105  0.309899  0.459318  1
  O  O20  1  0.360768  0.639221  0.247952  1
  O  O21  1  0.066361  0.933798  0.250077  1
