# generated using pymatgen
data_LuTh4Sc5(In2Rh)4
_symmetry_space_group_name_H-M   'P 1'
_cell_length_a   3.75200700
_cell_length_b   7.84936139
_cell_length_c   17.51594937
_cell_angle_alpha   90.08952528
_cell_angle_beta   90.00000000
_cell_angle_gamma   90.00000000
_symmetry_Int_Tables_number   1
_chemical_formula_structural   LuTh4Sc5(In2Rh)4
_chemical_formula_sum   'Lu1 Th4 Sc5 In8 Rh4'
_cell_volume   515.85912298
_cell_formula_units_Z   1
loop_
 _symmetry_equiv_pos_site_id
 _symmetry_equiv_pos_as_xyz
  1  'x, y, z'
loop_
 _atom_site_type_symbol
 _atom_site_label
 _atom_site_symmetry_multiplicity
 _atom_site_fract_x
 _atom_site_fract_y
 _atom_site_fract_z
 _atom_site_occupancy
  Lu  Lu0  1  0.000000  0.000000  0.000000  1
  Th  Th1  1  0.000000  0.766562  0.782778  1
  Th  Th2  1  0.000000  0.233438  0.217222  1
  Th  Th3  1  0.000000  0.268164  0.714810  1
  Th  Th4  1  0.000000  0.731836  0.285190  1
  Sc  Sc5  1  0.000000  0.500000  0.500000  1
  Sc  Sc6  1  0.000000  0.897246  0.585112  1
  Sc  Sc7  1  0.000000  0.102754  0.414888  1
  Sc  Sc8  1  0.000000  0.394841  0.913544  1
  Sc  Sc9  1  0.000000  0.605159  0.086456  1
  In  In10  1  0.500000  0.796956  0.447129  1
  In  In11  1  0.500000  0.203044  0.552871  1
  In  In12  1  0.500000  0.305172  0.054876  1
  In  In13  1  0.500000  0.694828  0.945124  1
  In  In14  1  0.500000  0.900897  0.142973  1
  In  In15  1  0.500000  0.099103  0.857027  1
  In  In16  1  0.500000  0.401073  0.361164  1
  In  In17  1  0.500000  0.598927  0.638836  1
  Rh  Rh18  1  0.500000  0.983221  0.695011  1
  Rh  Rh19  1  0.500000  0.016779  0.304989  1
  Rh  Rh20  1  0.500000  0.482938  0.803032  1
  Rh  Rh21  1  0.500000  0.517062  0.196968  1
