# generated using pymatgen
data_Hf3Si2Tc3P
_symmetry_space_group_name_H-M   'P 1'
_cell_length_a   6.89384400
_cell_length_b   6.89384397
_cell_length_c   3.42355700
_cell_angle_alpha   90.00000000
_cell_angle_beta   90.00000000
_cell_angle_gamma   120.00000014
_symmetry_Int_Tables_number   1
_chemical_formula_structural   Hf3Si2Tc3P
_chemical_formula_sum   'Hf3 Si2 Tc3 P1'
_cell_volume   140.90652202
_cell_formula_units_Z   1
loop_
 _symmetry_equiv_pos_site_id
 _symmetry_equiv_pos_as_xyz
  1  'x, y, z'
loop_
 _atom_site_type_symbol
 _atom_site_label
 _atom_site_symmetry_multiplicity
 _atom_site_fract_x
 _atom_site_fract_y
 _atom_site_fract_z
 _atom_site_occupancy
  Hf  Hf0  1  0.406769  0.403097  0.500000  1
  Hf  Hf1  1  0.596903  0.003673  0.500000  1
  Hf  Hf2  1  0.996327  0.593231  0.500000  1
  Si  Si3  1  0.333333  0.666667  0.000000  1
  Si  Si4  1  0.000000  0.000000  0.500000  1
  Tc  Tc5  1  0.746937  0.745015  0.000000  1
  Tc  Tc6  1  0.254985  0.001922  0.000000  1
  Tc  Tc7  1  0.998078  0.253063  0.000000  1
  P  P8  1  0.666667  0.333333  0.000000  1
