# generated using pymatgen
data_YCoTeO6
_symmetry_space_group_name_H-M   'P 1'
_cell_length_a   5.06284101
_cell_length_b   5.06242889
_cell_length_c   9.90301700
_cell_angle_alpha   90.00339887
_cell_angle_beta   89.99830629
_cell_angle_gamma   119.99729458
_symmetry_Int_Tables_number   1
_chemical_formula_structural   YCoTeO6
_chemical_formula_sum   'Y2 Co2 Te2 O12'
_cell_volume   219.81798340
_cell_formula_units_Z   2
loop_
 _symmetry_equiv_pos_site_id
 _symmetry_equiv_pos_as_xyz
  1  'x, y, z'
loop_
 _atom_site_type_symbol
 _atom_site_label
 _atom_site_symmetry_multiplicity
 _atom_site_fract_x
 _atom_site_fract_y
 _atom_site_fract_z
 _atom_site_occupancy
  Y  Y0  1  0.000000  0.000000  0.000000  1
  Y  Y1  1  0.000000  0.000000  0.500000  1
  Co  Co2  1  0.333299  0.666650  0.250000  1
  Co  Co3  1  0.666701  0.333350  0.750000  1
  Te  Te4  1  0.333533  0.666766  0.750000  1
  Te  Te5  1  0.666467  0.333234  0.250000  1
  O  O6  1  0.362719  0.365944  0.141117  1
  O  O7  1  0.633902  0.996737  0.141109  1
  O  O8  1  0.003109  0.637153  0.141098  1
  O  O9  1  0.637281  0.634056  0.858883  1
  O  O10  1  0.366098  0.003263  0.858891  1
  O  O11  1  0.996891  0.362847  0.858902  1
  O  O12  1  0.633902  0.637165  0.358891  1
  O  O13  1  0.362719  0.996775  0.358883  1
  O  O14  1  0.003109  0.365957  0.358902  1
  O  O15  1  0.366098  0.362835  0.641109  1
  O  O16  1  0.637281  0.003225  0.641117  1
  O  O17  1  0.996891  0.634043  0.641098  1
