# generated using pymatgen
data_MgZr2Sc(B4Ru5)2
_symmetry_space_group_name_H-M   'P 1'
_cell_length_a   2.99740300
_cell_length_b   8.64259352
_cell_length_c   10.05959735
_cell_angle_alpha   91.02868098
_cell_angle_beta   90.00000000
_cell_angle_gamma   90.00000000
_symmetry_Int_Tables_number   1
_chemical_formula_structural   MgZr2Sc(B4Ru5)2
_chemical_formula_sum   'Mg1 Zr2 Sc1 B8 Ru10'
_cell_volume   260.55524731
_cell_formula_units_Z   1
loop_
 _symmetry_equiv_pos_site_id
 _symmetry_equiv_pos_as_xyz
  1  'x, y, z'
loop_
 _atom_site_type_symbol
 _atom_site_label
 _atom_site_symmetry_multiplicity
 _atom_site_fract_x
 _atom_site_fract_y
 _atom_site_fract_z
 _atom_site_occupancy
  Mg  Mg0  1  0.500000  0.844408  0.317984  1
  Zr  Zr1  1  0.500000  0.660213  0.819356  1
  Zr  Zr2  1  0.500000  0.341273  0.183967  1
  Sc  Sc3  1  0.500000  0.157401  0.676086  1
  B  B4  1  0.500000  0.854182  0.599416  1
  B  B5  1  0.500000  0.141072  0.398402  1
  B  B6  1  0.500000  0.351974  0.897639  1
  B  B7  1  0.500000  0.651266  0.106360  1
  B  B8  1  0.500000  0.967024  0.912110  1
  B  B9  1  0.500000  0.034301  0.086389  1
  B  B10  1  0.500000  0.462973  0.586626  1
  B  B11  1  0.500000  0.536443  0.413507  1
  Ru  Ru12  1  0.000000  0.403446  0.737316  1
  Ru  Ru13  1  0.000000  0.599861  0.265937  1
  Ru  Ru14  1  0.000000  0.909190  0.762158  1
  Ru  Ru15  1  0.000000  0.090661  0.235990  1
  Ru  Ru16  1  0.000000  0.996759  0.498626  1
  Ru  Ru17  1  0.000000  0.500836  0.001842  1
  Ru  Ru18  1  0.000000  0.660538  0.553548  1
  Ru  Ru19  1  0.000000  0.334634  0.450348  1
  Ru  Ru20  1  0.000000  0.166589  0.951463  1
  Ru  Ru21  1  0.000000  0.834953  0.044929  1
