# generated using pymatgen
data_Dy6TaFe7(Co5P6)2
_symmetry_space_group_name_H-M   'P 1'
_cell_length_a   3.70777600
_cell_length_b   10.57706200
_cell_length_c   12.16853200
_cell_angle_alpha   90.00000000
_cell_angle_beta   90.00000000
_cell_angle_gamma   90.00000000
_symmetry_Int_Tables_number   1
_chemical_formula_structural   Dy6TaFe7(Co5P6)2
_chemical_formula_sum   'Dy6 Ta1 Fe7 Co10 P12'
_cell_volume   477.21790253
_cell_formula_units_Z   1
loop_
 _symmetry_equiv_pos_site_id
 _symmetry_equiv_pos_as_xyz
  1  'x, y, z'
loop_
 _atom_site_type_symbol
 _atom_site_label
 _atom_site_symmetry_multiplicity
 _atom_site_fract_x
 _atom_site_fract_y
 _atom_site_fract_z
 _atom_site_occupancy
  Dy  Dy0  1  0.000000  0.500000  0.527392  1
  Dy  Dy1  1  0.500000  0.000000  0.475888  1
  Dy  Dy2  1  0.500000  0.822138  0.205920  1
  Dy  Dy3  1  0.500000  0.177862  0.205920  1
  Dy  Dy4  1  0.000000  0.681020  0.796680  1
  Dy  Dy5  1  0.000000  0.318980  0.796680  1
  Ta  Ta6  1  0.500000  0.500000  0.151197  1
  Fe  Fe7  1  0.000000  0.500000  0.985799  1
  Fe  Fe8  1  0.500000  0.000000  0.009725  1
  Fe  Fe9  1  0.500000  0.295690  0.432499  1
  Fe  Fe10  1  0.500000  0.704310  0.432499  1
  Fe  Fe11  1  0.500000  0.882287  0.708026  1
  Fe  Fe12  1  0.500000  0.117713  0.708026  1
  Fe  Fe13  1  0.000000  0.000000  0.844923  1
  Co  Co14  1  0.000000  0.200662  0.571735  1
  Co  Co15  1  0.000000  0.799338  0.571735  1
  Co  Co16  1  0.000000  0.621765  0.292542  1
  Co  Co17  1  0.000000  0.378235  0.292542  1
  Co  Co18  1  0.500000  0.327260  0.990317  1
  Co  Co19  1  0.500000  0.672740  0.990317  1
  Co  Co20  1  0.000000  0.165023  0.004222  1
  Co  Co21  1  0.000000  0.834977  0.004222  1
  Co  Co22  1  0.500000  0.500000  0.699846  1
  Co  Co23  1  0.000000  0.000000  0.299953  1
  P  P24  1  0.500000  0.307095  0.616935  1
  P  P25  1  0.500000  0.692905  0.616935  1
  P  P26  1  0.000000  0.192365  0.386784  1
  P  P27  1  0.000000  0.807635  0.386784  1
  P  P28  1  0.500000  0.500000  0.882661  1
  P  P29  1  0.000000  0.000000  0.115267  1
  P  P30  1  0.500000  0.851540  0.888211  1
  P  P31  1  0.500000  0.148460  0.888211  1
  P  P32  1  0.000000  0.660010  0.102224  1
  P  P33  1  0.000000  0.339990  0.102224  1
  P  P34  1  0.500000  0.500000  0.355368  1
  P  P35  1  0.000000  0.000000  0.659788  1
