# generated using pymatgen
data_ErTm9Rh4
_symmetry_space_group_name_H-M   'P 1'
_cell_length_a   6.33146142
_cell_length_b   7.10799826
_cell_length_c   8.48984972
_cell_angle_alpha   96.77825093
_cell_angle_beta   111.89244619
_cell_angle_gamma   90.01969182
_symmetry_Int_Tables_number   1
_chemical_formula_structural   ErTm9Rh4
_chemical_formula_sum   'Er1 Tm9 Rh4'
_cell_volume   351.63792179
_cell_formula_units_Z   1
loop_
 _symmetry_equiv_pos_site_id
 _symmetry_equiv_pos_as_xyz
  1  'x, y, z'
loop_
 _atom_site_type_symbol
 _atom_site_label
 _atom_site_symmetry_multiplicity
 _atom_site_fract_x
 _atom_site_fract_y
 _atom_site_fract_z
 _atom_site_occupancy
  Er  Er0  1  0.790695  0.082292  0.812508  1
  Tm  Tm1  1  0.978577  0.417738  0.187840  1
  Tm  Tm2  1  0.209260  0.917323  0.187820  1
  Tm  Tm3  1  0.021607  0.582327  0.812292  1
  Tm  Tm4  1  0.209212  0.186059  0.561186  1
  Tm  Tm5  1  0.648028  0.314121  0.438247  1
  Tm  Tm6  1  0.790337  0.813852  0.438392  1
  Tm  Tm7  1  0.351855  0.686007  0.561552  1
  Tm  Tm8  1  0.423335  0.250258  0.000121  1
  Tm  Tm9  1  0.576513  0.749704  0.000065  1
  Rh  Rh10  1  0.598448  0.426540  0.779084  1
  Rh  Rh11  1  0.820177  0.074235  0.221308  1
  Rh  Rh12  1  0.401065  0.574037  0.220714  1
  Rh  Rh13  1  0.180893  0.925505  0.778872  1
