# generated using pymatgen
data_Sr6Tc(NiO6)2
_symmetry_space_group_name_H-M   'P 1'
_cell_length_a   8.80915805
_cell_length_b   8.80915737
_cell_length_c   7.03002900
_cell_angle_alpha   67.94794982
_cell_angle_beta   67.94795161
_cell_angle_gamma   36.84438388
_symmetry_Int_Tables_number   1
_chemical_formula_structural   Sr6Tc(NiO6)2
_chemical_formula_sum   'Sr6 Tc1 Ni2 O12'
_cell_volume   300.42476075
_cell_formula_units_Z   1
loop_
 _symmetry_equiv_pos_site_id
 _symmetry_equiv_pos_as_xyz
  1  'x, y, z'
loop_
 _atom_site_type_symbol
 _atom_site_label
 _atom_site_symmetry_multiplicity
 _atom_site_fract_x
 _atom_site_fract_y
 _atom_site_fract_z
 _atom_site_occupancy
  Sr  Sr0  1  0.224812  0.224812  0.713115  1
  Sr  Sr1  1  0.868398  0.868398  0.721955  1
  Sr  Sr2  1  0.548691  0.548691  0.702216  1
  Sr  Sr3  1  0.775188  0.775188  0.286885  1
  Sr  Sr4  1  0.451309  0.451309  0.297784  1
  Sr  Sr5  1  0.131602  0.131602  0.278045  1
  Tc  Tc6  1  0.000000  0.000000  0.000000  1
  Ni  Ni7  1  0.666442  0.666442  0.999297  1
  Ni  Ni8  1  0.333558  0.333558  0.000703  1
  O  O9  1  0.282049  0.282049  0.328864  1
  O  O10  1  0.949306  0.949306  0.304189  1
  O  O11  1  0.607827  0.607827  0.328672  1
  O  O12  1  0.717951  0.717951  0.671136  1
  O  O13  1  0.392173  0.392173  0.671328  1
  O  O14  1  0.050694  0.050694  0.695811  1
  O  O15  1  0.000000  0.500000  0.000000  1
  O  O16  1  0.680313  0.161185  0.999734  1
  O  O17  1  0.319687  0.838815  0.000266  1
  O  O18  1  0.500000  0.000000  0.000000  1
  O  O19  1  0.161185  0.680313  0.999734  1
  O  O20  1  0.838815  0.319687  0.000266  1
