# generated using pymatgen
data_NdPa(CoSi2)2
_symmetry_space_group_name_H-M   'P 1'
_cell_length_a   8.41525562
_cell_length_b   8.41525568
_cell_length_c   4.02102000
_cell_angle_alpha   90.00000000
_cell_angle_beta   90.00000000
_cell_angle_gamma   152.05222323
_symmetry_Int_Tables_number   1
_chemical_formula_structural   NdPa(CoSi2)2
_chemical_formula_sum   'Nd1 Pa1 Co2 Si4'
_cell_volume   133.45500199
_cell_formula_units_Z   1
loop_
 _symmetry_equiv_pos_site_id
 _symmetry_equiv_pos_as_xyz
  1  'x, y, z'
loop_
 _atom_site_type_symbol
 _atom_site_label
 _atom_site_symmetry_multiplicity
 _atom_site_fract_x
 _atom_site_fract_y
 _atom_site_fract_z
 _atom_site_occupancy
  Nd  Nd0  1  0.894436  0.105564  0.750000  1
  Pa  Pa1  1  0.109425  0.890575  0.250000  1
  Co  Co2  1  0.676878  0.323122  0.750000  1
  Co  Co3  1  0.317907  0.682093  0.250000  1
  Si  Si4  1  0.750758  0.249242  0.250000  1
  Si  Si5  1  0.248642  0.751358  0.750000  1
  Si  Si6  1  0.541675  0.458325  0.750000  1
  Si  Si7  1  0.460279  0.539721  0.250000  1
