# generated using pymatgen
data_Li4TbDy7(ScSi2)8
_symmetry_space_group_name_H-M   'P 1'
_cell_length_a   6.89737204
_cell_length_b   7.40181510
_cell_length_c   14.07963617
_cell_angle_alpha   90.01575514
_cell_angle_beta   90.00795954
_cell_angle_gamma   89.99046298
_symmetry_Int_Tables_number   1
_chemical_formula_structural   Li4TbDy7(ScSi2)8
_chemical_formula_sum   'Li4 Tb1 Dy7 Sc8 Si16'
_cell_volume   718.80864179
_cell_formula_units_Z   1
loop_
 _symmetry_equiv_pos_site_id
 _symmetry_equiv_pos_as_xyz
  1  'x, y, z'
loop_
 _atom_site_type_symbol
 _atom_site_label
 _atom_site_symmetry_multiplicity
 _atom_site_fract_x
 _atom_site_fract_y
 _atom_site_fract_z
 _atom_site_occupancy
  Li  Li0  1  0.159245  0.505109  0.750000  1
  Li  Li1  1  0.840734  0.494926  0.250016  1
  Li  Li2  1  0.340794  0.005077  0.250019  1
  Li  Li3  1  0.659243  0.994893  0.750004  1
  Tb  Tb4  1  0.013747  0.181622  0.099199  1
  Dy  Dy5  1  0.986205  0.818225  0.900701  1
  Dy  Dy6  1  0.486223  0.681760  0.900728  1
  Dy  Dy7  1  0.986194  0.818238  0.599271  1
  Dy  Dy8  1  0.513809  0.318313  0.099243  1
  Dy  Dy9  1  0.013768  0.181738  0.400704  1
  Dy  Dy10  1  0.513790  0.318261  0.400748  1
  Dy  Dy11  1  0.486213  0.681744  0.599266  1
  Sc  Sc12  1  0.330240  0.179123  0.626469  1
  Sc  Sc13  1  0.669744  0.820873  0.373560  1
  Sc  Sc14  1  0.169775  0.679114  0.373555  1
  Sc  Sc15  1  0.669685  0.820807  0.126452  1
  Sc  Sc16  1  0.830234  0.320876  0.626468  1
  Sc  Sc17  1  0.330276  0.179106  0.873528  1
  Sc  Sc18  1  0.830194  0.320898  0.873508  1
  Sc  Sc19  1  0.169794  0.679095  0.126439  1
  Si  Si20  1  0.031614  0.104560  0.749996  1
  Si  Si21  1  0.968322  0.895299  0.250097  1
  Si  Si22  1  0.468405  0.604582  0.250018  1
  Si  Si23  1  0.531605  0.395463  0.750002  1
  Si  Si24  1  0.282130  0.881501  0.750001  1
  Si  Si25  1  0.717672  0.118366  0.250120  1
  Si  Si26  1  0.218020  0.381673  0.250096  1
  Si  Si27  1  0.782138  0.618489  0.749997  1
  Si  Si28  1  0.158039  0.463127  0.535332  1
  Si  Si29  1  0.841968  0.536872  0.464677  1
  Si  Si30  1  0.341975  0.963147  0.464672  1
  Si  Si31  1  0.841908  0.537091  0.035273  1
  Si  Si32  1  0.658033  0.036870  0.535331  1
  Si  Si33  1  0.158099  0.463337  0.964603  1
  Si  Si34  1  0.657919  0.036834  0.964655  1
  Si  Si35  1  0.342246  0.962991  0.035251  1
