# generated using pymatgen
data_Y16Er4Rh11Au
_symmetry_space_group_name_H-M   'P 1'
_cell_length_a   10.92757821
_cell_length_b   10.92757746
_cell_length_c   6.36050500
_cell_angle_alpha   89.98888436
_cell_angle_beta   89.98888436
_cell_angle_gamma   90.10756797
_symmetry_Int_Tables_number   1
_chemical_formula_structural   Y16Er4Rh11Au
_chemical_formula_sum   'Y16 Er4 Rh11 Au1'
_cell_volume   759.51898456
_cell_formula_units_Z   1
loop_
 _symmetry_equiv_pos_site_id
 _symmetry_equiv_pos_as_xyz
  1  'x, y, z'
loop_
 _atom_site_type_symbol
 _atom_site_label
 _atom_site_symmetry_multiplicity
 _atom_site_fract_x
 _atom_site_fract_y
 _atom_site_fract_z
 _atom_site_occupancy
  Y  Y0  1  0.289987  0.090146  0.379474  1
  Y  Y1  1  0.289079  0.917553  0.879586  1
  Y  Y2  1  0.709795  0.089422  0.878892  1
  Y  Y3  1  0.710280  0.911101  0.379744  1
  Y  Y4  1  0.593583  0.792418  0.880507  1
  Y  Y5  1  0.589692  0.208286  0.377297  1
  Y  Y6  1  0.414192  0.794182  0.368013  1
  Y  Y7  1  0.410796  0.210673  0.877716  1
  Y  Y8  1  0.207582  0.406417  0.619493  1
  Y  Y9  1  0.205818  0.585808  0.131987  1
  Y  Y10  1  0.791714  0.410308  0.122703  1
  Y  Y11  1  0.789327  0.589204  0.622284  1
  Y  Y12  1  0.909854  0.710013  0.120526  1
  Y  Y13  1  0.910578  0.290205  0.621108  1
  Y  Y14  1  0.082447  0.710921  0.620414  1
  Y  Y15  1  0.088899  0.289720  0.120256  1
  Er  Er16  1  0.999994  0.000766  0.499263  1
  Er  Er17  1  0.999234  0.000006  0.000737  1
  Er  Er18  1  0.503965  0.496313  0.001615  1
  Er  Er19  1  0.503687  0.496035  0.498385  1
  Rh  Rh20  1  0.847559  0.152441  0.250000  1
  Rh  Rh21  1  0.847999  0.847644  0.749227  1
  Rh  Rh22  1  0.152356  0.152001  0.750773  1
  Rh  Rh23  1  0.153219  0.846781  0.250000  1
  Rh  Rh24  1  0.653323  0.346677  0.750000  1
  Rh  Rh25  1  0.651368  0.652196  0.249148  1
  Rh  Rh26  1  0.347804  0.348632  0.250852  1
  Rh  Rh27  1  0.499385  0.000074  0.124571  1
  Rh  Rh28  1  0.500072  0.999667  0.626854  1
  Rh  Rh29  1  0.000333  0.499928  0.873146  1
  Rh  Rh30  1  0.999926  0.500615  0.375429  1
  Au  Au31  1  0.346149  0.653851  0.750000  1
