# generated using pymatgen
data_Li4Tb3ScSi8
_symmetry_space_group_name_H-M   'P 1'
_cell_length_a   3.78688200
_cell_length_b   7.56780319
_cell_length_c   10.07148156
_cell_angle_alpha   90.26767967
_cell_angle_beta   90.00000000
_cell_angle_gamma   90.00000000
_symmetry_Int_Tables_number   1
_chemical_formula_structural   Li4Tb3ScSi8
_chemical_formula_sum   'Li4 Tb3 Sc1 Si8'
_cell_volume   288.62917240
_cell_formula_units_Z   1
loop_
 _symmetry_equiv_pos_site_id
 _symmetry_equiv_pos_as_xyz
  1  'x, y, z'
loop_
 _atom_site_type_symbol
 _atom_site_label
 _atom_site_symmetry_multiplicity
 _atom_site_fract_x
 _atom_site_fract_y
 _atom_site_fract_z
 _atom_site_occupancy
  Li  Li0  1  0.250000  0.984955  0.393259  1
  Li  Li1  1  0.250000  0.489580  0.107951  1
  Li  Li2  1  0.750000  0.011892  0.604339  1
  Li  Li3  1  0.750000  0.510139  0.892562  1
  Tb  Tb4  1  0.250000  0.141497  0.863869  1
  Tb  Tb5  1  0.250000  0.637929  0.635936  1
  Tb  Tb6  1  0.750000  0.861556  0.138259  1
  Sc  Sc7  1  0.750000  0.366089  0.363352  1
  Si  Si8  1  0.250000  0.239170  0.557562  1
  Si  Si9  1  0.250000  0.732527  0.932329  1
  Si  Si10  1  0.750000  0.759957  0.431198  1
  Si  Si11  1  0.750000  0.271692  0.074838  1
  Si  Si12  1  0.250000  0.644851  0.321567  1
  Si  Si13  1  0.250000  0.161643  0.187781  1
  Si  Si14  1  0.750000  0.342939  0.675672  1
  Si  Si15  1  0.750000  0.843587  0.819526  1
