# generated using pymatgen
data_Zr4Al5VPt2
_symmetry_space_group_name_H-M   'P 1'
_cell_length_a   5.33174400
_cell_length_b   5.34801902
_cell_length_c   8.42308300
_cell_angle_alpha   90.00000000
_cell_angle_beta   90.00000000
_cell_angle_gamma   119.89938317
_symmetry_Int_Tables_number   1
_chemical_formula_structural   Zr4Al5VPt2
_chemical_formula_sum   'Zr4 Al5 V1 Pt2'
_cell_volume   208.21085847
_cell_formula_units_Z   1
loop_
 _symmetry_equiv_pos_site_id
 _symmetry_equiv_pos_as_xyz
  1  'x, y, z'
loop_
 _atom_site_type_symbol
 _atom_site_label
 _atom_site_symmetry_multiplicity
 _atom_site_fract_x
 _atom_site_fract_y
 _atom_site_fract_z
 _atom_site_occupancy
  Zr  Zr0  1  0.670039  0.340078  0.072920  1
  Zr  Zr1  1  0.670039  0.340078  0.427081  1
  Zr  Zr2  1  0.331716  0.663432  0.558561  1
  Zr  Zr3  1  0.331716  0.663432  0.941439  1
  Al  Al4  1  0.169086  0.828869  0.250000  1
  Al  Al5  1  0.659784  0.828869  0.250000  1
  Al  Al6  1  0.337274  0.168446  0.750000  1
  Al  Al7  1  0.831173  0.168446  0.750000  1
  Al  Al8  1  0.829627  0.659253  0.750000  1
  V  V9  1  0.171510  0.343019  0.250000  1
  Pt  Pt10  1  0.999020  0.998039  0.997216  1
  Pt  Pt11  1  0.999020  0.998039  0.502785  1
