# generated using pymatgen
data_YEr(MgIr)2
_symmetry_space_group_name_H-M   'P 1'
_cell_length_a   4.12004300
_cell_length_b   7.08115700
_cell_length_c   8.52285900
_cell_angle_alpha   90.00000000
_cell_angle_beta   90.00000000
_cell_angle_gamma   90.00000000
_symmetry_Int_Tables_number   1
_chemical_formula_structural   YEr(MgIr)2
_chemical_formula_sum   'Y2 Er2 Mg4 Ir4'
_cell_volume   248.65161011
_cell_formula_units_Z   2
loop_
 _symmetry_equiv_pos_site_id
 _symmetry_equiv_pos_as_xyz
  1  'x, y, z'
loop_
 _atom_site_type_symbol
 _atom_site_label
 _atom_site_symmetry_multiplicity
 _atom_site_fract_x
 _atom_site_fract_y
 _atom_site_fract_z
 _atom_site_occupancy
  Y  Y0  1  0.750000  0.039932  0.672678  1
  Y  Y1  1  0.750000  0.539932  0.827322  1
  Er  Er2  1  0.250000  0.960305  0.325291  1
  Er  Er3  1  0.250000  0.460305  0.174709  1
  Mg  Mg4  1  0.250000  0.364768  0.558003  1
  Mg  Mg5  1  0.250000  0.864768  0.941997  1
  Mg  Mg6  1  0.750000  0.634851  0.440583  1
  Mg  Mg7  1  0.750000  0.134851  0.059417  1
  Ir  Ir8  1  0.250000  0.248562  0.871051  1
  Ir  Ir9  1  0.250000  0.748562  0.628949  1
  Ir  Ir10  1  0.750000  0.751580  0.132895  1
  Ir  Ir11  1  0.750000  0.251580  0.367105  1
