# generated using pymatgen
data_ErTcF7
_symmetry_space_group_name_H-M   'P 1'
_cell_length_a   5.54424200
_cell_length_b   8.83408121
_cell_length_c   11.95779096
_cell_angle_alpha   62.73718729
_cell_angle_beta   90.00000000
_cell_angle_gamma   90.00000000
_symmetry_Int_Tables_number   1
_chemical_formula_structural   ErTcF7
_chemical_formula_sum   'Er4 Tc4 F28'
_cell_volume   520.61253993
_cell_formula_units_Z   4
loop_
 _symmetry_equiv_pos_site_id
 _symmetry_equiv_pos_as_xyz
  1  'x, y, z'
loop_
 _atom_site_type_symbol
 _atom_site_label
 _atom_site_symmetry_multiplicity
 _atom_site_fract_x
 _atom_site_fract_y
 _atom_site_fract_z
 _atom_site_occupancy
  Er  Er0  1  0.758972  0.814200  0.764612  1
  Er  Er1  1  0.258972  0.185800  0.735388  1
  Er  Er2  1  0.241028  0.185800  0.235388  1
  Er  Er3  1  0.741028  0.814200  0.264612  1
  Tc  Tc4  1  0.758591  0.272835  0.956924  1
  Tc  Tc5  1  0.258591  0.727165  0.543076  1
  Tc  Tc6  1  0.241409  0.727165  0.043076  1
  Tc  Tc7  1  0.741409  0.272835  0.456924  1
  F  F8  1  0.441379  0.706371  0.916110  1
  F  F9  1  0.941379  0.293629  0.583890  1
  F  F10  1  0.558621  0.293629  0.083890  1
  F  F11  1  0.058621  0.706371  0.416110  1
  F  F12  1  0.441933  0.274422  0.545701  1
  F  F13  1  0.941933  0.725578  0.954299  1
  F  F14  1  0.558067  0.725578  0.454299  1
  F  F15  1  0.058067  0.274422  0.045701  1
  F  F16  1  0.777017  0.522097  0.859340  1
  F  F17  1  0.277017  0.477903  0.640660  1
  F  F18  1  0.222983  0.477903  0.140660  1
  F  F19  1  0.722983  0.522097  0.359340  1
  F  F20  1  0.754726  0.024830  0.053101  1
  F  F21  1  0.254726  0.975170  0.446899  1
  F  F22  1  0.245274  0.975170  0.946899  1
  F  F23  1  0.745274  0.024830  0.553101  1
  F  F24  1  0.970930  0.727345  0.638835  1
  F  F25  1  0.470930  0.272655  0.861165  1
  F  F26  1  0.029070  0.272655  0.361165  1
  F  F27  1  0.529070  0.727345  0.138835  1
  F  F28  1  0.047580  0.747384  0.173934  1
  F  F29  1  0.547580  0.252616  0.326066  1
  F  F30  1  0.952420  0.252616  0.826066  1
  F  F31  1  0.452420  0.747384  0.673934  1
  F  F32  1  0.419280  0.970787  0.232523  1
  F  F33  1  0.919280  0.029213  0.267477  1
  F  F34  1  0.580720  0.029213  0.767477  1
  F  F35  1  0.080720  0.970787  0.732523  1
