# generated using pymatgen
data_Ca2B4IrRh3
_symmetry_space_group_name_H-M   'P 1'
_cell_length_a   7.07628230
_cell_length_b   6.10803912
_cell_length_c   5.50490420
_cell_angle_alpha   74.88249653
_cell_angle_beta   56.43912731
_cell_angle_gamma   48.92414658
_symmetry_Int_Tables_number   1
_chemical_formula_structural   Ca2B4IrRh3
_chemical_formula_sum   'Ca2 B4 Ir1 Rh3'
_cell_volume   147.46345158
_cell_formula_units_Z   1
loop_
 _symmetry_equiv_pos_site_id
 _symmetry_equiv_pos_as_xyz
  1  'x, y, z'
loop_
 _atom_site_type_symbol
 _atom_site_label
 _atom_site_symmetry_multiplicity
 _atom_site_fract_x
 _atom_site_fract_y
 _atom_site_fract_z
 _atom_site_occupancy
  Ca  Ca0  1  0.499505  0.499505  0.500495  1
  Ca  Ca1  1  0.751302  0.751302  0.748698  1
  B  B2  1  0.821240  0.182074  0.829155  1
  B  B3  1  0.070491  0.427683  0.073788  1
  B  B4  1  0.182074  0.821240  0.167531  1
  B  B5  1  0.427683  0.070491  0.428038  1
  Ir  Ir6  1  0.130080  0.130080  0.869920  1
  Rh  Rh7  1  0.378916  0.378916  0.121084  1
  Rh  Rh8  1  0.119028  0.119028  0.380972  1
  Rh  Rh9  1  0.869680  0.869680  0.130320  1
