# generated using pymatgen
data_Pr8HoLuPb6
_symmetry_space_group_name_H-M   'P 1'
_cell_length_a   9.38036500
_cell_length_b   9.38036578
_cell_length_c   6.90443500
_cell_angle_alpha   90.00000000
_cell_angle_beta   90.00000000
_cell_angle_gamma   120.00000077
_symmetry_Int_Tables_number   1
_chemical_formula_structural   Pr8HoLuPb6
_chemical_formula_sum   'Pr8 Ho1 Lu1 Pb6'
_cell_volume   526.13632265
_cell_formula_units_Z   1
loop_
 _symmetry_equiv_pos_site_id
 _symmetry_equiv_pos_as_xyz
  1  'x, y, z'
loop_
 _atom_site_type_symbol
 _atom_site_label
 _atom_site_symmetry_multiplicity
 _atom_site_fract_x
 _atom_site_fract_y
 _atom_site_fract_z
 _atom_site_occupancy
  Pr  Pr0  1  0.333333  0.666667  0.500000  1
  Pr  Pr1  1  0.666667  0.333333  0.500000  1
  Pr  Pr2  1  0.759180  0.759389  0.752496  1
  Pr  Pr3  1  0.240611  0.999792  0.752496  1
  Pr  Pr4  1  0.000208  0.240820  0.752496  1
  Pr  Pr5  1  0.240611  0.240820  0.247504  1
  Pr  Pr6  1  0.759180  0.999792  0.247504  1
  Pr  Pr7  1  0.000208  0.759389  0.247504  1
  Ho  Ho8  1  0.666667  0.333333  0.000000  1
  Lu  Lu9  1  0.333333  0.666667  0.000000  1
  Pb  Pb10  1  0.396517  0.397258  0.759920  1
  Pb  Pb11  1  0.602742  0.999259  0.759920  1
  Pb  Pb12  1  0.000741  0.603483  0.759920  1
  Pb  Pb13  1  0.602742  0.603483  0.240080  1
  Pb  Pb14  1  0.396517  0.999259  0.240080  1
  Pb  Pb15  1  0.000741  0.397258  0.240080  1
