# generated using pymatgen
data_Li4Yb7Pr9Ru4
_symmetry_space_group_name_H-M   'P 1'
_cell_length_a   10.01675148
_cell_length_b   9.99403109
_cell_length_c   10.01950196
_cell_angle_alpha   60.55064606
_cell_angle_beta   60.84849121
_cell_angle_gamma   60.53296715
_symmetry_Int_Tables_number   1
_chemical_formula_structural   Li4Yb7Pr9Ru4
_chemical_formula_sum   'Li4 Yb7 Pr9 Ru4'
_cell_volume   719.54890179
_cell_formula_units_Z   1
loop_
 _symmetry_equiv_pos_site_id
 _symmetry_equiv_pos_as_xyz
  1  'x, y, z'
loop_
 _atom_site_type_symbol
 _atom_site_label
 _atom_site_symmetry_multiplicity
 _atom_site_fract_x
 _atom_site_fract_y
 _atom_site_fract_z
 _atom_site_occupancy
  Li  Li0  1  0.423793  0.422197  0.423802  1
  Li  Li1  1  0.424362  0.726668  0.424290  1
  Li  Li2  1  0.721979  0.426967  0.422611  1
  Li  Li3  1  0.422613  0.426877  0.722071  1
  Yb  Yb4  1  0.056968  0.441144  0.447523  1
  Yb  Yb5  1  0.186919  0.812658  0.186962  1
  Yb  Yb6  1  0.658374  0.657407  0.658435  1
  Yb  Yb7  1  0.447584  0.441225  0.056935  1
  Yb  Yb8  1  0.052668  0.448447  0.052535  1
  Yb  Yb9  1  0.447361  0.053714  0.056566  1
  Yb  Yb10  1  0.056605  0.053712  0.447431  1
  Pr  Pr11  1  0.658216  0.658887  0.021946  1
  Pr  Pr12  1  0.658733  0.026546  0.658935  1
  Pr  Pr13  1  0.193693  0.811401  0.808463  1
  Pr  Pr14  1  0.448613  0.051608  0.448120  1
  Pr  Pr15  1  0.188866  0.185171  0.810627  1
  Pr  Pr16  1  0.022113  0.658964  0.658112  1
  Pr  Pr17  1  0.808532  0.811314  0.193688  1
  Pr  Pr18  1  0.810828  0.185108  0.188887  1
  Pr  Pr19  1  0.810757  0.189891  0.810808  1
  Ru  Ru20  1  0.867420  0.859610  0.867594  1
  Ru  Ru21  1  0.410188  0.870999  0.857512  1
  Ru  Ru22  1  0.865584  0.408381  0.865728  1
  Ru  Ru23  1  0.857231  0.871109  0.410423  1
