# generated using pymatgen
data_YGaCoO5
_symmetry_space_group_name_H-M   'P 1'
_cell_length_a   5.73974500
_cell_length_b   7.30647700
_cell_length_c   8.44337700
_cell_angle_alpha   90.00000000
_cell_angle_beta   90.00000000
_cell_angle_gamma   90.00000000
_symmetry_Int_Tables_number   1
_chemical_formula_structural   YGaCoO5
_chemical_formula_sum   'Y4 Ga4 Co4 O20'
_cell_volume   354.09255946
_cell_formula_units_Z   4
loop_
 _symmetry_equiv_pos_site_id
 _symmetry_equiv_pos_as_xyz
  1  'x, y, z'
loop_
 _atom_site_type_symbol
 _atom_site_label
 _atom_site_symmetry_multiplicity
 _atom_site_fract_x
 _atom_site_fract_y
 _atom_site_fract_z
 _atom_site_occupancy
  Y  Y0  1  0.500000  0.365211  0.330459  1
  Y  Y1  1  0.500000  0.634789  0.669541  1
  Y  Y2  1  0.500000  0.134789  0.830459  1
  Y  Y3  1  0.500000  0.865211  0.169541  1
  Ga  Ga4  1  0.000000  0.110618  0.147611  1
  Ga  Ga5  1  0.000000  0.889382  0.852389  1
  Ga  Ga6  1  0.000000  0.389382  0.647611  1
  Ga  Ga7  1  0.000000  0.610618  0.352389  1
  Co  Co8  1  0.248430  0.000000  0.500000  1
  Co  Co9  1  0.751570  0.000000  0.500000  1
  Co  Co10  1  0.751570  0.500000  0.000000  1
  Co  Co11  1  0.248430  0.500000  0.000000  1
  O  O12  1  0.500000  0.342469  0.056217  1
  O  O13  1  0.500000  0.657531  0.943783  1
  O  O14  1  0.500000  0.157531  0.556217  1
  O  O15  1  0.500000  0.842469  0.443783  1
  O  O16  1  0.228762  0.000000  0.000000  1
  O  O17  1  0.771238  0.000000  0.000000  1
  O  O18  1  0.771238  0.500000  0.500000  1
  O  O19  1  0.228762  0.500000  0.500000  1
  O  O20  1  0.258220  0.105831  0.296330  1
  O  O21  1  0.741780  0.894169  0.703670  1
  O  O22  1  0.258220  0.894169  0.703670  1
  O  O23  1  0.741780  0.394169  0.796330  1
  O  O24  1  0.741780  0.105831  0.296330  1
  O  O25  1  0.258220  0.605831  0.203670  1
  O  O26  1  0.741780  0.605831  0.203670  1
  O  O27  1  0.258220  0.394169  0.796330  1
  O  O28  1  0.000000  0.354116  0.070580  1
  O  O29  1  0.000000  0.645884  0.929420  1
  O  O30  1  0.000000  0.145884  0.570580  1
  O  O31  1  0.000000  0.854116  0.429420  1
