# generated using pymatgen
data_Be8V3Ni4W9C2
_symmetry_space_group_name_H-M   'P 1'
_cell_length_a   7.50310515
_cell_length_b   7.50310461
_cell_length_c   7.49554091
_cell_angle_alpha   59.96661400
_cell_angle_beta   59.96661897
_cell_angle_gamma   59.99999336
_symmetry_Int_Tables_number   1
_chemical_formula_structural   Be8V3Ni4W9C2
_chemical_formula_sum   'Be8 V3 Ni4 W9 C2'
_cell_volume   298.22954631
_cell_formula_units_Z   1
loop_
 _symmetry_equiv_pos_site_id
 _symmetry_equiv_pos_as_xyz
  1  'x, y, z'
loop_
 _atom_site_type_symbol
 _atom_site_label
 _atom_site_symmetry_multiplicity
 _atom_site_fract_x
 _atom_site_fract_y
 _atom_site_fract_z
 _atom_site_occupancy
  Be  Be0  1  0.421207  0.421207  0.736377  1
  Be  Be1  1  0.418217  0.741816  0.421749  1
  Be  Be2  1  0.741816  0.418217  0.421749  1
  Be  Be3  1  0.418217  0.418217  0.421749  1
  Be  Be4  1  0.828951  0.828951  0.513148  1
  Be  Be5  1  0.829715  0.514241  0.826329  1
  Be  Be6  1  0.514241  0.829715  0.826329  1
  Be  Be7  1  0.829715  0.829715  0.826329  1
  V  V8  1  0.053172  0.053172  0.448466  1
  V  V9  1  0.445189  0.053172  0.448466  1
  V  V10  1  0.053172  0.445189  0.448466  1
  Ni  Ni11  1  0.624432  0.624432  0.126705  1
  Ni  Ni12  1  0.625828  0.125707  0.622638  1
  Ni  Ni13  1  0.125707  0.625828  0.622638  1
  Ni  Ni14  1  0.625828  0.625828  0.622638  1
  W  W15  1  0.447904  0.447904  0.053494  1
  W  W16  1  0.050699  0.447904  0.053494  1
  W  W17  1  0.447904  0.050699  0.053494  1
  W  W18  1  0.200263  0.200263  0.797283  1
  W  W19  1  0.802191  0.200263  0.797283  1
  W  W20  1  0.200263  0.802191  0.797283  1
  W  W21  1  0.799503  0.799503  0.201849  1
  W  W22  1  0.199146  0.799503  0.201849  1
  W  W23  1  0.799503  0.199146  0.201849  1
  C  C24  1  0.247287  0.247287  0.258140  1
  C  C25  1  0.999931  0.999931  0.000207  1
