# generated using pymatgen
data_Ac9Ho11Pb16
_symmetry_space_group_name_H-M   'P 1'
_cell_length_a   8.54860048
_cell_length_b   16.40540778
_cell_length_c   8.58209100
_cell_angle_alpha   90.05702195
_cell_angle_beta   90.37436286
_cell_angle_gamma   90.22741756
_symmetry_Int_Tables_number   1
_chemical_formula_structural   Ac9Ho11Pb16
_chemical_formula_sum   'Ac9 Ho11 Pb16'
_cell_volume   1203.54476398
_cell_formula_units_Z   1
loop_
 _symmetry_equiv_pos_site_id
 _symmetry_equiv_pos_as_xyz
  1  'x, y, z'
loop_
 _atom_site_type_symbol
 _atom_site_label
 _atom_site_symmetry_multiplicity
 _atom_site_fract_x
 _atom_site_fract_y
 _atom_site_fract_z
 _atom_site_occupancy
  Ac  Ac0  1  0.130936  0.617652  0.341659  1
  Ac  Ac1  1  0.472284  0.597504  0.679000  1
  Ac  Ac2  1  0.973845  0.906233  0.823767  1
  Ac  Ac3  1  0.525298  0.096302  0.323198  1
  Ac  Ac4  1  0.028301  0.399359  0.175358  1
  Ac  Ac5  1  0.525919  0.401028  0.322703  1
  Ac  Ac6  1  0.025518  0.097196  0.176349  1
  Ac  Ac7  1  0.475355  0.904945  0.678370  1
  Ac  Ac8  1  0.972286  0.597995  0.823664  1
  Ho  Ho9  1  0.632053  0.623757  0.157271  1
  Ho  Ho10  1  0.132920  0.877772  0.343425  1
  Ho  Ho11  1  0.366193  0.122470  0.844866  1
  Ho  Ho12  1  0.868288  0.377206  0.654631  1
  Ho  Ho13  1  0.372238  0.373167  0.844716  1
  Ho  Ho14  1  0.867832  0.123312  0.657552  1
  Ho  Ho15  1  0.632867  0.880730  0.154270  1
  Ho  Ho16  1  0.794934  0.752391  0.493881  1
  Ho  Ho17  1  0.299216  0.752362  0.005140  1
  Ho  Ho18  1  0.203148  0.247725  0.507072  1
  Ho  Ho19  1  0.703912  0.249805  0.993165  1
  Pb  Pb20  1  0.703761  0.453526  0.955792  1
  Pb  Pb21  1  0.199388  0.046071  0.544608  1
  Pb  Pb22  1  0.298611  0.954884  0.046016  1
  Pb  Pb23  1  0.781802  0.545066  0.461054  1
  Pb  Pb24  1  0.307396  0.542151  0.031839  1
  Pb  Pb25  1  0.801389  0.954770  0.455216  1
  Pb  Pb26  1  0.700345  0.047509  0.953843  1
  Pb  Pb27  1  0.204165  0.445848  0.551787  1
  Pb  Pb28  1  0.442281  0.755360  0.361682  1
  Pb  Pb29  1  0.930850  0.754878  0.130212  1
  Pb  Pb30  1  0.563566  0.248413  0.636199  1
  Pb  Pb31  1  0.062923  0.249459  0.863023  1
  Pb  Pb32  1  0.661516  0.751567  0.856722  1
  Pb  Pb33  1  0.161852  0.754161  0.650569  1
  Pb  Pb34  1  0.338515  0.248322  0.144635  1
  Pb  Pb35  1  0.838294  0.249105  0.356745  1
