# generated using pymatgen
data_CaPr2(SmSn2)2
_symmetry_space_group_name_H-M   'P 1'
_cell_length_a   8.09540000
_cell_length_b   8.49312600
_cell_length_c   16.01782000
_cell_angle_alpha   90.00000000
_cell_angle_beta   90.00000000
_cell_angle_gamma   90.00000000
_symmetry_Int_Tables_number   1
_chemical_formula_structural   CaPr2(SmSn2)2
_chemical_formula_sum   'Ca4 Pr8 Sm8 Sn16'
_cell_volume   1101.30925412
_cell_formula_units_Z   4
loop_
 _symmetry_equiv_pos_site_id
 _symmetry_equiv_pos_as_xyz
  1  'x, y, z'
loop_
 _atom_site_type_symbol
 _atom_site_label
 _atom_site_symmetry_multiplicity
 _atom_site_fract_x
 _atom_site_fract_y
 _atom_site_fract_z
 _atom_site_occupancy
  Ca  Ca0  1  0.164870  0.496908  0.750000  1
  Ca  Ca1  1  0.664870  0.003092  0.750000  1
  Ca  Ca2  1  0.835130  0.503092  0.250000  1
  Ca  Ca3  1  0.335130  0.996908  0.250000  1
  Pr  Pr4  1  0.494277  0.317687  0.903544  1
  Pr  Pr5  1  0.994277  0.182313  0.596456  1
  Pr  Pr6  1  0.505723  0.682313  0.403544  1
  Pr  Pr7  1  0.005723  0.817687  0.096456  1
  Pr  Pr8  1  0.505723  0.682313  0.096456  1
  Pr  Pr9  1  0.005723  0.817687  0.403544  1
  Pr  Pr10  1  0.494277  0.317687  0.596456  1
  Pr  Pr11  1  0.994277  0.182313  0.903544  1
  Sm  Sm12  1  0.335969  0.827267  0.875136  1
  Sm  Sm13  1  0.835969  0.672733  0.624864  1
  Sm  Sm14  1  0.664031  0.172733  0.375136  1
  Sm  Sm15  1  0.164031  0.327267  0.124864  1
  Sm  Sm16  1  0.664031  0.172733  0.124864  1
  Sm  Sm17  1  0.164031  0.327267  0.375136  1
  Sm  Sm18  1  0.335969  0.827267  0.624864  1
  Sm  Sm19  1  0.835969  0.672733  0.875136  1
  Sn  Sn20  1  0.325004  0.037490  0.037325  1
  Sn  Sn21  1  0.825004  0.462510  0.462675  1
  Sn  Sn22  1  0.674996  0.962510  0.537325  1
  Sn  Sn23  1  0.174996  0.537490  0.962675  1
  Sn  Sn24  1  0.674996  0.962510  0.962675  1
  Sn  Sn25  1  0.174996  0.537490  0.537325  1
  Sn  Sn26  1  0.325004  0.037490  0.462675  1
  Sn  Sn27  1  0.825004  0.462510  0.037325  1
  Sn  Sn28  1  0.533654  0.607384  0.750000  1
  Sn  Sn29  1  0.033654  0.892616  0.750000  1
  Sn  Sn30  1  0.466346  0.392616  0.250000  1
  Sn  Sn31  1  0.966346  0.107384  0.250000  1
  Sn  Sn32  1  0.295398  0.139172  0.750000  1
  Sn  Sn33  1  0.795398  0.360828  0.750000  1
  Sn  Sn34  1  0.704602  0.860828  0.250000  1
  Sn  Sn35  1  0.204602  0.639172  0.250000  1
