# generated using pymatgen
data_HoLu2Mg(GaPt)4
_symmetry_space_group_name_H-M   'P 1'
_cell_length_a   4.27253400
_cell_length_b   6.78851028
_cell_length_c   7.77128483
_cell_angle_alpha   93.96457790
_cell_angle_beta   90.00000000
_cell_angle_gamma   90.00000000
_symmetry_Int_Tables_number   1
_chemical_formula_structural   HoLu2Mg(GaPt)4
_chemical_formula_sum   'Ho1 Lu2 Mg1 Ga4 Pt4'
_cell_volume   224.86005645
_cell_formula_units_Z   1
loop_
 _symmetry_equiv_pos_site_id
 _symmetry_equiv_pos_as_xyz
  1  'x, y, z'
loop_
 _atom_site_type_symbol
 _atom_site_label
 _atom_site_symmetry_multiplicity
 _atom_site_fract_x
 _atom_site_fract_y
 _atom_site_fract_z
 _atom_site_occupancy
  Ho  Ho0  1  0.250000  0.475680  0.187348  1
  Lu  Lu1  1  0.750000  0.023208  0.678684  1
  Lu  Lu2  1  0.750000  0.530859  0.812757  1
  Mg  Mg3  1  0.250000  0.971237  0.323514  1
  Ga  Ga4  1  0.250000  0.338400  0.561217  1
  Ga  Ga5  1  0.250000  0.855006  0.942496  1
  Ga  Ga6  1  0.750000  0.653120  0.432623  1
  Ga  Ga7  1  0.750000  0.151461  0.063026  1
  Pt  Pt8  1  0.250000  0.234199  0.873080  1
  Pt  Pt9  1  0.250000  0.730290  0.616779  1
  Pt  Pt10  1  0.750000  0.778347  0.124574  1
  Pt  Pt11  1  0.750000  0.258193  0.383900  1
