# generated using pymatgen
data_Er2Re2C3
_symmetry_space_group_name_H-M   'P 1'
_cell_length_a   6.04437831
_cell_length_b   6.04437796
_cell_length_c   5.64168994
_cell_angle_alpha   67.61264724
_cell_angle_beta   67.61264651
_cell_angle_gamma   31.59498226
_symmetry_Int_Tables_number   1
_chemical_formula_structural   Er2Re2C3
_chemical_formula_sum   'Er2 Re2 C3'
_cell_volume   99.16738826
_cell_formula_units_Z   1
loop_
 _symmetry_equiv_pos_site_id
 _symmetry_equiv_pos_as_xyz
  1  'x, y, z'
loop_
 _atom_site_type_symbol
 _atom_site_label
 _atom_site_symmetry_multiplicity
 _atom_site_fract_x
 _atom_site_fract_y
 _atom_site_fract_z
 _atom_site_occupancy
  Er  Er0  1  0.609134  0.609134  0.179641  1
  Er  Er1  1  0.390866  0.390866  0.820359  1
  Re  Re2  1  0.843774  0.843774  0.321556  1
  Re  Re3  1  0.156226  0.156226  0.678444  1
  C  C4  1  0.246703  0.246703  0.266509  1
  C  C5  1  0.753297  0.753297  0.733491  1
  C  C6  1  0.000000  0.000000  0.000000  1
