# generated using pymatgen
data_Ho16In6IrPt
_symmetry_space_group_name_H-M   'P 1'
_cell_length_a   10.43319700
_cell_length_b   10.43319842
_cell_length_c   7.01146600
_cell_angle_alpha   90.00000000
_cell_angle_beta   90.00000000
_cell_angle_gamma   119.99999866
_symmetry_Int_Tables_number   1
_chemical_formula_structural   Ho16In6IrPt
_chemical_formula_sum   'Ho16 In6 Ir1 Pt1'
_cell_volume   660.95873263
_cell_formula_units_Z   1
loop_
 _symmetry_equiv_pos_site_id
 _symmetry_equiv_pos_as_xyz
  1  'x, y, z'
loop_
 _atom_site_type_symbol
 _atom_site_label
 _atom_site_symmetry_multiplicity
 _atom_site_fract_x
 _atom_site_fract_y
 _atom_site_fract_z
 _atom_site_occupancy
  Ho  Ho0  1  0.530956  0.061911  0.507899  1
  Ho  Ho1  1  0.938089  0.469044  0.507899  1
  Ho  Ho2  1  0.530956  0.469044  0.507899  1
  Ho  Ho3  1  0.465844  0.931689  0.007203  1
  Ho  Ho4  1  0.068311  0.534156  0.007203  1
  Ho  Ho5  1  0.465844  0.534156  0.007203  1
  Ho  Ho6  1  0.176696  0.353391  0.713785  1
  Ho  Ho7  1  0.646609  0.823304  0.713785  1
  Ho  Ho8  1  0.176696  0.823304  0.713785  1
  Ho  Ho9  1  0.824616  0.649232  0.213157  1
  Ho  Ho10  1  0.350768  0.175384  0.213157  1
  Ho  Ho11  1  0.824616  0.175384  0.213157  1
  Ho  Ho12  1  0.666667  0.333333  0.884303  1
  Ho  Ho13  1  0.333333  0.666667  0.388714  1
  Ho  Ho14  1  0.000000  0.000000  0.491285  1
  Ho  Ho15  1  0.000000  0.000000  0.991147  1
  In  In16  1  0.837475  0.674951  0.751122  1
  In  In17  1  0.325049  0.162525  0.751122  1
  In  In18  1  0.837475  0.162525  0.751122  1
  In  In19  1  0.162606  0.325212  0.252298  1
  In  In20  1  0.674788  0.837394  0.252298  1
  In  In21  1  0.162606  0.837394  0.252298  1
  Ir  Ir22  1  0.333333  0.666667  0.784054  1
  Pt  Pt23  1  0.666667  0.333333  0.282139  1
