# generated using pymatgen
data_AgTe2Cl
_symmetry_space_group_name_H-M   'P 1'
_cell_length_a   5.20105100
_cell_length_b   8.76397440
_cell_length_c   11.66728631
_cell_angle_alpha   103.16037538
_cell_angle_beta   90.00000000
_cell_angle_gamma   90.00000000
_symmetry_Int_Tables_number   1
_chemical_formula_structural   AgTe2Cl
_chemical_formula_sum   'Ag4 Te8 Cl4'
_cell_volume   517.84949792
_cell_formula_units_Z   4
loop_
 _symmetry_equiv_pos_site_id
 _symmetry_equiv_pos_as_xyz
  1  'x, y, z'
loop_
 _atom_site_type_symbol
 _atom_site_label
 _atom_site_symmetry_multiplicity
 _atom_site_fract_x
 _atom_site_fract_y
 _atom_site_fract_z
 _atom_site_occupancy
  Ag  Ag0  1  0.892535  0.561602  0.745116  1
  Ag  Ag1  1  0.392535  0.938398  0.754884  1
  Ag  Ag2  1  0.107465  0.438398  0.254884  1
  Ag  Ag3  1  0.607465  0.061602  0.245116  1
  Te  Te4  1  0.977284  0.852509  0.132370  1
  Te  Te5  1  0.277467  0.422924  0.854005  1
  Te  Te6  1  0.222533  0.922924  0.354005  1
  Te  Te7  1  0.722533  0.577076  0.145995  1
  Te  Te8  1  0.477284  0.647491  0.367630  1
  Te  Te9  1  0.022716  0.147491  0.867630  1
  Te  Te10  1  0.522716  0.352509  0.632370  1
  Te  Te11  1  0.777467  0.077076  0.645995  1
  Cl  Cl12  1  0.816638  0.301137  0.390096  1
  Cl  Cl13  1  0.683362  0.801137  0.890096  1
  Cl  Cl14  1  0.183362  0.698863  0.609904  1
  Cl  Cl15  1  0.316638  0.198863  0.109904  1
