# generated using pymatgen
data_CaPb(CO3)2
_symmetry_space_group_name_H-M   'P 1'
_cell_length_a   6.66674417
_cell_length_b   6.66674349
_cell_length_c   6.66674407
_cell_angle_alpha   45.89581077
_cell_angle_beta   45.89581152
_cell_angle_gamma   45.89581036
_symmetry_Int_Tables_number   1
_chemical_formula_structural   CaPb(CO3)2
_chemical_formula_sum   'Ca1 Pb1 C2 O6'
_cell_volume   139.32811439
_cell_formula_units_Z   1
loop_
 _symmetry_equiv_pos_site_id
 _symmetry_equiv_pos_as_xyz
  1  'x, y, z'
loop_
 _atom_site_type_symbol
 _atom_site_label
 _atom_site_symmetry_multiplicity
 _atom_site_fract_x
 _atom_site_fract_y
 _atom_site_fract_z
 _atom_site_occupancy
  Ca  Ca0  1  0.500000  0.500000  0.500000  1
  Pb  Pb1  1  0.000000  0.000000  0.000000  1
  C  C2  1  0.245772  0.245772  0.245772  1
  C  C3  1  0.754228  0.754228  0.754228  1
  O  O4  1  0.723963  0.520115  0.017686  1
  O  O5  1  0.479884  0.982312  0.276037  1
  O  O6  1  0.982314  0.276037  0.479883  1
  O  O7  1  0.017687  0.723963  0.520114  1
  O  O8  1  0.520114  0.017686  0.723964  1
  O  O9  1  0.276036  0.479885  0.982313  1
