# generated using pymatgen
data_Er2Lu2B12RhW
_symmetry_space_group_name_H-M   'P 1'
_cell_length_a   3.60152800
_cell_length_b   9.12733295
_cell_length_c   11.53963024
_cell_angle_alpha   90.41026722
_cell_angle_beta   90.00000000
_cell_angle_gamma   90.00000000
_symmetry_Int_Tables_number   1
_chemical_formula_structural   Er2Lu2B12RhW
_chemical_formula_sum   'Er4 Lu4 B24 Rh2 W2'
_cell_volume   379.32498383
_cell_formula_units_Z   2
loop_
 _symmetry_equiv_pos_site_id
 _symmetry_equiv_pos_as_xyz
  1  'x, y, z'
loop_
 _atom_site_type_symbol
 _atom_site_label
 _atom_site_symmetry_multiplicity
 _atom_site_fract_x
 _atom_site_fract_y
 _atom_site_fract_z
 _atom_site_occupancy
  Er  Er0  1  0.500000  0.318995  0.412275  1
  Er  Er1  1  0.500000  0.681005  0.587725  1
  Er  Er2  1  0.500000  0.176219  0.916360  1
  Er  Er3  1  0.500000  0.823781  0.083640  1
  Lu  Lu4  1  0.500000  0.444463  0.126794  1
  Lu  Lu5  1  0.500000  0.555537  0.873206  1
  Lu  Lu6  1  0.500000  0.055463  0.627345  1
  Lu  Lu7  1  0.500000  0.944537  0.372655  1
  B  B8  1  0.000000  0.104959  0.472654  1
  B  B9  1  0.000000  0.895041  0.527346  1
  B  B10  1  0.000000  0.397728  0.970828  1
  B  B11  1  0.000000  0.602272  0.029172  1
  B  B12  1  0.000000  0.132020  0.318754  1
  B  B13  1  0.000000  0.867980  0.681246  1
  B  B14  1  0.000000  0.368455  0.816185  1
  B  B15  1  0.000000  0.631545  0.183815  1
  B  B16  1  0.000000  0.051502  0.065602  1
  B  B17  1  0.000000  0.948498  0.934398  1
  B  B18  1  0.000000  0.446169  0.565353  1
  B  B19  1  0.000000  0.553831  0.434647  1
  B  B20  1  0.000000  0.483382  0.288563  1
  B  B21  1  0.000000  0.516618  0.711437  1
  B  B22  1  0.000000  0.021739  0.785230  1
  B  B23  1  0.000000  0.978261  0.214770  1
  B  B24  1  0.000000  0.252414  0.079046  1
  B  B25  1  0.000000  0.747586  0.920954  1
  B  B26  1  0.000000  0.250169  0.579038  1
  B  B27  1  0.000000  0.749831  0.420962  1
  B  B28  1  0.000000  0.297452  0.237261  1
  B  B29  1  0.000000  0.702548  0.762739  1
  B  B30  1  0.000000  0.208797  0.734401  1
  B  B31  1  0.000000  0.791203  0.265599  1
  Rh  Rh32  1  0.500000  0.361132  0.678763  1
  Rh  Rh33  1  0.500000  0.638868  0.321237  1
  W  W34  1  0.500000  0.139403  0.181182  1
  W  W35  1  0.500000  0.860597  0.818818  1
