# generated using pymatgen
data_Ca3CeAs6Rh7
_symmetry_space_group_name_H-M   'P 1'
_cell_length_a   7.30681883
_cell_length_b   7.30681935
_cell_length_c   7.30681835
_cell_angle_alpha   109.36209349
_cell_angle_beta   109.36208713
_cell_angle_gamma   109.36209272
_symmetry_Int_Tables_number   1
_chemical_formula_structural   Ca3CeAs6Rh7
_chemical_formula_sum   'Ca3 Ce1 As6 Rh7'
_cell_volume   301.51264579
_cell_formula_units_Z   1
loop_
 _symmetry_equiv_pos_site_id
 _symmetry_equiv_pos_as_xyz
  1  'x, y, z'
loop_
 _atom_site_type_symbol
 _atom_site_label
 _atom_site_symmetry_multiplicity
 _atom_site_fract_x
 _atom_site_fract_y
 _atom_site_fract_z
 _atom_site_occupancy
  Ca  Ca0  1  0.000000  0.500000  0.000000  1
  Ca  Ca1  1  0.500000  0.000000  0.000000  1
  Ca  Ca2  1  0.000000  0.000000  0.500000  1
  Ce  Ce3  1  0.500000  0.500000  0.500000  1
  As  As4  1  0.679168  0.002742  0.679168  1
  As  As5  1  0.679168  0.679168  0.002742  1
  As  As6  1  0.320832  0.320832  0.997258  1
  As  As7  1  0.002742  0.679168  0.679168  1
  As  As8  1  0.997258  0.320832  0.320832  1
  As  As9  1  0.320832  0.997258  0.320832  1
  Rh  Rh10  1  0.500000  0.748650  0.251350  1
  Rh  Rh11  1  0.748650  0.251350  0.500000  1
  Rh  Rh12  1  0.251350  0.748650  0.500000  1
  Rh  Rh13  1  0.251350  0.500000  0.748650  1
  Rh  Rh14  1  0.000000  0.000000  0.000000  1
  Rh  Rh15  1  0.500000  0.251350  0.748650  1
  Rh  Rh16  1  0.748650  0.500000  0.251350  1
