# generated using pymatgen
data_Th2SnPd2
_symmetry_space_group_name_H-M   'P 1'
_cell_length_a   7.89188500
_cell_length_b   7.89188500
_cell_length_c   3.88971700
_cell_angle_alpha   90.00000000
_cell_angle_beta   90.00000000
_cell_angle_gamma   90.00000000
_symmetry_Int_Tables_number   1
_chemical_formula_structural   Th2SnPd2
_chemical_formula_sum   'Th4 Sn2 Pd4'
_cell_volume   242.25876628
_cell_formula_units_Z   2
loop_
 _symmetry_equiv_pos_site_id
 _symmetry_equiv_pos_as_xyz
  1  'x, y, z'
loop_
 _atom_site_type_symbol
 _atom_site_label
 _atom_site_symmetry_multiplicity
 _atom_site_fract_x
 _atom_site_fract_y
 _atom_site_fract_z
 _atom_site_occupancy
  Th  Th0  1  0.675778  0.175778  0.500000  1
  Th  Th1  1  0.175778  0.324222  0.500000  1
  Th  Th2  1  0.324222  0.824222  0.500000  1
  Th  Th3  1  0.824222  0.675778  0.500000  1
  Sn  Sn4  1  0.500000  0.500000  0.000000  1
  Sn  Sn5  1  0.000000  0.000000  0.000000  1
  Pd  Pd6  1  0.872907  0.372907  0.000000  1
  Pd  Pd7  1  0.372907  0.127093  0.000000  1
  Pd  Pd8  1  0.627093  0.872907  0.000000  1
  Pd  Pd9  1  0.127093  0.627093  0.000000  1
