# generated using pymatgen
data_PrLu2Rh9
_symmetry_space_group_name_H-M   'P 1'
_cell_length_a   5.27967900
_cell_length_b   5.27967913
_cell_length_c   17.42126000
_cell_angle_alpha   90.00000000
_cell_angle_beta   90.00000000
_cell_angle_gamma   120.00000545
_symmetry_Int_Tables_number   1
_chemical_formula_structural   PrLu2Rh9
_chemical_formula_sum   'Pr2 Lu4 Rh18'
_cell_volume   420.55734098
_cell_formula_units_Z   2
loop_
 _symmetry_equiv_pos_site_id
 _symmetry_equiv_pos_as_xyz
  1  'x, y, z'
loop_
 _atom_site_type_symbol
 _atom_site_label
 _atom_site_symmetry_multiplicity
 _atom_site_fract_x
 _atom_site_fract_y
 _atom_site_fract_z
 _atom_site_occupancy
  Pr  Pr0  1  0.333333  0.666667  0.750000  1
  Pr  Pr1  1  0.666667  0.333333  0.250000  1
  Lu  Lu2  1  0.333333  0.666667  0.540800  1
  Lu  Lu3  1  0.666667  0.333333  0.040800  1
  Lu  Lu4  1  0.666667  0.333333  0.459200  1
  Lu  Lu5  1  0.333333  0.666667  0.959200  1
  Rh  Rh6  1  0.167759  0.335516  0.123734  1
  Rh  Rh7  1  0.832241  0.664484  0.623734  1
  Rh  Rh8  1  0.664484  0.832241  0.123734  1
  Rh  Rh9  1  0.167759  0.832241  0.123734  1
  Rh  Rh10  1  0.832241  0.167759  0.623734  1
  Rh  Rh11  1  0.335516  0.167759  0.623734  1
  Rh  Rh12  1  0.832241  0.664484  0.876266  1
  Rh  Rh13  1  0.832241  0.167759  0.876266  1
  Rh  Rh14  1  0.335516  0.167759  0.876266  1
  Rh  Rh15  1  0.664484  0.832241  0.376266  1
  Rh  Rh16  1  0.167759  0.832241  0.376266  1
  Rh  Rh17  1  0.167759  0.335516  0.376266  1
  Rh  Rh18  1  0.000000  0.000000  0.250000  1
  Rh  Rh19  1  0.000000  0.000000  0.750000  1
  Rh  Rh20  1  0.333333  0.666667  0.250000  1
  Rh  Rh21  1  0.666667  0.333333  0.750000  1
  Rh  Rh22  1  0.000000  0.000000  0.000000  1
  Rh  Rh23  1  0.000000  0.000000  0.500000  1
