# generated using pymatgen
data_Y5Co(P2Ru3)6
_symmetry_space_group_name_H-M   'P 1'
_cell_length_a   12.49821500
_cell_length_b   12.49821465
_cell_length_c   3.97416900
_cell_angle_alpha   90.00000000
_cell_angle_beta   90.00000000
_cell_angle_gamma   120.00000357
_symmetry_Int_Tables_number   1
_chemical_formula_structural   Y5Co(P2Ru3)6
_chemical_formula_sum   'Y5 Co1 P12 Ru18'
_cell_volume   537.61690698
_cell_formula_units_Z   1
loop_
 _symmetry_equiv_pos_site_id
 _symmetry_equiv_pos_as_xyz
  1  'x, y, z'
loop_
 _atom_site_type_symbol
 _atom_site_label
 _atom_site_symmetry_multiplicity
 _atom_site_fract_x
 _atom_site_fract_y
 _atom_site_fract_z
 _atom_site_occupancy
  Y  Y0  1  0.666667  0.333333  0.000000  1
  Y  Y1  1  0.333333  0.666667  0.000000  1
  Y  Y2  1  0.182845  0.182845  0.500000  1
  Y  Y3  1  0.817155  0.000000  0.500000  1
  Y  Y4  1  0.000000  0.817155  0.500000  1
  Co  Co5  1  0.000000  0.000000  0.000000  1
  P  P6  1  0.373178  0.373178  0.000000  1
  P  P7  1  0.626822  0.000000  0.000000  1
  P  P8  1  0.000000  0.626822  0.000000  1
  P  P9  1  0.830552  0.306515  0.500000  1
  P  P10  1  0.693485  0.524038  0.500000  1
  P  P11  1  0.475962  0.169448  0.500000  1
  P  P12  1  0.306515  0.830552  0.500000  1
  P  P13  1  0.524038  0.693485  0.500000  1
  P  P14  1  0.169448  0.475962  0.500000  1
  P  P15  1  0.822686  0.822686  0.000000  1
  P  P16  1  0.177314  0.000000  0.000000  1
  P  P17  1  0.000000  0.177314  0.000000  1
  Ru  Ru18  1  0.816007  0.191122  0.000000  1
  Ru  Ru19  1  0.808878  0.624885  0.000000  1
  Ru  Ru20  1  0.375115  0.183993  0.000000  1
  Ru  Ru21  1  0.191122  0.816007  0.000000  1
  Ru  Ru22  1  0.624885  0.808878  0.000000  1
  Ru  Ru23  1  0.183993  0.375115  0.000000  1
  Ru  Ru24  1  0.556227  0.556227  0.000000  1
  Ru  Ru25  1  0.443773  0.000000  0.000000  1
  Ru  Ru26  1  0.000000  0.443773  0.000000  1
  Ru  Ru27  1  0.634572  0.125976  0.500000  1
  Ru  Ru28  1  0.874024  0.508597  0.500000  1
  Ru  Ru29  1  0.491403  0.365428  0.500000  1
  Ru  Ru30  1  0.125976  0.634572  0.500000  1
  Ru  Ru31  1  0.508597  0.874024  0.500000  1
  Ru  Ru32  1  0.365428  0.491403  0.500000  1
  Ru  Ru33  1  0.720572  0.720572  0.500000  1
  Ru  Ru34  1  0.279428  0.000000  0.500000  1
  Ru  Ru35  1  0.000000  0.279428  0.500000  1
