# generated using pymatgen
data_La3MgCd2RuAu2
_symmetry_space_group_name_H-M   'P 1'
_cell_length_a   8.03061643
_cell_length_b   7.90598708
_cell_length_c   4.09756100
_cell_angle_alpha   90.00000000
_cell_angle_beta   90.00000000
_cell_angle_gamma   120.80970576
_symmetry_Int_Tables_number   1
_chemical_formula_structural   La3MgCd2RuAu2
_chemical_formula_sum   'La3 Mg1 Cd2 Ru1 Au2'
_cell_volume   223.43923461
_cell_formula_units_Z   1
loop_
 _symmetry_equiv_pos_site_id
 _symmetry_equiv_pos_as_xyz
  1  'x, y, z'
loop_
 _atom_site_type_symbol
 _atom_site_label
 _atom_site_symmetry_multiplicity
 _atom_site_fract_x
 _atom_site_fract_y
 _atom_site_fract_z
 _atom_site_occupancy
  La  La0  1  0.575719  0.982026  0.000000  1
  La  La1  1  0.032010  0.597653  0.000000  1
  La  La2  1  0.392573  0.420840  0.000000  1
  Mg  Mg3  1  0.749597  0.749721  0.500000  1
  Cd  Cd4  1  0.254120  0.000463  0.500000  1
  Cd  Cd5  1  0.996371  0.249223  0.500000  1
  Ru  Ru6  1  0.345509  0.671360  0.500000  1
  Au  Au7  1  0.669922  0.347353  0.500000  1
  Au  Au8  1  0.984179  0.981362  0.000000  1
