# generated using pymatgen
data_LiVTc5P4
_symmetry_space_group_name_H-M   'P 1'
_cell_length_a   7.54653600
_cell_length_b   7.48194795
_cell_length_c   3.08695600
_cell_angle_alpha   90.00000000
_cell_angle_beta   90.00000000
_cell_angle_gamma   120.28596576
_symmetry_Int_Tables_number   1
_chemical_formula_structural   LiVTc5P4
_chemical_formula_sum   'Li1 V1 Tc5 P4'
_cell_volume   150.50977995
_cell_formula_units_Z   1
loop_
 _symmetry_equiv_pos_site_id
 _symmetry_equiv_pos_as_xyz
  1  'x, y, z'
loop_
 _atom_site_type_symbol
 _atom_site_label
 _atom_site_symmetry_multiplicity
 _atom_site_fract_x
 _atom_site_fract_y
 _atom_site_fract_z
 _atom_site_occupancy
  Li  Li0  1  0.000343  0.000685  0.000000  1
  V  V1  1  0.543339  0.086679  0.000000  1
  Tc  Tc2  1  0.201088  0.808987  0.500000  1
  Tc  Tc3  1  0.194168  0.388335  0.500000  1
  Tc  Tc4  1  0.911731  0.453231  0.000000  1
  Tc  Tc5  1  0.541500  0.453231  0.000000  1
  Tc  Tc6  1  0.607898  0.808987  0.500000  1
  P  P7  1  0.831903  0.171409  0.500000  1
  P  P8  1  0.339506  0.171409  0.500000  1
  P  P9  1  0.333105  0.666210  0.000000  1
  P  P10  1  0.828751  0.657502  0.500000  1
