# generated using pymatgen
data_ThScB6Mo
_symmetry_space_group_name_H-M   'P 1'
_cell_length_a   3.70422400
_cell_length_b   9.15986000
_cell_length_c   11.61237000
_cell_angle_alpha   90.00000000
_cell_angle_beta   90.00000000
_cell_angle_gamma   90.00000000
_symmetry_Int_Tables_number   1
_chemical_formula_structural   ThScB6Mo
_chemical_formula_sum   'Th4 Sc4 B24 Mo4'
_cell_volume   394.00972593
_cell_formula_units_Z   4
loop_
 _symmetry_equiv_pos_site_id
 _symmetry_equiv_pos_as_xyz
  1  'x, y, z'
loop_
 _atom_site_type_symbol
 _atom_site_label
 _atom_site_symmetry_multiplicity
 _atom_site_fract_x
 _atom_site_fract_y
 _atom_site_fract_z
 _atom_site_occupancy
  Th  Th0  1  0.000000  0.820758  0.085008  1
  Th  Th1  1  0.000000  0.179242  0.914992  1
  Th  Th2  1  0.000000  0.320758  0.414992  1
  Th  Th3  1  0.000000  0.679242  0.585008  1
  Sc  Sc4  1  0.000000  0.444643  0.128776  1
  Sc  Sc5  1  0.000000  0.555357  0.871224  1
  Sc  Sc6  1  0.000000  0.944643  0.371224  1
  Sc  Sc7  1  0.000000  0.055357  0.628776  1
  B  B8  1  0.500000  0.055793  0.069971  1
  B  B9  1  0.500000  0.944207  0.930029  1
  B  B10  1  0.500000  0.555793  0.430029  1
  B  B11  1  0.500000  0.444207  0.569971  1
  B  B12  1  0.500000  0.256165  0.084017  1
  B  B13  1  0.500000  0.743835  0.915983  1
  B  B14  1  0.500000  0.756165  0.415983  1
  B  B15  1  0.500000  0.243835  0.584017  1
  B  B16  1  0.500000  0.295597  0.234529  1
  B  B17  1  0.500000  0.704403  0.765471  1
  B  B18  1  0.500000  0.795597  0.265471  1
  B  B19  1  0.500000  0.204403  0.734529  1
  B  B20  1  0.500000  0.127663  0.317328  1
  B  B21  1  0.500000  0.872337  0.682672  1
  B  B22  1  0.500000  0.627663  0.182672  1
  B  B23  1  0.500000  0.372337  0.817328  1
  B  B24  1  0.500000  0.481962  0.283973  1
  B  B25  1  0.500000  0.518038  0.716027  1
  B  B26  1  0.500000  0.981962  0.216027  1
  B  B27  1  0.500000  0.018038  0.783973  1
  B  B28  1  0.500000  0.094472  0.474443  1
  B  B29  1  0.500000  0.905528  0.525557  1
  B  B30  1  0.500000  0.594472  0.025557  1
  B  B31  1  0.500000  0.405528  0.974443  1
  Mo  Mo32  1  0.000000  0.141460  0.182551  1
  Mo  Mo33  1  0.000000  0.858540  0.817449  1
  Mo  Mo34  1  0.000000  0.641460  0.317449  1
  Mo  Mo35  1  0.000000  0.358540  0.682551  1
