# generated using pymatgen
data_Th4Nb3MoN8
_symmetry_space_group_name_H-M   'P 1'
_cell_length_a   3.39732500
_cell_length_b   5.89894215
_cell_length_c   11.12535631
_cell_angle_alpha   90.02661634
_cell_angle_beta   90.00000000
_cell_angle_gamma   90.00000000
_symmetry_Int_Tables_number   1
_chemical_formula_structural   Th4Nb3MoN8
_chemical_formula_sum   'Th4 Nb3 Mo1 N8'
_cell_volume   222.95905476
_cell_formula_units_Z   1
loop_
 _symmetry_equiv_pos_site_id
 _symmetry_equiv_pos_as_xyz
  1  'x, y, z'
loop_
 _atom_site_type_symbol
 _atom_site_label
 _atom_site_symmetry_multiplicity
 _atom_site_fract_x
 _atom_site_fract_y
 _atom_site_fract_z
 _atom_site_occupancy
  Th  Th0  1  0.250000  0.577520  0.855100  1
  Th  Th1  1  0.750000  0.423997  0.145105  1
  Th  Th2  1  0.750000  0.921198  0.353574  1
  Th  Th3  1  0.250000  0.077243  0.643921  1
  Nb  Nb4  1  0.750000  0.068362  0.909559  1
  Nb  Nb5  1  0.750000  0.571729  0.593049  1
  Nb  Nb6  1  0.250000  0.427968  0.406476  1
  Mo  Mo7  1  0.250000  0.932419  0.093207  1
  N  N8  1  0.250000  0.664219  0.246506  1
  N  N9  1  0.750000  0.336103  0.754604  1
  N  N10  1  0.750000  0.836182  0.749347  1
  N  N11  1  0.250000  0.160643  0.247998  1
  N  N12  1  0.250000  0.757363  0.505777  1
  N  N13  1  0.750000  0.241856  0.493376  1
  N  N14  1  0.750000  0.748797  0.008018  1
  N  N15  1  0.250000  0.254402  0.994382  1
