# generated using pymatgen
data_DyPa3(Ni2Pb)2
_symmetry_space_group_name_H-M   'P 1'
_cell_length_a   7.57386942
_cell_length_b   7.57386951
_cell_length_c   3.56036600
_cell_angle_alpha   90.00000000
_cell_angle_beta   90.00000000
_cell_angle_gamma   88.66711840
_symmetry_Int_Tables_number   1
_chemical_formula_structural   DyPa3(Ni2Pb)2
_chemical_formula_sum   'Dy1 Pa3 Ni4 Pb2'
_cell_volume   204.17978932
_cell_formula_units_Z   1
loop_
 _symmetry_equiv_pos_site_id
 _symmetry_equiv_pos_as_xyz
  1  'x, y, z'
loop_
 _atom_site_type_symbol
 _atom_site_label
 _atom_site_symmetry_multiplicity
 _atom_site_fract_x
 _atom_site_fract_y
 _atom_site_fract_z
 _atom_site_occupancy
  Dy  Dy0  1  0.329554  0.829554  0.500000  1
  Pa  Pa1  1  0.669229  0.169229  0.500000  1
  Pa  Pa2  1  0.171899  0.328136  0.500000  1
  Pa  Pa3  1  0.828136  0.671899  0.500000  1
  Ni  Ni4  1  0.383894  0.136343  0.000000  1
  Ni  Ni5  1  0.107227  0.607227  0.000000  1
  Ni  Ni6  1  0.636343  0.883894  0.000000  1
  Ni  Ni7  1  0.870389  0.370389  0.000000  1
  Pb  Pb8  1  0.008023  0.995305  0.000000  1
  Pb  Pb9  1  0.495305  0.508023  0.000000  1
