# generated using pymatgen
data_Dy2Ho14CdHg3Ir4
_symmetry_space_group_name_H-M   'P 1'
_cell_length_a   9.57455349
_cell_length_b   9.57728776
_cell_length_c   9.57634200
_cell_angle_alpha   60.00326657
_cell_angle_beta   59.99382057
_cell_angle_gamma   59.98035191
_symmetry_Int_Tables_number   1
_chemical_formula_structural   Dy2Ho14CdHg3Ir4
_chemical_formula_sum   'Dy2 Ho14 Cd1 Hg3 Ir4'
_cell_volume   620.82846624
_cell_formula_units_Z   1
loop_
 _symmetry_equiv_pos_site_id
 _symmetry_equiv_pos_as_xyz
  1  'x, y, z'
loop_
 _atom_site_type_symbol
 _atom_site_label
 _atom_site_symmetry_multiplicity
 _atom_site_fract_x
 _atom_site_fract_y
 _atom_site_fract_z
 _atom_site_occupancy
  Dy  Dy0  1  0.811952  0.812505  0.187772  1
  Dy  Dy1  1  0.186664  0.188395  0.812471  1
  Ho  Ho2  1  0.600368  0.599860  0.599866  1
  Ho  Ho3  1  0.600368  0.599860  0.199907  1
  Ho  Ho4  1  0.600400  0.199900  0.599850  1
  Ho  Ho5  1  0.197563  0.600814  0.600811  1
  Ho  Ho6  1  0.060031  0.439907  0.439918  1
  Ho  Ho7  1  0.438935  0.060768  0.060784  1
  Ho  Ho8  1  0.438935  0.060768  0.439514  1
  Ho  Ho9  1  0.060031  0.439907  0.060144  1
  Ho  Ho10  1  0.438984  0.439568  0.060724  1
  Ho  Ho11  1  0.059979  0.060083  0.439969  1
  Ho  Ho12  1  0.186891  0.812182  0.812164  1
  Ho  Ho13  1  0.811669  0.188070  0.188052  1
  Ho  Ho14  1  0.811669  0.188070  0.812210  1
  Ho  Ho15  1  0.186891  0.812182  0.188763  1
  Cd  Cd16  1  0.509892  0.829914  0.830097  1
  Hg  Hg17  1  0.833376  0.835184  0.834921  1
  Hg  Hg18  1  0.833376  0.835184  0.496518  1
  Hg  Hg19  1  0.833126  0.496517  0.835179  1
  Ir  Ir20  1  0.391788  0.392407  0.392168  1
  Ir  Ir21  1  0.391788  0.392407  0.823636  1
  Ir  Ir22  1  0.391548  0.823629  0.392412  1
  Ir  Ir23  1  0.823777  0.391922  0.392151  1
