# generated using pymatgen
data_YbPr6RuBr12
_symmetry_space_group_name_H-M   'P 1'
_cell_length_a   9.67305151
_cell_length_b   9.67305072
_cell_length_c   9.67305090
_cell_angle_alpha   107.36642456
_cell_angle_beta   107.36642092
_cell_angle_gamma   107.36641631
_symmetry_Int_Tables_number   1
_chemical_formula_structural   YbPr6RuBr12
_chemical_formula_sum   'Yb1 Pr6 Ru1 Br12'
_cell_volume   746.10280445
_cell_formula_units_Z   1
loop_
 _symmetry_equiv_pos_site_id
 _symmetry_equiv_pos_as_xyz
  1  'x, y, z'
loop_
 _atom_site_type_symbol
 _atom_site_label
 _atom_site_symmetry_multiplicity
 _atom_site_fract_x
 _atom_site_fract_y
 _atom_site_fract_z
 _atom_site_occupancy
  Yb  Yb0  1  0.500000  0.500000  0.500000  1
  Pr  Pr1  1  0.106073  0.315491  0.027181  1
  Pr  Pr2  1  0.315491  0.027182  0.106072  1
  Pr  Pr3  1  0.027182  0.106072  0.315492  1
  Pr  Pr4  1  0.972819  0.893928  0.684509  1
  Pr  Pr5  1  0.684509  0.972819  0.893928  1
  Pr  Pr6  1  0.893927  0.684509  0.972819  1
  Ru  Ru7  1  0.000000  0.000000  0.000000  1
  Br  Br8  1  0.220056  0.687243  0.073483  1
  Br  Br9  1  0.458972  0.382308  0.170379  1
  Br  Br10  1  0.687244  0.073483  0.220056  1
  Br  Br11  1  0.926518  0.779944  0.312757  1
  Br  Br12  1  0.170379  0.458972  0.382308  1
  Br  Br13  1  0.382308  0.170379  0.458972  1
  Br  Br14  1  0.617692  0.829621  0.541029  1
  Br  Br15  1  0.829622  0.541028  0.617692  1
  Br  Br16  1  0.073483  0.220056  0.687244  1
  Br  Br17  1  0.312757  0.926518  0.779944  1
  Br  Br18  1  0.541028  0.617692  0.829622  1
  Br  Br19  1  0.779944  0.312757  0.926517  1
