# generated using pymatgen
data_Li4Sm(ThSi2)2
_symmetry_space_group_name_H-M   'P 1'
_cell_length_a   4.38459005
_cell_length_b   6.78138207
_cell_length_c   8.26388372
_cell_angle_alpha   114.22382292
_cell_angle_beta   105.38395663
_cell_angle_gamma   90.00000271
_symmetry_Int_Tables_number   1
_chemical_formula_structural   Li4Sm(ThSi2)2
_chemical_formula_sum   'Li4 Sm1 Th2 Si4'
_cell_volume   214.38889132
_cell_formula_units_Z   1
loop_
 _symmetry_equiv_pos_site_id
 _symmetry_equiv_pos_as_xyz
  1  'x, y, z'
loop_
 _atom_site_type_symbol
 _atom_site_label
 _atom_site_symmetry_multiplicity
 _atom_site_fract_x
 _atom_site_fract_y
 _atom_site_fract_z
 _atom_site_occupancy
  Li  Li0  1  0.671688  0.986768  0.343375  1
  Li  Li1  1  0.329737  0.019860  0.659475  1
  Li  Li2  1  0.329737  0.639616  0.659475  1
  Li  Li3  1  0.671688  0.356607  0.343375  1
  Sm  Sm4  1  0.870663  0.370663  0.741327  1
  Th  Th5  1  0.999141  0.999141  0.998282  1
  Th  Th6  1  0.128672  0.628672  0.257343  1
  Si  Si7  1  0.500980  0.682670  0.001960  1
  Si  Si8  1  0.500980  0.319290  0.001960  1
  Si  Si9  1  0.784229  0.784229  0.568459  1
  Si  Si10  1  0.212484  0.212484  0.424968  1
