# generated using pymatgen
data_Sb11Te(OsRh)2
_symmetry_space_group_name_H-M   'P 1'
_cell_length_a   8.11485753
_cell_length_b   8.12490507
_cell_length_c   8.15423892
_cell_angle_alpha   109.67423805
_cell_angle_beta   109.52460103
_cell_angle_gamma   109.06920595
_symmetry_Int_Tables_number   1
_chemical_formula_structural   Sb11Te(OsRh)2
_chemical_formula_sum   'Sb11 Te1 Os2 Rh2'
_cell_volume   414.59963413
_cell_formula_units_Z   1
loop_
 _symmetry_equiv_pos_site_id
 _symmetry_equiv_pos_as_xyz
  1  'x, y, z'
loop_
 _atom_site_type_symbol
 _atom_site_label
 _atom_site_symmetry_multiplicity
 _atom_site_fract_x
 _atom_site_fract_y
 _atom_site_fract_z
 _atom_site_occupancy
  Sb  Sb0  1  0.843587  0.183054  0.337899  1
  Sb  Sb1  1  0.840303  0.500100  0.662355  1
  Sb  Sb2  1  0.153536  0.484957  0.329962  1
  Sb  Sb3  1  0.815838  0.663239  0.153330  1
  Sb  Sb4  1  0.184461  0.339811  0.846690  1
  Sb  Sb5  1  0.509921  0.663978  0.847053  1
  Sb  Sb6  1  0.491627  0.337784  0.153894  1
  Sb  Sb7  1  0.665607  0.156728  0.820313  1
  Sb  Sb8  1  0.338091  0.846685  0.183103  1
  Sb  Sb9  1  0.657048  0.846048  0.501832  1
  Sb  Sb10  1  0.343306  0.157974  0.498222  1
  Te  Te11  1  0.154322  0.813174  0.661713  1
  Os  Os12  1  0.498829  0.000154  0.999314  1
  Os  Os13  1  0.001778  0.502811  0.002383  1
  Rh  Rh14  1  0.000692  0.000748  0.501505  1
  Rh  Rh15  1  0.501054  0.502755  0.500431  1
