# generated using pymatgen
data_Pm2AlPt3
_symmetry_space_group_name_H-M   'P 1'
_cell_length_a   5.34694218
_cell_length_b   5.34694183
_cell_length_c   5.34694125
_cell_angle_alpha   63.78849792
_cell_angle_beta   63.78850540
_cell_angle_gamma   63.78851216
_symmetry_Int_Tables_number   1
_chemical_formula_structural   Pm2AlPt3
_chemical_formula_sum   'Pm2 Al1 Pt3'
_cell_volume   117.12861621
_cell_formula_units_Z   1
loop_
 _symmetry_equiv_pos_site_id
 _symmetry_equiv_pos_as_xyz
  1  'x, y, z'
loop_
 _atom_site_type_symbol
 _atom_site_label
 _atom_site_symmetry_multiplicity
 _atom_site_fract_x
 _atom_site_fract_y
 _atom_site_fract_z
 _atom_site_occupancy
  Pm  Pm0  1  0.748847  0.748847  0.748847  1
  Pm  Pm1  1  0.501153  0.501153  0.501153  1
  Al  Al2  1  0.125000  0.125000  0.125000  1
  Pt  Pt3  1  0.625000  0.125000  0.125000  1
  Pt  Pt4  1  0.125000  0.625000  0.125000  1
  Pt  Pt5  1  0.125000  0.125000  0.625000  1
