# generated using pymatgen
data_Sm2PtN2
_symmetry_space_group_name_H-M   'P 1'
_cell_length_a   3.57991580
_cell_length_b   3.57994862
_cell_length_c   6.86715261
_cell_angle_alpha   105.07168711
_cell_angle_beta   105.10893275
_cell_angle_gamma   90.00001117
_symmetry_Int_Tables_number   1
_chemical_formula_structural   Sm2PtN2
_chemical_formula_sum   'Sm2 Pt1 N2'
_cell_volume   81.82667592
_cell_formula_units_Z   1
loop_
 _symmetry_equiv_pos_site_id
 _symmetry_equiv_pos_as_xyz
  1  'x, y, z'
loop_
 _atom_site_type_symbol
 _atom_site_label
 _atom_site_symmetry_multiplicity
 _atom_site_fract_x
 _atom_site_fract_y
 _atom_site_fract_z
 _atom_site_occupancy
  Sm  Sm0  1  0.152849  0.152948  0.805696  1
  Sm  Sm1  1  0.847151  0.847052  0.194304  1
  Pt  Pt2  1  0.500000  0.500000  0.500000  1
  N  N3  1  0.663976  0.663783  0.827952  1
  N  N4  1  0.336024  0.336217  0.172048  1
