# generated using pymatgen
data_Pr6Nd4SnBi5Br2
_symmetry_space_group_name_H-M   'P 1'
_cell_length_a   9.69663600
_cell_length_b   9.66548700
_cell_length_c   6.75812600
_cell_angle_alpha   90.00000000
_cell_angle_beta   90.00000000
_cell_angle_gamma   120.10666356
_symmetry_Int_Tables_number   1
_chemical_formula_structural   Pr6Nd4SnBi5Br2
_chemical_formula_sum   'Pr6 Nd4 Sn1 Bi5 Br2'
_cell_volume   547.94120561
_cell_formula_units_Z   1
loop_
 _symmetry_equiv_pos_site_id
 _symmetry_equiv_pos_as_xyz
  1  'x, y, z'
loop_
 _atom_site_type_symbol
 _atom_site_label
 _atom_site_symmetry_multiplicity
 _atom_site_fract_x
 _atom_site_fract_y
 _atom_site_fract_z
 _atom_site_occupancy
  Pr  Pr0  1  0.275225  0.000000  0.750000  1
  Pr  Pr1  1  0.726334  0.000000  0.250000  1
  Pr  Pr2  1  0.995786  0.269385  0.750000  1
  Pr  Pr3  1  0.000297  0.727954  0.250000  1
  Pr  Pr4  1  0.726402  0.730615  0.750000  1
  Pr  Pr5  1  0.272343  0.272046  0.250000  1
  Nd  Nd6  1  0.335025  0.668550  0.501097  1
  Nd  Nd7  1  0.666477  0.331450  0.501097  1
  Nd  Nd8  1  0.666477  0.331450  0.998903  1
  Nd  Nd9  1  0.335025  0.668550  0.998903  1
  Sn  Sn10  1  0.614166  0.000000  0.750000  1
  Bi  Bi11  1  0.385960  0.000000  0.250000  1
  Bi  Bi12  1  0.999394  0.615070  0.750000  1
  Bi  Bi13  1  0.999970  0.384958  0.250000  1
  Bi  Bi14  1  0.384324  0.384930  0.750000  1
  Bi  Bi15  1  0.615012  0.615042  0.250000  1
  Br  Br16  1  0.000891  0.000000  0.499677  1
  Br  Br17  1  0.000891  0.000000  0.000323  1
