# generated using pymatgen
data_Er4Tm16Sn7Pb9
_symmetry_space_group_name_H-M   'P 1'
_cell_length_a   8.07208521
_cell_length_b   8.11650714
_cell_length_c   15.39162500
_cell_angle_alpha   89.99925353
_cell_angle_beta   90.00082497
_cell_angle_gamma   90.02400982
_symmetry_Int_Tables_number   1
_chemical_formula_structural   Er4Tm16Sn7Pb9
_chemical_formula_sum   'Er4 Tm16 Sn7 Pb9'
_cell_volume   1008.41511993
_cell_formula_units_Z   1
loop_
 _symmetry_equiv_pos_site_id
 _symmetry_equiv_pos_as_xyz
  1  'x, y, z'
loop_
 _atom_site_type_symbol
 _atom_site_label
 _atom_site_symmetry_multiplicity
 _atom_site_fract_x
 _atom_site_fract_y
 _atom_site_fract_z
 _atom_site_occupancy
  Er  Er0  1  0.464576  0.675159  0.102788  1
  Er  Er1  1  0.959741  0.827121  0.398512  1
  Er  Er2  1  0.537982  0.324907  0.604151  1
  Er  Er3  1  0.038442  0.174572  0.895611  1
  Tm  Tm4  1  0.380144  0.838520  0.876548  1
  Tm  Tm5  1  0.880436  0.661055  0.623568  1
  Tm  Tm6  1  0.619764  0.161136  0.377086  1
  Tm  Tm7  1  0.119603  0.337395  0.123069  1
  Tm  Tm8  1  0.619781  0.161132  0.122892  1
  Tm  Tm9  1  0.119621  0.337406  0.376955  1
  Tm  Tm10  1  0.380134  0.838525  0.623433  1
  Tm  Tm11  1  0.880429  0.661048  0.876451  1
  Tm  Tm12  1  0.538027  0.324932  0.895788  1
  Tm  Tm13  1  0.038502  0.174539  0.604428  1
  Tm  Tm14  1  0.464576  0.675131  0.397110  1
  Tm  Tm15  1  0.959728  0.827168  0.101602  1
  Tm  Tm16  1  0.210886  0.503637  0.750014  1
  Tm  Tm17  1  0.710832  0.996275  0.749987  1
  Tm  Tm18  1  0.787294  0.494696  0.250017  1
  Tm  Tm19  1  0.291207  0.006721  0.249990  1
  Sn  Sn20  1  0.575625  0.623427  0.749998  1
  Sn  Sn21  1  0.075724  0.876111  0.749995  1
  Sn  Sn22  1  0.424917  0.375716  0.249995  1
  Sn  Sn23  1  0.924229  0.122535  0.249995  1
  Sn  Sn24  1  0.346516  0.149289  0.750089  1
  Sn  Sn25  1  0.846405  0.350666  0.749911  1
  Sn  Sn26  1  0.654448  0.850193  0.250086  1
  Pb  Pb27  1  0.280429  0.031556  0.041066  1
  Pb  Pb28  1  0.781221  0.467310  0.458977  1
  Pb  Pb29  1  0.718716  0.968362  0.542049  1
  Pb  Pb30  1  0.219518  0.531762  0.958799  1
  Pb  Pb31  1  0.718384  0.968144  0.958169  1
  Pb  Pb32  1  0.219172  0.531976  0.540985  1
  Pb  Pb33  1  0.280783  0.031820  0.459163  1
  Pb  Pb34  1  0.781568  0.467032  0.040822  1
  Pb  Pb35  1  0.150636  0.653027  0.249900  1
