# generated using pymatgen
data_PrNd11(PtI3)4
_symmetry_space_group_name_H-M   'P 1'
_cell_length_a   10.90774283
_cell_length_b   10.90764660
_cell_length_c   10.90943504
_cell_angle_alpha   109.47929509
_cell_angle_beta   109.46494780
_cell_angle_gamma   109.47260682
_symmetry_Int_Tables_number   1
_chemical_formula_structural   PrNd11(PtI3)4
_chemical_formula_sum   'Pr1 Nd11 Pt4 I12'
_cell_volume   999.14662578
_cell_formula_units_Z   1
loop_
 _symmetry_equiv_pos_site_id
 _symmetry_equiv_pos_as_xyz
  1  'x, y, z'
loop_
 _atom_site_type_symbol
 _atom_site_label
 _atom_site_symmetry_multiplicity
 _atom_site_fract_x
 _atom_site_fract_y
 _atom_site_fract_z
 _atom_site_occupancy
  Pr  Pr0  1  0.229647  0.459294  0.479647  1
  Nd  Nd1  1  0.041303  0.270651  0.020532  1
  Nd  Nd2  1  0.750045  0.020714  0.479347  1
  Nd  Nd3  1  0.270711  0.750015  0.229309  1
  Nd  Nd4  1  0.479304  0.750014  0.020706  1
  Nd  Nd5  1  0.749865  0.229252  0.270610  1
  Nd  Nd6  1  0.020677  0.479334  0.750066  1
  Nd  Nd7  1  0.229350  0.270652  0.750119  1
  Nd  Nd8  1  0.479385  0.229251  0.458643  1
  Nd  Nd9  1  0.458657  0.479333  0.229267  1
  Nd  Nd10  1  0.270669  0.020713  0.041368  1
  Nd  Nd11  1  0.020577  0.041156  0.270578  1
  Pt  Pt12  1  0.499997  0.999995  0.249996  1
  Pt  Pt13  1  0.250008  0.500018  0.000010  1
  Pt  Pt14  1  0.250001  0.249573  0.249587  1
  Pt  Pt15  1  0.999573  0.249574  0.499986  1
  I  I16  1  0.757988  0.742009  0.249992  1
  I  I17  1  0.991713  0.507990  0.249705  1
  I  I18  1  0.250010  0.758231  0.742234  1
  I  I19  1  0.757988  0.515976  0.507988  1
  I  I20  1  0.507994  0.250003  0.992015  1
  I  I21  1  0.742006  0.992005  0.984019  1
  I  I22  1  0.992006  0.984011  0.742006  1
  I  I23  1  0.516278  0.507991  0.758285  1
  I  I24  1  0.249998  0.992004  0.507985  1
  I  I25  1  0.742008  0.250002  0.757988  1
  I  I26  1  0.508221  0.758231  0.515997  1
  I  I27  1  0.984019  0.742009  0.992016  1
