# generated using pymatgen
data_Li2Zn(SnPt)2
_symmetry_space_group_name_H-M   'P 1'
_cell_length_a   4.39330400
_cell_length_b   4.39330448
_cell_length_c   15.53544000
_cell_angle_alpha   90.00000000
_cell_angle_beta   90.00000000
_cell_angle_gamma   119.99998134
_symmetry_Int_Tables_number   1
_chemical_formula_structural   Li2Zn(SnPt)2
_chemical_formula_sum   'Li4 Zn2 Sn4 Pt4'
_cell_volume   259.67900014
_cell_formula_units_Z   2
loop_
 _symmetry_equiv_pos_site_id
 _symmetry_equiv_pos_as_xyz
  1  'x, y, z'
loop_
 _atom_site_type_symbol
 _atom_site_label
 _atom_site_symmetry_multiplicity
 _atom_site_fract_x
 _atom_site_fract_y
 _atom_site_fract_z
 _atom_site_occupancy
  Li  Li0  1  0.000000  0.000000  0.167914  1
  Li  Li1  1  0.000000  0.000000  0.832086  1
  Li  Li2  1  0.000000  0.000000  0.667914  1
  Li  Li3  1  0.000000  0.000000  0.332086  1
  Zn  Zn4  1  0.333333  0.666667  0.750000  1
  Zn  Zn5  1  0.666667  0.333333  0.250000  1
  Sn  Sn6  1  0.333333  0.666667  0.070826  1
  Sn  Sn7  1  0.666667  0.333333  0.929174  1
  Sn  Sn8  1  0.666667  0.333333  0.570826  1
  Sn  Sn9  1  0.333333  0.666667  0.429174  1
  Pt  Pt10  1  0.000000  0.000000  0.000000  1
  Pt  Pt11  1  0.000000  0.000000  0.500000  1
  Pt  Pt12  1  0.333333  0.666667  0.250000  1
  Pt  Pt13  1  0.666667  0.333333  0.750000  1
