# generated using pymatgen
data_TbY2Er(NiPt)2
_symmetry_space_group_name_H-M   'P 1'
_cell_length_a   4.34551200
_cell_length_b   5.50855056
_cell_length_c   7.12098375
_cell_angle_alpha   89.60681287
_cell_angle_beta   90.00000000
_cell_angle_gamma   90.00000000
_symmetry_Int_Tables_number   1
_chemical_formula_structural   TbY2Er(NiPt)2
_chemical_formula_sum   'Tb1 Y2 Er1 Ni2 Pt2'
_cell_volume   170.45433937
_cell_formula_units_Z   1
loop_
 _symmetry_equiv_pos_site_id
 _symmetry_equiv_pos_as_xyz
  1  'x, y, z'
loop_
 _atom_site_type_symbol
 _atom_site_label
 _atom_site_symmetry_multiplicity
 _atom_site_fract_x
 _atom_site_fract_y
 _atom_site_fract_z
 _atom_site_occupancy
  Tb  Tb0  1  0.000000  0.118158  0.679859  1
  Y  Y1  1  0.500000  0.385586  0.317348  1
  Y  Y2  1  0.500000  0.615023  0.819888  1
  Er  Er3  1  0.000000  0.882720  0.179708  1
  Ni  Ni4  1  0.000000  0.613085  0.539645  1
  Ni  Ni5  1  0.000000  0.388834  0.042586  1
  Pt  Pt6  1  0.500000  0.884134  0.457369  1
  Pt  Pt7  1  0.500000  0.112460  0.963599  1
