# generated using pymatgen
data_Nd5CoAu2
_symmetry_space_group_name_H-M   'P 1'
_cell_length_a   8.71454900
_cell_length_b   8.16484100
_cell_length_c   12.03524700
_cell_angle_alpha   90.00000000
_cell_angle_beta   90.00000000
_cell_angle_gamma   90.00000000
_symmetry_Int_Tables_number   1
_chemical_formula_structural   Nd5CoAu2
_chemical_formula_sum   'Nd20 Co4 Au8'
_cell_volume   856.34281017
_cell_formula_units_Z   4
loop_
 _symmetry_equiv_pos_site_id
 _symmetry_equiv_pos_as_xyz
  1  'x, y, z'
loop_
 _atom_site_type_symbol
 _atom_site_label
 _atom_site_symmetry_multiplicity
 _atom_site_fract_x
 _atom_site_fract_y
 _atom_site_fract_z
 _atom_site_occupancy
  Nd  Nd0  1  0.159362  0.750000  0.213066  1
  Nd  Nd1  1  0.659362  0.250000  0.286934  1
  Nd  Nd2  1  0.840638  0.250000  0.786934  1
  Nd  Nd3  1  0.340638  0.750000  0.713066  1
  Nd  Nd4  1  0.453073  0.750000  0.011587  1
  Nd  Nd5  1  0.953073  0.250000  0.488413  1
  Nd  Nd6  1  0.546927  0.250000  0.988413  1
  Nd  Nd7  1  0.046927  0.750000  0.511587  1
  Nd  Nd8  1  0.609864  0.750000  0.300364  1
  Nd  Nd9  1  0.109864  0.250000  0.199636  1
  Nd  Nd10  1  0.390136  0.250000  0.699636  1
  Nd  Nd11  1  0.890136  0.750000  0.800364  1
  Nd  Nd12  1  0.825772  0.962005  0.073425  1
  Nd  Nd13  1  0.325772  0.037995  0.426575  1
  Nd  Nd14  1  0.174228  0.462005  0.926575  1
  Nd  Nd15  1  0.674228  0.537995  0.573425  1
  Nd  Nd16  1  0.174228  0.037995  0.926575  1
  Nd  Nd17  1  0.674228  0.962005  0.573425  1
  Nd  Nd18  1  0.825772  0.537995  0.073425  1
  Nd  Nd19  1  0.325772  0.462005  0.426575  1
  Co  Co20  1  0.434759  0.750000  0.493736  1
  Co  Co21  1  0.934759  0.250000  0.006264  1
  Co  Co22  1  0.565241  0.250000  0.506264  1
  Co  Co23  1  0.065241  0.750000  0.993736  1
  Au  Au24  1  0.916023  0.967198  0.326512  1
  Au  Au25  1  0.416023  0.032802  0.173488  1
  Au  Au26  1  0.083977  0.467198  0.673488  1
  Au  Au27  1  0.583977  0.532802  0.826512  1
  Au  Au28  1  0.083977  0.032802  0.673488  1
  Au  Au29  1  0.583977  0.967198  0.826512  1
  Au  Au30  1  0.916023  0.532802  0.326512  1
  Au  Au31  1  0.416023  0.467198  0.173488  1
