# generated using pymatgen
data_La4Al4IrPt2Rh
_symmetry_space_group_name_H-M   'P 1'
_cell_length_a   4.32590400
_cell_length_b   7.24898408
_cell_length_c   16.53158049
_cell_angle_alpha   89.77223047
_cell_angle_beta   90.00000000
_cell_angle_gamma   90.00000000
_symmetry_Int_Tables_number   1
_chemical_formula_structural   La4Al4IrPt2Rh
_chemical_formula_sum   'La8 Al8 Ir2 Pt4 Rh2'
_cell_volume   518.39996991
_cell_formula_units_Z   2
loop_
 _symmetry_equiv_pos_site_id
 _symmetry_equiv_pos_as_xyz
  1  'x, y, z'
loop_
 _atom_site_type_symbol
 _atom_site_label
 _atom_site_symmetry_multiplicity
 _atom_site_fract_x
 _atom_site_fract_y
 _atom_site_fract_z
 _atom_site_occupancy
  La  La0  1  0.250000  0.518174  0.780034  1
  La  La1  1  0.750000  0.481826  0.219966  1
  La  La2  1  0.750000  0.981935  0.280438  1
  La  La3  1  0.250000  0.018065  0.719562  1
  La  La4  1  0.250000  0.651926  0.556709  1
  La  La5  1  0.750000  0.348074  0.443291  1
  La  La6  1  0.750000  0.847644  0.056997  1
  La  La7  1  0.250000  0.152356  0.943003  1
  Al  Al8  1  0.250000  0.658818  0.352411  1
  Al  Al9  1  0.750000  0.341182  0.647589  1
  Al  Al10  1  0.750000  0.840443  0.853475  1
  Al  Al11  1  0.250000  0.159557  0.146525  1
  Al  Al12  1  0.250000  0.505563  0.059592  1
  Al  Al13  1  0.750000  0.494437  0.940408  1
  Al  Al14  1  0.750000  0.994486  0.560092  1
  Al  Al15  1  0.250000  0.005514  0.439908  1
  Ir  Ir16  1  0.250000  0.714529  0.927311  1
  Ir  Ir17  1  0.750000  0.285471  0.072689  1
  Pt  Pt18  1  0.250000  0.772288  0.181375  1
  Pt  Pt19  1  0.750000  0.227712  0.818625  1
  Pt  Pt20  1  0.750000  0.726610  0.679720  1
  Pt  Pt21  1  0.250000  0.273390  0.320280  1
  Rh  Rh22  1  0.750000  0.789167  0.426469  1
  Rh  Rh23  1  0.250000  0.210833  0.573531  1
