# generated using pymatgen
data_LaNdDy6(WO6)4
_symmetry_space_group_name_H-M   'P 1'
_cell_length_a   5.46120400
_cell_length_b   7.79026977
_cell_length_c   11.58669352
_cell_angle_alpha   75.59268315
_cell_angle_beta   90.00000000
_cell_angle_gamma   90.00000000
_symmetry_Int_Tables_number   1
_chemical_formula_structural   LaNdDy6(WO6)4
_chemical_formula_sum   'La1 Nd1 Dy6 W4 O24'
_cell_volume   477.44471156
_cell_formula_units_Z   1
loop_
 _symmetry_equiv_pos_site_id
 _symmetry_equiv_pos_as_xyz
  1  'x, y, z'
loop_
 _atom_site_type_symbol
 _atom_site_label
 _atom_site_symmetry_multiplicity
 _atom_site_fract_x
 _atom_site_fract_y
 _atom_site_fract_z
 _atom_site_occupancy
  La  La0  1  0.686226  0.500000  0.750000  1
  Nd  Nd1  1  0.315046  0.500000  0.250000  1
  Dy  Dy2  1  0.741420  0.000000  0.750000  1
  Dy  Dy3  1  0.259434  0.000000  0.250000  1
  Dy  Dy4  1  0.187411  0.798591  0.575953  1
  Dy  Dy5  1  0.813133  0.797155  0.077089  1
  Dy  Dy6  1  0.187411  0.201409  0.924047  1
  Dy  Dy7  1  0.813133  0.202845  0.422911  1
  W  W8  1  0.252725  0.728463  0.884837  1
  W  W9  1  0.747164  0.727675  0.383605  1
  W  W10  1  0.252725  0.271537  0.615163  1
  W  W11  1  0.747164  0.272325  0.116395  1
  O  O12  1  0.040756  0.940772  0.896687  1
  O  O13  1  0.531713  0.846579  0.930604  1
  O  O14  1  0.958264  0.941597  0.394933  1
  O  O15  1  0.453647  0.795691  0.727937  1
  O  O16  1  0.469468  0.846883  0.430306  1
  O  O17  1  0.987061  0.721530  0.769520  1
  O  O18  1  0.544098  0.793917  0.227455  1
  O  O19  1  0.857183  0.641735  0.543568  1
  O  O20  1  0.345900  0.494261  0.888008  1
  O  O21  1  0.014411  0.718003  0.270007  1
  O  O22  1  0.345900  0.505739  0.611992  1
  O  O23  1  0.857183  0.358265  0.956432  1
  O  O24  1  0.146474  0.642384  0.046078  1
  O  O25  1  0.649529  0.494045  0.387017  1
  O  O26  1  0.987061  0.278470  0.730480  1
  O  O27  1  0.649529  0.505955  0.112983  1
  O  O28  1  0.146474  0.357616  0.453922  1
  O  O29  1  0.453647  0.204309  0.772063  1
  O  O30  1  0.014411  0.281997  0.229993  1
  O  O31  1  0.531713  0.153421  0.569396  1
  O  O32  1  0.544098  0.206083  0.272545  1
  O  O33  1  0.040756  0.059228  0.603313  1
  O  O34  1  0.469468  0.153117  0.069694  1
  O  O35  1  0.958264  0.058403  0.105067  1
