# generated using pymatgen
data_CeSn6IrRu3
_symmetry_space_group_name_H-M   'P 1'
_cell_length_a   6.98759790
_cell_length_b   6.98176342
_cell_length_c   6.96819433
_cell_angle_alpha   120.10634945
_cell_angle_beta   120.13404973
_cell_angle_gamma   89.92766531
_symmetry_Int_Tables_number   1
_chemical_formula_structural   CeSn6IrRu3
_chemical_formula_sum   'Ce1 Sn6 Ir1 Ru3'
_cell_volume   239.65682602
_cell_formula_units_Z   1
loop_
 _symmetry_equiv_pos_site_id
 _symmetry_equiv_pos_as_xyz
  1  'x, y, z'
loop_
 _atom_site_type_symbol
 _atom_site_label
 _atom_site_symmetry_multiplicity
 _atom_site_fract_x
 _atom_site_fract_y
 _atom_site_fract_z
 _atom_site_occupancy
  Ce  Ce0  1  0.998203  0.997649  0.000000  1
  Sn  Sn1  1  0.499919  0.000970  0.495700  1
  Sn  Sn2  1  0.530906  0.874858  0.000000  1
  Sn  Sn3  1  0.118646  0.123553  0.651484  1
  Sn  Sn4  1  0.467161  0.472068  0.348516  1
  Sn  Sn5  1  0.878840  0.533309  0.000000  1
  Sn  Sn6  1  0.004218  0.505270  0.504300  1
  Ir  Ir7  1  0.602878  0.241836  0.000000  1
  Ru  Ru8  1  0.245229  0.599721  0.000000  1
  Ru  Ru9  1  0.401728  0.400111  0.649455  1
  Ru  Ru10  1  0.752272  0.750655  0.350545  1
