# generated using pymatgen
data_DyHo3Co12(Ni2P3)4
_symmetry_space_group_name_H-M   'P 1'
_cell_length_a   3.67336100
_cell_length_b   10.24316715
_cell_length_c   11.82905107
_cell_angle_alpha   89.98412649
_cell_angle_beta   90.00000000
_cell_angle_gamma   90.00000000
_symmetry_Int_Tables_number   1
_chemical_formula_structural   DyHo3Co12(Ni2P3)4
_chemical_formula_sum   'Dy1 Ho3 Co12 Ni8 P12'
_cell_volume   445.08992163
_cell_formula_units_Z   1
loop_
 _symmetry_equiv_pos_site_id
 _symmetry_equiv_pos_as_xyz
  1  'x, y, z'
loop_
 _atom_site_type_symbol
 _atom_site_label
 _atom_site_symmetry_multiplicity
 _atom_site_fract_x
 _atom_site_fract_y
 _atom_site_fract_z
 _atom_site_occupancy
  Dy  Dy0  1  0.750000  0.081190  0.796662  1
  Ho  Ho1  1  0.250000  0.581238  0.703212  1
  Ho  Ho2  1  0.250000  0.918698  0.203349  1
  Ho  Ho3  1  0.750000  0.418873  0.296642  1
  Co  Co4  1  0.250000  0.222483  0.175873  1
  Co  Co5  1  0.250000  0.277796  0.675716  1
  Co  Co6  1  0.750000  0.777411  0.824199  1
  Co  Co7  1  0.750000  0.722359  0.323983  1
  Co  Co8  1  0.250000  0.880072  0.697583  1
  Co  Co9  1  0.250000  0.619317  0.198125  1
  Co  Co10  1  0.750000  0.119514  0.301929  1
  Co  Co11  1  0.750000  0.380792  0.802225  1
  Co  Co12  1  0.250000  0.467129  0.932642  1
  Co  Co13  1  0.250000  0.033257  0.432087  1
  Co  Co14  1  0.750000  0.533364  0.067675  1
  Co  Co15  1  0.750000  0.966414  0.567061  1
  Ni  Ni16  1  0.250000  0.712791  0.990703  1
  Ni  Ni17  1  0.250000  0.787478  0.489399  1
  Ni  Ni18  1  0.750000  0.286940  0.010890  1
  Ni  Ni19  1  0.750000  0.213073  0.510745  1
  Ni  Ni20  1  0.250000  0.408676  0.484790  1
  Ni  Ni21  1  0.250000  0.091746  0.984961  1
  Ni  Ni22  1  0.750000  0.591256  0.514791  1
  Ni  Ni23  1  0.750000  0.908274  0.015345  1
  P  P24  1  0.250000  0.420663  0.113193  1
  P  P25  1  0.250000  0.079300  0.612574  1
  P  P26  1  0.750000  0.579433  0.886973  1
  P  P27  1  0.750000  0.920566  0.386621  1
  P  P28  1  0.250000  0.271889  0.865534  1
  P  P29  1  0.250000  0.228713  0.365218  1
  P  P30  1  0.750000  0.728650  0.134714  1
  P  P31  1  0.750000  0.771180  0.634536  1
  P  P32  1  0.250000  0.605341  0.387807  1
  P  P33  1  0.250000  0.894083  0.887820  1
  P  P34  1  0.750000  0.394643  0.612208  1
  P  P35  1  0.750000  0.105398  0.112214  1
