# generated using pymatgen
data_YbLu3(B6Os)2
_symmetry_space_group_name_H-M   'P 1'
_cell_length_a   3.59825600
_cell_length_b   9.06068477
_cell_length_c   11.44023827
_cell_angle_alpha   89.87070962
_cell_angle_beta   90.00000000
_cell_angle_gamma   90.00000000
_symmetry_Int_Tables_number   1
_chemical_formula_structural   YbLu3(B6Os)2
_chemical_formula_sum   'Yb2 Lu6 B24 Os4'
_cell_volume   372.98128747
_cell_formula_units_Z   2
loop_
 _symmetry_equiv_pos_site_id
 _symmetry_equiv_pos_as_xyz
  1  'x, y, z'
loop_
 _atom_site_type_symbol
 _atom_site_label
 _atom_site_symmetry_multiplicity
 _atom_site_fract_x
 _atom_site_fract_y
 _atom_site_fract_z
 _atom_site_occupancy
  Yb  Yb0  1  0.000000  0.323786  0.414394  1
  Yb  Yb1  1  0.000000  0.676214  0.585606  1
  Lu  Lu2  1  0.000000  0.821160  0.086254  1
  Lu  Lu3  1  0.000000  0.178840  0.913746  1
  Lu  Lu4  1  0.000000  0.942386  0.370335  1
  Lu  Lu5  1  0.000000  0.057614  0.629665  1
  Lu  Lu6  1  0.000000  0.443113  0.129243  1
  Lu  Lu7  1  0.000000  0.556887  0.870757  1
  B  B8  1  0.500000  0.554076  0.432293  1
  B  B9  1  0.500000  0.445924  0.567707  1
  B  B10  1  0.500000  0.053193  0.065768  1
  B  B11  1  0.500000  0.946807  0.934232  1
  B  B12  1  0.500000  0.749461  0.417811  1
  B  B13  1  0.500000  0.250539  0.582189  1
  B  B14  1  0.500000  0.249246  0.080168  1
  B  B15  1  0.500000  0.750754  0.919832  1
  B  B16  1  0.500000  0.792335  0.263622  1
  B  B17  1  0.500000  0.207665  0.736377  1
  B  B18  1  0.500000  0.290888  0.233992  1
  B  B19  1  0.500000  0.709112  0.766009  1
  B  B20  1  0.500000  0.631079  0.183852  1
  B  B21  1  0.500000  0.368921  0.816148  1
  B  B22  1  0.500000  0.130017  0.314141  1
  B  B23  1  0.500000  0.869983  0.685859  1
  B  B24  1  0.500000  0.981540  0.211385  1
  B  B25  1  0.500000  0.018460  0.788615  1
  B  B26  1  0.500000  0.482840  0.287070  1
  B  B27  1  0.500000  0.517160  0.712930  1
  B  B28  1  0.500000  0.602733  0.028206  1
  B  B29  1  0.500000  0.397267  0.971794  1
  B  B30  1  0.500000  0.098201  0.472888  1
  B  B31  1  0.500000  0.901799  0.527112  1
  Os  Os32  1  0.000000  0.640421  0.318033  1
  Os  Os33  1  0.000000  0.359579  0.681967  1
  Os  Os34  1  0.000000  0.136418  0.177313  1
  Os  Os35  1  0.000000  0.863582  0.822687  1
