# generated using pymatgen
data_YHo3(Si5Pt3)2
_symmetry_space_group_name_H-M   'P 1'
_cell_length_a   8.14936870
_cell_length_b   8.15282144
_cell_length_c   8.15282144
_cell_angle_alpha   136.28828865
_cell_angle_beta   104.65056249
_cell_angle_gamma   91.39633657
_symmetry_Int_Tables_number   1
_chemical_formula_structural   YHo3(Si5Pt3)2
_chemical_formula_sum   'Y1 Ho3 Si10 Pt6'
_cell_volume   344.31560302
_cell_formula_units_Z   1
loop_
 _symmetry_equiv_pos_site_id
 _symmetry_equiv_pos_as_xyz
  1  'x, y, z'
loop_
 _atom_site_type_symbol
 _atom_site_label
 _atom_site_symmetry_multiplicity
 _atom_site_fract_x
 _atom_site_fract_y
 _atom_site_fract_z
 _atom_site_occupancy
  Y  Y0  1  0.899631  0.129474  0.770157  1
  Ho  Ho1  1  0.641211  0.370253  0.270958  1
  Ho  Ho2  1  0.359032  0.629881  0.729151  1
  Ho  Ho3  1  0.099380  0.870129  0.229250  1
  Si  Si4  1  0.272429  0.522082  0.250227  1
  Si  Si5  1  0.728052  0.477899  0.749796  1
  Si  Si6  1  0.728052  0.978256  0.250153  1
  Si  Si7  1  0.272429  0.022202  0.750346  1
  Si  Si8  1  0.460391  0.111749  0.348641  1
  Si  Si9  1  0.538700  0.887359  0.651342  1
  Si  Si10  1  0.763627  0.611883  0.151744  1
  Si  Si11  1  0.236846  0.388659  0.848188  1
  Si  Si12  1  0.000080  0.249520  0.249655  1
  Si  Si13  1  0.000080  0.750425  0.750560  1
  Pt  Pt14  1  0.250443  0.137627  0.112817  1
  Pt  Pt15  1  0.749451  0.862061  0.887390  1
  Pt  Pt16  1  0.025352  0.637452  0.387900  1
  Pt  Pt17  1  0.975505  0.363237  0.612268  1
  Pt  Pt18  1  0.499654  0.250213  0.750016  1
  Pt  Pt19  1  0.499654  0.749638  0.249442  1
