# generated using pymatgen
data_HfAlV6Sn5
_symmetry_space_group_name_H-M   'P 1'
_cell_length_a   5.40933200
_cell_length_b   5.41130820
_cell_length_c   9.17528100
_cell_angle_alpha   90.00000000
_cell_angle_beta   90.00000000
_cell_angle_gamma   60.00380421
_symmetry_Int_Tables_number   1
_chemical_formula_structural   HfAlV6Sn5
_chemical_formula_sum   'Hf1 Al1 V6 Sn5'
_cell_volume   232.60152583
_cell_formula_units_Z   1
loop_
 _symmetry_equiv_pos_site_id
 _symmetry_equiv_pos_as_xyz
  1  'x, y, z'
loop_
 _atom_site_type_symbol
 _atom_site_label
 _atom_site_symmetry_multiplicity
 _atom_site_fract_x
 _atom_site_fract_y
 _atom_site_fract_z
 _atom_site_occupancy
  Hf  Hf0  1  0.000059  0.999994  0.500000  1
  Al  Al1  1  0.333152  0.333277  0.500000  1
  V  V2  1  0.492519  0.014842  0.258145  1
  V  V3  1  0.014896  0.492511  0.258161  1
  V  V4  1  0.492541  0.492579  0.258158  1
  V  V5  1  0.492519  0.014842  0.741855  1
  V  V6  1  0.014896  0.492511  0.741839  1
  V  V7  1  0.492541  0.492579  0.741842  1
  Sn  Sn8  1  0.999992  0.000004  0.175074  1
  Sn  Sn9  1  0.999992  0.000004  0.824926  1
  Sn  Sn10  1  0.666658  0.666711  0.000000  1
  Sn  Sn11  1  0.333343  0.333294  0.000000  1
  Sn  Sn12  1  0.666691  0.666847  0.500000  1
