# generated using pymatgen
data_KCrNiAs2
_symmetry_space_group_name_H-M   'P 1'
_cell_length_a   7.50121308
_cell_length_b   7.50121213
_cell_length_c   7.50121225
_cell_angle_alpha   149.90383945
_cell_angle_beta   149.90382864
_cell_angle_gamma   43.08258007
_symmetry_Int_Tables_number   1
_chemical_formula_structural   KCrNiAs2
_chemical_formula_sum   'K1 Cr1 Ni1 As2'
_cell_volume   105.85641320
_cell_formula_units_Z   1
loop_
 _symmetry_equiv_pos_site_id
 _symmetry_equiv_pos_as_xyz
  1  'x, y, z'
loop_
 _atom_site_type_symbol
 _atom_site_label
 _atom_site_symmetry_multiplicity
 _atom_site_fract_x
 _atom_site_fract_y
 _atom_site_fract_z
 _atom_site_occupancy
  K  K0  1  0.000000  0.000000  0.000000  1
  Cr  Cr1  1  0.750000  0.250000  0.500000  1
  Ni  Ni2  1  0.250000  0.750000  0.500000  1
  As  As3  1  0.349168  0.349168  0.000000  1
  As  As4  1  0.650832  0.650832  0.000000  1
