# generated using pymatgen
data_Nd2Y3Nb3(Co4P3)4
_symmetry_space_group_name_H-M   'P 1'
_cell_length_a   12.24714200
_cell_length_b   12.24714142
_cell_length_c   3.71981300
_cell_angle_alpha   90.00000000
_cell_angle_beta   90.00000000
_cell_angle_gamma   119.99999617
_symmetry_Int_Tables_number   1
_chemical_formula_structural   Nd2Y3Nb3(Co4P3)4
_chemical_formula_sum   'Nd2 Y3 Nb3 Co16 P12'
_cell_volume   483.19367671
_cell_formula_units_Z   1
loop_
 _symmetry_equiv_pos_site_id
 _symmetry_equiv_pos_as_xyz
  1  'x, y, z'
loop_
 _atom_site_type_symbol
 _atom_site_label
 _atom_site_symmetry_multiplicity
 _atom_site_fract_x
 _atom_site_fract_y
 _atom_site_fract_z
 _atom_site_occupancy
  Nd  Nd0  1  0.333333  0.666667  0.000000  1
  Nd  Nd1  1  0.666667  0.333333  0.000000  1
  Y  Y2  1  0.816096  0.000000  0.500000  1
  Y  Y3  1  0.000000  0.816096  0.500000  1
  Y  Y4  1  0.183904  0.183904  0.500000  1
  Nb  Nb5  1  0.443790  0.000000  0.000000  1
  Nb  Nb6  1  0.000000  0.443790  0.000000  1
  Nb  Nb7  1  0.556210  0.556210  0.000000  1
  Co  Co8  1  0.277861  0.000000  0.500000  1
  Co  Co9  1  0.000000  0.277861  0.500000  1
  Co  Co10  1  0.722139  0.722139  0.500000  1
  Co  Co11  1  0.627923  0.804007  0.000000  1
  Co  Co12  1  0.195993  0.823916  0.000000  1
  Co  Co13  1  0.176084  0.372077  0.000000  1
  Co  Co14  1  0.372077  0.176084  0.000000  1
  Co  Co15  1  0.804007  0.627923  0.000000  1
  Co  Co16  1  0.823916  0.195993  0.000000  1
  Co  Co17  1  0.521740  0.875330  0.500000  1
  Co  Co18  1  0.124670  0.646411  0.500000  1
  Co  Co19  1  0.353589  0.478260  0.500000  1
  Co  Co20  1  0.478260  0.353589  0.500000  1
  Co  Co21  1  0.875330  0.521740  0.500000  1
  Co  Co22  1  0.646411  0.124670  0.500000  1
  Co  Co23  1  0.000000  0.000000  0.000000  1
  P  P24  1  0.177827  0.000000  0.000000  1
  P  P25  1  0.000000  0.177827  0.000000  1
  P  P26  1  0.822173  0.822173  0.000000  1
  P  P27  1  0.524551  0.690081  0.500000  1
  P  P28  1  0.309919  0.834469  0.500000  1
  P  P29  1  0.165531  0.475449  0.500000  1
  P  P30  1  0.475449  0.165531  0.500000  1
  P  P31  1  0.690081  0.524551  0.500000  1
  P  P32  1  0.834469  0.309919  0.500000  1
  P  P33  1  0.643168  0.000000  0.000000  1
  P  P34  1  0.000000  0.643168  0.000000  1
  P  P35  1  0.356832  0.356832  0.000000  1
