# generated using pymatgen
data_CeNd3(Al8Pt3)3
_symmetry_space_group_name_H-M   'P 1'
_cell_length_a   7.54656247
_cell_length_b   7.56286589
_cell_length_c   13.28145573
_cell_angle_alpha   84.72467502
_cell_angle_beta   100.75940138
_cell_angle_gamma   119.74523746
_symmetry_Int_Tables_number   1
_chemical_formula_structural   CeNd3(Al8Pt3)3
_chemical_formula_sum   'Ce1 Nd3 Al24 Pt9'
_cell_volume   646.57368796
_cell_formula_units_Z   1
loop_
 _symmetry_equiv_pos_site_id
 _symmetry_equiv_pos_as_xyz
  1  'x, y, z'
loop_
 _atom_site_type_symbol
 _atom_site_label
 _atom_site_symmetry_multiplicity
 _atom_site_fract_x
 _atom_site_fract_y
 _atom_site_fract_z
 _atom_site_occupancy
  Ce  Ce0  1  0.436003  0.831228  0.806023  1
  Nd  Nd1  1  0.562855  0.168315  0.191281  1
  Nd  Nd2  1  0.768350  0.502145  0.808532  1
  Nd  Nd3  1  0.231899  0.498087  0.191168  1
  Al  Al4  1  0.480195  0.166029  0.944876  1
  Al  Al5  1  0.520284  0.833640  0.053324  1
  Al  Al6  1  0.021426  0.167187  0.560231  1
  Al  Al7  1  0.978680  0.832882  0.440090  1
  Al  Al8  1  0.353732  0.833298  0.557979  1
  Al  Al9  1  0.647175  0.167590  0.442438  1
  Al  Al10  1  0.619223  0.834351  0.333019  1
  Al  Al11  1  0.380750  0.166487  0.667726  1
  Al  Al12  1  0.054296  0.492301  0.667188  1
  Al  Al13  1  0.944424  0.506441  0.333102  1
  Al  Al14  1  0.730940  0.840482  0.665712  1
  Al  Al15  1  0.270240  0.159767  0.334644  1
  Al  Al16  1  0.148330  0.498916  0.945355  1
  Al  Al17  1  0.852036  0.502296  0.053767  1
  Al  Al18  1  0.817936  0.834043  0.954777  1
  Al  Al19  1  0.180568  0.165529  0.044140  1
  Al  Al20  1  0.313588  0.499642  0.441900  1
  Al  Al21  1  0.686662  0.499853  0.558646  1
  Al  Al22  1  0.101082  0.836132  0.183980  1
  Al  Al23  1  0.898376  0.162541  0.816593  1
  Al  Al24  1  0.304100  0.367470  0.815148  1
  Al  Al25  1  0.695075  0.632521  0.185356  1
  Al  Al26  1  0.102873  0.961689  0.815835  1
  Al  Al27  1  0.898221  0.039045  0.184655  1
  Pt  Pt28  1  0.385298  0.506492  0.637420  1
  Pt  Pt29  1  0.614975  0.494477  0.363784  1
  Pt  Pt30  1  0.171610  0.829265  0.999158  1
  Pt  Pt31  1  0.828594  0.171283  0.999956  1
  Pt  Pt32  1  0.294025  0.833325  0.363600  1
  Pt  Pt33  1  0.705796  0.165785  0.637774  1
  Pt  Pt34  1  0.047290  0.827354  0.636652  1
  Pt  Pt35  1  0.953347  0.172406  0.364583  1
  Pt  Pt36  1  0.499745  0.499707  0.999587  1
