# generated using pymatgen
data_Ce3Pr(CdRh2)2
_symmetry_space_group_name_H-M   'P 1'
_cell_length_a   7.69675424
_cell_length_b   7.69675424
_cell_length_c   3.74238900
_cell_angle_alpha   90.00000000
_cell_angle_beta   90.00000000
_cell_angle_gamma   91.81201097
_symmetry_Int_Tables_number   1
_chemical_formula_structural   Ce3Pr(CdRh2)2
_chemical_formula_sum   'Ce3 Pr1 Cd2 Rh4'
_cell_volume   221.58836136
_cell_formula_units_Z   1
loop_
 _symmetry_equiv_pos_site_id
 _symmetry_equiv_pos_as_xyz
  1  'x, y, z'
loop_
 _atom_site_type_symbol
 _atom_site_label
 _atom_site_symmetry_multiplicity
 _atom_site_fract_x
 _atom_site_fract_y
 _atom_site_fract_z
 _atom_site_occupancy
  Ce  Ce0  1  0.670022  0.167351  0.500000  1
  Ce  Ce1  1  0.332649  0.829978  0.500000  1
  Ce  Ce2  1  0.170159  0.329841  0.500000  1
  Pr  Pr3  1  0.832631  0.667369  0.500000  1
  Cd  Cd4  1  0.999872  0.995189  0.000000  1
  Cd  Cd5  1  0.504811  0.500128  0.000000  1
  Rh  Rh6  1  0.150558  0.633099  0.000000  1
  Rh  Rh7  1  0.866901  0.349442  0.000000  1
  Rh  Rh8  1  0.617483  0.882517  0.000000  1
  Rh  Rh9  1  0.354914  0.145086  0.000000  1
