# generated using pymatgen
data_Eu3Ga4(CoRu)2
_symmetry_space_group_name_H-M   'P 1'
_cell_length_a   6.55373206
_cell_length_b   6.55373132
_cell_length_c   6.65511136
_cell_angle_alpha   109.44021628
_cell_angle_beta   109.44020766
_cell_angle_gamma   108.90844249
_symmetry_Int_Tables_number   1
_chemical_formula_structural   Eu3Ga4(CoRu)2
_chemical_formula_sum   'Eu3 Ga4 Co2 Ru2'
_cell_volume   221.72032925
_cell_formula_units_Z   1
loop_
 _symmetry_equiv_pos_site_id
 _symmetry_equiv_pos_as_xyz
  1  'x, y, z'
loop_
 _atom_site_type_symbol
 _atom_site_label
 _atom_site_symmetry_multiplicity
 _atom_site_fract_x
 _atom_site_fract_y
 _atom_site_fract_z
 _atom_site_occupancy
  Eu  Eu0  1  0.506696  0.006696  0.500000  1
  Eu  Eu1  1  0.006696  0.506696  0.500000  1
  Eu  Eu2  1  0.499012  0.499012  0.000000  1
  Ga  Ga3  1  0.006486  0.006486  0.618149  1
  Ga  Ga4  1  0.388338  0.388338  0.381851  1
  Ga  Ga5  1  0.008097  0.599212  0.000000  1
  Ga  Ga6  1  0.599212  0.008097  0.000000  1
  Co  Co7  1  0.231824  0.998645  0.000000  1
  Co  Co8  1  0.998645  0.231824  0.000000  1
  Ru  Ru9  1  0.997703  0.997703  0.240412  1
  Ru  Ru10  1  0.757291  0.757291  0.759588  1
