# generated using pymatgen
data_Dy2Lu2Tc3PtF28
_symmetry_space_group_name_H-M   'P 1'
_cell_length_a   5.53028501
_cell_length_b   8.83285734
_cell_length_c   11.93604059
_cell_angle_alpha   62.59747547
_cell_angle_beta   89.90222184
_cell_angle_gamma   90.02983644
_symmetry_Int_Tables_number   1
_chemical_formula_structural   Dy2Lu2Tc3PtF28
_chemical_formula_sum   'Dy2 Lu2 Tc3 Pt1 F28'
_cell_volume   517.63145784
_cell_formula_units_Z   1
loop_
 _symmetry_equiv_pos_site_id
 _symmetry_equiv_pos_as_xyz
  1  'x, y, z'
loop_
 _atom_site_type_symbol
 _atom_site_label
 _atom_site_symmetry_multiplicity
 _atom_site_fract_x
 _atom_site_fract_y
 _atom_site_fract_z
 _atom_site_occupancy
  Dy  Dy0  1  0.259324  0.816924  0.264143  1
  Dy  Dy1  1  0.741314  0.184420  0.735305  1
  Lu  Lu2  1  0.759667  0.186774  0.235537  1
  Lu  Lu3  1  0.239501  0.814363  0.762938  1
  Tc  Tc4  1  0.758737  0.724970  0.041724  1
  Tc  Tc5  1  0.241537  0.275938  0.957588  1
  Tc  Tc6  1  0.258286  0.271816  0.455658  1
  Pt  Pt7  1  0.740219  0.728957  0.543972  1
  F  F8  1  0.936562  0.704103  0.415918  1
  F  F9  1  0.057132  0.291835  0.582964  1
  F  F10  1  0.445645  0.292754  0.085124  1
  F  F11  1  0.553883  0.707647  0.914813  1
  F  F12  1  0.472711  0.728261  0.137962  1
  F  F13  1  0.527866  0.271929  0.862131  1
  F  F14  1  0.971191  0.269606  0.359315  1
  F  F15  1  0.033716  0.727342  0.637978  1
  F  F16  1  0.955009  0.743812  0.172588  1
  F  F17  1  0.046511  0.256327  0.826925  1
  F  F18  1  0.458872  0.252926  0.325484  1
  F  F19  1  0.546390  0.745540  0.676998  1
  F  F20  1  0.773193  0.475248  0.141003  1
  F  F21  1  0.226907  0.525624  0.858451  1
  F  F22  1  0.271690  0.521295  0.358494  1
  F  F23  1  0.727572  0.479103  0.642689  1
  F  F24  1  0.942346  0.277411  0.048282  1
  F  F25  1  0.057477  0.723378  0.950847  1
  F  F26  1  0.440939  0.720852  0.457387  1
  F  F27  1  0.554977  0.278067  0.544580  1
  F  F28  1  0.741155  0.979303  0.448416  1
  F  F29  1  0.259272  0.023348  0.554335  1
  F  F30  1  0.241687  0.027016  0.053152  1
  F  F31  1  0.758660  0.973725  0.946642  1
  F  F32  1  0.587779  0.974688  0.232277  1
  F  F33  1  0.412646  0.024697  0.768332  1
  F  F34  1  0.078210  0.033847  0.268273  1
  F  F35  1  0.921420  0.966156  0.731779  1
