# generated using pymatgen
data_HfAg2AsF12
_symmetry_space_group_name_H-M   'P 1'
_cell_length_a   5.52923137
_cell_length_b   5.89511987
_cell_length_c   8.16329482
_cell_angle_alpha   96.48050175
_cell_angle_beta   89.62809512
_cell_angle_gamma   90.12080295
_symmetry_Int_Tables_number   1
_chemical_formula_structural   HfAg2AsF12
_chemical_formula_sum   'Hf1 Ag2 As1 F12'
_cell_volume   264.38049656
_cell_formula_units_Z   1
loop_
 _symmetry_equiv_pos_site_id
 _symmetry_equiv_pos_as_xyz
  1  'x, y, z'
loop_
 _atom_site_type_symbol
 _atom_site_label
 _atom_site_symmetry_multiplicity
 _atom_site_fract_x
 _atom_site_fract_y
 _atom_site_fract_z
 _atom_site_occupancy
  Hf  Hf0  1  0.000000  0.000000  0.500000  1
  Ag  Ag1  1  0.000000  0.000000  0.000000  1
  Ag  Ag2  1  0.500000  0.500000  0.500000  1
  As  As3  1  0.500000  0.500000  0.000000  1
  F  F4  1  0.905328  0.004451  0.737350  1
  F  F5  1  0.182807  0.294433  0.550860  1
  F  F6  1  0.244213  0.635200  0.921037  1
  F  F7  1  0.345698  0.489405  0.190125  1
  F  F8  1  0.378591  0.228048  0.925298  1
  F  F9  1  0.297794  0.821001  0.543147  1
  F  F10  1  0.702206  0.178999  0.456853  1
  F  F11  1  0.621409  0.771952  0.074702  1
  F  F12  1  0.654302  0.510595  0.809875  1
  F  F13  1  0.755787  0.364800  0.078963  1
  F  F14  1  0.817193  0.705567  0.449140  1
  F  F15  1  0.094672  0.995549  0.262650  1
