# generated using pymatgen
data_CaYb2Si4(AsPd10)2
_symmetry_space_group_name_H-M   'P 1'
_cell_length_a   8.79386984
_cell_length_b   8.79387028
_cell_length_c   8.71436600
_cell_angle_alpha   60.29862928
_cell_angle_beta   60.29862766
_cell_angle_gamma   59.40275272
_symmetry_Int_Tables_number   1
_chemical_formula_structural   CaYb2Si4(AsPd10)2
_chemical_formula_sum   'Ca1 Yb2 Si4 As2 Pd20'
_cell_volume   476.44255986
_cell_formula_units_Z   1
loop_
 _symmetry_equiv_pos_site_id
 _symmetry_equiv_pos_as_xyz
  1  'x, y, z'
loop_
 _atom_site_type_symbol
 _atom_site_label
 _atom_site_symmetry_multiplicity
 _atom_site_fract_x
 _atom_site_fract_y
 _atom_site_fract_z
 _atom_site_occupancy
  Ca  Ca0  1  0.000000  0.000000  0.000000  1
  Yb  Yb1  1  0.750000  0.750000  0.750000  1
  Yb  Yb2  1  0.250000  0.250000  0.250000  1
  Si  Si3  1  0.732142  0.267858  0.732142  1
  Si  Si4  1  0.267858  0.732142  0.267858  1
  Si  Si5  1  0.267858  0.732142  0.732142  1
  Si  Si6  1  0.732142  0.267858  0.267858  1
  As  As7  1  0.734660  0.734660  0.265340  1
  As  As8  1  0.265340  0.265340  0.734660  1
  Pd  Pd9  1  0.614289  0.614289  0.620416  1
  Pd  Pd10  1  0.385711  0.385711  0.379584  1
  Pd  Pd11  1  0.151005  0.620416  0.614289  1
  Pd  Pd12  1  0.620416  0.151005  0.614289  1
  Pd  Pd13  1  0.848995  0.379584  0.385711  1
  Pd  Pd14  1  0.379584  0.848995  0.385711  1
  Pd  Pd15  1  0.614289  0.614289  0.151005  1
  Pd  Pd16  1  0.385711  0.385711  0.848995  1
  Pd  Pd17  1  0.000000  0.000000  0.654334  1
  Pd  Pd18  1  0.000000  0.000000  0.345666  1
  Pd  Pd19  1  0.345666  0.654334  0.000000  1
  Pd  Pd20  1  0.654334  0.345666  0.000000  1
  Pd  Pd21  1  0.007326  0.653480  0.992674  1
  Pd  Pd22  1  0.653480  0.007326  0.346520  1
  Pd  Pd23  1  0.992674  0.346520  0.007326  1
  Pd  Pd24  1  0.346520  0.992674  0.653480  1
  Pd  Pd25  1  0.653480  0.007326  0.992674  1
  Pd  Pd26  1  0.346520  0.992674  0.007326  1
  Pd  Pd27  1  0.007326  0.653480  0.346520  1
  Pd  Pd28  1  0.992674  0.346520  0.653480  1
