# generated using pymatgen
data_Y8Ta11NbSi15Ge
_symmetry_space_group_name_H-M   'P 1'
_cell_length_a   6.87583666
_cell_length_b   7.06396075
_cell_length_c   13.41896903
_cell_angle_alpha   90.03973922
_cell_angle_beta   89.92978960
_cell_angle_gamma   90.05370757
_symmetry_Int_Tables_number   1
_chemical_formula_structural   Y8Ta11NbSi15Ge
_chemical_formula_sum   'Y8 Ta11 Nb1 Si15 Ge1'
_cell_volume   651.76698611
_cell_formula_units_Z   1
loop_
 _symmetry_equiv_pos_site_id
 _symmetry_equiv_pos_as_xyz
  1  'x, y, z'
loop_
 _atom_site_type_symbol
 _atom_site_label
 _atom_site_symmetry_multiplicity
 _atom_site_fract_x
 _atom_site_fract_y
 _atom_site_fract_z
 _atom_site_occupancy
  Y  Y0  1  0.503395  0.329440  0.095929  1
  Y  Y1  1  0.002221  0.170151  0.403599  1
  Y  Y2  1  0.499976  0.673068  0.596618  1
  Y  Y3  1  0.996607  0.829057  0.904653  1
  Y  Y4  1  0.496535  0.670549  0.904468  1
  Y  Y5  1  0.996553  0.830056  0.596123  1
  Y  Y6  1  0.503801  0.327822  0.403238  1
  Y  Y7  1  0.003141  0.171166  0.095601  1
  Ta  Ta8  1  0.664278  0.009712  0.750401  1
  Ta  Ta9  1  0.163549  0.489592  0.752116  1
  Ta  Ta10  1  0.335791  0.990337  0.249668  1
  Ta  Ta11  1  0.836034  0.510062  0.249856  1
  Ta  Ta12  1  0.836154  0.324095  0.625730  1
  Ta  Ta13  1  0.337499  0.175474  0.875056  1
  Ta  Ta14  1  0.162456  0.675588  0.124951  1
  Ta  Ta15  1  0.662099  0.824780  0.374341  1
  Ta  Ta16  1  0.160772  0.678302  0.373046  1
  Ta  Ta17  1  0.661449  0.824211  0.125034  1
  Ta  Ta18  1  0.837547  0.324252  0.875093  1
  Nb  Nb19  1  0.339998  0.171726  0.626292  1
  Si  Si20  1  0.797077  0.625016  0.750311  1
  Si  Si21  1  0.295916  0.873547  0.750761  1
  Si  Si22  1  0.203392  0.374859  0.249701  1
  Si  Si23  1  0.703542  0.125191  0.249467  1
  Si  Si24  1  0.542339  0.375891  0.750292  1
  Si  Si25  1  0.042180  0.124338  0.750209  1
  Si  Si26  1  0.457328  0.624143  0.249871  1
  Si  Si27  1  0.956651  0.876434  0.248933  1
  Si  Si28  1  0.664172  0.037415  0.540229  1
  Si  Si29  1  0.162970  0.463147  0.959366  1
  Si  Si30  1  0.336413  0.963337  0.040739  1
  Si  Si31  1  0.832967  0.537606  0.458585  1
  Si  Si32  1  0.336345  0.962541  0.459200  1
  Si  Si33  1  0.836912  0.536818  0.040934  1
  Si  Si34  1  0.663120  0.036795  0.959352  1
  Ge  Ge35  1  0.168821  0.463482  0.540232  1
