# generated using pymatgen
data_Y5In4IrPd
_symmetry_space_group_name_H-M   'P 1'
_cell_length_a   3.64511700
_cell_length_b   8.14214366
_cell_length_c   18.31765486
_cell_angle_alpha   90.12370353
_cell_angle_beta   90.00000000
_cell_angle_gamma   90.00000000
_symmetry_Int_Tables_number   1
_chemical_formula_structural   Y5In4IrPd
_chemical_formula_sum   'Y10 In8 Ir2 Pd2'
_cell_volume   543.64962556
_cell_formula_units_Z   2
loop_
 _symmetry_equiv_pos_site_id
 _symmetry_equiv_pos_as_xyz
  1  'x, y, z'
loop_
 _atom_site_type_symbol
 _atom_site_label
 _atom_site_symmetry_multiplicity
 _atom_site_fract_x
 _atom_site_fract_y
 _atom_site_fract_z
 _atom_site_occupancy
  Y  Y0  1  0.500000  0.229902  0.778451  1
  Y  Y1  1  0.500000  0.770098  0.221549  1
  Y  Y2  1  0.500000  0.246181  0.280595  1
  Y  Y3  1  0.500000  0.753819  0.719405  1
  Y  Y4  1  0.500000  0.115482  0.586771  1
  Y  Y5  1  0.500000  0.884518  0.413229  1
  Y  Y6  1  0.500000  0.382269  0.084191  1
  Y  Y7  1  0.500000  0.617731  0.915809  1
  Y  Y8  1  0.500000  0.000000  0.000000  1
  Y  Y9  1  0.500000  0.500000  0.500000  1
  In  In10  1  0.000000  0.076886  0.149135  1
  In  In11  1  0.000000  0.923114  0.850865  1
  In  In12  1  0.000000  0.423577  0.650553  1
  In  In13  1  0.000000  0.576423  0.349447  1
  In  In14  1  0.000000  0.207898  0.431923  1
  In  In15  1  0.000000  0.792102  0.568077  1
  In  In16  1  0.000000  0.292891  0.931983  1
  In  In17  1  0.000000  0.707109  0.068017  1
  Ir  Ir18  1  0.000000  0.021023  0.695568  1
  Ir  Ir19  1  0.000000  0.978977  0.304432  1
  Pd  Pd20  1  0.000000  0.478829  0.196286  1
  Pd  Pd21  1  0.000000  0.521171  0.803714  1
