# generated using pymatgen
data_Ti8Al14ReIr7
_symmetry_space_group_name_H-M   'P 1'
_cell_length_a   8.64045626
_cell_length_b   8.64045692
_cell_length_c   8.64045600
_cell_angle_alpha   120.04021121
_cell_angle_beta   119.85867580
_cell_angle_gamma   90.08765940
_symmetry_Int_Tables_number   1
_chemical_formula_structural   Ti8Al14ReIr7
_chemical_formula_sum   'Ti8 Al14 Re1 Ir7'
_cell_volume   456.48329417
_cell_formula_units_Z   1
loop_
 _symmetry_equiv_pos_site_id
 _symmetry_equiv_pos_as_xyz
  1  'x, y, z'
loop_
 _atom_site_type_symbol
 _atom_site_label
 _atom_site_symmetry_multiplicity
 _atom_site_fract_x
 _atom_site_fract_y
 _atom_site_fract_z
 _atom_site_occupancy
  Ti  Ti0  1  0.796122  0.292028  0.077962  1
  Ti  Ti1  1  0.214066  0.292028  0.495906  1
  Ti  Ti2  1  0.202856  0.702856  0.500000  1
  Ti  Ti3  1  0.214066  0.718161  0.922038  1
  Ti  Ti4  1  0.796122  0.718161  0.504094  1
  Ti  Ti5  1  0.780911  0.280911  0.500000  1
  Ti  Ti6  1  0.378359  0.123200  0.744841  1
  Ti  Ti7  1  0.378359  0.633519  0.255159  1
  Al  Al8  1  0.154987  0.342859  0.187870  1
  Al  Al9  1  0.154987  0.967116  0.812130  1
  Al  Al10  1  0.148317  0.349601  0.798716  1
  Al  Al11  1  0.550884  0.349601  0.201284  1
  Al  Al12  1  0.847638  0.649395  0.801759  1
  Al  Al13  1  0.847638  0.045879  0.198241  1
  Al  Al14  1  0.842493  0.654339  0.188154  1
  Al  Al15  1  0.466183  0.654339  0.811846  1
  Al  Al16  1  0.379131  0.121242  0.257889  1
  Al  Al17  1  0.863354  0.121242  0.742111  1
  Al  Al18  1  0.620857  0.876771  0.255914  1
  Al  Al19  1  0.620857  0.364943  0.744086  1
  Al  Al20  1  0.620995  0.877687  0.743307  1
  Al  Al21  1  0.134379  0.877687  0.256693  1
  Re  Re22  1  0.994244  0.494244  0.500000  1
  Ir  Ir23  1  0.000801  0.999004  0.501671  1
  Ir  Ir24  1  0.497334  0.999004  0.998203  1
  Ir  Ir25  1  0.497703  0.497703  0.000000  1
  Ir  Ir26  1  0.497334  0.499130  0.498329  1
  Ir  Ir27  1  0.000801  0.499130  0.001797  1
  Ir  Ir28  1  0.999566  0.999566  0.000000  1
  Ir  Ir29  1  0.498655  0.998655  0.500000  1
