# generated using pymatgen
data_Ho2Tm2ScPb4
_symmetry_space_group_name_H-M   'P 1'
_cell_length_a   8.03611100
_cell_length_b   15.40084600
_cell_length_c   8.13857100
_cell_angle_alpha   90.00000000
_cell_angle_beta   90.00000000
_cell_angle_gamma   90.00000000
_symmetry_Int_Tables_number   1
_chemical_formula_structural   Ho2Tm2ScPb4
_chemical_formula_sum   'Ho8 Tm8 Sc4 Pb16'
_cell_volume   1007.25321352
_cell_formula_units_Z   4
loop_
 _symmetry_equiv_pos_site_id
 _symmetry_equiv_pos_as_xyz
  1  'x, y, z'
loop_
 _atom_site_type_symbol
 _atom_site_label
 _atom_site_symmetry_multiplicity
 _atom_site_fract_x
 _atom_site_fract_y
 _atom_site_fract_z
 _atom_site_occupancy
  Ho  Ho0  1  0.471266  0.596283  0.677060  1
  Ho  Ho1  1  0.971266  0.903717  0.822940  1
  Ho  Ho2  1  0.528734  0.096283  0.322940  1
  Ho  Ho3  1  0.028734  0.403717  0.177060  1
  Ho  Ho4  1  0.528734  0.403717  0.322940  1
  Ho  Ho5  1  0.028734  0.096283  0.177060  1
  Ho  Ho6  1  0.471266  0.903717  0.677060  1
  Ho  Ho7  1  0.971266  0.596283  0.822940  1
  Tm  Tm8  1  0.631831  0.623449  0.155303  1
  Tm  Tm9  1  0.131831  0.876551  0.344697  1
  Tm  Tm10  1  0.368169  0.123449  0.844697  1
  Tm  Tm11  1  0.868169  0.376551  0.655303  1
  Tm  Tm12  1  0.368169  0.376551  0.844697  1
  Tm  Tm13  1  0.868169  0.123449  0.655303  1
  Tm  Tm14  1  0.631831  0.876551  0.155303  1
  Tm  Tm15  1  0.131831  0.623449  0.344697  1
  Sc  Sc16  1  0.798777  0.750000  0.494713  1
  Sc  Sc17  1  0.298777  0.750000  0.005287  1
  Sc  Sc18  1  0.201223  0.250000  0.505287  1
  Sc  Sc19  1  0.701223  0.250000  0.994713  1
  Pb  Pb20  1  0.709326  0.455699  0.960553  1
  Pb  Pb21  1  0.209326  0.044301  0.539447  1
  Pb  Pb22  1  0.290674  0.955699  0.039447  1
  Pb  Pb23  1  0.790674  0.544301  0.460553  1
  Pb  Pb24  1  0.290674  0.544301  0.039447  1
  Pb  Pb25  1  0.790674  0.955699  0.460553  1
  Pb  Pb26  1  0.709326  0.044301  0.960553  1
  Pb  Pb27  1  0.209326  0.455699  0.539447  1
  Pb  Pb28  1  0.440129  0.750000  0.373792  1
  Pb  Pb29  1  0.940129  0.750000  0.126208  1
  Pb  Pb30  1  0.559871  0.250000  0.626208  1
  Pb  Pb31  1  0.059871  0.250000  0.873792  1
  Pb  Pb32  1  0.657544  0.750000  0.840616  1
  Pb  Pb33  1  0.157544  0.750000  0.659384  1
  Pb  Pb34  1  0.342456  0.250000  0.159384  1
  Pb  Pb35  1  0.842456  0.250000  0.340616  1
