# generated using pymatgen
data_Ho2Er2OsWC4
_symmetry_space_group_name_H-M   'P 1'
_cell_length_a   5.06855100
_cell_length_b   6.57146549
_cell_length_c   9.84942230
_cell_angle_alpha   89.25116522
_cell_angle_beta   90.00000000
_cell_angle_gamma   90.00000000
_symmetry_Int_Tables_number   1
_chemical_formula_structural   Ho2Er2OsWC4
_chemical_formula_sum   'Ho4 Er4 Os2 W2 C8'
_cell_volume   328.03464810
_cell_formula_units_Z   2
loop_
 _symmetry_equiv_pos_site_id
 _symmetry_equiv_pos_as_xyz
  1  'x, y, z'
loop_
 _atom_site_type_symbol
 _atom_site_label
 _atom_site_symmetry_multiplicity
 _atom_site_fract_x
 _atom_site_fract_y
 _atom_site_fract_z
 _atom_site_occupancy
  Ho  Ho0  1  0.250000  0.538675  0.218560  1
  Ho  Ho1  1  0.750000  0.461325  0.781440  1
  Ho  Ho2  1  0.750000  0.968586  0.717263  1
  Ho  Ho3  1  0.250000  0.031414  0.282737  1
  Er  Er4  1  0.250000  0.677626  0.557891  1
  Er  Er5  1  0.750000  0.322374  0.442109  1
  Er  Er6  1  0.750000  0.823990  0.058275  1
  Er  Er7  1  0.250000  0.176010  0.941725  1
  Os  Os8  1  0.750000  0.779095  0.367104  1
  Os  Os9  1  0.250000  0.220905  0.632896  1
  W  W10  1  0.250000  0.716710  0.868261  1
  W  W11  1  0.750000  0.283290  0.131739  1
  C  C12  1  0.250000  0.450247  0.758304  1
  C  C13  1  0.750000  0.549753  0.241696  1
  C  C14  1  0.750000  0.046348  0.259995  1
  C  C15  1  0.250000  0.953652  0.740005  1
  C  C16  1  0.250000  0.826257  0.054163  1
  C  C17  1  0.750000  0.173743  0.945837  1
  C  C18  1  0.750000  0.675246  0.549785  1
  C  C19  1  0.250000  0.324754  0.450215  1
