# generated using pymatgen
data_MgZr3(NiP)4
_symmetry_space_group_name_H-M   'P 1'
_cell_length_a   3.78276100
_cell_length_b   3.78275978
_cell_length_c   14.30294500
_cell_angle_alpha   90.00000000
_cell_angle_beta   90.00000000
_cell_angle_gamma   120.00000194
_symmetry_Int_Tables_number   1
_chemical_formula_structural   MgZr3(NiP)4
_chemical_formula_sum   'Mg1 Zr3 Ni4 P4'
_cell_volume   177.24490385
_cell_formula_units_Z   1
loop_
 _symmetry_equiv_pos_site_id
 _symmetry_equiv_pos_as_xyz
  1  'x, y, z'
loop_
 _atom_site_type_symbol
 _atom_site_label
 _atom_site_symmetry_multiplicity
 _atom_site_fract_x
 _atom_site_fract_y
 _atom_site_fract_z
 _atom_site_occupancy
  Mg  Mg0  1  0.000000  0.000000  0.250000  1
  Zr  Zr1  1  0.000000  0.000000  0.494322  1
  Zr  Zr2  1  0.000000  0.000000  0.005678  1
  Zr  Zr3  1  0.000000  0.000000  0.750000  1
  Ni  Ni4  1  0.333333  0.666667  0.359639  1
  Ni  Ni5  1  0.666667  0.333333  0.625582  1
  Ni  Ni6  1  0.666667  0.333333  0.874418  1
  Ni  Ni7  1  0.333333  0.666667  0.140361  1
  P  P8  1  0.333333  0.666667  0.877770  1
  P  P9  1  0.666667  0.333333  0.117808  1
  P  P10  1  0.666667  0.333333  0.382192  1
  P  P11  1  0.333333  0.666667  0.622230  1
