# generated using pymatgen
data_Ac3Nd(MgSi2)4
_symmetry_space_group_name_H-M   'P 1'
_cell_length_a   18.88788564
_cell_length_b   4.41761768
_cell_length_c   4.39005600
_cell_angle_alpha   90.00000000
_cell_angle_beta   96.67362190
_cell_angle_gamma   96.71572043
_symmetry_Int_Tables_number   1
_chemical_formula_structural   Ac3Nd(MgSi2)4
_chemical_formula_sum   'Ac3 Nd1 Mg4 Si8'
_cell_volume   361.29128760
_cell_formula_units_Z   1
loop_
 _symmetry_equiv_pos_site_id
 _symmetry_equiv_pos_as_xyz
  1  'x, y, z'
loop_
 _atom_site_type_symbol
 _atom_site_label
 _atom_site_symmetry_multiplicity
 _atom_site_fract_x
 _atom_site_fract_y
 _atom_site_fract_z
 _atom_site_occupancy
  Ac  Ac0  1  0.595283  0.797641  0.047641  1
  Ac  Ac1  1  0.903021  0.951510  0.201510  1
  Ac  Ac2  1  0.097439  0.048719  0.798719  1
  Nd  Nd3  1  0.404379  0.202189  0.952189  1
  Mg  Mg4  1  0.749321  0.374661  0.124660  1
  Mg  Mg5  1  0.252621  0.126310  0.376310  1
  Mg  Mg6  1  0.749508  0.874753  0.624753  1
  Mg  Mg7  1  0.252544  0.626272  0.876272  1
  Si  Si8  1  0.029548  0.514774  0.264774  1
  Si  Si9  1  0.156463  0.578231  0.328231  1
  Si  Si10  1  0.345766  0.672883  0.422883  1
  Si  Si11  1  0.469845  0.734922  0.484922  1
  Si  Si12  1  0.525552  0.262776  0.512776  1
  Si  Si13  1  0.653027  0.326514  0.576514  1
  Si  Si14  1  0.844543  0.422271  0.672271  1
  Si  Si15  1  0.971142  0.485571  0.735571  1
