# generated using pymatgen
data_Ca20(Pt3Pb)3
_symmetry_space_group_name_H-M   'P 1'
_cell_length_a   7.82289100
_cell_length_b   7.82289100
_cell_length_c   14.70212800
_cell_angle_alpha   90.00000000
_cell_angle_beta   90.00000000
_cell_angle_gamma   90.00000000
_symmetry_Int_Tables_number   1
_chemical_formula_structural   Ca20(Pt3Pb)3
_chemical_formula_sum   'Ca20 Pt9 Pb3'
_cell_volume   899.73529543
_cell_formula_units_Z   1
loop_
 _symmetry_equiv_pos_site_id
 _symmetry_equiv_pos_as_xyz
  1  'x, y, z'
loop_
 _atom_site_type_symbol
 _atom_site_label
 _atom_site_symmetry_multiplicity
 _atom_site_fract_x
 _atom_site_fract_y
 _atom_site_fract_z
 _atom_site_occupancy
  Ca  Ca0  1  0.683733  0.159818  0.110376  1
  Ca  Ca1  1  0.174367  0.669404  0.621094  1
  Ca  Ca2  1  0.316267  0.840182  0.110376  1
  Ca  Ca3  1  0.825633  0.330596  0.621094  1
  Ca  Ca4  1  0.840182  0.683733  0.110376  1
  Ca  Ca5  1  0.330596  0.174367  0.621094  1
  Ca  Ca6  1  0.159818  0.316267  0.110376  1
  Ca  Ca7  1  0.669404  0.825633  0.621094  1
  Ca  Ca8  1  0.840182  0.316267  0.889624  1
  Ca  Ca9  1  0.330596  0.825633  0.378906  1
  Ca  Ca10  1  0.159818  0.683733  0.889624  1
  Ca  Ca11  1  0.669404  0.174367  0.378906  1
  Ca  Ca12  1  0.683733  0.840182  0.889624  1
  Ca  Ca13  1  0.174367  0.330596  0.378906  1
  Ca  Ca14  1  0.316267  0.159818  0.889624  1
  Ca  Ca15  1  0.825633  0.669404  0.378906  1
  Ca  Ca16  1  0.500000  0.500000  0.762141  1
  Ca  Ca17  1  0.000000  0.000000  0.250481  1
  Ca  Ca18  1  0.000000  0.000000  0.749519  1
  Ca  Ca19  1  0.500000  0.500000  0.237859  1
  Pt  Pt20  1  0.627203  0.125611  0.752821  1
  Pt  Pt21  1  0.125611  0.627203  0.247179  1
  Pt  Pt22  1  0.874389  0.372797  0.247179  1
  Pt  Pt23  1  0.372797  0.874389  0.752821  1
  Pt  Pt24  1  0.874389  0.627203  0.752821  1
  Pt  Pt25  1  0.372797  0.125611  0.247179  1
  Pt  Pt26  1  0.125611  0.372797  0.752821  1
  Pt  Pt27  1  0.627203  0.874389  0.247179  1
  Pt  Pt28  1  0.000000  0.000000  0.000000  1
  Pb  Pb29  1  0.500000  0.500000  0.500000  1
  Pb  Pb30  1  0.500000  0.500000  0.000000  1
  Pb  Pb31  1  0.000000  0.000000  0.500000  1
