# generated using pymatgen
data_Dy4Hg2PtAu3
_symmetry_space_group_name_H-M   'P 1'
_cell_length_a   7.90444387
_cell_length_b   7.90444387
_cell_length_c   3.74588900
_cell_angle_alpha   90.00000000
_cell_angle_beta   90.00000000
_cell_angle_gamma   90.56141717
_symmetry_Int_Tables_number   1
_chemical_formula_structural   Dy4Hg2PtAu3
_chemical_formula_sum   'Dy4 Hg2 Pt1 Au3'
_cell_volume   234.03278138
_cell_formula_units_Z   1
loop_
 _symmetry_equiv_pos_site_id
 _symmetry_equiv_pos_as_xyz
  1  'x, y, z'
loop_
 _atom_site_type_symbol
 _atom_site_label
 _atom_site_symmetry_multiplicity
 _atom_site_fract_x
 _atom_site_fract_y
 _atom_site_fract_z
 _atom_site_occupancy
  Dy  Dy0  1  0.342111  0.175054  0.500001  1
  Dy  Dy1  1  0.819700  0.319701  0.500001  1
  Dy  Dy2  1  0.169416  0.669416  0.500001  1
  Dy  Dy3  1  0.675054  0.842110  0.500001  1
  Hg  Hg4  1  0.997968  0.001243  0.000000  1
  Hg  Hg5  1  0.501243  0.497968  0.000000  1
  Pt  Pt6  1  0.625805  0.125806  0.000000  1
  Au  Au7  1  0.126878  0.370959  0.000000  1
  Au  Au8  1  0.870960  0.626877  0.000000  1
  Au  Au9  1  0.370863  0.870864  0.000000  1
