# generated using pymatgen
data_Y12Si8Pt5Rh7
_symmetry_space_group_name_H-M   'P 1'
_cell_length_a   5.57352770
_cell_length_b   7.61204806
_cell_length_c   14.83903329
_cell_angle_alpha   90.00625864
_cell_angle_beta   89.84723710
_cell_angle_gamma   89.93956819
_symmetry_Int_Tables_number   1
_chemical_formula_structural   Y12Si8Pt5Rh7
_chemical_formula_sum   'Y12 Si8 Pt5 Rh7'
_cell_volume   629.55765216
_cell_formula_units_Z   1
loop_
 _symmetry_equiv_pos_site_id
 _symmetry_equiv_pos_as_xyz
  1  'x, y, z'
loop_
 _atom_site_type_symbol
 _atom_site_label
 _atom_site_symmetry_multiplicity
 _atom_site_fract_x
 _atom_site_fract_y
 _atom_site_fract_z
 _atom_site_occupancy
  Y  Y0  1  0.895699  0.827169  0.749355  1
  Y  Y1  1  0.866333  0.529962  0.393388  1
  Y  Y2  1  0.366135  0.969747  0.606742  1
  Y  Y3  1  0.131164  0.469904  0.893747  1
  Y  Y4  1  0.635552  0.029900  0.106255  1
  Y  Y5  1  0.104519  0.172243  0.250035  1
  Y  Y6  1  0.132128  0.470855  0.606442  1
  Y  Y7  1  0.633487  0.029850  0.393503  1
  Y  Y8  1  0.395482  0.673889  0.250468  1
  Y  Y9  1  0.366085  0.969492  0.893448  1
  Y  Y10  1  0.602097  0.326207  0.748602  1
  Y  Y11  1  0.868294  0.532839  0.108665  1
  Si  Si12  1  0.629924  0.627188  0.896615  1
  Si  Si13  1  0.868839  0.122574  0.601584  1
  Si  Si14  1  0.134127  0.877322  0.100829  1
  Si  Si15  1  0.130865  0.877794  0.399527  1
  Si  Si16  1  0.630195  0.621762  0.601061  1
  Si  Si17  1  0.871769  0.118671  0.897627  1
  Si  Si18  1  0.366922  0.377937  0.102671  1
  Si  Si19  1  0.368499  0.378033  0.399135  1
  Pt  Pt20  1  0.599884  0.330672  0.960813  1
  Pt  Pt21  1  0.406995  0.680951  0.749828  1
  Pt  Pt22  1  0.591785  0.318231  0.250216  1
  Pt  Pt23  1  0.907712  0.818493  0.250079  1
  Pt  Pt24  1  0.091600  0.182601  0.750431  1
  Rh  Rh25  1  0.097249  0.168530  0.461869  1
  Rh  Rh26  1  0.096600  0.167980  0.038206  1
  Rh  Rh27  1  0.904579  0.830464  0.961728  1
  Rh  Rh28  1  0.901189  0.831842  0.538942  1
  Rh  Rh29  1  0.596641  0.331427  0.538543  1
  Rh  Rh30  1  0.402846  0.668479  0.461954  1
  Rh  Rh31  1  0.404806  0.666992  0.037695  1
