# generated using pymatgen
data_DyHo7Re2(B12Ir)2
_symmetry_space_group_name_H-M   'P 1'
_cell_length_a   3.66039400
_cell_length_b   9.14353191
_cell_length_c   11.52736802
_cell_angle_alpha   90.32892062
_cell_angle_beta   90.00000000
_cell_angle_gamma   90.00000000
_symmetry_Int_Tables_number   1
_chemical_formula_structural   DyHo7Re2(B12Ir)2
_chemical_formula_sum   'Dy1 Ho7 Re2 B24 Ir2'
_cell_volume   385.80230839
_cell_formula_units_Z   1
loop_
 _symmetry_equiv_pos_site_id
 _symmetry_equiv_pos_as_xyz
  1  'x, y, z'
loop_
 _atom_site_type_symbol
 _atom_site_label
 _atom_site_symmetry_multiplicity
 _atom_site_fract_x
 _atom_site_fract_y
 _atom_site_fract_z
 _atom_site_occupancy
  Dy  Dy0  1  0.000000  0.317233  0.409973  1
  Ho  Ho1  1  0.000000  0.682944  0.590090  1
  Ho  Ho2  1  0.000000  0.826466  0.082168  1
  Ho  Ho3  1  0.000000  0.173529  0.917824  1
  Ho  Ho4  1  0.000000  0.946037  0.372207  1
  Ho  Ho5  1  0.000000  0.053842  0.627822  1
  Ho  Ho6  1  0.000000  0.441835  0.125820  1
  Ho  Ho7  1  0.000000  0.558186  0.874148  1
  Re  Re8  1  0.000000  0.138330  0.179801  1
  Re  Re9  1  0.000000  0.861569  0.820109  1
  B  B10  1  0.500000  0.554281  0.433941  1
  B  B11  1  0.500000  0.445900  0.566156  1
  B  B12  1  0.500000  0.053310  0.067138  1
  B  B13  1  0.500000  0.946681  0.932850  1
  B  B14  1  0.500000  0.749406  0.421168  1
  B  B15  1  0.500000  0.250563  0.579000  1
  B  B16  1  0.500000  0.247813  0.080617  1
  B  B17  1  0.500000  0.752188  0.919361  1
  B  B18  1  0.500000  0.790882  0.266001  1
  B  B19  1  0.500000  0.209123  0.734015  1
  B  B20  1  0.500000  0.292144  0.234116  1
  B  B21  1  0.500000  0.707779  0.765744  1
  B  B22  1  0.500000  0.631790  0.183941  1
  B  B23  1  0.500000  0.368228  0.816058  1
  B  B24  1  0.500000  0.131580  0.314579  1
  B  B25  1  0.500000  0.868289  0.685326  1
  B  B26  1  0.500000  0.982969  0.212875  1
  B  B27  1  0.500000  0.017000  0.787114  1
  B  B28  1  0.500000  0.482726  0.287227  1
  B  B29  1  0.500000  0.517447  0.712708  1
  B  B30  1  0.500000  0.607230  0.029986  1
  B  B31  1  0.500000  0.392778  0.970004  1
  B  B32  1  0.500000  0.107617  0.470773  1
  B  B33  1  0.500000  0.892151  0.529286  1
  Ir  Ir34  1  0.000000  0.636900  0.322216  1
  Ir  Ir35  1  0.000000  0.363252  0.677840  1
