# generated using pymatgen
data_Nd12IrOsPt2
_symmetry_space_group_name_H-M   'P 1'
_cell_length_a   6.55968214
_cell_length_b   7.39619459
_cell_length_c   9.95129000
_cell_angle_alpha   90.00000000
_cell_angle_beta   90.00000000
_cell_angle_gamma   90.06913118
_symmetry_Int_Tables_number   1
_chemical_formula_structural   Nd12IrOsPt2
_chemical_formula_sum   'Nd12 Ir1 Os1 Pt2'
_cell_volume   482.80325633
_cell_formula_units_Z   1
loop_
 _symmetry_equiv_pos_site_id
 _symmetry_equiv_pos_as_xyz
  1  'x, y, z'
loop_
 _atom_site_type_symbol
 _atom_site_label
 _atom_site_symmetry_multiplicity
 _atom_site_fract_x
 _atom_site_fract_y
 _atom_site_fract_z
 _atom_site_occupancy
  Nd  Nd0  1  0.324472  0.680012  0.063365  1
  Nd  Nd1  1  0.167300  0.171196  0.433917  1
  Nd  Nd2  1  0.667840  0.327813  0.565757  1
  Nd  Nd3  1  0.828601  0.820774  0.939881  1
  Nd  Nd4  1  0.667840  0.327813  0.934243  1
  Nd  Nd5  1  0.828601  0.820774  0.560119  1
  Nd  Nd6  1  0.324472  0.680012  0.436635  1
  Nd  Nd7  1  0.167300  0.171196  0.066083  1
  Nd  Nd8  1  0.867821  0.538504  0.250000  1
  Nd  Nd9  1  0.642363  0.029386  0.250000  1
  Nd  Nd10  1  0.143301  0.470286  0.750000  1
  Nd  Nd11  1  0.366726  0.962272  0.750000  1
  Ir  Ir12  1  0.564801  0.617836  0.750000  1
  Os  Os13  1  0.063670  0.882417  0.250000  1
  Pt  Pt14  1  0.437163  0.384049  0.250000  1
  Pt  Pt15  1  0.937732  0.115659  0.750000  1
