# generated using pymatgen
data_Ho3Tm2Sn2Bi
_symmetry_space_group_name_H-M   'P 1'
_cell_length_a   8.95425003
_cell_length_b   8.94812773
_cell_length_c   6.42661700
_cell_angle_alpha   90.00000000
_cell_angle_beta   90.00000000
_cell_angle_gamma   119.97738226
_symmetry_Int_Tables_number   1
_chemical_formula_structural   Ho3Tm2Sn2Bi
_chemical_formula_sum   'Ho6 Tm4 Sn4 Bi2'
_cell_volume   446.03955867
_cell_formula_units_Z   2
loop_
 _symmetry_equiv_pos_site_id
 _symmetry_equiv_pos_as_xyz
  1  'x, y, z'
loop_
 _atom_site_type_symbol
 _atom_site_label
 _atom_site_symmetry_multiplicity
 _atom_site_fract_x
 _atom_site_fract_y
 _atom_site_fract_z
 _atom_site_occupancy
  Ho  Ho0  1  0.994848  0.757119  0.750000  1
  Ho  Ho1  1  0.994848  0.237729  0.250000  1
  Ho  Ho2  1  0.764810  0.764483  0.250000  1
  Ho  Ho3  1  0.764810  0.000327  0.750000  1
  Ho  Ho4  1  0.236607  0.242123  0.750000  1
  Ho  Ho5  1  0.236607  0.994483  0.250000  1
  Tm  Tm6  1  0.331139  0.665570  0.500000  1
  Tm  Tm7  1  0.673156  0.336578  0.000000  1
  Tm  Tm8  1  0.673156  0.336578  0.500000  1
  Tm  Tm9  1  0.331139  0.665570  0.000000  1
  Sn  Sn10  1  0.001002  0.604065  0.250000  1
  Sn  Sn11  1  0.001002  0.396937  0.750000  1
  Sn  Sn12  1  0.603752  0.604470  0.750000  1
  Sn  Sn13  1  0.603752  0.999282  0.250000  1
  Bi  Bi14  1  0.394687  0.001536  0.750000  1
  Bi  Bi15  1  0.394687  0.393151  0.250000  1
