# generated using pymatgen
data_Th3Ga3OsPd2
_symmetry_space_group_name_H-M   'P 1'
_cell_length_a   7.46897800
_cell_length_b   7.46897790
_cell_length_c   3.98153000
_cell_angle_alpha   90.00000000
_cell_angle_beta   90.00000000
_cell_angle_gamma   120.00000928
_symmetry_Int_Tables_number   1
_chemical_formula_structural   Th3Ga3OsPd2
_chemical_formula_sum   'Th3 Ga3 Os1 Pd2'
_cell_volume   192.35476023
_cell_formula_units_Z   1
loop_
 _symmetry_equiv_pos_site_id
 _symmetry_equiv_pos_as_xyz
  1  'x, y, z'
loop_
 _atom_site_type_symbol
 _atom_site_label
 _atom_site_symmetry_multiplicity
 _atom_site_fract_x
 _atom_site_fract_y
 _atom_site_fract_z
 _atom_site_occupancy
  Th  Th0  1  0.009192  0.420513  0.500000  1
  Th  Th1  1  0.579487  0.588680  0.500000  1
  Th  Th2  1  0.411320  0.990808  0.500000  1
  Ga  Ga3  1  0.003537  0.754703  0.000000  1
  Ga  Ga4  1  0.245297  0.248833  0.000000  1
  Ga  Ga5  1  0.751167  0.996463  0.000000  1
  Os  Os6  1  0.333333  0.666667  0.000000  1
  Pd  Pd7  1  0.666667  0.333333  0.000000  1
  Pd  Pd8  1  0.000000  0.000000  0.500000  1
