# generated using pymatgen
data_La6Dy4Ho5Er(CdIr)4
_symmetry_space_group_name_H-M   'P 1'
_cell_length_a   9.81524257
_cell_length_b   9.80314967
_cell_length_c   9.80314934
_cell_angle_alpha   59.92774374
_cell_angle_beta   59.95917917
_cell_angle_gamma   59.95918310
_symmetry_Int_Tables_number   1
_chemical_formula_structural   La6Dy4Ho5Er(CdIr)4
_chemical_formula_sum   'La6 Dy4 Ho5 Er1 Cd4 Ir4'
_cell_volume   666.21075446
_cell_formula_units_Z   1
loop_
 _symmetry_equiv_pos_site_id
 _symmetry_equiv_pos_as_xyz
  1  'x, y, z'
loop_
 _atom_site_type_symbol
 _atom_site_label
 _atom_site_symmetry_multiplicity
 _atom_site_fract_x
 _atom_site_fract_y
 _atom_site_fract_z
 _atom_site_occupancy
  La  La0  1  0.192705  0.807295  0.807295  1
  La  La1  1  0.806016  0.193984  0.193984  1
  La  La2  1  0.807408  0.193235  0.805869  1
  La  La3  1  0.193488  0.805869  0.193235  1
  La  La4  1  0.807408  0.805869  0.193235  1
  La  La5  1  0.193488  0.193235  0.805869  1
  Dy  Dy6  1  0.596446  0.597289  0.597289  1
  Dy  Dy7  1  0.596472  0.597743  0.209314  1
  Dy  Dy8  1  0.596472  0.209314  0.597743  1
  Dy  Dy9  1  0.208976  0.597289  0.597289  1
  Ho  Ho10  1  0.436577  0.063423  0.063423  1
  Ho  Ho11  1  0.437084  0.063366  0.435483  1
  Ho  Ho12  1  0.064067  0.435483  0.063366  1
  Ho  Ho13  1  0.437084  0.435483  0.063366  1
  Ho  Ho14  1  0.064067  0.063366  0.435483  1
  Er  Er15  1  0.063777  0.436223  0.436223  1
  Cd  Cd16  1  0.828455  0.828608  0.828608  1
  Cd  Cd17  1  0.828965  0.828575  0.513494  1
  Cd  Cd18  1  0.828965  0.513494  0.828575  1
  Cd  Cd19  1  0.514329  0.828608  0.828608  1
  Ir  Ir20  1  0.389673  0.391493  0.391493  1
  Ir  Ir21  1  0.390369  0.391782  0.827479  1
  Ir  Ir22  1  0.390369  0.827479  0.391782  1
  Ir  Ir23  1  0.827340  0.391493  0.391493  1
