# generated using pymatgen
data_La20(Ir3Ru)3
_symmetry_space_group_name_H-M   'P 1'
_cell_length_a   11.41803100
_cell_length_b   11.41803100
_cell_length_c   6.67777100
_cell_angle_alpha   90.00000000
_cell_angle_beta   90.00000000
_cell_angle_gamma   90.00000000
_symmetry_Int_Tables_number   1
_chemical_formula_structural   La20(Ir3Ru)3
_chemical_formula_sum   'La20 Ir9 Ru3'
_cell_volume   870.59056728
_cell_formula_units_Z   1
loop_
 _symmetry_equiv_pos_site_id
 _symmetry_equiv_pos_as_xyz
  1  'x, y, z'
loop_
 _atom_site_type_symbol
 _atom_site_label
 _atom_site_symmetry_multiplicity
 _atom_site_fract_x
 _atom_site_fract_y
 _atom_site_fract_z
 _atom_site_occupancy
  La  La0  1  0.293912  0.089914  0.385477  1
  La  La1  1  0.293886  0.910239  0.885746  1
  La  La2  1  0.706114  0.089761  0.885746  1
  La  La3  1  0.706088  0.910086  0.385477  1
  La  La4  1  0.589761  0.793886  0.885746  1
  La  La5  1  0.589914  0.206088  0.385477  1
  La  La6  1  0.410086  0.793912  0.385477  1
  La  La7  1  0.410239  0.206114  0.885746  1
  La  La8  1  0.207596  0.409269  0.615797  1
  La  La9  1  0.207379  0.590674  0.113412  1
  La  La10  1  0.792621  0.409326  0.113412  1
  La  La11  1  0.792404  0.590731  0.615797  1
  La  La12  1  0.909326  0.707379  0.113412  1
  La  La13  1  0.909269  0.292404  0.615797  1
  La  La14  1  0.090731  0.707596  0.615797  1
  La  La15  1  0.090674  0.292621  0.113412  1
  La  La16  1  0.000000  0.000000  0.499360  1
  La  La17  1  0.000000  0.000000  0.999766  1
  La  La18  1  0.500000  0.500000  0.999766  1
  La  La19  1  0.500000  0.500000  0.499360  1
  Ir  Ir20  1  0.846966  0.153690  0.250334  1
  Ir  Ir21  1  0.846892  0.846331  0.749961  1
  Ir  Ir22  1  0.153108  0.153669  0.749961  1
  Ir  Ir23  1  0.153034  0.846310  0.250334  1
  Ir  Ir24  1  0.653669  0.346892  0.749961  1
  Ir  Ir25  1  0.653690  0.653034  0.250334  1
  Ir  Ir26  1  0.346310  0.346966  0.250334  1
  Ir  Ir27  1  0.346331  0.653108  0.749961  1
  Ir  Ir28  1  0.000000  0.500000  0.384155  1
  Ru  Ru29  1  0.500000  0.000000  0.114383  1
  Ru  Ru30  1  0.500000  0.000000  0.614126  1
  Ru  Ru31  1  0.000000  0.500000  0.886175  1
