# generated using pymatgen
data_Y6Ho14Cd6IrRu
_symmetry_space_group_name_H-M   'P 1'
_cell_length_a   9.60643100
_cell_length_b   9.60643050
_cell_length_c   9.82927600
_cell_angle_alpha   90.00000000
_cell_angle_beta   90.00000000
_cell_angle_gamma   119.99999827
_symmetry_Int_Tables_number   1
_chemical_formula_structural   Y6Ho14Cd6IrRu
_chemical_formula_sum   'Y6 Ho14 Cd6 Ir1 Ru1'
_cell_volume   785.55443009
_cell_formula_units_Z   1
loop_
 _symmetry_equiv_pos_site_id
 _symmetry_equiv_pos_as_xyz
  1  'x, y, z'
loop_
 _atom_site_type_symbol
 _atom_site_label
 _atom_site_symmetry_multiplicity
 _atom_site_fract_x
 _atom_site_fract_y
 _atom_site_fract_z
 _atom_site_occupancy
  Y  Y0  1  0.541186  0.458814  0.250000  1
  Y  Y1  1  0.541186  0.082371  0.250000  1
  Y  Y2  1  0.917629  0.458814  0.250000  1
  Y  Y3  1  0.458857  0.541143  0.750000  1
  Y  Y4  1  0.458857  0.917714  0.750000  1
  Y  Y5  1  0.082286  0.541143  0.750000  1
  Ho  Ho6  1  0.000000  0.000000  0.499850  1
  Ho  Ho7  1  0.000000  0.000000  0.000150  1
  Ho  Ho8  1  0.209692  0.790308  0.440119  1
  Ho  Ho9  1  0.209692  0.419384  0.440119  1
  Ho  Ho10  1  0.580616  0.790308  0.440119  1
  Ho  Ho11  1  0.790169  0.209831  0.560206  1
  Ho  Ho12  1  0.790169  0.580338  0.560206  1
  Ho  Ho13  1  0.419662  0.209831  0.560206  1
  Ho  Ho14  1  0.790169  0.209831  0.939794  1
  Ho  Ho15  1  0.790169  0.580338  0.939794  1
  Ho  Ho16  1  0.419662  0.209831  0.939794  1
  Ho  Ho17  1  0.209692  0.790308  0.059881  1
  Ho  Ho18  1  0.209692  0.419384  0.059881  1
  Ho  Ho19  1  0.580616  0.790308  0.059881  1
  Cd  Cd20  1  0.885550  0.114450  0.250000  1
  Cd  Cd21  1  0.885550  0.771101  0.250000  1
  Cd  Cd22  1  0.228899  0.114450  0.250000  1
  Cd  Cd23  1  0.114499  0.885501  0.750000  1
  Cd  Cd24  1  0.114499  0.228996  0.750000  1
  Cd  Cd25  1  0.771004  0.885501  0.750000  1
  Ir  Ir26  1  0.333333  0.666667  0.250000  1
  Ru  Ru27  1  0.666667  0.333333  0.750000  1
