# generated using pymatgen
data_Rh3(OF3)2
_symmetry_space_group_name_H-M   'P 1'
_cell_length_a   4.68661000
_cell_length_b   5.56341634
_cell_length_c   10.44999113
_cell_angle_alpha   83.97860646
_cell_angle_beta   90.00000000
_cell_angle_gamma   90.00000000
_symmetry_Int_Tables_number   1
_chemical_formula_structural   Rh3(OF3)2
_chemical_formula_sum   'Rh6 O4 F12'
_cell_volume   270.96523405
_cell_formula_units_Z   2
loop_
 _symmetry_equiv_pos_site_id
 _symmetry_equiv_pos_as_xyz
  1  'x, y, z'
loop_
 _atom_site_type_symbol
 _atom_site_label
 _atom_site_symmetry_multiplicity
 _atom_site_fract_x
 _atom_site_fract_y
 _atom_site_fract_z
 _atom_site_occupancy
  Rh  Rh0  1  0.500000  0.500000  0.000000  1
  Rh  Rh1  1  0.986070  0.264530  0.244375  1
  Rh  Rh2  1  0.486070  0.735470  0.255625  1
  Rh  Rh3  1  0.000000  0.500000  0.500000  1
  Rh  Rh4  1  0.513930  0.264530  0.744375  1
  Rh  Rh5  1  0.013930  0.735470  0.755625  1
  O  O6  1  0.683313  0.478566  0.174326  1
  O  O7  1  0.183313  0.521434  0.325674  1
  O  O8  1  0.816687  0.478566  0.674326  1
  O  O9  1  0.316687  0.521434  0.825674  1
  F  F10  1  0.185080  0.280865  0.072085  1
  F  F11  1  0.301518  0.770060  0.079635  1
  F  F12  1  0.785854  0.976057  0.177098  1
  F  F13  1  0.285854  0.023943  0.322902  1
  F  F14  1  0.801518  0.229940  0.420365  1
  F  F15  1  0.685080  0.719135  0.427915  1
  F  F16  1  0.314920  0.280865  0.572085  1
  F  F17  1  0.198482  0.770060  0.579635  1
  F  F18  1  0.714146  0.976057  0.677098  1
  F  F19  1  0.214146  0.023943  0.822902  1
  F  F20  1  0.698482  0.229940  0.920365  1
  F  F21  1  0.814920  0.719135  0.927915  1
