# generated using pymatgen
data_DyZr7(Si4W3)4
_symmetry_space_group_name_H-M   'P 1'
_cell_length_a   6.63686650
_cell_length_b   6.79109903
_cell_length_c   12.72905875
_cell_angle_alpha   89.91815026
_cell_angle_beta   90.02322592
_cell_angle_gamma   90.00544877
_symmetry_Int_Tables_number   1
_chemical_formula_structural   DyZr7(Si4W3)4
_chemical_formula_sum   'Dy1 Zr7 Si16 W12'
_cell_volume   573.71863415
_cell_formula_units_Z   1
loop_
 _symmetry_equiv_pos_site_id
 _symmetry_equiv_pos_as_xyz
  1  'x, y, z'
loop_
 _atom_site_type_symbol
 _atom_site_label
 _atom_site_symmetry_multiplicity
 _atom_site_fract_x
 _atom_site_fract_y
 _atom_site_fract_z
 _atom_site_occupancy
  Dy  Dy0  1  0.996701  0.831340  0.591025  1
  Zr  Zr1  1  0.496403  0.670667  0.591768  1
  Zr  Zr2  1  0.995110  0.827795  0.907898  1
  Zr  Zr3  1  0.505738  0.327476  0.092410  1
  Zr  Zr4  1  0.005898  0.174069  0.404984  1
  Zr  Zr5  1  0.506424  0.328980  0.406554  1
  Zr  Zr6  1  0.005650  0.171532  0.092823  1
  Zr  Zr7  1  0.494148  0.671553  0.909564  1
  Si  Si8  1  0.666087  0.959810  0.455454  1
  Si  Si9  1  0.166993  0.541579  0.043496  1
  Si  Si10  1  0.332085  0.041775  0.957981  1
  Si  Si11  1  0.832231  0.455801  0.542281  1
  Si  Si12  1  0.337058  0.043772  0.541998  1
  Si  Si13  1  0.832701  0.458441  0.957926  1
  Si  Si14  1  0.667251  0.958254  0.043037  1
  Si  Si15  1  0.167806  0.539189  0.455211  1
  Si  Si16  1  0.465334  0.379620  0.750720  1
  Si  Si17  1  0.964771  0.123451  0.751564  1
  Si  Si18  1  0.533465  0.619390  0.249002  1
  Si  Si19  1  0.034045  0.878602  0.250563  1
  Si  Si20  1  0.696664  0.858168  0.751222  1
  Si  Si21  1  0.201147  0.640132  0.751442  1
  Si  Si22  1  0.301113  0.139930  0.249407  1
  Si  Si23  1  0.799634  0.359481  0.249162  1
  W  W24  1  0.664646  0.164952  0.625257  1
  W  W25  1  0.168267  0.337660  0.876724  1
  W  W26  1  0.331780  0.836302  0.124205  1
  W  W27  1  0.830217  0.662021  0.374354  1
  W  W28  1  0.334808  0.835623  0.375064  1
  W  W29  1  0.832199  0.663836  0.124277  1
  W  W30  1  0.665646  0.164239  0.876733  1
  W  W31  1  0.167251  0.336841  0.624589  1
  W  W32  1  0.833932  0.505110  0.751517  1
  W  W33  1  0.333959  0.994272  0.751482  1
  W  W34  1  0.166197  0.490403  0.249669  1
  W  W35  1  0.666642  0.007933  0.248636  1
