# generated using pymatgen
data_TbDy4Pb3
_symmetry_space_group_name_H-M   'P 1'
_cell_length_a   9.07635509
_cell_length_b   9.07853207
_cell_length_c   6.65392800
_cell_angle_alpha   90.00000000
_cell_angle_beta   90.00000000
_cell_angle_gamma   120.00792113
_symmetry_Int_Tables_number   1
_chemical_formula_structural   TbDy4Pb3
_chemical_formula_sum   'Tb2 Dy8 Pb6'
_cell_volume   474.78956870
_cell_formula_units_Z   2
loop_
 _symmetry_equiv_pos_site_id
 _symmetry_equiv_pos_as_xyz
  1  'x, y, z'
loop_
 _atom_site_type_symbol
 _atom_site_label
 _atom_site_symmetry_multiplicity
 _atom_site_fract_x
 _atom_site_fract_y
 _atom_site_fract_z
 _atom_site_occupancy
  Tb  Tb0  1  0.237605  0.237661  0.750000  1
  Tb  Tb1  1  0.237605  0.999944  0.250000  1
  Dy  Dy2  1  0.333382  0.666692  0.000000  1
  Dy  Dy3  1  0.666707  0.333353  0.000000  1
  Dy  Dy4  1  0.999970  0.762331  0.750000  1
  Dy  Dy5  1  0.762331  0.762362  0.250000  1
  Dy  Dy6  1  0.999970  0.237640  0.250000  1
  Dy  Dy7  1  0.762331  0.999969  0.750000  1
  Dy  Dy8  1  0.333382  0.666692  0.500000  1
  Dy  Dy9  1  0.666707  0.333353  0.500000  1
  Pb  Pb10  1  0.999868  0.394601  0.750000  1
  Pb  Pb11  1  0.394610  0.394742  0.250000  1
  Pb  Pb12  1  0.605526  0.999976  0.250000  1
  Pb  Pb13  1  0.605526  0.605550  0.750000  1
  Pb  Pb14  1  0.394610  0.999868  0.750000  1
  Pb  Pb15  1  0.999868  0.605268  0.250000  1
