# generated using pymatgen
data_CaPt2PbO7
_symmetry_space_group_name_H-M   'P 1'
_cell_length_a   7.33359866
_cell_length_b   7.27777117
_cell_length_c   7.27777133
_cell_angle_alpha   59.09262724
_cell_angle_beta   59.74591855
_cell_angle_gamma   59.74591838
_symmetry_Int_Tables_number   1
_chemical_formula_structural   CaPt2PbO7
_chemical_formula_sum   'Ca2 Pt4 Pb2 O14'
_cell_volume   271.69154219
_cell_formula_units_Z   2
loop_
 _symmetry_equiv_pos_site_id
 _symmetry_equiv_pos_as_xyz
  1  'x, y, z'
loop_
 _atom_site_type_symbol
 _atom_site_label
 _atom_site_symmetry_multiplicity
 _atom_site_fract_x
 _atom_site_fract_y
 _atom_site_fract_z
 _atom_site_occupancy
  Ca  Ca0  1  0.625000  0.125000  0.625000  1
  Ca  Ca1  1  0.625000  0.625000  0.125000  1
  Pt  Pt2  1  0.625000  0.125000  0.125000  1
  Pt  Pt3  1  0.125000  0.625000  0.125000  1
  Pt  Pt4  1  0.125000  0.125000  0.625000  1
  Pt  Pt5  1  0.125000  0.125000  0.125000  1
  Pb  Pb6  1  0.125000  0.625000  0.625000  1
  Pb  Pb7  1  0.625000  0.625000  0.625000  1
  O  O8  1  0.207849  0.215612  0.786574  1
  O  O9  1  0.207849  0.786574  0.215612  1
  O  O10  1  0.462912  0.037088  0.037088  1
  O  O11  1  0.209029  0.790971  0.790971  1
  O  O12  1  0.040971  0.459029  0.459029  1
  O  O13  1  0.789965  0.786574  0.215612  1
  O  O14  1  0.460035  0.463426  0.034388  1
  O  O15  1  0.488536  0.511464  0.511464  1
  O  O16  1  0.042151  0.034388  0.463426  1
  O  O17  1  0.460035  0.034388  0.463426  1
  O  O18  1  0.042151  0.463426  0.034388  1
  O  O19  1  0.761464  0.738536  0.738536  1
  O  O20  1  0.789965  0.215612  0.786574  1
  O  O21  1  0.787088  0.212912  0.212912  1
