# generated using pymatgen
data_LiTb2Th2Pd11
_symmetry_space_group_name_H-M   'P 1'
_cell_length_a   5.93896300
_cell_length_b   5.89631455
_cell_length_c   9.67467400
_cell_angle_alpha   90.00000000
_cell_angle_beta   90.00000000
_cell_angle_gamma   120.23954099
_symmetry_Int_Tables_number   1
_chemical_formula_structural   LiTb2Th2Pd11
_chemical_formula_sum   'Li1 Tb2 Th2 Pd11'
_cell_volume   292.68797303
_cell_formula_units_Z   1
loop_
 _symmetry_equiv_pos_site_id
 _symmetry_equiv_pos_as_xyz
  1  'x, y, z'
loop_
 _atom_site_type_symbol
 _atom_site_label
 _atom_site_symmetry_multiplicity
 _atom_site_fract_x
 _atom_site_fract_y
 _atom_site_fract_z
 _atom_site_occupancy
  Li  Li0  1  0.795115  0.590230  0.250000  1
  Tb  Tb1  1  0.332558  0.665117  0.250000  1
  Tb  Tb2  1  0.668532  0.337064  0.750000  1
  Th  Th3  1  0.004035  0.008070  0.504534  1
  Th  Th4  1  0.004035  0.008070  0.995466  1
  Pd  Pd5  1  0.505806  0.506999  0.496840  1
  Pd  Pd6  1  0.502110  0.004220  0.497026  1
  Pd  Pd7  1  0.001193  0.506999  0.496840  1
  Pd  Pd8  1  0.505806  0.506999  0.003160  1
  Pd  Pd9  1  0.502110  0.004220  0.002974  1
  Pd  Pd10  1  0.001193  0.506999  0.003160  1
  Pd  Pd11  1  0.344817  0.171894  0.250000  1
  Pd  Pd12  1  0.827076  0.171894  0.250000  1
  Pd  Pd13  1  0.176242  0.352484  0.750000  1
  Pd  Pd14  1  0.651917  0.829370  0.750000  1
  Pd  Pd15  1  0.177454  0.829370  0.750000  1
