# generated using pymatgen
data_K5Rb5Ba2(TaAs4)2
_symmetry_space_group_name_H-M   'P 1'
_cell_length_a   10.76785729
_cell_length_b   10.76645497
_cell_length_c   8.17618546
_cell_angle_alpha   88.91319852
_cell_angle_beta   89.51289741
_cell_angle_gamma   120.88976627
_symmetry_Int_Tables_number   1
_chemical_formula_structural   K5Rb5Ba2(TaAs4)2
_chemical_formula_sum   'K5 Rb5 Ba2 Ta2 As8'
_cell_volume   813.09825505
_cell_formula_units_Z   1
loop_
 _symmetry_equiv_pos_site_id
 _symmetry_equiv_pos_as_xyz
  1  'x, y, z'
loop_
 _atom_site_type_symbol
 _atom_site_label
 _atom_site_symmetry_multiplicity
 _atom_site_fract_x
 _atom_site_fract_y
 _atom_site_fract_z
 _atom_site_occupancy
  K  K0  1  0.466350  0.526937  0.501566  1
  K  K1  1  0.058329  0.526644  0.501008  1
  K  K2  1  0.526568  0.465962  0.002410  1
  K  K3  1  0.528853  0.057985  0.001504  1
  K  K4  1  0.858510  0.147084  0.677042  1
  Rb  Rb5  1  0.291441  0.152108  0.712594  1
  Rb  Rb6  1  0.856158  0.719156  0.665280  1
  Rb  Rb7  1  0.140977  0.865069  0.179185  1
  Rb  Rb8  1  0.719125  0.856532  0.165849  1
  Rb  Rb9  1  0.152100  0.291561  0.213939  1
  Ba  Ba10  1  0.465031  0.934834  0.492296  1
  Ba  Ba11  1  0.935902  0.463417  0.994889  1
  Ta  Ta12  1  0.669225  0.332434  0.393501  1
  Ta  Ta13  1  0.333256  0.667407  0.889541  1
  As  As14  1  0.680242  0.333925  0.700612  1
  As  As15  1  0.334648  0.678808  0.196824  1
  As  As16  1  0.791939  0.200977  0.290593  1
  As  As17  1  0.409913  0.197674  0.309284  1
  As  As18  1  0.797589  0.584753  0.275005  1
  As  As19  1  0.202537  0.790693  0.785173  1
  As  As20  1  0.587570  0.799950  0.773438  1
  As  As21  1  0.193734  0.406088  0.807044  1
