# generated using pymatgen
data_Dy5Zr2P12Ru8Rh9
_symmetry_space_group_name_H-M   'P 1'
_cell_length_a   12.80381887
_cell_length_b   12.72252860
_cell_length_c   3.94146300
_cell_angle_alpha   90.00000000
_cell_angle_beta   90.00000000
_cell_angle_gamma   119.74363708
_symmetry_Int_Tables_number   1
_chemical_formula_structural   Dy5Zr2P12Ru8Rh9
_chemical_formula_sum   'Dy5 Zr2 P12 Ru8 Rh9'
_cell_volume   557.46443079
_cell_formula_units_Z   1
loop_
 _symmetry_equiv_pos_site_id
 _symmetry_equiv_pos_as_xyz
  1  'x, y, z'
loop_
 _atom_site_type_symbol
 _atom_site_label
 _atom_site_symmetry_multiplicity
 _atom_site_fract_x
 _atom_site_fract_y
 _atom_site_fract_z
 _atom_site_occupancy
  Dy  Dy0  1  0.667299  0.332527  0.000000  1
  Dy  Dy1  1  0.333793  0.667002  0.000000  1
  Dy  Dy2  1  0.814267  0.003369  0.500000  1
  Dy  Dy3  1  0.182947  0.188403  0.500000  1
  Dy  Dy4  1  0.000774  0.811130  0.500000  1
  Zr  Zr5  1  0.440540  0.999251  0.000000  1
  Zr  Zr6  1  0.560194  0.557013  0.000000  1
  P  P7  1  0.645548  0.003000  0.000000  1
  P  P8  1  0.351237  0.362728  0.000000  1
  P  P9  1  0.006171  0.631171  0.000000  1
  P  P10  1  0.692337  0.518784  0.500000  1
  P  P11  1  0.831627  0.307991  0.500000  1
  P  P12  1  0.312187  0.827712  0.500000  1
  P  P13  1  0.518935  0.687598  0.500000  1
  P  P14  1  0.178281  0.999243  0.000000  1
  P  P15  1  0.822318  0.819180  0.000000  1
  P  P16  1  0.996214  0.181318  0.000000  1
  P  P17  1  0.477000  0.168889  0.500000  1
  P  P18  1  0.165554  0.481754  0.500000  1
  Ru  Ru19  1  0.125417  0.638208  0.500000  1
  Ru  Ru20  1  0.354801  0.482861  0.500000  1
  Ru  Ru21  1  0.517275  0.873430  0.500000  1
  Ru  Ru22  1  0.727329  0.721173  0.500000  1
  Ru  Ru23  1  0.000558  0.285997  0.500000  1
  Ru  Ru24  1  0.999879  0.448500  0.000000  1
  Ru  Ru25  1  0.821308  0.197901  0.000000  1
  Ru  Ru26  1  0.275417  0.999329  0.500000  1
  Rh  Rh27  1  0.629615  0.807456  0.000000  1
  Rh  Rh28  1  0.175129  0.375612  0.000000  1
  Rh  Rh29  1  0.367964  0.183732  0.000000  1
  Rh  Rh30  1  0.190620  0.816654  0.000000  1
  Rh  Rh31  1  0.814177  0.624168  0.000000  1
  Rh  Rh32  1  0.872689  0.506548  0.500000  1
  Rh  Rh33  1  0.491301  0.359469  0.500000  1
  Rh  Rh34  1  0.640092  0.130725  0.500000  1
  Rh  Rh35  1  0.999207  0.000171  0.000000  1
