# generated using pymatgen
data_LiGaPd4
_symmetry_space_group_name_H-M   'P 1'
_cell_length_a   5.38815800
_cell_length_b   4.17089900
_cell_length_c   7.78938100
_cell_angle_alpha   90.00000000
_cell_angle_beta   90.00000000
_cell_angle_gamma   90.00000000
_symmetry_Int_Tables_number   1
_chemical_formula_structural   LiGaPd4
_chemical_formula_sum   'Li2 Ga2 Pd8'
_cell_volume   175.05436425
_cell_formula_units_Z   2
loop_
 _symmetry_equiv_pos_site_id
 _symmetry_equiv_pos_as_xyz
  1  'x, y, z'
loop_
 _atom_site_type_symbol
 _atom_site_label
 _atom_site_symmetry_multiplicity
 _atom_site_fract_x
 _atom_site_fract_y
 _atom_site_fract_z
 _atom_site_occupancy
  Li  Li0  1  0.687545  0.749999  0.899110  1
  Li  Li1  1  0.812453  0.250000  0.399110  1
  Ga  Ga2  1  0.180594  0.749999  0.600162  1
  Ga  Ga3  1  0.319406  0.250000  0.100162  1
  Pd  Pd4  1  0.541991  0.749999  0.222174  1
  Pd  Pd5  1  0.958008  0.250000  0.722174  1
  Pd  Pd6  1  0.038787  0.749999  0.278190  1
  Pd  Pd7  1  0.461212  0.250000  0.778190  1
  Pd  Pd8  1  0.667532  0.749999  0.568529  1
  Pd  Pd9  1  0.832470  0.250000  0.068529  1
  Pd  Pd10  1  0.173560  0.749999  0.931832  1
  Pd  Pd11  1  0.326440  0.250000  0.431832  1
