# generated using pymatgen
data_HfSc9N9
_symmetry_space_group_name_H-M   'P 1'
_cell_length_a   5.54354588
_cell_length_b   6.40558928
_cell_length_c   7.14741995
_cell_angle_alpha   77.01226365
_cell_angle_beta   74.90189477
_cell_angle_gamma   73.09003441
_symmetry_Int_Tables_number   1
_chemical_formula_structural   HfSc9N9
_chemical_formula_sum   'Hf1 Sc9 N9'
_cell_volume   231.37759788
_cell_formula_units_Z   1
loop_
 _symmetry_equiv_pos_site_id
 _symmetry_equiv_pos_as_xyz
  1  'x, y, z'
loop_
 _atom_site_type_symbol
 _atom_site_label
 _atom_site_symmetry_multiplicity
 _atom_site_fract_x
 _atom_site_fract_y
 _atom_site_fract_z
 _atom_site_occupancy
  Hf  Hf0  1  0.500000  0.500000  0.000000  1
  Sc  Sc1  1  0.500000  0.000000  0.000000  1
  Sc  Sc2  1  0.897496  0.605883  0.189956  1
  Sc  Sc3  1  0.096942  0.903324  0.796973  1
  Sc  Sc4  1  0.903058  0.096676  0.203027  1
  Sc  Sc5  1  0.102504  0.394117  0.810044  1
  Sc  Sc6  1  0.312921  0.706342  0.398201  1
  Sc  Sc7  1  0.307870  0.190069  0.396332  1
  Sc  Sc8  1  0.687079  0.293658  0.601799  1
  Sc  Sc9  1  0.692130  0.809931  0.603668  1
  N  N10  1  0.797689  0.696560  0.901387  1
  N  N11  1  0.797523  0.205554  0.899257  1
  N  N12  1  0.202477  0.794446  0.100743  1
  N  N13  1  0.000000  0.000000  0.500000  1
  N  N14  1  0.401326  0.100739  0.698395  1
  N  N15  1  0.202311  0.303440  0.098613  1
  N  N16  1  0.596876  0.402266  0.297826  1
  N  N17  1  0.403124  0.597734  0.702174  1
  N  N18  1  0.598674  0.899261  0.301605  1
