# generated using pymatgen
data_TbSc3(Si3Ni5)4
_symmetry_space_group_name_H-M   'P 1'
_cell_length_a   18.50725566
_cell_length_b   3.73411700
_cell_length_c   6.60227032
_cell_angle_alpha   90.00000000
_cell_angle_beta   89.96328522
_cell_angle_gamma   90.00000000
_symmetry_Int_Tables_number   1
_chemical_formula_structural   TbSc3(Si3Ni5)4
_chemical_formula_sum   'Tb1 Sc3 Si12 Ni20'
_cell_volume   456.27130676
_cell_formula_units_Z   1
loop_
 _symmetry_equiv_pos_site_id
 _symmetry_equiv_pos_as_xyz
  1  'x, y, z'
loop_
 _atom_site_type_symbol
 _atom_site_label
 _atom_site_symmetry_multiplicity
 _atom_site_fract_x
 _atom_site_fract_y
 _atom_site_fract_z
 _atom_site_occupancy
  Tb  Tb0  1  0.857193  0.750000  0.124321  1
  Sc  Sc1  1  0.643185  0.250000  0.622515  1
  Sc  Sc2  1  0.145164  0.250000  0.878826  1
  Sc  Sc3  1  0.356058  0.750000  0.376734  1
  Si  Si4  1  0.915891  0.250000  0.421628  1
  Si  Si5  1  0.413698  0.250000  0.091930  1
  Si  Si6  1  0.089904  0.750000  0.591296  1
  Si  Si7  1  0.584479  0.750000  0.906403  1
  Si  Si8  1  0.736590  0.250000  0.123227  1
  Si  Si9  1  0.241181  0.250000  0.375919  1
  Si  Si10  1  0.259862  0.750000  0.877313  1
  Si  Si11  1  0.757969  0.750000  0.623371  1
  Si  Si12  1  0.925300  0.250000  0.841096  1
  Si  Si13  1  0.422416  0.250000  0.648629  1
  Si  Si14  1  0.076684  0.750000  0.148496  1
  Si  Si15  1  0.575457  0.750000  0.352392  1
  Ni  Ni16  1  0.798338  0.250000  0.815252  1
  Ni  Ni17  1  0.300069  0.250000  0.682693  1
  Ni  Ni18  1  0.200341  0.750000  0.181554  1
  Ni  Ni19  1  0.697927  0.750000  0.318876  1
  Ni  Ni20  1  0.995541  0.250000  0.131877  1
  Ni  Ni21  1  0.493957  0.250000  0.369619  1
  Ni  Ni22  1  0.006699  0.750000  0.865065  1
  Ni  Ni23  1  0.503794  0.750000  0.630631  1
  Ni  Ni24  1  0.512875  0.250000  0.879372  1
  Ni  Ni25  1  0.018978  0.250000  0.620662  1
  Ni  Ni26  1  0.485682  0.750000  0.119329  1
  Ni  Ni27  1  0.988956  0.750000  0.388136  1
  Ni  Ni28  1  0.613061  0.250000  0.143741  1
  Ni  Ni29  1  0.117032  0.250000  0.352841  1
  Ni  Ni30  1  0.383981  0.750000  0.857633  1
  Ni  Ni31  1  0.882787  0.750000  0.640347  1
  Ni  Ni32  1  0.792593  0.250000  0.432803  1
  Ni  Ni33  1  0.293923  0.250000  0.068085  1
  Ni  Ni34  1  0.208643  0.750000  0.567216  1
  Ni  Ni35  1  0.703792  0.750000  0.930170  1
