# generated using pymatgen
data_Pr6Nd6Os3Pd
_symmetry_space_group_name_H-M   'P 1'
_cell_length_a   6.57862369
_cell_length_b   7.51646397
_cell_length_c   9.79412514
_cell_angle_alpha   90.00676073
_cell_angle_beta   90.12793984
_cell_angle_gamma   90.40571832
_symmetry_Int_Tables_number   1
_chemical_formula_structural   Pr6Nd6Os3Pd
_chemical_formula_sum   'Pr6 Nd6 Os3 Pd1'
_cell_volume   484.28642849
_cell_formula_units_Z   1
loop_
 _symmetry_equiv_pos_site_id
 _symmetry_equiv_pos_as_xyz
  1  'x, y, z'
loop_
 _atom_site_type_symbol
 _atom_site_label
 _atom_site_symmetry_multiplicity
 _atom_site_fract_x
 _atom_site_fract_y
 _atom_site_fract_z
 _atom_site_occupancy
  Pr  Pr0  1  0.338442  0.670351  0.062255  1
  Pr  Pr1  1  0.168187  0.184007  0.438465  1
  Pr  Pr2  1  0.854661  0.529786  0.250057  1
  Pr  Pr3  1  0.632583  0.044274  0.249884  1
  Pr  Pr4  1  0.138654  0.464123  0.750018  1
  Pr  Pr5  1  0.356304  0.961307  0.749979  1
  Nd  Nd6  1  0.672555  0.322602  0.567731  1
  Nd  Nd7  1  0.826335  0.825188  0.929089  1
  Nd  Nd8  1  0.672768  0.322339  0.932347  1
  Nd  Nd9  1  0.826211  0.824877  0.570734  1
  Nd  Nd10  1  0.338882  0.669905  0.437688  1
  Nd  Nd11  1  0.168251  0.183735  0.061743  1
  Os  Os12  1  0.440783  0.383656  0.250088  1
  Os  Os13  1  0.945984  0.114323  0.750577  1
  Os  Os14  1  0.554978  0.614860  0.749450  1
  Pd  Pd15  1  0.064421  0.884667  0.249894  1
