# generated using pymatgen
data_Sm6Cd21Ag2As
_symmetry_space_group_name_H-M   'P 1'
_cell_length_a   9.96609982
_cell_length_b   9.98159270
_cell_length_c   9.96610607
_cell_angle_alpha   59.94846949
_cell_angle_beta   60.10284704
_cell_angle_gamma   59.94857280
_symmetry_Int_Tables_number   1
_chemical_formula_structural   Sm6Cd21Ag2As
_chemical_formula_sum   'Sm6 Cd21 Ag2 As1'
_cell_volume   701.02437418
_cell_formula_units_Z   1
loop_
 _symmetry_equiv_pos_site_id
 _symmetry_equiv_pos_as_xyz
  1  'x, y, z'
loop_
 _atom_site_type_symbol
 _atom_site_label
 _atom_site_symmetry_multiplicity
 _atom_site_fract_x
 _atom_site_fract_y
 _atom_site_fract_z
 _atom_site_occupancy
  Sm  Sm0  1  0.792323  0.792323  0.207678  1
  Sm  Sm1  1  0.208239  0.791761  0.208239  1
  Sm  Sm2  1  0.792323  0.207677  0.207677  1
  Sm  Sm3  1  0.207677  0.207677  0.792323  1
  Sm  Sm4  1  0.791761  0.208239  0.791761  1
  Sm  Sm5  1  0.207678  0.792323  0.792323  1
  Cd  Cd6  1  0.831653  0.837956  0.492436  1
  Cd  Cd7  1  0.837956  0.492436  0.837956  1
  Cd  Cd8  1  0.492436  0.837956  0.831653  1
  Cd  Cd9  1  0.837956  0.831653  0.837956  1
  Cd  Cd10  1  0.168347  0.162044  0.507564  1
  Cd  Cd11  1  0.162044  0.507563  0.162044  1
  Cd  Cd12  1  0.507564  0.162044  0.168347  1
  Cd  Cd13  1  0.162044  0.168347  0.162044  1
  Cd  Cd14  1  0.626504  0.618744  0.136009  1
  Cd  Cd15  1  0.618744  0.136009  0.618745  1
  Cd  Cd16  1  0.136009  0.618744  0.626503  1
  Cd  Cd17  1  0.618745  0.626503  0.618745  1
  Cd  Cd18  1  0.373497  0.381255  0.863991  1
  Cd  Cd19  1  0.381255  0.863991  0.381255  1
  Cd  Cd20  1  0.863991  0.381256  0.373497  1
  Cd  Cd21  1  0.381255  0.373496  0.381255  1
  Cd  Cd22  1  0.000000  0.000000  0.500000  1
  Cd  Cd23  1  0.000000  0.500000  0.500000  1
  Cd  Cd24  1  0.500000  0.500000  0.000000  1
  Cd  Cd25  1  0.500000  0.000000  0.000000  1
  Cd  Cd26  1  0.500000  0.500000  0.500000  1
  Ag  Ag27  1  0.500000  0.000000  0.500000  1
  Ag  Ag28  1  0.000000  0.500000  0.000000  1
  As  As29  1  0.000000  0.000001  0.000000  1
