# generated using pymatgen
data_YLu7(CoB14)2
_symmetry_space_group_name_H-M   'P 1'
_cell_length_a   7.14717663
_cell_length_b   7.14532563
_cell_length_c   7.39937400
_cell_angle_alpha   90.00000000
_cell_angle_beta   90.00000000
_cell_angle_gamma   89.81189099
_symmetry_Int_Tables_number   1
_chemical_formula_structural   YLu7(CoB14)2
_chemical_formula_sum   'Y1 Lu7 Co2 B28'
_cell_volume   377.87588640
_cell_formula_units_Z   1
loop_
 _symmetry_equiv_pos_site_id
 _symmetry_equiv_pos_as_xyz
  1  'x, y, z'
loop_
 _atom_site_type_symbol
 _atom_site_label
 _atom_site_symmetry_multiplicity
 _atom_site_fract_x
 _atom_site_fract_y
 _atom_site_fract_z
 _atom_site_occupancy
  Y  Y0  1  0.170021  0.306480  0.500000  1
  Lu  Lu1  1  0.193268  0.330406  0.000000  1
  Lu  Lu2  1  0.668640  0.192774  0.000000  1
  Lu  Lu3  1  0.331054  0.807446  0.000000  1
  Lu  Lu4  1  0.691257  0.168126  0.500000  1
  Lu  Lu5  1  0.307441  0.830839  0.500000  1
  Lu  Lu6  1  0.806728  0.669389  0.000000  1
  Lu  Lu7  1  0.831124  0.692846  0.500000  1
  Co  Co8  1  0.999866  0.999209  0.000000  1
  Co  Co9  1  0.503067  0.501753  0.500000  1
  B  B10  1  0.174614  0.037610  0.229682  1
  B  B11  1  0.960080  0.174516  0.229032  1
  B  B12  1  0.038270  0.824087  0.229529  1
  B  B13  1  0.676108  0.461578  0.269070  1
  B  B14  1  0.325498  0.539972  0.268361  1
  B  B15  1  0.823915  0.961080  0.229817  1
  B  B16  1  0.538836  0.676027  0.269203  1
  B  B17  1  0.462650  0.325399  0.268689  1
  B  B18  1  0.823915  0.961080  0.770183  1
  B  B19  1  0.038270  0.824087  0.770471  1
  B  B20  1  0.960080  0.174516  0.770968  1
  B  B21  1  0.325498  0.539972  0.731639  1
  B  B22  1  0.676108  0.461578  0.730930  1
  B  B23  1  0.174614  0.037610  0.770318  1
  B  B24  1  0.462650  0.325399  0.731311  1
  B  B25  1  0.538836  0.676027  0.730797  1
  B  B26  1  0.087609  0.587536  0.248159  1
  B  B27  1  0.411924  0.088015  0.249366  1
  B  B28  1  0.587328  0.912553  0.249211  1
  B  B29  1  0.912303  0.412551  0.247114  1
  B  B30  1  0.912303  0.412551  0.752886  1
  B  B31  1  0.587328  0.912553  0.750789  1
  B  B32  1  0.411924  0.088015  0.750634  1
  B  B33  1  0.087609  0.587536  0.751841  1
  B  B34  1  0.998823  0.998722  0.388077  1
  B  B35  1  0.500808  0.500721  0.111239  1
  B  B36  1  0.998823  0.998722  0.611923  1
  B  B37  1  0.500808  0.500721  0.888761  1
