# generated using pymatgen
data_Dy3ErAl4(IrPt)2
_symmetry_space_group_name_H-M   'P 1'
_cell_length_a   4.36679300
_cell_length_b   6.79419529
_cell_length_c   7.85610775
_cell_angle_alpha   90.05498717
_cell_angle_beta   90.00000000
_cell_angle_gamma   90.00000000
_symmetry_Int_Tables_number   1
_chemical_formula_structural   Dy3ErAl4(IrPt)2
_chemical_formula_sum   'Dy3 Er1 Al4 Ir2 Pt2'
_cell_volume   233.08153133
_cell_formula_units_Z   1
loop_
 _symmetry_equiv_pos_site_id
 _symmetry_equiv_pos_as_xyz
  1  'x, y, z'
loop_
 _atom_site_type_symbol
 _atom_site_label
 _atom_site_symmetry_multiplicity
 _atom_site_fract_x
 _atom_site_fract_y
 _atom_site_fract_z
 _atom_site_occupancy
  Dy  Dy0  1  0.250000  0.468055  0.184161  1
  Dy  Dy1  1  0.750000  0.531949  0.816003  1
  Dy  Dy2  1  0.750000  0.027395  0.677559  1
  Er  Er3  1  0.250000  0.972516  0.322191  1
  Al  Al4  1  0.250000  0.856374  0.936999  1
  Al  Al5  1  0.750000  0.143501  0.063625  1
  Al  Al6  1  0.750000  0.640898  0.438766  1
  Al  Al7  1  0.250000  0.359194  0.560917  1
  Ir  Ir8  1  0.250000  0.733591  0.618714  1
  Ir  Ir9  1  0.750000  0.265888  0.380514  1
  Pt  Pt10  1  0.750000  0.769666  0.118770  1
  Pt  Pt11  1  0.250000  0.230972  0.881778  1
