# generated using pymatgen
data_YbCeDy2(B4Os)4
_symmetry_space_group_name_H-M   'P 1'
_cell_length_a   3.58273400
_cell_length_b   5.98161247
_cell_length_c   11.57435600
_cell_angle_alpha   89.89914438
_cell_angle_beta   90.00000000
_cell_angle_gamma   90.00000000
_symmetry_Int_Tables_number   1
_chemical_formula_structural   YbCeDy2(B4Os)4
_chemical_formula_sum   'Yb1 Ce1 Dy2 B16 Os4'
_cell_volume   248.04415741
_cell_formula_units_Z   1
loop_
 _symmetry_equiv_pos_site_id
 _symmetry_equiv_pos_as_xyz
  1  'x, y, z'
loop_
 _atom_site_type_symbol
 _atom_site_label
 _atom_site_symmetry_multiplicity
 _atom_site_fract_x
 _atom_site_fract_y
 _atom_site_fract_z
 _atom_site_occupancy
  Yb  Yb0  1  0.000000  0.370392  0.650439  1
  Ce  Ce1  1  0.000000  0.627804  0.350682  1
  Dy  Dy2  1  0.000000  0.127130  0.148684  1
  Dy  Dy3  1  0.000000  0.871876  0.849090  1
  B  B4  1  0.500000  0.787976  0.185350  1
  B  B5  1  0.500000  0.212828  0.814128  1
  B  B6  1  0.500000  0.287460  0.315005  1
  B  B7  1  0.500000  0.712792  0.686082  1
  B  B8  1  0.500000  0.862607  0.029786  1
  B  B9  1  0.500000  0.136524  0.969593  1
  B  B10  1  0.500000  0.363149  0.470039  1
  B  B11  1  0.500000  0.637202  0.531448  1
  B  B12  1  0.500000  0.889869  0.455237  1
  B  B13  1  0.500000  0.114270  0.548464  1
  B  B14  1  0.500000  0.386735  0.045705  1
  B  B15  1  0.500000  0.611612  0.952612  1
  B  B16  1  0.500000  0.974991  0.309326  1
  B  B17  1  0.500000  0.025341  0.691407  1
  B  B18  1  0.500000  0.474974  0.190243  1
  B  B19  1  0.500000  0.525286  0.808450  1
  Os  Os20  1  0.000000  0.640925  0.093034  1
  Os  Os21  1  0.000000  0.359219  0.907187  1
  Os  Os22  1  0.000000  0.139898  0.406043  1
  Os  Os23  1  0.000000  0.859143  0.591965  1
