# generated using pymatgen
data_Sm4Dy4Lu12Si15Ag
_symmetry_space_group_name_H-M   'P 1'
_cell_length_a   7.34923444
_cell_length_b   7.61393350
_cell_length_c   14.50399665
_cell_angle_alpha   89.81573946
_cell_angle_beta   89.51277507
_cell_angle_gamma   90.25140707
_symmetry_Int_Tables_number   1
_chemical_formula_structural   Sm4Dy4Lu12Si15Ag
_chemical_formula_sum   'Sm4 Dy4 Lu12 Si15 Ag1'
_cell_volume   811.55263033
_cell_formula_units_Z   1
loop_
 _symmetry_equiv_pos_site_id
 _symmetry_equiv_pos_as_xyz
  1  'x, y, z'
loop_
 _atom_site_type_symbol
 _atom_site_label
 _atom_site_symmetry_multiplicity
 _atom_site_fract_x
 _atom_site_fract_y
 _atom_site_fract_z
 _atom_site_occupancy
  Sm  Sm0  1  0.016127  0.177116  0.099433  1
  Sm  Sm1  1  0.982960  0.825723  0.903667  1
  Sm  Sm2  1  0.483651  0.677794  0.904437  1
  Sm  Sm3  1  0.985835  0.831445  0.597106  1
  Dy  Dy4  1  0.515902  0.319970  0.099183  1
  Dy  Dy5  1  0.011893  0.171418  0.397208  1
  Dy  Dy6  1  0.515268  0.318287  0.399035  1
  Dy  Dy7  1  0.489797  0.682783  0.599847  1
  Lu  Lu8  1  0.162577  0.509788  0.750846  1
  Lu  Lu9  1  0.839306  0.491257  0.251828  1
  Lu  Lu10  1  0.338113  0.003989  0.249852  1
  Lu  Lu11  1  0.664486  0.992621  0.750581  1
  Lu  Lu12  1  0.339043  0.177207  0.623536  1
  Lu  Lu13  1  0.665463  0.819786  0.375784  1
  Lu  Lu14  1  0.171153  0.672462  0.373801  1
  Lu  Lu15  1  0.672035  0.822298  0.124689  1
  Lu  Lu16  1  0.826780  0.326488  0.622083  1
  Lu  Lu17  1  0.327467  0.179584  0.877876  1
  Lu  Lu18  1  0.825790  0.322790  0.877888  1
  Lu  Lu19  1  0.172591  0.675547  0.124218  1
  Si  Si20  1  0.036725  0.120684  0.750573  1
  Si  Si21  1  0.966134  0.884610  0.250187  1
  Si  Si22  1  0.468284  0.607043  0.248536  1
  Si  Si23  1  0.534975  0.391103  0.750986  1
  Si  Si24  1  0.282386  0.878394  0.749979  1
  Si  Si25  1  0.715258  0.126199  0.249754  1
  Si  Si26  1  0.220161  0.368509  0.249210  1
  Si  Si27  1  0.781459  0.626768  0.751464  1
  Si  Si28  1  0.836601  0.529593  0.457205  1
  Si  Si29  1  0.336478  0.965103  0.460078  1
  Si  Si30  1  0.843165  0.532201  0.039710  1
  Si  Si31  1  0.658261  0.035126  0.536779  1
  Si  Si32  1  0.150421  0.467636  0.962043  1
  Si  Si33  1  0.653136  0.034485  0.962149  1
  Si  Si34  1  0.346708  0.968538  0.040720  1
  Ag  Ag35  1  0.163614  0.465657  0.537728  1
