# generated using pymatgen
data_Ho18InSnIr12
_symmetry_space_group_name_H-M   'P 1'
_cell_length_a   10.81146400
_cell_length_b   10.81146400
_cell_length_c   6.26709200
_cell_angle_alpha   90.00000000
_cell_angle_beta   90.00000000
_cell_angle_gamma   90.00000000
_symmetry_Int_Tables_number   1
_chemical_formula_structural   Ho18InSnIr12
_chemical_formula_sum   'Ho18 In1 Sn1 Ir12'
_cell_volume   732.54630688
_cell_formula_units_Z   1
loop_
 _symmetry_equiv_pos_site_id
 _symmetry_equiv_pos_as_xyz
  1  'x, y, z'
loop_
 _atom_site_type_symbol
 _atom_site_label
 _atom_site_symmetry_multiplicity
 _atom_site_fract_x
 _atom_site_fract_y
 _atom_site_fract_z
 _atom_site_occupancy
  Ho  Ho0  1  0.284663  0.085543  0.380282  1
  Ho  Ho1  1  0.292171  0.911146  0.878874  1
  Ho  Ho2  1  0.707829  0.088854  0.878874  1
  Ho  Ho3  1  0.715337  0.914457  0.380282  1
  Ho  Ho4  1  0.585930  0.786381  0.880971  1
  Ho  Ho5  1  0.588526  0.207641  0.379422  1
  Ho  Ho6  1  0.411474  0.792359  0.379422  1
  Ho  Ho7  1  0.414070  0.213619  0.880971  1
  Ho  Ho8  1  0.207641  0.411474  0.620578  1
  Ho  Ho9  1  0.213619  0.585930  0.119029  1
  Ho  Ho10  1  0.786381  0.414070  0.119029  1
  Ho  Ho11  1  0.792359  0.588526  0.620578  1
  Ho  Ho12  1  0.911146  0.707829  0.121126  1
  Ho  Ho13  1  0.914457  0.284663  0.619718  1
  Ho  Ho14  1  0.085543  0.715337  0.619718  1
  Ho  Ho15  1  0.088854  0.292171  0.121126  1
  Ho  Ho16  1  0.000000  0.000000  0.000000  1
  Ho  Ho17  1  0.500000  0.500000  0.500000  1
  In  In18  1  0.000000  0.000000  0.500000  1
  Sn  Sn19  1  0.500000  0.500000  0.000000  1
  Ir  Ir20  1  0.846382  0.158369  0.241412  1
  Ir  Ir21  1  0.841631  0.846382  0.758588  1
  Ir  Ir22  1  0.158369  0.153618  0.758588  1
  Ir  Ir23  1  0.153618  0.841631  0.241412  1
  Ir  Ir24  1  0.656401  0.347017  0.745029  1
  Ir  Ir25  1  0.652983  0.656401  0.254971  1
  Ir  Ir26  1  0.347017  0.343599  0.254971  1
  Ir  Ir27  1  0.343599  0.652983  0.745029  1
  Ir  Ir28  1  0.500000  0.000000  0.123550  1
  Ir  Ir29  1  0.500000  0.000000  0.622389  1
  Ir  Ir30  1  0.000000  0.500000  0.876450  1
  Ir  Ir31  1  0.000000  0.500000  0.377611  1
