# generated using pymatgen
data_Sm2Lu18HgBi11
_symmetry_space_group_name_H-M   'P 1'
_cell_length_a   8.10580352
_cell_length_b   9.38709600
_cell_length_c   11.79907700
_cell_angle_alpha   90.00000000
_cell_angle_beta   89.70351799
_cell_angle_gamma   90.00000000
_symmetry_Int_Tables_number   1
_chemical_formula_structural   Sm2Lu18HgBi11
_chemical_formula_sum   'Sm2 Lu18 Hg1 Bi11'
_cell_volume   897.77922783
_cell_formula_units_Z   1
loop_
 _symmetry_equiv_pos_site_id
 _symmetry_equiv_pos_as_xyz
  1  'x, y, z'
loop_
 _atom_site_type_symbol
 _atom_site_label
 _atom_site_symmetry_multiplicity
 _atom_site_fract_x
 _atom_site_fract_y
 _atom_site_fract_z
 _atom_site_occupancy
  Sm  Sm0  1  0.810285  0.750000  0.217834  1
  Sm  Sm1  1  0.313164  0.750000  0.281155  1
  Lu  Lu2  1  0.034076  0.250000  0.508405  1
  Lu  Lu3  1  0.979991  0.750000  0.491482  1
  Lu  Lu4  1  0.476762  0.750000  0.009244  1
  Lu  Lu5  1  0.523728  0.250000  0.989921  1
  Lu  Lu6  1  0.352768  0.250000  0.289938  1
  Lu  Lu7  1  0.649559  0.750000  0.719094  1
  Lu  Lu8  1  0.149571  0.750000  0.781573  1
  Lu  Lu9  1  0.851723  0.250000  0.215639  1
  Lu  Lu10  1  0.194114  0.250000  0.780275  1
  Lu  Lu11  1  0.679833  0.250000  0.711590  1
  Lu  Lu12  1  0.191968  0.067232  0.060768  1
  Lu  Lu13  1  0.807456  0.932798  0.939989  1
  Lu  Lu14  1  0.307780  0.945735  0.560101  1
  Lu  Lu15  1  0.807456  0.567202  0.939989  1
  Lu  Lu16  1  0.686837  0.070922  0.443941  1
  Lu  Lu17  1  0.191968  0.432768  0.060768  1
  Lu  Lu18  1  0.686837  0.429078  0.443941  1
  Lu  Lu19  1  0.307780  0.554265  0.560101  1
  Hg  Hg20  1  0.404137  0.250000  0.540679  1
  Bi  Bi21  1  0.597447  0.750000  0.462112  1
  Bi  Bi22  1  0.098381  0.750000  0.039189  1
  Bi  Bi23  1  0.903541  0.250000  0.953373  1
  Bi  Bi24  1  0.059919  0.006059  0.324246  1
  Bi  Bi25  1  0.937007  0.997979  0.676053  1
  Bi  Bi26  1  0.437000  0.996640  0.825612  1
  Bi  Bi27  1  0.937007  0.502021  0.676053  1
  Bi  Bi28  1  0.562496  0.007890  0.173539  1
  Bi  Bi29  1  0.059919  0.493941  0.324246  1
  Bi  Bi30  1  0.562496  0.492110  0.173539  1
  Bi  Bi31  1  0.437000  0.503360  0.825612  1
