# generated using pymatgen
data_Er2TmThCoHg
_symmetry_space_group_name_H-M   'P 1'
_cell_length_a   9.48877420
_cell_length_b   9.48877481
_cell_length_c   9.48755700
_cell_angle_alpha   60.00424894
_cell_angle_beta   60.00424679
_cell_angle_gamma   59.99151606
_symmetry_Int_Tables_number   1
_chemical_formula_structural   Er2TmThCoHg
_chemical_formula_sum   'Er8 Tm4 Th4 Co4 Hg4'
_cell_volume   604.03162434
_cell_formula_units_Z   4
loop_
 _symmetry_equiv_pos_site_id
 _symmetry_equiv_pos_as_xyz
  1  'x, y, z'
loop_
 _atom_site_type_symbol
 _atom_site_label
 _atom_site_symmetry_multiplicity
 _atom_site_fract_x
 _atom_site_fract_y
 _atom_site_fract_z
 _atom_site_occupancy
  Er  Er0  1  0.436048  0.436048  0.063952  1
  Er  Er1  1  0.063952  0.063952  0.436048  1
  Er  Er2  1  0.186140  0.813860  0.813860  1
  Er  Er3  1  0.813860  0.186140  0.186140  1
  Er  Er4  1  0.813860  0.186140  0.813860  1
  Er  Er5  1  0.186140  0.813860  0.186140  1
  Er  Er6  1  0.813933  0.813933  0.186067  1
  Er  Er7  1  0.186067  0.186067  0.813933  1
  Tm  Tm8  1  0.063633  0.436367  0.436367  1
  Tm  Tm9  1  0.436367  0.063633  0.063633  1
  Tm  Tm10  1  0.436367  0.063633  0.436367  1
  Tm  Tm11  1  0.063633  0.436367  0.063633  1
  Th  Th12  1  0.597769  0.597769  0.597255  1
  Th  Th13  1  0.597769  0.597769  0.207209  1
  Th  Th14  1  0.597255  0.207209  0.597769  1
  Th  Th15  1  0.207209  0.597255  0.597769  1
  Co  Co16  1  0.394013  0.394013  0.394594  1
  Co  Co17  1  0.394013  0.394013  0.817381  1
  Co  Co18  1  0.394594  0.817381  0.394013  1
  Co  Co19  1  0.817381  0.394594  0.394013  1
  Hg  Hg20  1  0.836465  0.836465  0.836123  1
  Hg  Hg21  1  0.836465  0.836465  0.490948  1
  Hg  Hg22  1  0.836123  0.490948  0.836465  1
  Hg  Hg23  1  0.490948  0.836123  0.836465  1
