# generated using pymatgen
data_Ac2ThTe5
_symmetry_space_group_name_H-M   'P 1'
_cell_length_a   8.72972100
_cell_length_b   9.45911800
_cell_length_c   13.83921600
_cell_angle_alpha   90.00000000
_cell_angle_beta   90.00000000
_cell_angle_gamma   90.00000000
_symmetry_Int_Tables_number   1
_chemical_formula_structural   Ac2ThTe5
_chemical_formula_sum   'Ac8 Th4 Te20'
_cell_volume   1142.77964172
_cell_formula_units_Z   4
loop_
 _symmetry_equiv_pos_site_id
 _symmetry_equiv_pos_as_xyz
  1  'x, y, z'
loop_
 _atom_site_type_symbol
 _atom_site_label
 _atom_site_symmetry_multiplicity
 _atom_site_fract_x
 _atom_site_fract_y
 _atom_site_fract_z
 _atom_site_occupancy
  Ac  Ac0  1  0.529689  0.499722  0.322605  1
  Ac  Ac1  1  0.970311  0.000278  0.822605  1
  Ac  Ac2  1  0.470311  0.999722  0.677395  1
  Ac  Ac3  1  0.029689  0.500278  0.177395  1
  Ac  Ac4  1  0.470311  0.500278  0.677395  1
  Ac  Ac5  1  0.029689  0.999722  0.177395  1
  Ac  Ac6  1  0.529689  0.000278  0.322605  1
  Ac  Ac7  1  0.970311  0.499722  0.822605  1
  Th  Th8  1  0.075643  0.750000  0.491536  1
  Th  Th9  1  0.424357  0.750000  0.991536  1
  Th  Th10  1  0.924357  0.250000  0.508464  1
  Th  Th11  1  0.575643  0.250000  0.008464  1
  Te  Te12  1  0.833057  0.956837  0.592335  1
  Te  Te13  1  0.666943  0.543163  0.092335  1
  Te  Te14  1  0.166943  0.456837  0.407665  1
  Te  Te15  1  0.333057  0.043163  0.907665  1
  Te  Te16  1  0.166943  0.043163  0.407665  1
  Te  Te17  1  0.333057  0.456837  0.907665  1
  Te  Te18  1  0.833057  0.543163  0.592335  1
  Te  Te19  1  0.666943  0.956837  0.092335  1
  Te  Te20  1  0.833773  0.750000  0.314374  1
  Te  Te21  1  0.666227  0.750000  0.814374  1
  Te  Te22  1  0.166227  0.250000  0.685626  1
  Te  Te23  1  0.333773  0.250000  0.185626  1
  Te  Te24  1  0.452949  0.750000  0.497520  1
  Te  Te25  1  0.047051  0.750000  0.997520  1
  Te  Te26  1  0.547051  0.250000  0.502480  1
  Te  Te27  1  0.952949  0.250000  0.002480  1
  Te  Te28  1  0.190279  0.750000  0.712908  1
  Te  Te29  1  0.309721  0.750000  0.212908  1
  Te  Te30  1  0.809721  0.250000  0.287092  1
  Te  Te31  1  0.690279  0.250000  0.787092  1
