# generated using pymatgen
data_Sc4Ti3AlPt4
_symmetry_space_group_name_H-M   'P 1'
_cell_length_a   6.57848184
_cell_length_b   4.37967300
_cell_length_c   7.75520418
_cell_angle_alpha   90.00000000
_cell_angle_beta   92.70181900
_cell_angle_gamma   90.00000000
_symmetry_Int_Tables_number   1
_chemical_formula_structural   Sc4Ti3AlPt4
_chemical_formula_sum   'Sc4 Ti3 Al1 Pt4'
_cell_volume   223.19145488
_cell_formula_units_Z   1
loop_
 _symmetry_equiv_pos_site_id
 _symmetry_equiv_pos_as_xyz
  1  'x, y, z'
loop_
 _atom_site_type_symbol
 _atom_site_label
 _atom_site_symmetry_multiplicity
 _atom_site_fract_x
 _atom_site_fract_y
 _atom_site_fract_z
 _atom_site_occupancy
  Sc  Sc0  1  0.484395  0.749999  0.174439  1
  Sc  Sc1  1  0.975876  0.749999  0.310882  1
  Sc  Sc2  1  0.019940  0.249999  0.684868  1
  Sc  Sc3  1  0.528449  0.249999  0.823263  1
  Ti  Ti4  1  0.143298  0.249999  0.064864  1
  Ti  Ti5  1  0.643783  0.249999  0.430356  1
  Ti  Ti6  1  0.354596  0.749999  0.575709  1
  Al  Al7  1  0.850328  0.749999  0.929666  1
  Pt  Pt8  1  0.762072  0.249999  0.115960  1
  Pt  Pt9  1  0.262763  0.249999  0.396717  1
  Pt  Pt10  1  0.738425  0.749999  0.602249  1
  Pt  Pt11  1  0.236075  0.749999  0.891020  1
