# generated using pymatgen
data_Ho16Cd4CoRuPt2
_symmetry_space_group_name_H-M   'P 1'
_cell_length_a   9.58938330
_cell_length_b   9.60582888
_cell_length_c   9.57130175
_cell_angle_alpha   60.02691964
_cell_angle_beta   59.93749254
_cell_angle_gamma   60.05662388
_symmetry_Int_Tables_number   1
_chemical_formula_structural   Ho16Cd4CoRuPt2
_chemical_formula_sum   'Ho16 Cd4 Co1 Ru1 Pt2'
_cell_volume   623.51880102
_cell_formula_units_Z   1
loop_
 _symmetry_equiv_pos_site_id
 _symmetry_equiv_pos_as_xyz
  1  'x, y, z'
loop_
 _atom_site_type_symbol
 _atom_site_label
 _atom_site_symmetry_multiplicity
 _atom_site_fract_x
 _atom_site_fract_y
 _atom_site_fract_z
 _atom_site_occupancy
  Ho  Ho0  1  0.934809  0.936960  0.564614  1
  Ho  Ho1  1  0.808972  0.191673  0.190382  1
  Ho  Ho2  1  0.935794  0.566423  0.561988  1
  Ho  Ho3  1  0.936593  0.565077  0.938574  1
  Ho  Ho4  1  0.815187  0.805818  0.188211  1
  Ho  Ho5  1  0.341932  0.347042  0.354253  1
  Ho  Ho6  1  0.562630  0.936827  0.937912  1
  Ho  Ho7  1  0.563618  0.936960  0.564614  1
  Ho  Ho8  1  0.188116  0.815096  0.808671  1
  Ho  Ho9  1  0.189928  0.188994  0.802130  1
  Ho  Ho10  1  0.349199  0.355287  0.946315  1
  Ho  Ho11  1  0.345193  0.948986  0.360629  1
  Ho  Ho12  1  0.818947  0.188994  0.802130  1
  Ho  Ho13  1  0.559754  0.565077  0.938574  1
  Ho  Ho14  1  0.190784  0.805818  0.188211  1
  Ho  Ho15  1  0.956774  0.347042  0.354253  1
  Cd  Cd16  1  0.581264  0.581049  0.256423  1
  Cd  Cd17  1  0.256204  0.581667  0.580123  1
  Cd  Cd18  1  0.582009  0.581667  0.580123  1
  Cd  Cd19  1  0.581433  0.257255  0.579880  1
  Co  Co20  1  0.141734  0.140396  0.576135  1
  Ru  Ru21  1  0.142443  0.573632  0.141482  1
  Pt  Pt22  1  0.572512  0.141131  0.142188  1
  Pt  Pt23  1  0.144171  0.141131  0.142188  1
