# generated using pymatgen
data_Na2MgCd(CoH6)2
_symmetry_space_group_name_H-M   'P 1'
_cell_length_a   6.77626100
_cell_length_b   6.77626100
_cell_length_c   6.74362300
_cell_angle_alpha   90.00000000
_cell_angle_beta   90.00000000
_cell_angle_gamma   90.00000000
_symmetry_Int_Tables_number   1
_chemical_formula_structural   Na2MgCd(CoH6)2
_chemical_formula_sum   'Na4 Mg2 Cd2 Co4 H24'
_cell_volume   309.65174644
_cell_formula_units_Z   2
loop_
 _symmetry_equiv_pos_site_id
 _symmetry_equiv_pos_as_xyz
  1  'x, y, z'
loop_
 _atom_site_type_symbol
 _atom_site_label
 _atom_site_symmetry_multiplicity
 _atom_site_fract_x
 _atom_site_fract_y
 _atom_site_fract_z
 _atom_site_occupancy
  Na  Na0  1  0.000000  0.000000  0.500000  1
  Na  Na1  1  0.000000  0.500000  0.000000  1
  Na  Na2  1  0.500000  0.000000  0.000000  1
  Na  Na3  1  0.000000  0.000000  0.000000  1
  Mg  Mg4  1  0.500000  0.500000  0.500000  1
  Mg  Mg5  1  0.500000  0.500000  0.000000  1
  Cd  Cd6  1  0.000000  0.500000  0.500000  1
  Cd  Cd7  1  0.500000  0.000000  0.500000  1
  Co  Co8  1  0.270324  0.729676  0.734006  1
  Co  Co9  1  0.729676  0.270324  0.734006  1
  Co  Co10  1  0.729676  0.729676  0.265994  1
  Co  Co11  1  0.270324  0.270324  0.265994  1
  H  H12  1  0.734776  0.734776  0.492434  1
  H  H13  1  0.265224  0.265224  0.492434  1
  H  H14  1  0.043828  0.740901  0.741767  1
  H  H15  1  0.259099  0.956172  0.741767  1
  H  H16  1  0.740901  0.043828  0.741767  1
  H  H17  1  0.956172  0.259099  0.741767  1
  H  H18  1  0.728844  0.494817  0.745108  1
  H  H19  1  0.494817  0.728844  0.745108  1
  H  H20  1  0.505183  0.271156  0.745108  1
  H  H21  1  0.271156  0.505183  0.745108  1
  H  H22  1  0.266220  0.733780  0.961170  1
  H  H23  1  0.733780  0.266220  0.961170  1
  H  H24  1  0.733780  0.733780  0.038830  1
  H  H25  1  0.266220  0.266220  0.038830  1
  H  H26  1  0.271156  0.494817  0.254892  1
  H  H27  1  0.505183  0.728844  0.254892  1
  H  H28  1  0.494817  0.271156  0.254892  1
  H  H29  1  0.728844  0.505183  0.254892  1
  H  H30  1  0.956172  0.740901  0.258233  1
  H  H31  1  0.740901  0.956172  0.258233  1
  H  H32  1  0.259099  0.043828  0.258233  1
  H  H33  1  0.043828  0.259099  0.258233  1
  H  H34  1  0.265224  0.734776  0.507566  1
  H  H35  1  0.734776  0.265224  0.507566  1
