# generated using pymatgen
data_Nd2U(BeRh2)3
_symmetry_space_group_name_H-M   'P 1'
_cell_length_a   6.68988961
_cell_length_b   6.68701268
_cell_length_c   6.68988930
_cell_angle_alpha   130.32637006
_cell_angle_beta   114.95585508
_cell_angle_gamma   86.05425874
_symmetry_Int_Tables_number   1
_chemical_formula_structural   Nd2U(BeRh2)3
_chemical_formula_sum   'Nd2 U1 Be3 Rh6'
_cell_volume   197.61977706
_cell_formula_units_Z   1
loop_
 _symmetry_equiv_pos_site_id
 _symmetry_equiv_pos_as_xyz
  1  'x, y, z'
loop_
 _atom_site_type_symbol
 _atom_site_label
 _atom_site_symmetry_multiplicity
 _atom_site_fract_x
 _atom_site_fract_y
 _atom_site_fract_z
 _atom_site_occupancy
  Nd  Nd0  1  0.737422  0.989423  0.252001  1
  Nd  Nd1  1  0.263743  0.011804  0.748060  1
  U  U2  1  0.919226  0.671231  0.752006  1
  Be  Be3  1  0.611098  0.363848  0.752750  1
  Be  Be4  1  0.415674  0.663106  0.247432  1
  Be  Be5  1  0.060985  0.309777  0.248791  1
  Rh  Rh6  1  0.270881  0.493939  0.764542  1
  Rh  Rh7  1  0.727251  0.005730  0.732968  1
  Rh  Rh8  1  0.729397  0.493939  0.223058  1
  Rh  Rh9  1  0.272762  0.005730  0.278478  1
  Rh  Rh10  1  0.471991  0.495737  0.476169  1
  Rh  Rh11  1  0.019570  0.495737  0.023747  1
