# generated using pymatgen
data_Dy5Y(Co3P2)6
_symmetry_space_group_name_H-M   'P 1'
_cell_length_a   3.69304900
_cell_length_b   10.49256900
_cell_length_c   12.15836400
_cell_angle_alpha   90.00000000
_cell_angle_beta   90.00000000
_cell_angle_gamma   90.00000000
_symmetry_Int_Tables_number   1
_chemical_formula_structural   Dy5Y(Co3P2)6
_chemical_formula_sum   'Dy5 Y1 Co18 P12'
_cell_volume   471.13139457
_cell_formula_units_Z   1
loop_
 _symmetry_equiv_pos_site_id
 _symmetry_equiv_pos_as_xyz
  1  'x, y, z'
loop_
 _atom_site_type_symbol
 _atom_site_label
 _atom_site_symmetry_multiplicity
 _atom_site_fract_x
 _atom_site_fract_y
 _atom_site_fract_z
 _atom_site_occupancy
  Dy  Dy0  1  0.000000  0.500000  0.522010  1
  Dy  Dy1  1  0.500000  0.817224  0.205846  1
  Dy  Dy2  1  0.500000  0.182776  0.205846  1
  Dy  Dy3  1  0.000000  0.682723  0.794143  1
  Dy  Dy4  1  0.000000  0.317277  0.794143  1
  Y  Y5  1  0.500000  0.000000  0.478101  1
  Co  Co6  1  0.500000  0.500000  0.158772  1
  Co  Co7  1  0.000000  0.000000  0.841330  1
  Co  Co8  1  0.500000  0.500000  0.703353  1
  Co  Co9  1  0.000000  0.000000  0.296349  1
  Co  Co10  1  0.000000  0.500000  0.985964  1
  Co  Co11  1  0.500000  0.000000  0.013960  1
  Co  Co12  1  0.500000  0.333355  0.994752  1
  Co  Co13  1  0.500000  0.666645  0.994752  1
  Co  Co14  1  0.000000  0.166688  0.005219  1
  Co  Co15  1  0.000000  0.833312  0.005219  1
  Co  Co16  1  0.500000  0.297664  0.430500  1
  Co  Co17  1  0.500000  0.702336  0.430500  1
  Co  Co18  1  0.000000  0.202774  0.569528  1
  Co  Co19  1  0.000000  0.797226  0.569528  1
  Co  Co20  1  0.500000  0.879378  0.709881  1
  Co  Co21  1  0.500000  0.120622  0.709881  1
  Co  Co22  1  0.000000  0.620530  0.290214  1
  Co  Co23  1  0.000000  0.379470  0.290214  1
  P  P24  1  0.500000  0.500000  0.882658  1
  P  P25  1  0.000000  0.000000  0.117251  1
  P  P26  1  0.500000  0.500000  0.343833  1
  P  P27  1  0.000000  0.000000  0.656514  1
  P  P28  1  0.500000  0.310446  0.615913  1
  P  P29  1  0.500000  0.689554  0.615913  1
  P  P30  1  0.000000  0.189836  0.383931  1
  P  P31  1  0.000000  0.810164  0.383931  1
  P  P32  1  0.500000  0.847402  0.893231  1
  P  P33  1  0.500000  0.152598  0.893231  1
  P  P34  1  0.000000  0.652508  0.106794  1
  P  P35  1  0.000000  0.347492  0.106794  1
