# generated using pymatgen
data_La2Ho4(IrRh5)3
_symmetry_space_group_name_H-M   'P 1'
_cell_length_a   5.31542400
_cell_length_b   5.30694472
_cell_length_c   17.54716108
_cell_angle_alpha   90.11636343
_cell_angle_beta   90.00000000
_cell_angle_gamma   120.05285542
_symmetry_Int_Tables_number   1
_chemical_formula_structural   La2Ho4(IrRh5)3
_chemical_formula_sum   'La2 Ho4 Ir3 Rh15'
_cell_volume   428.43724861
_cell_formula_units_Z   1
loop_
 _symmetry_equiv_pos_site_id
 _symmetry_equiv_pos_as_xyz
  1  'x, y, z'
loop_
 _atom_site_type_symbol
 _atom_site_label
 _atom_site_symmetry_multiplicity
 _atom_site_fract_x
 _atom_site_fract_y
 _atom_site_fract_z
 _atom_site_occupancy
  La  La0  1  0.333333  0.666666  0.750012  1
  La  La1  1  0.666626  0.333252  0.249890  1
  Ho  Ho2  1  0.333266  0.666533  0.540524  1
  Ho  Ho3  1  0.667468  0.334935  0.040576  1
  Ho  Ho4  1  0.666787  0.333573  0.459346  1
  Ho  Ho5  1  0.333328  0.666658  0.959695  1
  Ir  Ir6  1  0.166905  0.333811  0.124101  1
  Ir  Ir7  1  0.001066  0.002132  0.999974  1
  Ir  Ir8  1  0.999964  0.999929  0.499915  1
  Rh  Rh9  1  0.832499  0.664998  0.623732  1
  Rh  Rh10  1  0.664262  0.830579  0.123853  1
  Rh  Rh11  1  0.166316  0.830579  0.123853  1
  Rh  Rh12  1  0.832556  0.167397  0.623790  1
  Rh  Rh13  1  0.334843  0.167397  0.623790  1
  Rh  Rh14  1  0.832586  0.665171  0.876255  1
  Rh  Rh15  1  0.832532  0.167641  0.876137  1
  Rh  Rh16  1  0.335110  0.167641  0.876137  1
  Rh  Rh17  1  0.665033  0.832196  0.376037  1
  Rh  Rh18  1  0.167162  0.832196  0.376037  1
  Rh  Rh19  1  0.167595  0.335190  0.376718  1
  Rh  Rh20  1  0.002369  0.004739  0.249850  1
  Rh  Rh21  1  0.999709  0.999418  0.750027  1
  Rh  Rh22  1  0.331919  0.663840  0.249891  1
  Rh  Rh23  1  0.666766  0.333530  0.749858  1
