# generated using pymatgen
data_Tm2Nb3Co9As7
_symmetry_space_group_name_H-M   'P 1'
_cell_length_a   3.80744600
_cell_length_b   9.54443237
_cell_length_c   9.54443300
_cell_angle_alpha   119.99999873
_cell_angle_beta   90.00000000
_cell_angle_gamma   90.00000000
_symmetry_Int_Tables_number   1
_chemical_formula_structural   Tm2Nb3Co9As7
_chemical_formula_sum   'Tm2 Nb3 Co9 As7'
_cell_volume   300.37558407
_cell_formula_units_Z   1
loop_
 _symmetry_equiv_pos_site_id
 _symmetry_equiv_pos_as_xyz
  1  'x, y, z'
loop_
 _atom_site_type_symbol
 _atom_site_label
 _atom_site_symmetry_multiplicity
 _atom_site_fract_x
 _atom_site_fract_y
 _atom_site_fract_z
 _atom_site_occupancy
  Tm  Tm0  1  0.000000  0.666667  0.333333  1
  Tm  Tm1  1  0.500000  0.333333  0.666667  1
  Nb  Nb2  1  0.500000  0.775629  0.897144  1
  Nb  Nb3  1  0.500000  0.121516  0.224371  1
  Nb  Nb4  1  0.500000  0.102856  0.878484  1
  Co  Co5  1  0.000000  0.569747  0.937040  1
  Co  Co6  1  0.000000  0.367292  0.430253  1
  Co  Co7  1  0.000000  0.062960  0.632708  1
  Co  Co8  1  0.000000  0.876620  0.161198  1
  Co  Co9  1  0.000000  0.284578  0.123380  1
  Co  Co10  1  0.000000  0.838802  0.715422  1
  Co  Co11  1  0.500000  0.947707  0.385227  1
  Co  Co12  1  0.500000  0.437519  0.052293  1
  Co  Co13  1  0.500000  0.614773  0.562481  1
  As  As14  1  0.000000  0.000000  0.000000  1
  As  As15  1  0.500000  0.708492  0.125911  1
  As  As16  1  0.500000  0.417420  0.291508  1
  As  As17  1  0.500000  0.874089  0.582580  1
  As  As18  1  0.000000  0.579286  0.692339  1
  As  As19  1  0.000000  0.113053  0.420714  1
  As  As20  1  0.000000  0.307661  0.886947  1
