# generated using pymatgen
data_Ta(NbSi3)2
_symmetry_space_group_name_H-M   'P 1'
_cell_length_a   4.82523100
_cell_length_b   4.82538609
_cell_length_c   6.59490200
_cell_angle_alpha   90.00000000
_cell_angle_beta   90.00000000
_cell_angle_gamma   119.99892993
_symmetry_Int_Tables_number   1
_chemical_formula_structural   Ta(NbSi3)2
_chemical_formula_sum   'Ta1 Nb2 Si6'
_cell_volume   132.98229951
_cell_formula_units_Z   1
loop_
 _symmetry_equiv_pos_site_id
 _symmetry_equiv_pos_as_xyz
  1  'x, y, z'
loop_
 _atom_site_type_symbol
 _atom_site_label
 _atom_site_symmetry_multiplicity
 _atom_site_fract_x
 _atom_site_fract_y
 _atom_site_fract_z
 _atom_site_occupancy
  Ta  Ta0  1  0.500000  0.000000  0.500000  1
  Nb  Nb1  1  0.000000  0.500000  0.167327  1
  Nb  Nb2  1  0.500000  0.500000  0.832673  1
  Si  Si3  1  0.841151  0.682303  0.500000  1
  Si  Si4  1  0.158634  0.840964  0.833359  1
  Si  Si5  1  0.682331  0.840964  0.166641  1
  Si  Si6  1  0.158849  0.317697  0.500000  1
  Si  Si7  1  0.841366  0.159036  0.833359  1
  Si  Si8  1  0.317669  0.159036  0.166641  1
