# generated using pymatgen
data_Cs2SiWN4
_symmetry_space_group_name_H-M   'P 1'
_cell_length_a   5.91356840
_cell_length_b   5.91356926
_cell_length_c   5.91356900
_cell_angle_alpha   59.99999587
_cell_angle_beta   59.99999105
_cell_angle_gamma   59.99999885
_symmetry_Int_Tables_number   1
_chemical_formula_structural   Cs2SiWN4
_chemical_formula_sum   'Cs2 Si1 W1 N4'
_cell_volume   146.22914355
_cell_formula_units_Z   1
loop_
 _symmetry_equiv_pos_site_id
 _symmetry_equiv_pos_as_xyz
  1  'x, y, z'
loop_
 _atom_site_type_symbol
 _atom_site_label
 _atom_site_symmetry_multiplicity
 _atom_site_fract_x
 _atom_site_fract_y
 _atom_site_fract_z
 _atom_site_occupancy
  Cs  Cs0  1  0.250000  0.250000  0.250000  1
  Cs  Cs1  1  0.000000  0.000000  0.000000  1
  Si  Si2  1  0.500000  0.500000  0.500000  1
  W  W3  1  0.750000  0.750000  0.750000  1
  N  N4  1  0.620454  0.620454  0.620454  1
  N  N5  1  0.138636  0.620454  0.620454  1
  N  N6  1  0.620454  0.138636  0.620454  1
  N  N7  1  0.620454  0.620454  0.138636  1
