# generated using pymatgen
data_DyTm5Ta2(Co4P3)4
_symmetry_space_group_name_H-M   'P 1'
_cell_length_a   3.67862000
_cell_length_b   10.57643000
_cell_length_c   12.25513900
_cell_angle_alpha   90.00000000
_cell_angle_beta   90.00000000
_cell_angle_gamma   90.00000000
_symmetry_Int_Tables_number   1
_chemical_formula_structural   DyTm5Ta2(Co4P3)4
_chemical_formula_sum   'Dy1 Tm5 Ta2 Co16 P12'
_cell_volume   476.80661121
_cell_formula_units_Z   1
loop_
 _symmetry_equiv_pos_site_id
 _symmetry_equiv_pos_as_xyz
  1  'x, y, z'
loop_
 _atom_site_type_symbol
 _atom_site_label
 _atom_site_symmetry_multiplicity
 _atom_site_fract_x
 _atom_site_fract_y
 _atom_site_fract_z
 _atom_site_occupancy
  Dy  Dy0  1  0.500000  0.000000  0.472584  1
  Tm  Tm1  1  0.000000  0.500000  0.527376  1
  Tm  Tm2  1  0.500000  0.821125  0.205085  1
  Tm  Tm3  1  0.500000  0.178875  0.205085  1
  Tm  Tm4  1  0.000000  0.678669  0.794656  1
  Tm  Tm5  1  0.000000  0.321331  0.794656  1
  Ta  Ta6  1  0.500000  0.500000  0.157453  1
  Ta  Ta7  1  0.000000  0.000000  0.843130  1
  Co  Co8  1  0.500000  0.500000  0.702100  1
  Co  Co9  1  0.000000  0.000000  0.296965  1
  Co  Co10  1  0.000000  0.500000  0.986655  1
  Co  Co11  1  0.500000  0.000000  0.013283  1
  Co  Co12  1  0.500000  0.332701  0.992209  1
  Co  Co13  1  0.500000  0.667299  0.992209  1
  Co  Co14  1  0.000000  0.167476  0.007767  1
  Co  Co15  1  0.000000  0.832524  0.007767  1
  Co  Co16  1  0.500000  0.296198  0.432408  1
  Co  Co17  1  0.500000  0.703802  0.432408  1
  Co  Co18  1  0.000000  0.205257  0.567748  1
  Co  Co19  1  0.000000  0.794743  0.567748  1
  Co  Co20  1  0.500000  0.876808  0.705558  1
  Co  Co21  1  0.500000  0.123192  0.705558  1
  Co  Co22  1  0.000000  0.622761  0.294695  1
  Co  Co23  1  0.000000  0.377239  0.294695  1
  P  P24  1  0.500000  0.500000  0.880901  1
  P  P25  1  0.000000  0.000000  0.118805  1
  P  P26  1  0.500000  0.500000  0.358421  1
  P  P27  1  0.000000  0.000000  0.642831  1
  P  P28  1  0.500000  0.312483  0.616130  1
  P  P29  1  0.500000  0.687517  0.616130  1
  P  P30  1  0.000000  0.188564  0.383500  1
  P  P31  1  0.000000  0.811436  0.383500  1
  P  P32  1  0.500000  0.840033  0.891783  1
  P  P33  1  0.500000  0.159967  0.891783  1
  P  P34  1  0.000000  0.659783  0.108212  1
  P  P35  1  0.000000  0.340217  0.108212  1
