# generated using pymatgen
data_Rb16Zr3SnSe16
_symmetry_space_group_name_H-M   'P 1'
_cell_length_a   8.84757878
_cell_length_b   10.65056000
_cell_length_c   15.70910745
_cell_angle_alpha   90.00000000
_cell_angle_beta   89.88104918
_cell_angle_gamma   90.00000000
_symmetry_Int_Tables_number   1
_chemical_formula_structural   Rb16Zr3SnSe16
_chemical_formula_sum   'Rb16 Zr3 Sn1 Se16'
_cell_volume   1480.29221697
_cell_formula_units_Z   1
loop_
 _symmetry_equiv_pos_site_id
 _symmetry_equiv_pos_as_xyz
  1  'x, y, z'
loop_
 _atom_site_type_symbol
 _atom_site_label
 _atom_site_symmetry_multiplicity
 _atom_site_fract_x
 _atom_site_fract_y
 _atom_site_fract_z
 _atom_site_occupancy
  Rb  Rb0  1  0.499914  0.496977  0.500350  1
  Rb  Rb1  1  0.157841  0.449690  0.275202  1
  Rb  Rb2  1  0.157841  0.050310  0.275202  1
  Rb  Rb3  1  0.010061  0.750000  0.428758  1
  Rb  Rb4  1  0.988274  0.250000  0.570955  1
  Rb  Rb5  1  0.655254  0.944468  0.223950  1
  Rb  Rb6  1  0.341839  0.055046  0.777426  1
  Rb  Rb7  1  0.842236  0.945100  0.722839  1
  Rb  Rb8  1  0.341839  0.444954  0.777426  1
  Rb  Rb9  1  0.998769  0.503504  0.001191  1
  Rb  Rb10  1  0.515471  0.250000  0.074806  1
  Rb  Rb11  1  0.655254  0.555532  0.223950  1
  Rb  Rb12  1  0.486963  0.750000  0.928008  1
  Rb  Rb13  1  0.998769  0.996496  0.001191  1
  Rb  Rb14  1  0.842236  0.554900  0.722839  1
  Rb  Rb15  1  0.499914  0.003023  0.500350  1
  Zr  Zr16  1  0.745246  0.250000  0.834645  1
  Zr  Zr17  1  0.754070  0.250000  0.333758  1
  Zr  Zr18  1  0.246547  0.750000  0.665730  1
  Sn  Sn19  1  0.256859  0.750000  0.165610  1
  Se  Se20  1  0.535150  0.750000  0.672637  1
  Se  Se21  1  0.465240  0.250000  0.326133  1
  Se  Se22  1  0.365462  0.750000  0.318526  1
  Se  Se23  1  0.133321  0.750000  0.816303  1
  Se  Se24  1  0.033532  0.250000  0.826893  1
  Se  Se25  1  0.965533  0.750000  0.172306  1
  Se  Se26  1  0.633976  0.250000  0.683809  1
  Se  Se27  1  0.866705  0.250000  0.183234  1
  Se  Se28  1  0.843884  0.447639  0.408970  1
  Se  Se29  1  0.654367  0.052777  0.910390  1
  Se  Se30  1  0.348113  0.947079  0.088168  1
  Se  Se31  1  0.348113  0.552921  0.088168  1
  Se  Se32  1  0.156578  0.552410  0.590459  1
  Se  Se33  1  0.843884  0.052361  0.408970  1
  Se  Se34  1  0.156578  0.947590  0.590459  1
  Se  Se35  1  0.654367  0.447223  0.910390  1
