# generated using pymatgen
data_DyEr5Al14(Si5Os4)2
_symmetry_space_group_name_H-M   'P 1'
_cell_length_a   8.69756804
_cell_length_b   8.69810686
_cell_length_c   9.29514300
_cell_angle_alpha   90.00000000
_cell_angle_beta   90.00000000
_cell_angle_gamma   120.05599181
_symmetry_Int_Tables_number   1
_chemical_formula_structural   DyEr5Al14(Si5Os4)2
_chemical_formula_sum   'Dy1 Er5 Al14 Si10 Os8'
_cell_volume   608.64487681
_cell_formula_units_Z   1
loop_
 _symmetry_equiv_pos_site_id
 _symmetry_equiv_pos_as_xyz
  1  'x, y, z'
loop_
 _atom_site_type_symbol
 _atom_site_label
 _atom_site_symmetry_multiplicity
 _atom_site_fract_x
 _atom_site_fract_y
 _atom_site_fract_z
 _atom_site_occupancy
  Dy  Dy0  1  0.190623  0.383657  0.250000  1
  Er  Er1  1  0.807955  0.612936  0.750000  1
  Er  Er2  1  0.614237  0.808205  0.250000  1
  Er  Er3  1  0.387284  0.192202  0.750000  1
  Er  Er4  1  0.193757  0.806206  0.250000  1
  Er  Er5  1  0.805540  0.194524  0.750000  1
  Al  Al6  1  0.165118  0.328331  0.579611  1
  Al  Al7  1  0.834908  0.668867  0.420501  1
  Al  Al8  1  0.671822  0.835007  0.579289  1
  Al  Al9  1  0.834908  0.668867  0.079499  1
  Al  Al10  1  0.331682  0.165248  0.420696  1
  Al  Al11  1  0.165118  0.328331  0.920389  1
  Al  Al12  1  0.164055  0.836020  0.579394  1
  Al  Al13  1  0.331682  0.165248  0.079304  1
  Al  Al14  1  0.833560  0.166100  0.421770  1
  Al  Al15  1  0.671822  0.835007  0.920711  1
  Al  Al16  1  0.833560  0.166100  0.078230  1
  Al  Al17  1  0.164055  0.836020  0.920606  1
  Al  Al18  1  0.435531  0.564822  0.750000  1
  Al  Al19  1  0.999638  0.000399  0.750000  1
  Si  Si20  1  0.334735  0.665766  0.041708  1
  Si  Si21  1  0.665986  0.334295  0.956819  1
  Si  Si22  1  0.665986  0.334295  0.543181  1
  Si  Si23  1  0.334735  0.665766  0.458292  1
  Si  Si24  1  0.560942  0.123547  0.250000  1
  Si  Si25  1  0.436221  0.875618  0.750000  1
  Si  Si26  1  0.875527  0.439132  0.250000  1
  Si  Si27  1  0.124419  0.563969  0.750000  1
  Si  Si28  1  0.563524  0.437579  0.250000  1
  Si  Si29  1  0.999814  0.996528  0.250000  1
  Os  Os30  1  0.500041  0.000720  0.000343  1
  Os  Os31  1  0.999093  0.500193  0.000031  1
  Os  Os32  1  0.500041  0.000720  0.499657  1
  Os  Os33  1  0.501309  0.499447  0.006304  1
  Os  Os34  1  0.999093  0.500193  0.499969  1
  Os  Os35  1  0.501309  0.499447  0.493696  1
  Os  Os36  1  0.000186  0.000341  0.007673  1
  Os  Os37  1  0.000186  0.000341  0.492327  1
