# generated using pymatgen
data_Li4Y16Si15Ge
_symmetry_space_group_name_H-M   'P 1'
_cell_length_a   7.05625604
_cell_length_b   7.65809816
_cell_length_c   14.62004531
_cell_angle_alpha   90.02082569
_cell_angle_beta   90.06100238
_cell_angle_gamma   89.98867936
_symmetry_Int_Tables_number   1
_chemical_formula_structural   Li4Y16Si15Ge
_chemical_formula_sum   'Li4 Y16 Si15 Ge1'
_cell_volume   790.03020343
_cell_formula_units_Z   1
loop_
 _symmetry_equiv_pos_site_id
 _symmetry_equiv_pos_as_xyz
  1  'x, y, z'
loop_
 _atom_site_type_symbol
 _atom_site_label
 _atom_site_symmetry_multiplicity
 _atom_site_fract_x
 _atom_site_fract_y
 _atom_site_fract_z
 _atom_site_occupancy
  Li  Li0  1  0.159986  0.524803  0.749933  1
  Li  Li1  1  0.839924  0.475206  0.250226  1
  Li  Li2  1  0.340093  0.024736  0.250427  1
  Li  Li3  1  0.659961  0.975330  0.750053  1
  Y  Y4  1  0.327916  0.180027  0.628487  1
  Y  Y5  1  0.672106  0.819934  0.371393  1
  Y  Y6  1  0.172078  0.679969  0.371543  1
  Y  Y7  1  0.672952  0.819842  0.128481  1
  Y  Y8  1  0.828035  0.319961  0.628515  1
  Y  Y9  1  0.328943  0.180557  0.871113  1
  Y  Y10  1  0.828652  0.320417  0.871058  1
  Y  Y11  1  0.170684  0.677899  0.129372  1
  Y  Y12  1  0.015490  0.188691  0.098889  1
  Y  Y13  1  0.981932  0.811912  0.900861  1
  Y  Y14  1  0.482933  0.686482  0.900979  1
  Y  Y15  1  0.982331  0.812692  0.598546  1
  Y  Y16  1  0.518428  0.314047  0.098592  1
  Y  Y17  1  0.017800  0.187337  0.401437  1
  Y  Y18  1  0.517787  0.312712  0.401550  1
  Y  Y19  1  0.482129  0.687369  0.598419  1
  Si  Si20  1  0.022929  0.078970  0.749899  1
  Si  Si21  1  0.977409  0.921037  0.250131  1
  Si  Si22  1  0.477272  0.579208  0.250048  1
  Si  Si23  1  0.522791  0.421116  0.749737  1
  Si  Si24  1  0.275210  0.869822  0.750044  1
  Si  Si25  1  0.724575  0.130131  0.250036  1
  Si  Si26  1  0.225280  0.369299  0.250156  1
  Si  Si27  1  0.774888  0.630299  0.749797  1
  Si  Si28  1  0.157300  0.467287  0.534241  1
  Si  Si29  1  0.842685  0.532737  0.465765  1
  Si  Si30  1  0.342806  0.967255  0.465725  1
  Si  Si31  1  0.842569  0.533001  0.033959  1
  Si  Si32  1  0.657232  0.032699  0.534293  1
  Si  Si33  1  0.157706  0.467213  0.965774  1
  Si  Si34  1  0.661821  0.033465  0.964935  1
  Ge  Ge35  1  0.337368  0.966537  0.035587  1
