# generated using pymatgen
data_Ho4Re2(OsRu)3
_symmetry_space_group_name_H-M   'P 1'
_cell_length_a   5.46134554
_cell_length_b   5.16330529
_cell_length_c   9.05571100
_cell_angle_alpha   90.00000000
_cell_angle_beta   90.00000000
_cell_angle_gamma   121.40088751
_symmetry_Int_Tables_number   1
_chemical_formula_structural   Ho4Re2(OsRu)3
_chemical_formula_sum   'Ho4 Re2 Os3 Ru3'
_cell_volume   217.95923763
_cell_formula_units_Z   1
loop_
 _symmetry_equiv_pos_site_id
 _symmetry_equiv_pos_as_xyz
  1  'x, y, z'
loop_
 _atom_site_type_symbol
 _atom_site_label
 _atom_site_symmetry_multiplicity
 _atom_site_fract_x
 _atom_site_fract_y
 _atom_site_fract_z
 _atom_site_occupancy
  Ho  Ho0  1  0.668613  0.337207  0.565224  1
  Ho  Ho1  1  0.331207  0.663025  0.434724  1
  Ho  Ho2  1  0.331207  0.663025  0.065276  1
  Ho  Ho3  1  0.668613  0.337207  0.934776  1
  Re  Re4  1  0.164553  0.327743  0.750000  1
  Re  Re5  1  0.840669  0.672366  0.250000  1
  Os  Os6  1  0.168636  0.823157  0.750000  1
  Os  Os7  1  0.653479  0.823836  0.750000  1
  Os  Os8  1  0.835843  0.178106  0.250000  1
  Ru  Ru9  1  0.992968  0.997929  0.498948  1
  Ru  Ru10  1  0.992968  0.997929  0.001052  1
  Ru  Ru11  1  0.351245  0.178470  0.250000  1
