# generated using pymatgen
data_Pa2Si4Mo3
_symmetry_space_group_name_H-M   'P 1'
_cell_length_a   6.96832600
_cell_length_b   6.80041543
_cell_length_c   6.94086682
_cell_angle_alpha   70.00987748
_cell_angle_beta   90.00000000
_cell_angle_gamma   90.00000000
_symmetry_Int_Tables_number   1
_chemical_formula_structural   Pa2Si4Mo3
_chemical_formula_sum   'Pa4 Si8 Mo6'
_cell_volume   309.09407117
_cell_formula_units_Z   2
loop_
 _symmetry_equiv_pos_site_id
 _symmetry_equiv_pos_as_xyz
  1  'x, y, z'
loop_
 _atom_site_type_symbol
 _atom_site_label
 _atom_site_symmetry_multiplicity
 _atom_site_fract_x
 _atom_site_fract_y
 _atom_site_fract_z
 _atom_site_occupancy
  Pa  Pa0  1  0.332454  0.558609  0.808726  1
  Pa  Pa1  1  0.832454  0.941391  0.191274  1
  Pa  Pa2  1  0.667546  0.441391  0.191274  1
  Pa  Pa3  1  0.167546  0.058609  0.808726  1
  Si  Si4  1  0.546298  0.870741  0.908938  1
  Si  Si5  1  0.046298  0.629259  0.091062  1
  Si  Si6  1  0.453702  0.129259  0.091062  1
  Si  Si7  1  0.953702  0.370741  0.908938  1
  Si  Si8  1  0.133169  0.867427  0.492582  1
  Si  Si9  1  0.633169  0.632573  0.507418  1
  Si  Si10  1  0.866831  0.132573  0.507418  1
  Si  Si11  1  0.366831  0.367427  0.492582  1
  Mo  Mo12  1  0.500000  0.000000  0.500000  1
  Mo  Mo13  1  0.000000  0.500000  0.500000  1
  Mo  Mo14  1  0.837198  0.754692  0.760237  1
  Mo  Mo15  1  0.337198  0.745308  0.239763  1
  Mo  Mo16  1  0.162802  0.245308  0.239763  1
  Mo  Mo17  1  0.662802  0.254692  0.760237  1
