# generated using pymatgen
data_Cr3GeCl16
_symmetry_space_group_name_H-M   'P 1'
_cell_length_a   7.00916704
_cell_length_b   10.63294368
_cell_length_c   10.72488800
_cell_angle_alpha   77.14476261
_cell_angle_beta   90.00343849
_cell_angle_gamma   90.00538480
_symmetry_Int_Tables_number   1
_chemical_formula_structural   Cr3GeCl16
_chemical_formula_sum   'Cr3 Ge1 Cl16'
_cell_volume   779.27095225
_cell_formula_units_Z   1
loop_
 _symmetry_equiv_pos_site_id
 _symmetry_equiv_pos_as_xyz
  1  'x, y, z'
loop_
 _atom_site_type_symbol
 _atom_site_label
 _atom_site_symmetry_multiplicity
 _atom_site_fract_x
 _atom_site_fract_y
 _atom_site_fract_z
 _atom_site_occupancy
  Cr  Cr0  1  0.928130  0.249594  0.643084  1
  Cr  Cr1  1  0.428249  0.750328  0.856918  1
  Cr  Cr2  1  0.071775  0.750506  0.356869  1
  Ge  Ge3  1  0.571784  0.249612  0.143170  1
  Cl  Cl4  1  0.071496  0.404518  0.696916  1
  Cl  Cl5  1  0.571561  0.595421  0.802971  1
  Cl  Cl6  1  0.928530  0.595496  0.303076  1
  Cl  Cl7  1  0.427187  0.405989  0.197448  1
  Cl  Cl8  1  0.930944  0.087029  0.798238  1
  Cl  Cl9  1  0.430908  0.912901  0.701697  1
  Cl  Cl10  1  0.069119  0.912905  0.201636  1
  Cl  Cl11  1  0.569183  0.085609  0.299696  1
  Cl  Cl12  1  0.068519  0.203328  0.484537  1
  Cl  Cl13  1  0.568560  0.796613  0.015556  1
  Cl  Cl14  1  0.931449  0.796617  0.515583  1
  Cl  Cl15  1  0.430248  0.203018  0.983045  1
  Cl  Cl16  1  0.642884  0.303767  0.593204  1
  Cl  Cl17  1  0.142876  0.696251  0.906771  1
  Cl  Cl18  1  0.357081  0.696246  0.406835  1
  Cl  Cl19  1  0.859513  0.304255  0.092751  1
