# generated using pymatgen
data_Pr6Cd23Bi
_symmetry_space_group_name_H-M   'P 1'
_cell_length_a   10.18533984
_cell_length_b   10.18534076
_cell_length_c   10.18534000
_cell_angle_alpha   60.00000246
_cell_angle_beta   59.99999948
_cell_angle_gamma   59.99999889
_symmetry_Int_Tables_number   1
_chemical_formula_structural   Pr6Cd23Bi
_chemical_formula_sum   'Pr6 Cd23 Bi1'
_cell_volume   747.15657567
_cell_formula_units_Z   1
loop_
 _symmetry_equiv_pos_site_id
 _symmetry_equiv_pos_as_xyz
  1  'x, y, z'
loop_
 _atom_site_type_symbol
 _atom_site_label
 _atom_site_symmetry_multiplicity
 _atom_site_fract_x
 _atom_site_fract_y
 _atom_site_fract_z
 _atom_site_occupancy
  Pr  Pr0  1  0.779159  0.779159  0.220841  1
  Pr  Pr1  1  0.220841  0.779159  0.220841  1
  Pr  Pr2  1  0.779159  0.220841  0.220841  1
  Pr  Pr3  1  0.220841  0.220841  0.779159  1
  Pr  Pr4  1  0.779159  0.220841  0.779159  1
  Pr  Pr5  1  0.220841  0.779159  0.779159  1
  Cd  Cd6  1  0.834163  0.834163  0.497513  1
  Cd  Cd7  1  0.834163  0.497513  0.834163  1
  Cd  Cd8  1  0.497513  0.834163  0.834163  1
  Cd  Cd9  1  0.834163  0.834163  0.834163  1
  Cd  Cd10  1  0.165837  0.165837  0.502487  1
  Cd  Cd11  1  0.165837  0.502487  0.165837  1
  Cd  Cd12  1  0.502487  0.165837  0.165837  1
  Cd  Cd13  1  0.165837  0.165837  0.165837  1
  Cd  Cd14  1  0.623228  0.623228  0.130316  1
  Cd  Cd15  1  0.623228  0.130316  0.623228  1
  Cd  Cd16  1  0.130316  0.623228  0.623228  1
  Cd  Cd17  1  0.623228  0.623228  0.623228  1
  Cd  Cd18  1  0.376772  0.376772  0.869684  1
  Cd  Cd19  1  0.376772  0.869684  0.376772  1
  Cd  Cd20  1  0.869684  0.376772  0.376772  1
  Cd  Cd21  1  0.376772  0.376772  0.376772  1
  Cd  Cd22  1  0.000000  0.000000  0.500000  1
  Cd  Cd23  1  0.500000  0.000000  0.500000  1
  Cd  Cd24  1  0.000000  0.500000  0.500000  1
  Cd  Cd25  1  0.500000  0.500000  0.000000  1
  Cd  Cd26  1  0.000000  0.500000  0.000000  1
  Cd  Cd27  1  0.500000  0.000000  0.000000  1
  Cd  Cd28  1  0.500000  0.500000  0.500000  1
  Bi  Bi29  1  0.000000  0.000000  0.000000  1
