# generated using pymatgen
data_CeNdY2(ZnSn)4
_symmetry_space_group_name_H-M   'P 1'
_cell_length_a   4.55384900
_cell_length_b   4.55384932
_cell_length_c   16.22592000
_cell_angle_alpha   90.00000000
_cell_angle_beta   90.00000000
_cell_angle_gamma   120.00000494
_symmetry_Int_Tables_number   1
_chemical_formula_structural   CeNdY2(ZnSn)4
_chemical_formula_sum   'Ce1 Nd1 Y2 Zn4 Sn4'
_cell_volume   291.40514996
_cell_formula_units_Z   1
loop_
 _symmetry_equiv_pos_site_id
 _symmetry_equiv_pos_as_xyz
  1  'x, y, z'
loop_
 _atom_site_type_symbol
 _atom_site_label
 _atom_site_symmetry_multiplicity
 _atom_site_fract_x
 _atom_site_fract_y
 _atom_site_fract_z
 _atom_site_occupancy
  Ce  Ce0  1  0.000000  0.000000  0.000000  1
  Nd  Nd1  1  0.000000  0.000000  0.500000  1
  Y  Y2  1  0.000000  0.000000  0.249979  1
  Y  Y3  1  0.000000  0.000000  0.750021  1
  Zn  Zn4  1  0.666667  0.333333  0.839218  1
  Zn  Zn5  1  0.333333  0.666667  0.337153  1
  Zn  Zn6  1  0.666667  0.333333  0.662847  1
  Zn  Zn7  1  0.333333  0.666667  0.160782  1
  Sn  Sn8  1  0.333333  0.666667  0.617941  1
  Sn  Sn9  1  0.666667  0.333333  0.116645  1
  Sn  Sn10  1  0.666667  0.333333  0.382059  1
  Sn  Sn11  1  0.333333  0.666667  0.883355  1
