# generated using pymatgen
data_Tm7Lu(HfGa5)4
_symmetry_space_group_name_H-M   'P 1'
_cell_length_a   5.85873309
_cell_length_b   9.35343402
_cell_length_c   11.33310018
_cell_angle_alpha   90.00399955
_cell_angle_beta   89.98015408
_cell_angle_gamma   89.99428770
_symmetry_Int_Tables_number   1
_chemical_formula_structural   Tm7Lu(HfGa5)4
_chemical_formula_sum   'Tm7 Lu1 Hf4 Ga20'
_cell_volume   621.04561355
_cell_formula_units_Z   1
loop_
 _symmetry_equiv_pos_site_id
 _symmetry_equiv_pos_as_xyz
  1  'x, y, z'
loop_
 _atom_site_type_symbol
 _atom_site_label
 _atom_site_symmetry_multiplicity
 _atom_site_fract_x
 _atom_site_fract_y
 _atom_site_fract_z
 _atom_site_occupancy
  Tm  Tm0  1  0.885787  0.500646  0.352969  1
  Tm  Tm1  1  0.614152  0.999314  0.852962  1
  Tm  Tm2  1  0.114181  0.000638  0.647040  1
  Tm  Tm3  1  0.385899  0.499352  0.146875  1
  Tm  Tm4  1  0.114139  0.499369  0.647163  1
  Tm  Tm5  1  0.385855  0.000667  0.147010  1
  Tm  Tm6  1  0.885810  0.999376  0.352960  1
  Lu  Lu7  1  0.614112  0.500653  0.852980  1
  Hf  Hf8  1  0.857417  0.749911  0.071816  1
  Hf  Hf9  1  0.642502  0.749986  0.571932  1
  Hf  Hf10  1  0.142732  0.250040  0.928062  1
  Hf  Hf11  1  0.357507  0.250018  0.428150  1
  Ga  Ga12  1  0.875465  0.052539  0.090579  1
  Ga  Ga13  1  0.624552  0.447514  0.590779  1
  Ga  Ga14  1  0.124733  0.552439  0.909331  1
  Ga  Ga15  1  0.375438  0.947474  0.409438  1
  Ga  Ga16  1  0.124573  0.947424  0.909446  1
  Ga  Ga17  1  0.375417  0.552528  0.409418  1
  Ga  Ga18  1  0.875394  0.447497  0.090491  1
  Ga  Ga19  1  0.624524  0.052538  0.590563  1
  Ga  Ga20  1  0.151547  0.749989  0.256662  1
  Ga  Ga21  1  0.348581  0.749802  0.756727  1
  Ga  Ga22  1  0.848233  0.250219  0.743480  1
  Ga  Ga23  1  0.651575  0.250001  0.243321  1
  Ga  Ga24  1  0.396516  0.749933  0.998362  1
  Ga  Ga25  1  0.103587  0.750020  0.498413  1
  Ga  Ga26  1  0.603645  0.250324  0.001328  1
  Ga  Ga27  1  0.896386  0.250039  0.501610  1
  Ga  Ga28  1  0.614055  0.749995  0.293475  1
  Ga  Ga29  1  0.885632  0.749704  0.793530  1
  Ga  Ga30  1  0.386007  0.250063  0.706572  1
  Ga  Ga31  1  0.114048  0.249990  0.206557  1
