# generated using pymatgen
data_Tb4Tl2RhAu3
_symmetry_space_group_name_H-M   'P 1'
_cell_length_a   7.89964500
_cell_length_b   7.89964540
_cell_length_c   3.74099900
_cell_angle_alpha   90.00000000
_cell_angle_beta   90.00000000
_cell_angle_gamma   90.27862340
_symmetry_Int_Tables_number   1
_chemical_formula_structural   Tb4Tl2RhAu3
_chemical_formula_sum   'Tb4 Tl2 Rh1 Au3'
_cell_volume   233.45201641
_cell_formula_units_Z   1
loop_
 _symmetry_equiv_pos_site_id
 _symmetry_equiv_pos_as_xyz
  1  'x, y, z'
loop_
 _atom_site_type_symbol
 _atom_site_label
 _atom_site_symmetry_multiplicity
 _atom_site_fract_x
 _atom_site_fract_y
 _atom_site_fract_z
 _atom_site_occupancy
  Tb  Tb0  1  0.152401  0.321892  0.500000  1
  Tb  Tb1  1  0.685386  0.185386  0.500000  1
  Tb  Tb2  1  0.821892  0.652401  0.500000  1
  Tb  Tb3  1  0.330276  0.830276  0.500000  1
  Tl  Tl4  1  0.998377  0.002995  0.000000  1
  Tl  Tl5  1  0.502995  0.498377  0.000000  1
  Rh  Rh6  1  0.874352  0.374352  0.000000  1
  Au  Au7  1  0.127059  0.627059  0.000000  1
  Au  Au8  1  0.631255  0.876004  0.000000  1
  Au  Au9  1  0.376004  0.131255  0.000000  1
