# generated using pymatgen
data_PrTmPa2(Al3Ir)6
_symmetry_space_group_name_H-M   'P 1'
_cell_length_a   7.61347652
_cell_length_b   7.61786540
_cell_length_c   9.39702500
_cell_angle_alpha   90.00000000
_cell_angle_beta   90.00000000
_cell_angle_gamma   119.65266475
_symmetry_Int_Tables_number   1
_chemical_formula_structural   PrTmPa2(Al3Ir)6
_chemical_formula_sum   'Pr1 Tm1 Pa2 Al18 Ir6'
_cell_volume   473.63820687
_cell_formula_units_Z   1
loop_
 _symmetry_equiv_pos_site_id
 _symmetry_equiv_pos_as_xyz
  1  'x, y, z'
loop_
 _atom_site_type_symbol
 _atom_site_label
 _atom_site_symmetry_multiplicity
 _atom_site_fract_x
 _atom_site_fract_y
 _atom_site_fract_z
 _atom_site_occupancy
  Pr  Pr0  1  0.669192  0.993327  0.250000  1
  Tm  Tm1  1  0.329031  0.006622  0.750000  1
  Pa  Pa2  1  0.998145  0.671102  0.250000  1
  Pa  Pa3  1  0.001736  0.328402  0.750000  1
  Al  Al4  1  0.133338  0.127660  0.250000  1
  Al  Al5  1  0.870100  0.872536  0.750000  1
  Al  Al6  1  0.002592  0.333516  0.075288  1
  Al  Al7  1  0.000359  0.668764  0.921385  1
  Al  Al8  1  0.000359  0.668764  0.578615  1
  Al  Al9  1  0.336415  0.003451  0.428752  1
  Al  Al10  1  0.002592  0.333516  0.424712  1
  Al  Al11  1  0.660541  0.996460  0.577898  1
  Al  Al12  1  0.660541  0.996460  0.922102  1
  Al  Al13  1  0.336415  0.003451  0.071248  1
  Al  Al14  1  0.335083  0.333059  0.555250  1
  Al  Al15  1  0.665187  0.665219  0.450299  1
  Al  Al16  1  0.665187  0.665219  0.049701  1
  Al  Al17  1  0.335083  0.333059  0.944750  1
  Al  Al18  1  0.338805  0.545032  0.250000  1
  Al  Al19  1  0.658414  0.451372  0.750000  1
  Al  Al20  1  0.549387  0.343196  0.250000  1
  Al  Al21  1  0.449532  0.658157  0.750000  1
  Ir  Ir22  1  0.675896  0.330213  0.998137  1
  Ir  Ir23  1  0.323468  0.669724  0.999197  1
  Ir  Ir24  1  0.323468  0.669724  0.500803  1
  Ir  Ir25  1  0.675896  0.330213  0.501863  1
  Ir  Ir26  1  0.001619  0.000890  0.998135  1
  Ir  Ir27  1  0.001619  0.000890  0.501865  1
