# generated using pymatgen
data_Tb2Ti3P7(Ir2Rh)3
_symmetry_space_group_name_H-M   'P 1'
_cell_length_a   3.86470800
_cell_length_b   9.69208994
_cell_length_c   9.69153008
_cell_angle_alpha   119.99564385
_cell_angle_beta   89.99881398
_cell_angle_gamma   90.00111043
_symmetry_Int_Tables_number   1
_chemical_formula_structural   Tb2Ti3P7(Ir2Rh)3
_chemical_formula_sum   'Tb2 Ti3 P7 Ir6 Rh3'
_cell_volume   314.39538586
_cell_formula_units_Z   1
loop_
 _symmetry_equiv_pos_site_id
 _symmetry_equiv_pos_as_xyz
  1  'x, y, z'
loop_
 _atom_site_type_symbol
 _atom_site_label
 _atom_site_symmetry_multiplicity
 _atom_site_fract_x
 _atom_site_fract_y
 _atom_site_fract_z
 _atom_site_occupancy
  Tb  Tb0  1  0.261697  0.666637  0.333325  1
  Tb  Tb1  1  0.761773  0.333426  0.666679  1
  Ti  Ti2  1  0.762069  0.099678  0.877955  1
  Ti  Ti3  1  0.762086  0.121883  0.221646  1
  Ti  Ti4  1  0.762072  0.778300  0.900308  1
  P  P5  1  0.262567  0.999877  0.999942  1
  P  P6  1  0.761796  0.876377  0.588899  1
  P  P7  1  0.761797  0.411002  0.287440  1
  P  P8  1  0.761763  0.712540  0.123680  1
  P  P9  1  0.261860  0.117070  0.417213  1
  P  P10  1  0.261883  0.582859  0.699819  1
  P  P11  1  0.261864  0.300220  0.883053  1
  Ir  Ir12  1  0.261790  0.885105  0.159508  1
  Ir  Ir13  1  0.261888  0.840504  0.725596  1
  Ir  Ir14  1  0.261819  0.274213  0.114801  1
  Ir  Ir15  1  0.261961  0.364444  0.438216  1
  Ir  Ir16  1  0.261892  0.561749  0.926146  1
  Ir  Ir17  1  0.261799  0.074017  0.635634  1
  Rh  Rh18  1  0.761927  0.609934  0.556843  1
  Rh  Rh19  1  0.761875  0.443196  0.053185  1
  Rh  Rh20  1  0.761821  0.946967  0.390111  1
