# generated using pymatgen
data_TbHo2Mg3Ga2Hg
_symmetry_space_group_name_H-M   'P 1'
_cell_length_a   7.40353100
_cell_length_b   7.42374225
_cell_length_c   4.36717200
_cell_angle_alpha   90.00000000
_cell_angle_beta   90.00000000
_cell_angle_gamma   119.90998516
_symmetry_Int_Tables_number   1
_chemical_formula_structural   TbHo2Mg3Ga2Hg
_chemical_formula_sum   'Tb1 Ho2 Mg3 Ga2 Hg1'
_cell_volume   208.05872131
_cell_formula_units_Z   1
loop_
 _symmetry_equiv_pos_site_id
 _symmetry_equiv_pos_as_xyz
  1  'x, y, z'
loop_
 _atom_site_type_symbol
 _atom_site_label
 _atom_site_symmetry_multiplicity
 _atom_site_fract_x
 _atom_site_fract_y
 _atom_site_fract_z
 _atom_site_occupancy
  Tb  Tb0  1  0.573198  0.000000  0.000000  1
  Ho  Ho1  1  0.999548  0.573339  0.000000  1
  Ho  Ho2  1  0.426209  0.426661  0.000000  1
  Mg  Mg3  1  0.250391  0.000000  0.500000  1
  Mg  Mg4  1  0.000202  0.250231  0.500000  1
  Mg  Mg5  1  0.749971  0.749769  0.500000  1
  Ga  Ga6  1  0.332170  0.665311  0.500000  1
  Ga  Ga7  1  0.666860  0.334689  0.500000  1
  Hg  Hg8  1  0.001452  0.000000  0.000000  1
