# generated using pymatgen
data_Ho2GeB2Rh5
_symmetry_space_group_name_H-M   'P 1'
_cell_length_a   9.38552800
_cell_length_b   9.38552800
_cell_length_c   3.25633700
_cell_angle_alpha   90.00000000
_cell_angle_beta   90.00000000
_cell_angle_gamma   90.00000000
_symmetry_Int_Tables_number   1
_chemical_formula_structural   Ho2GeB2Rh5
_chemical_formula_sum   'Ho4 Ge2 B4 Rh10'
_cell_volume   286.84465599
_cell_formula_units_Z   2
loop_
 _symmetry_equiv_pos_site_id
 _symmetry_equiv_pos_as_xyz
  1  'x, y, z'
loop_
 _atom_site_type_symbol
 _atom_site_label
 _atom_site_symmetry_multiplicity
 _atom_site_fract_x
 _atom_site_fract_y
 _atom_site_fract_z
 _atom_site_occupancy
  Ho  Ho0  1  0.825304  0.325304  0.000000  1
  Ho  Ho1  1  0.325304  0.174696  0.000000  1
  Ho  Ho2  1  0.674696  0.825304  0.000000  1
  Ho  Ho3  1  0.174696  0.674696  0.000000  1
  Ge  Ge4  1  0.000000  0.000000  0.000000  1
  Ge  Ge5  1  0.500000  0.500000  0.000000  1
  B  B6  1  0.622268  0.122268  0.000000  1
  B  B7  1  0.122268  0.377732  0.000000  1
  B  B8  1  0.877732  0.622268  0.000000  1
  B  B9  1  0.377732  0.877732  0.000000  1
  Rh  Rh10  1  0.070497  0.217396  0.500000  1
  Rh  Rh11  1  0.217396  0.929503  0.500000  1
  Rh  Rh12  1  0.782604  0.070497  0.500000  1
  Rh  Rh13  1  0.929503  0.782604  0.500000  1
  Rh  Rh14  1  0.429503  0.717396  0.500000  1
  Rh  Rh15  1  0.570497  0.282604  0.500000  1
  Rh  Rh16  1  0.717396  0.570497  0.500000  1
  Rh  Rh17  1  0.282604  0.429503  0.500000  1
  Rh  Rh18  1  0.500000  0.000000  0.500000  1
  Rh  Rh19  1  0.000000  0.500000  0.500000  1
