# generated using pymatgen
data_Er6GaCoRh
_symmetry_space_group_name_H-M   'P 1'
_cell_length_a   8.24994410
_cell_length_b   8.24994438
_cell_length_c   8.24994450
_cell_angle_alpha   112.04130006
_cell_angle_beta   109.90103194
_cell_angle_gamma   106.51872426
_symmetry_Int_Tables_number   1
_chemical_formula_structural   Er6GaCoRh
_chemical_formula_sum   'Er12 Ga2 Co2 Rh2'
_cell_volume   431.23186326
_cell_formula_units_Z   2
loop_
 _symmetry_equiv_pos_site_id
 _symmetry_equiv_pos_as_xyz
  1  'x, y, z'
loop_
 _atom_site_type_symbol
 _atom_site_label
 _atom_site_symmetry_multiplicity
 _atom_site_fract_x
 _atom_site_fract_y
 _atom_site_fract_z
 _atom_site_occupancy
  Er  Er0  1  0.561350  0.256246  0.305104  1
  Er  Er1  1  0.951142  0.256246  0.694896  1
  Er  Er2  1  0.438650  0.743754  0.694896  1
  Er  Er3  1  0.048858  0.743754  0.305104  1
  Er  Er4  1  0.320251  0.510364  0.190113  1
  Er  Er5  1  0.320252  0.130139  0.809887  1
  Er  Er6  1  0.679749  0.869861  0.190113  1
  Er  Er7  1  0.679749  0.489635  0.809887  1
  Er  Er8  1  0.179016  0.218324  0.397341  1
  Er  Er9  1  0.820984  0.781676  0.602659  1
  Er  Er10  1  0.820984  0.218325  0.039308  1
  Er  Er11  1  0.179016  0.781675  0.960692  1
  Ga  Ga12  1  0.500000  0.000000  0.500000  1
  Ga  Ga13  1  0.000000  0.500000  0.500000  1
  Co  Co14  1  0.113950  0.113950  0.000000  1
  Co  Co15  1  0.886052  0.886052  0.000000  1
  Rh  Rh16  1  0.662516  0.500000  0.162516  1
  Rh  Rh17  1  0.337484  0.500000  0.837484  1
