# generated using pymatgen
data_TbEr5Co17P12Ru
_symmetry_space_group_name_H-M   'P 1'
_cell_length_a   3.68462000
_cell_length_b   10.49041000
_cell_length_c   12.19848700
_cell_angle_alpha   90.00000000
_cell_angle_beta   90.00000000
_cell_angle_gamma   90.00000000
_symmetry_Int_Tables_number   1
_chemical_formula_structural   TbEr5Co17P12Ru
_chemical_formula_sum   'Tb1 Er5 Co17 P12 Ru1'
_cell_volume   471.51024658
_cell_formula_units_Z   1
loop_
 _symmetry_equiv_pos_site_id
 _symmetry_equiv_pos_as_xyz
  1  'x, y, z'
loop_
 _atom_site_type_symbol
 _atom_site_label
 _atom_site_symmetry_multiplicity
 _atom_site_fract_x
 _atom_site_fract_y
 _atom_site_fract_z
 _atom_site_occupancy
  Tb  Tb0  1  0.250000  0.750000  0.522161  1
  Er  Er1  1  0.750000  0.250000  0.475015  1
  Er  Er2  1  0.250000  0.932362  0.793275  1
  Er  Er3  1  0.250000  0.567638  0.793275  1
  Er  Er4  1  0.750000  0.067550  0.206304  1
  Er  Er5  1  0.750000  0.432450  0.206304  1
  Co  Co6  1  0.750000  0.750000  0.159864  1
  Co  Co7  1  0.250000  0.250000  0.295890  1
  Co  Co8  1  0.750000  0.750000  0.705583  1
  Co  Co9  1  0.750000  0.250000  0.012635  1
  Co  Co10  1  0.250000  0.750000  0.986379  1
  Co  Co11  1  0.250000  0.417803  0.008691  1
  Co  Co12  1  0.250000  0.082197  0.008691  1
  Co  Co13  1  0.750000  0.583299  0.994649  1
  Co  Co14  1  0.750000  0.916701  0.994649  1
  Co  Co15  1  0.250000  0.451975  0.569556  1
  Co  Co16  1  0.250000  0.048025  0.569556  1
  Co  Co17  1  0.750000  0.546114  0.431083  1
  Co  Co18  1  0.750000  0.953886  0.431083  1
  Co  Co19  1  0.250000  0.871369  0.290623  1
  Co  Co20  1  0.250000  0.628631  0.290623  1
  Co  Co21  1  0.750000  0.129090  0.708092  1
  Co  Co22  1  0.750000  0.370910  0.708092  1
  P  P23  1  0.250000  0.250000  0.118249  1
  P  P24  1  0.750000  0.750000  0.883313  1
  P  P25  1  0.250000  0.250000  0.648598  1
  P  P26  1  0.750000  0.750000  0.344036  1
  P  P27  1  0.250000  0.438242  0.383320  1
  P  P28  1  0.250000  0.061758  0.383320  1
  P  P29  1  0.750000  0.561499  0.616608  1
  P  P30  1  0.750000  0.938501  0.616608  1
  P  P31  1  0.250000  0.901601  0.108369  1
  P  P32  1  0.250000  0.598399  0.108369  1
  P  P33  1  0.750000  0.094392  0.893745  1
  P  P34  1  0.750000  0.405608  0.893745  1
  Ru  Ru35  1  0.250000  0.250000  0.839647  1
