# generated using pymatgen
data_Ac4Ag5Ge3
_symmetry_space_group_name_H-M   'P 1'
_cell_length_a   4.71085800
_cell_length_b   8.35063671
_cell_length_c   8.20215605
_cell_angle_alpha   90.21344928
_cell_angle_beta   90.00000000
_cell_angle_gamma   90.00000000
_symmetry_Int_Tables_number   1
_chemical_formula_structural   Ac4Ag5Ge3
_chemical_formula_sum   'Ac4 Ag5 Ge3'
_cell_volume   322.65961985
_cell_formula_units_Z   1
loop_
 _symmetry_equiv_pos_site_id
 _symmetry_equiv_pos_as_xyz
  1  'x, y, z'
loop_
 _atom_site_type_symbol
 _atom_site_label
 _atom_site_symmetry_multiplicity
 _atom_site_fract_x
 _atom_site_fract_y
 _atom_site_fract_z
 _atom_site_occupancy
  Ac  Ac0  1  0.500000  0.496050  0.760680  1
  Ac  Ac1  1  0.500000  0.000453  0.749405  1
  Ac  Ac2  1  0.000000  0.503890  0.242037  1
  Ac  Ac3  1  0.000000  0.998251  0.247378  1
  Ag  Ag4  1  0.500000  0.755530  0.073455  1
  Ag  Ag5  1  0.500000  0.254011  0.418999  1
  Ag  Ag6  1  0.000000  0.242688  0.915655  1
  Ag  Ag7  1  0.000000  0.739501  0.592716  1
  Ag  Ag8  1  0.500000  0.747901  0.414243  1
  Ge  Ge9  1  0.500000  0.248326  0.087545  1
  Ge  Ge10  1  0.000000  0.257923  0.580144  1
  Ge  Ge11  1  0.000000  0.755477  0.917745  1
