# generated using pymatgen
data_Ho16CdIn(AgIr2)2
_symmetry_space_group_name_H-M   'P 1'
_cell_length_a   9.57095164
_cell_length_b   9.55522697
_cell_length_c   9.57881300
_cell_angle_alpha   59.91830920
_cell_angle_beta   59.97282189
_cell_angle_gamma   59.97203850
_symmetry_Int_Tables_number   1
_chemical_formula_structural   Ho16CdIn(AgIr2)2
_chemical_formula_sum   'Ho16 Cd1 In1 Ag2 Ir4'
_cell_volume   618.78974071
_cell_formula_units_Z   1
loop_
 _symmetry_equiv_pos_site_id
 _symmetry_equiv_pos_as_xyz
  1  'x, y, z'
loop_
 _atom_site_type_symbol
 _atom_site_label
 _atom_site_symmetry_multiplicity
 _atom_site_fract_x
 _atom_site_fract_y
 _atom_site_fract_z
 _atom_site_occupancy
  Ho  Ho0  1  0.600116  0.599617  0.599068  1
  Ho  Ho1  1  0.600116  0.599617  0.201201  1
  Ho  Ho2  1  0.600539  0.200324  0.599569  1
  Ho  Ho3  1  0.199389  0.600230  0.600191  1
  Ho  Ho4  1  0.058810  0.439919  0.441839  1
  Ho  Ho5  1  0.438268  0.060796  0.060919  1
  Ho  Ho6  1  0.438268  0.060796  0.440017  1
  Ho  Ho7  1  0.058810  0.439919  0.059431  1
  Ho  Ho8  1  0.441106  0.440146  0.059374  1
  Ho  Ho9  1  0.059992  0.060726  0.439641  1
  Ho  Ho10  1  0.186367  0.810435  0.812987  1
  Ho  Ho11  1  0.812052  0.184559  0.190482  1
  Ho  Ho12  1  0.812052  0.184559  0.812907  1
  Ho  Ho13  1  0.186367  0.810435  0.190210  1
  Ho  Ho14  1  0.812115  0.810458  0.188713  1
  Ho  Ho15  1  0.187989  0.185587  0.813212  1
  Cd  Cd16  1  0.508509  0.832713  0.829388  1
  In  In17  1  0.831770  0.508676  0.829777  1
  Ag  Ag18  1  0.832785  0.834014  0.832316  1
  Ag  Ag19  1  0.832785  0.834014  0.500885  1
  Ir  Ir20  1  0.392182  0.392752  0.390185  1
  Ir  Ir21  1  0.392182  0.392752  0.824882  1
  Ir  Ir22  1  0.392122  0.824560  0.391660  1
  Ir  Ir23  1  0.825311  0.392398  0.391147  1
