# generated using pymatgen
data_Li2Tb3(AgGe2)2
_symmetry_space_group_name_H-M   'P 1'
_cell_length_a   8.27289778
_cell_length_b   8.27289755
_cell_length_c   8.27289680
_cell_angle_alpha   149.58419868
_cell_angle_beta   130.46507909
_cell_angle_gamma   59.24563937
_symmetry_Int_Tables_number   1
_chemical_formula_structural   Li2Tb3(AgGe2)2
_chemical_formula_sum   'Li2 Tb3 Ag2 Ge4'
_cell_volume   216.36396730
_cell_formula_units_Z   1
loop_
 _symmetry_equiv_pos_site_id
 _symmetry_equiv_pos_as_xyz
  1  'x, y, z'
loop_
 _atom_site_type_symbol
 _atom_site_label
 _atom_site_symmetry_multiplicity
 _atom_site_fract_x
 _atom_site_fract_y
 _atom_site_fract_z
 _atom_site_occupancy
  Li  Li0  1  0.637099  0.329211  0.307888  1
  Li  Li1  1  0.978676  0.670788  0.307888  1
  Tb  Tb2  1  0.001332  0.000000  0.001332  1
  Tb  Tb3  1  0.632001  0.126425  0.505574  1
  Tb  Tb4  1  0.379150  0.873574  0.505574  1
  Ag  Ag5  1  0.359831  0.671961  0.687869  1
  Ag  Ag6  1  0.015908  0.328038  0.687869  1
  Ge  Ge7  1  0.207972  0.214058  0.993914  1
  Ge  Ge8  1  0.779855  0.785941  0.993914  1
  Ge  Ge9  1  0.690435  0.500000  0.190435  1
  Ge  Ge10  1  0.317737  0.499999  0.817736  1
