# generated using pymatgen
data_Y5ThRh2
_symmetry_space_group_name_H-M   'P 1'
_cell_length_a   6.39537898
_cell_length_b   7.14360401
_cell_length_c   9.73043600
_cell_angle_alpha   90.00000000
_cell_angle_beta   90.00000000
_cell_angle_gamma   88.73191395
_symmetry_Int_Tables_number   1
_chemical_formula_structural   Y5ThRh2
_chemical_formula_sum   'Y10 Th2 Rh4'
_cell_volume   444.43636099
_cell_formula_units_Z   2
loop_
 _symmetry_equiv_pos_site_id
 _symmetry_equiv_pos_as_xyz
  1  'x, y, z'
loop_
 _atom_site_type_symbol
 _atom_site_label
 _atom_site_symmetry_multiplicity
 _atom_site_fract_x
 _atom_site_fract_y
 _atom_site_fract_z
 _atom_site_occupancy
  Y  Y0  1  0.139602  0.465417  0.750000  1
  Y  Y1  1  0.860398  0.534583  0.250000  1
  Y  Y2  1  0.169321  0.177447  0.063432  1
  Y  Y3  1  0.830679  0.822553  0.936568  1
  Y  Y4  1  0.669573  0.323306  0.934268  1
  Y  Y5  1  0.830679  0.822553  0.563432  1
  Y  Y6  1  0.330427  0.676694  0.065732  1
  Y  Y7  1  0.169321  0.177447  0.436568  1
  Y  Y8  1  0.330427  0.676694  0.434268  1
  Y  Y9  1  0.669573  0.323306  0.565732  1
  Th  Th10  1  0.653451  0.042047  0.250000  1
  Th  Th11  1  0.346549  0.957953  0.750000  1
  Rh  Rh12  1  0.450924  0.369859  0.250000  1
  Rh  Rh13  1  0.549076  0.630141  0.750000  1
  Rh  Rh14  1  0.952486  0.116183  0.750000  1
  Rh  Rh15  1  0.047514  0.883817  0.250000  1
