# generated using pymatgen
data_Y12Ni4HgRh
_symmetry_space_group_name_H-M   'P 1'
_cell_length_a   8.32892167
_cell_length_b   8.32892144
_cell_length_c   8.32892080
_cell_angle_alpha   110.53232969
_cell_angle_beta   109.79496666
_cell_angle_gamma   108.09592483
_symmetry_Int_Tables_number   1
_chemical_formula_structural   Y12Ni4HgRh
_chemical_formula_sum   'Y12 Ni4 Hg1 Rh1'
_cell_volume   444.56861049
_cell_formula_units_Z   1
loop_
 _symmetry_equiv_pos_site_id
 _symmetry_equiv_pos_as_xyz
  1  'x, y, z'
loop_
 _atom_site_type_symbol
 _atom_site_label
 _atom_site_symmetry_multiplicity
 _atom_site_fract_x
 _atom_site_fract_y
 _atom_site_fract_z
 _atom_site_occupancy
  Y  Y0  1  0.407923  0.216180  0.191743  1
  Y  Y1  1  0.592077  0.783820  0.808257  1
  Y  Y2  1  0.024438  0.216180  0.808257  1
  Y  Y3  1  0.975562  0.783820  0.191743  1
  Y  Y4  1  0.183422  0.292462  0.475884  1
  Y  Y5  1  0.816578  0.707538  0.524116  1
  Y  Y6  1  0.183422  0.707538  0.890960  1
  Y  Y7  1  0.816578  0.292462  0.109040  1
  Y  Y8  1  0.321871  0.622908  0.301039  1
  Y  Y9  1  0.678129  0.377092  0.698961  1
  Y  Y10  1  0.321871  0.020832  0.698961  1
  Y  Y11  1  0.678129  0.979168  0.301039  1
  Ni  Ni12  1  0.368791  0.000000  0.368791  1
  Ni  Ni13  1  0.631209  0.000000  0.631209  1
  Ni  Ni14  1  0.121743  0.621743  0.500000  1
  Ni  Ni15  1  0.878257  0.378257  0.500000  1
  Hg  Hg16  1  0.500000  0.500000  0.000000  1
  Rh  Rh17  1  0.000000  0.000000  0.000000  1
