# generated using pymatgen
data_TbYCCl
_symmetry_space_group_name_H-M   'P 1'
_cell_length_a   3.65734500
_cell_length_b   3.65734466
_cell_length_c   13.67413300
_cell_angle_alpha   90.00000000
_cell_angle_beta   90.00000000
_cell_angle_gamma   120.00001211
_symmetry_Int_Tables_number   1
_chemical_formula_structural   TbYCCl
_chemical_formula_sum   'Tb2 Y2 C2 Cl2'
_cell_volume   158.40256043
_cell_formula_units_Z   2
loop_
 _symmetry_equiv_pos_site_id
 _symmetry_equiv_pos_as_xyz
  1  'x, y, z'
loop_
 _atom_site_type_symbol
 _atom_site_label
 _atom_site_symmetry_multiplicity
 _atom_site_fract_x
 _atom_site_fract_y
 _atom_site_fract_z
 _atom_site_occupancy
  Tb  Tb0  1  0.333333  0.666667  0.094119  1
  Tb  Tb1  1  0.666667  0.333333  0.594119  1
  Y  Y2  1  0.666667  0.333333  0.905878  1
  Y  Y3  1  0.333333  0.666667  0.405878  1
  C  C4  1  0.000000  0.000000  0.999367  1
  C  C5  1  0.000000  0.000000  0.499367  1
  Cl  Cl6  1  0.666667  0.333333  0.250635  1
  Cl  Cl7  1  0.333333  0.666667  0.750635  1
