# generated using pymatgen
data_CePr15Mg3Ir4Au
_symmetry_space_group_name_H-M   'P 1'
_cell_length_a   10.04395620
_cell_length_b   10.04395616
_cell_length_c   10.04395672
_cell_angle_alpha   59.94752738
_cell_angle_beta   59.94752568
_cell_angle_gamma   59.94752849
_symmetry_Int_Tables_number   1
_chemical_formula_structural   CePr15Mg3Ir4Au
_chemical_formula_sum   'Ce1 Pr15 Mg3 Ir4 Au1'
_cell_volume   715.61972013
_cell_formula_units_Z   1
loop_
 _symmetry_equiv_pos_site_id
 _symmetry_equiv_pos_as_xyz
  1  'x, y, z'
loop_
 _atom_site_type_symbol
 _atom_site_label
 _atom_site_symmetry_multiplicity
 _atom_site_fract_x
 _atom_site_fract_y
 _atom_site_fract_z
 _atom_site_occupancy
  Ce  Ce0  1  0.341612  0.341612  0.341612  1
  Pr  Pr1  1  0.347584  0.347584  0.956619  1
  Pr  Pr2  1  0.347584  0.956619  0.347584  1
  Pr  Pr3  1  0.956619  0.347584  0.347584  1
  Pr  Pr4  1  0.810793  0.189241  0.189241  1
  Pr  Pr5  1  0.189884  0.808082  0.808082  1
  Pr  Pr6  1  0.189241  0.810793  0.189241  1
  Pr  Pr7  1  0.808082  0.189884  0.808082  1
  Pr  Pr8  1  0.189241  0.189241  0.810793  1
  Pr  Pr9  1  0.808082  0.808082  0.189884  1
  Pr  Pr10  1  0.935169  0.559794  0.559794  1
  Pr  Pr11  1  0.559239  0.936657  0.936657  1
  Pr  Pr12  1  0.559794  0.935169  0.559794  1
  Pr  Pr13  1  0.936657  0.559239  0.936657  1
  Pr  Pr14  1  0.559794  0.559794  0.935169  1
  Pr  Pr15  1  0.936657  0.936657  0.559239  1
  Mg  Mg16  1  0.579210  0.579210  0.270505  1
  Mg  Mg17  1  0.579210  0.270505  0.579210  1
  Mg  Mg18  1  0.270505  0.579210  0.579210  1
  Ir  Ir19  1  0.141450  0.141450  0.141450  1
  Ir  Ir20  1  0.148957  0.148957  0.570817  1
  Ir  Ir21  1  0.148957  0.570817  0.148957  1
  Ir  Ir22  1  0.570817  0.148957  0.148957  1
  Au  Au23  1  0.584865  0.584865  0.584865  1
