# generated using pymatgen
data_Tb5HoAl24(Ru3Pt)2
_symmetry_space_group_name_H-M   'P 1'
_cell_length_a   8.82705572
_cell_length_b   8.80932032
_cell_length_c   9.56555729
_cell_angle_alpha   90.04588657
_cell_angle_beta   90.06873553
_cell_angle_gamma   119.64802068
_symmetry_Int_Tables_number   1
_chemical_formula_structural   Tb5HoAl24(Ru3Pt)2
_chemical_formula_sum   'Tb5 Ho1 Al24 Ru6 Pt2'
_cell_volume   646.43930119
_cell_formula_units_Z   1
loop_
 _symmetry_equiv_pos_site_id
 _symmetry_equiv_pos_as_xyz
  1  'x, y, z'
loop_
 _atom_site_type_symbol
 _atom_site_label
 _atom_site_symmetry_multiplicity
 _atom_site_fract_x
 _atom_site_fract_y
 _atom_site_fract_z
 _atom_site_occupancy
  Tb  Tb0  1  0.190480  0.385562  0.252404  1
  Tb  Tb1  1  0.809418  0.614131  0.747619  1
  Tb  Tb2  1  0.616680  0.809257  0.251456  1
  Tb  Tb3  1  0.383537  0.190777  0.748588  1
  Tb  Tb4  1  0.191279  0.806202  0.251848  1
  Ho  Ho5  1  0.808263  0.194663  0.747934  1
  Al  Al6  1  0.327314  0.664225  0.024835  1
  Al  Al7  1  0.672816  0.335466  0.974593  1
  Al  Al8  1  0.666894  0.332676  0.522190  1
  Al  Al9  1  0.333326  0.667173  0.478294  1
  Al  Al10  1  0.163311  0.327048  0.576800  1
  Al  Al11  1  0.836316  0.672683  0.423566  1
  Al  Al12  1  0.673892  0.837437  0.576308  1
  Al  Al13  1  0.842058  0.675499  0.078122  1
  Al  Al14  1  0.326404  0.163003  0.424085  1
  Al  Al15  1  0.157537  0.324221  0.921482  1
  Al  Al16  1  0.163535  0.837065  0.577299  1
  Al  Al17  1  0.322913  0.162095  0.078866  1
  Al  Al18  1  0.836524  0.162940  0.423317  1
  Al  Al19  1  0.677306  0.838270  0.920766  1
  Al  Al20  1  0.841696  0.167492  0.077963  1
  Al  Al21  1  0.158271  0.832461  0.921460  1
  Al  Al22  1  0.562178  0.125151  0.252480  1
  Al  Al23  1  0.438406  0.875259  0.747603  1
  Al  Al24  1  0.877197  0.439318  0.248911  1
  Al  Al25  1  0.122365  0.560047  0.751054  1
  Al  Al26  1  0.562714  0.437362  0.252874  1
  Al  Al27  1  0.437247  0.562652  0.747194  1
  Al  Al28  1  0.998195  0.999963  0.250322  1
  Al  Al29  1  0.001346  0.000466  0.749654  1
  Ru  Ru30  1  0.999817  0.499643  0.999761  1
  Ru  Ru31  1  0.500376  0.000229  0.500270  1
  Ru  Ru32  1  0.999823  0.499667  0.500219  1
  Ru  Ru33  1  0.500080  0.499946  0.500122  1
  Ru  Ru34  1  0.000018  0.999977  0.999973  1
  Ru  Ru35  1  0.000051  0.999967  0.500001  1
  Pt  Pt36  1  0.500284  0.000107  0.999828  1
  Pt  Pt37  1  0.500130  0.499900  0.999941  1
