# generated using pymatgen
data_Dy10Y6Cd4OsPt3
_symmetry_space_group_name_H-M   'P 1'
_cell_length_a   9.72141240
_cell_length_b   9.72141275
_cell_length_c   9.72141186
_cell_angle_alpha   59.59134224
_cell_angle_beta   59.59134926
_cell_angle_gamma   59.59134336
_symmetry_Int_Tables_number   1
_chemical_formula_structural   Dy10Y6Cd4OsPt3
_chemical_formula_sum   'Dy10 Y6 Cd4 Os1 Pt3'
_cell_volume   643.60615988
_cell_formula_units_Z   1
loop_
 _symmetry_equiv_pos_site_id
 _symmetry_equiv_pos_as_xyz
  1  'x, y, z'
loop_
 _atom_site_type_symbol
 _atom_site_label
 _atom_site_symmetry_multiplicity
 _atom_site_fract_x
 _atom_site_fract_y
 _atom_site_fract_z
 _atom_site_occupancy
  Dy  Dy0  1  0.351651  0.351651  0.351651  1
  Dy  Dy1  1  0.349845  0.349845  0.947762  1
  Dy  Dy2  1  0.349845  0.947762  0.349845  1
  Dy  Dy3  1  0.947762  0.349845  0.349845  1
  Dy  Dy4  1  0.814571  0.189011  0.189011  1
  Dy  Dy5  1  0.188972  0.809829  0.809829  1
  Dy  Dy6  1  0.189011  0.814571  0.189011  1
  Dy  Dy7  1  0.809829  0.188972  0.809829  1
  Dy  Dy8  1  0.189011  0.189011  0.814571  1
  Dy  Dy9  1  0.809829  0.809829  0.188972  1
  Y  Y10  1  0.935921  0.565004  0.565004  1
  Y  Y11  1  0.558730  0.937708  0.937708  1
  Y  Y12  1  0.565004  0.935921  0.565004  1
  Y  Y13  1  0.937708  0.558730  0.937708  1
  Y  Y14  1  0.565004  0.565004  0.935921  1
  Y  Y15  1  0.937708  0.937708  0.558730  1
  Cd  Cd16  1  0.580495  0.580495  0.580495  1
  Cd  Cd17  1  0.581136  0.581136  0.254523  1
  Cd  Cd18  1  0.581136  0.254523  0.581136  1
  Cd  Cd19  1  0.254523  0.581136  0.581136  1
  Os  Os20  1  0.143204  0.143204  0.143204  1
  Pt  Pt21  1  0.143492  0.143492  0.572125  1
  Pt  Pt22  1  0.143492  0.572125  0.143492  1
  Pt  Pt23  1  0.572125  0.143492  0.143492  1
