# generated using pymatgen
data_Ce6Th2TiSe17
_symmetry_space_group_name_H-M   'P 1'
_cell_length_a   8.38500916
_cell_length_b   8.38500895
_cell_length_c   11.13168723
_cell_angle_alpha   80.61853456
_cell_angle_beta   80.61854001
_cell_angle_gamma   65.95660087
_symmetry_Int_Tables_number   1
_chemical_formula_structural   Ce6Th2TiSe17
_chemical_formula_sum   'Ce6 Th2 Ti1 Se17'
_cell_volume   701.12210040
_cell_formula_units_Z   1
loop_
 _symmetry_equiv_pos_site_id
 _symmetry_equiv_pos_as_xyz
  1  'x, y, z'
loop_
 _atom_site_type_symbol
 _atom_site_label
 _atom_site_symmetry_multiplicity
 _atom_site_fract_x
 _atom_site_fract_y
 _atom_site_fract_z
 _atom_site_occupancy
  Ce  Ce0  1  0.815813  0.300921  0.299275  1
  Ce  Ce1  1  0.300921  0.815813  0.299275  1
  Ce  Ce2  1  0.184187  0.699079  0.700725  1
  Ce  Ce3  1  0.699079  0.184187  0.700725  1
  Ce  Ce4  1  0.205718  0.205718  0.539850  1
  Ce  Ce5  1  0.794282  0.794282  0.460150  1
  Th  Th6  1  0.680379  0.680379  0.981891  1
  Th  Th7  1  0.319621  0.319621  0.018109  1
  Ti  Ti8  1  0.000000  0.000000  0.000000  1
  Se  Se9  1  0.824914  0.429674  0.532900  1
  Se  Se10  1  0.429674  0.824914  0.532900  1
  Se  Se11  1  0.175086  0.570326  0.467100  1
  Se  Se12  1  0.570326  0.175086  0.467100  1
  Se  Se13  1  0.943236  0.320432  0.025592  1
  Se  Se14  1  0.320432  0.943236  0.025592  1
  Se  Se15  1  0.056764  0.679568  0.974408  1
  Se  Se16  1  0.679568  0.056764  0.974408  1
  Se  Se17  1  0.210408  0.210408  0.275832  1
  Se  Se18  1  0.789592  0.789592  0.724168  1
  Se  Se19  1  0.061089  0.061089  0.773538  1
  Se  Se20  1  0.938911  0.938911  0.226462  1
  Se  Se21  1  0.303629  0.303629  0.754253  1
  Se  Se22  1  0.696371  0.696371  0.245747  1
  Se  Se23  1  0.519585  0.519585  0.834299  1
  Se  Se24  1  0.480415  0.480415  0.165701  1
  Se  Se25  1  0.000000  0.000000  0.500000  1
