# generated using pymatgen
data_Tm3MnAl9(SiOs)3
_symmetry_space_group_name_H-M   'P 1'
_cell_length_a   8.65044600
_cell_length_b   8.62288213
_cell_length_c   9.46435100
_cell_angle_alpha   90.00000000
_cell_angle_beta   90.00000000
_cell_angle_gamma   120.10579900
_symmetry_Int_Tables_number   1
_chemical_formula_structural   Tm3MnAl9(SiOs)3
_chemical_formula_sum   'Tm6 Mn2 Al18 Si6 Os6'
_cell_volume   610.72884087
_cell_formula_units_Z   2
loop_
 _symmetry_equiv_pos_site_id
 _symmetry_equiv_pos_as_xyz
  1  'x, y, z'
loop_
 _atom_site_type_symbol
 _atom_site_label
 _atom_site_symmetry_multiplicity
 _atom_site_fract_x
 _atom_site_fract_y
 _atom_site_fract_z
 _atom_site_occupancy
  Tm  Tm0  1  0.195409  0.390817  0.250000  1
  Tm  Tm1  1  0.804591  0.609183  0.750000  1
  Tm  Tm2  1  0.606546  0.805956  0.250000  1
  Tm  Tm3  1  0.393454  0.194044  0.750000  1
  Tm  Tm4  1  0.199412  0.805956  0.250000  1
  Tm  Tm5  1  0.800588  0.194044  0.750000  1
  Mn  Mn6  1  0.000000  0.000000  0.000000  1
  Mn  Mn7  1  0.000000  0.000000  0.500000  1
  Al  Al8  1  0.161496  0.322992  0.579091  1
  Al  Al9  1  0.838504  0.677008  0.420909  1
  Al  Al10  1  0.677517  0.838015  0.577277  1
  Al  Al11  1  0.838504  0.677008  0.079091  1
  Al  Al12  1  0.322483  0.161985  0.422723  1
  Al  Al13  1  0.161496  0.322992  0.920909  1
  Al  Al14  1  0.160497  0.838015  0.577277  1
  Al  Al15  1  0.322483  0.161985  0.077277  1
  Al  Al16  1  0.839503  0.161985  0.422723  1
  Al  Al17  1  0.677517  0.838015  0.922723  1
  Al  Al18  1  0.839503  0.161985  0.077277  1
  Al  Al19  1  0.160497  0.838015  0.922723  1
  Al  Al20  1  0.871330  0.432301  0.250000  1
  Al  Al21  1  0.128670  0.567699  0.750000  1
  Al  Al22  1  0.560972  0.432301  0.250000  1
  Al  Al23  1  0.439028  0.567699  0.750000  1
  Al  Al24  1  0.999621  0.999242  0.250000  1
  Al  Al25  1  0.000379  0.000758  0.750000  1
  Si  Si26  1  0.332101  0.664203  0.037772  1
  Si  Si27  1  0.667899  0.335797  0.962228  1
  Si  Si28  1  0.667899  0.335797  0.537772  1
  Si  Si29  1  0.332101  0.664203  0.462228  1
  Si  Si30  1  0.563620  0.127240  0.250000  1
  Si  Si31  1  0.436380  0.872760  0.750000  1
  Os  Os32  1  0.500000  0.000000  0.000000  1
  Os  Os33  1  0.000000  0.500000  0.000000  1
  Os  Os34  1  0.500000  0.000000  0.500000  1
  Os  Os35  1  0.500000  0.500000  0.000000  1
  Os  Os36  1  0.000000  0.500000  0.500000  1
  Os  Os37  1  0.500000  0.500000  0.500000  1
