# generated using pymatgen
data_LuPa3(GePt)4
_symmetry_space_group_name_H-M   'P 1'
_cell_length_a   4.39994000
_cell_length_b   7.02136809
_cell_length_c   7.64860108
_cell_angle_alpha   90.01734917
_cell_angle_beta   90.00000000
_cell_angle_gamma   90.00000000
_symmetry_Int_Tables_number   1
_chemical_formula_structural   LuPa3(GePt)4
_chemical_formula_sum   'Lu1 Pa3 Ge4 Pt4'
_cell_volume   236.29279852
_cell_formula_units_Z   1
loop_
 _symmetry_equiv_pos_site_id
 _symmetry_equiv_pos_as_xyz
  1  'x, y, z'
loop_
 _atom_site_type_symbol
 _atom_site_label
 _atom_site_symmetry_multiplicity
 _atom_site_fract_x
 _atom_site_fract_y
 _atom_site_fract_z
 _atom_site_occupancy
  Lu  Lu0  1  0.250000  0.504145  0.204283  1
  Pa  Pa1  1  0.750000  0.495914  0.793742  1
  Pa  Pa2  1  0.250000  0.003312  0.295513  1
  Pa  Pa3  1  0.750000  0.993285  0.705527  1
  Ge  Ge4  1  0.250000  0.694799  0.587151  1
  Ge  Ge5  1  0.250000  0.191951  0.912577  1
  Ge  Ge6  1  0.750000  0.304061  0.408580  1
  Ge  Ge7  1  0.750000  0.807978  0.092807  1
  Pt  Pt8  1  0.250000  0.788410  0.918568  1
  Pt  Pt9  1  0.250000  0.289212  0.583226  1
  Pt  Pt10  1  0.750000  0.705368  0.415884  1
  Pt  Pt11  1  0.750000  0.221566  0.082141  1
