# generated using pymatgen
data_Tb3Lu5(CdIr)2
_symmetry_space_group_name_H-M   'P 1'
_cell_length_a   9.52200592
_cell_length_b   9.52200562
_cell_length_c   9.52200700
_cell_angle_alpha   59.99999866
_cell_angle_beta   59.99999973
_cell_angle_gamma   60.00000076
_symmetry_Int_Tables_number   1
_chemical_formula_structural   Tb3Lu5(CdIr)2
_chemical_formula_sum   'Tb6 Lu10 Cd4 Ir4'
_cell_volume   610.47850392
_cell_formula_units_Z   2
loop_
 _symmetry_equiv_pos_site_id
 _symmetry_equiv_pos_as_xyz
  1  'x, y, z'
loop_
 _atom_site_type_symbol
 _atom_site_label
 _atom_site_symmetry_multiplicity
 _atom_site_fract_x
 _atom_site_fract_y
 _atom_site_fract_z
 _atom_site_occupancy
  Tb  Tb0  1  0.189713  0.810287  0.810287  1
  Tb  Tb1  1  0.810287  0.189713  0.189713  1
  Tb  Tb2  1  0.810287  0.189713  0.810287  1
  Tb  Tb3  1  0.189713  0.810287  0.189713  1
  Tb  Tb4  1  0.810287  0.810287  0.189713  1
  Tb  Tb5  1  0.189713  0.189713  0.810287  1
  Lu  Lu6  1  0.598542  0.598542  0.598542  1
  Lu  Lu7  1  0.598542  0.598542  0.204376  1
  Lu  Lu8  1  0.598542  0.204376  0.598542  1
  Lu  Lu9  1  0.204376  0.598542  0.598542  1
  Lu  Lu10  1  0.062133  0.437867  0.437867  1
  Lu  Lu11  1  0.437867  0.062133  0.062133  1
  Lu  Lu12  1  0.437867  0.062133  0.437867  1
  Lu  Lu13  1  0.062133  0.437867  0.062133  1
  Lu  Lu14  1  0.437867  0.437867  0.062133  1
  Lu  Lu15  1  0.062133  0.062133  0.437867  1
  Cd  Cd16  1  0.830248  0.830248  0.830248  1
  Cd  Cd17  1  0.830248  0.830248  0.509258  1
  Cd  Cd18  1  0.830248  0.509258  0.830248  1
  Cd  Cd19  1  0.509258  0.830248  0.830248  1
  Ir  Ir20  1  0.391857  0.391857  0.391857  1
  Ir  Ir21  1  0.391857  0.391857  0.824430  1
  Ir  Ir22  1  0.391857  0.824430  0.391857  1
  Ir  Ir23  1  0.824430  0.391857  0.391857  1
