# generated using pymatgen
data_TbY7Be3Si12Pd
_symmetry_space_group_name_H-M   'P 1'
_cell_length_a   7.95188300
_cell_length_b   7.95188129
_cell_length_c   8.10142300
_cell_angle_alpha   90.00000000
_cell_angle_beta   90.00000000
_cell_angle_gamma   120.00000295
_symmetry_Int_Tables_number   1
_chemical_formula_structural   TbY7Be3Si12Pd
_chemical_formula_sum   'Tb1 Y7 Be3 Si12 Pd1'
_cell_volume   443.64112393
_cell_formula_units_Z   1
loop_
 _symmetry_equiv_pos_site_id
 _symmetry_equiv_pos_as_xyz
  1  'x, y, z'
loop_
 _atom_site_type_symbol
 _atom_site_label
 _atom_site_symmetry_multiplicity
 _atom_site_fract_x
 _atom_site_fract_y
 _atom_site_fract_z
 _atom_site_occupancy
  Tb  Tb0  1  0.000000  0.000000  0.750726  1
  Y  Y1  1  0.501436  0.002871  0.247788  1
  Y  Y2  1  0.501692  0.003384  0.752252  1
  Y  Y3  1  0.997129  0.498564  0.247788  1
  Y  Y4  1  0.996616  0.498308  0.752252  1
  Y  Y5  1  0.501436  0.498564  0.247788  1
  Y  Y6  1  0.501692  0.498308  0.752252  1
  Y  Y7  1  0.000000  0.000000  0.249273  1
  Be  Be8  1  0.333333  0.666667  0.000512  1
  Be  Be9  1  0.666667  0.333333  0.999976  1
  Be  Be10  1  0.666667  0.333333  0.498893  1
  Si  Si11  1  0.172303  0.344605  0.999322  1
  Si  Si12  1  0.826852  0.653703  0.000728  1
  Si  Si13  1  0.655395  0.827697  0.999322  1
  Si  Si14  1  0.828212  0.656423  0.500478  1
  Si  Si15  1  0.346297  0.173148  0.000728  1
  Si  Si16  1  0.166215  0.332429  0.499286  1
  Si  Si17  1  0.172303  0.827697  0.999322  1
  Si  Si18  1  0.343577  0.171788  0.500478  1
  Si  Si19  1  0.826852  0.173148  0.000728  1
  Si  Si20  1  0.667571  0.833785  0.499286  1
  Si  Si21  1  0.828212  0.171788  0.500478  1
  Si  Si22  1  0.166215  0.833785  0.499286  1
  Pd  Pd23  1  0.333333  0.666667  0.501060  1
