# generated using pymatgen
data_Zr6Ti16Tc2Ir5
_symmetry_space_group_name_H-M   'P 1'
_cell_length_a   8.96954132
_cell_length_b   8.98296358
_cell_length_c   8.96954091
_cell_angle_alpha   59.95048408
_cell_angle_beta   60.04852214
_cell_angle_gamma   59.95048613
_symmetry_Int_Tables_number   1
_chemical_formula_structural   Zr6Ti16Tc2Ir5
_chemical_formula_sum   'Zr6 Ti16 Tc2 Ir5'
_cell_volume   510.83238005
_cell_formula_units_Z   1
loop_
 _symmetry_equiv_pos_site_id
 _symmetry_equiv_pos_as_xyz
  1  'x, y, z'
loop_
 _atom_site_type_symbol
 _atom_site_label
 _atom_site_symmetry_multiplicity
 _atom_site_fract_x
 _atom_site_fract_y
 _atom_site_fract_z
 _atom_site_occupancy
  Zr  Zr0  1  0.686161  0.686490  0.313839  1
  Zr  Zr1  1  0.313009  0.686991  0.313009  1
  Zr  Zr2  1  0.686161  0.313510  0.313839  1
  Zr  Zr3  1  0.313839  0.313510  0.686161  1
  Zr  Zr4  1  0.686991  0.313009  0.686991  1
  Zr  Zr5  1  0.313839  0.686490  0.686161  1
  Ti  Ti6  1  0.883215  0.882364  0.352058  1
  Ti  Ti7  1  0.883781  0.350720  0.883781  1
  Ti  Ti8  1  0.352058  0.882364  0.883215  1
  Ti  Ti9  1  0.883781  0.881719  0.883781  1
  Ti  Ti10  1  0.116785  0.117636  0.647942  1
  Ti  Ti11  1  0.116219  0.649280  0.116219  1
  Ti  Ti12  1  0.647942  0.117636  0.116785  1
  Ti  Ti13  1  0.116219  0.118281  0.116219  1
  Ti  Ti14  1  0.670499  0.668301  0.992898  1
  Ti  Ti15  1  0.669555  0.991451  0.669555  1
  Ti  Ti16  1  0.992898  0.668301  0.670499  1
  Ti  Ti17  1  0.669555  0.669437  0.669555  1
  Ti  Ti18  1  0.329501  0.331699  0.007102  1
  Ti  Ti19  1  0.330445  0.008549  0.330445  1
  Ti  Ti20  1  0.007102  0.331699  0.329501  1
  Ti  Ti21  1  0.330445  0.330563  0.330445  1
  Tc  Tc22  1  0.000000  0.000000  0.000000  1
  Tc  Tc23  1  0.000000  0.500000  0.000000  1
  Ir  Ir24  1  0.000000  0.000000  0.500000  1
  Ir  Ir25  1  0.500000  0.000000  0.500000  1
  Ir  Ir26  1  0.000000  0.500000  0.500000  1
  Ir  Ir27  1  0.500000  0.500000  0.000000  1
  Ir  Ir28  1  0.500000  0.000000  0.000000  1
