# generated using pymatgen
data_NaSm6RhCl12
_symmetry_space_group_name_H-M   'P 1'
_cell_length_a   9.23469757
_cell_length_b   9.04594534
_cell_length_c   9.06107356
_cell_angle_alpha   106.50933973
_cell_angle_beta   107.71851914
_cell_angle_gamma   107.37974898
_symmetry_Int_Tables_number   1
_chemical_formula_structural   NaSm6RhCl12
_chemical_formula_sum   'Na1 Sm6 Rh1 Cl12'
_cell_volume   626.80673791
_cell_formula_units_Z   1
loop_
 _symmetry_equiv_pos_site_id
 _symmetry_equiv_pos_as_xyz
  1  'x, y, z'
loop_
 _atom_site_type_symbol
 _atom_site_label
 _atom_site_symmetry_multiplicity
 _atom_site_fract_x
 _atom_site_fract_y
 _atom_site_fract_z
 _atom_site_occupancy
  Na  Na0  1  0.500000  0.500000  0.500000  1
  Sm  Sm1  1  0.116301  0.323428  0.026407  1
  Sm  Sm2  1  0.333872  0.029309  0.124874  1
  Sm  Sm3  1  0.027716  0.119186  0.322635  1
  Sm  Sm4  1  0.972285  0.880814  0.677366  1
  Sm  Sm5  1  0.666128  0.970692  0.875126  1
  Sm  Sm6  1  0.883699  0.676572  0.973593  1
  Rh  Rh7  1  0.000000  0.000000  0.000000  1
  Cl  Cl8  1  0.210072  0.683071  0.074199  1
  Cl  Cl9  1  0.447409  0.364273  0.158047  1
  Cl  Cl10  1  0.684756  0.072247  0.207585  1
  Cl  Cl11  1  0.931234  0.790847  0.318496  1
  Cl  Cl12  1  0.161082  0.452918  0.364212  1
  Cl  Cl13  1  0.362065  0.156293  0.451537  1
  Cl  Cl14  1  0.637935  0.843707  0.548464  1
  Cl  Cl15  1  0.838919  0.547082  0.635788  1
  Cl  Cl16  1  0.068767  0.209153  0.681505  1
  Cl  Cl17  1  0.315245  0.927754  0.792415  1
  Cl  Cl18  1  0.552591  0.635727  0.841954  1
  Cl  Cl19  1  0.789928  0.316929  0.925801  1
