# generated using pymatgen
data_Ba8AgP5
_symmetry_space_group_name_H-M   'P 1'
_cell_length_a   8.61416108
_cell_length_b   8.61416081
_cell_length_c   8.61416056
_cell_angle_alpha   109.28398802
_cell_angle_beta   109.28398854
_cell_angle_gamma   109.84633587
_symmetry_Int_Tables_number   1
_chemical_formula_structural   Ba8AgP5
_chemical_formula_sum   'Ba8 Ag1 P5'
_cell_volume   492.04301705
_cell_formula_units_Z   1
loop_
 _symmetry_equiv_pos_site_id
 _symmetry_equiv_pos_as_xyz
  1  'x, y, z'
loop_
 _atom_site_type_symbol
 _atom_site_label
 _atom_site_symmetry_multiplicity
 _atom_site_fract_x
 _atom_site_fract_y
 _atom_site_fract_z
 _atom_site_occupancy
  Ba  Ba0  1  0.736841  0.368561  0.243633  1
  Ba  Ba1  1  0.980543  0.736591  0.092025  1
  Ba  Ba2  1  0.644566  0.888517  0.907975  1
  Ba  Ba3  1  0.124929  0.493209  0.756367  1
  Ba  Ba4  1  0.631439  0.875071  0.368281  1
  Ba  Ba5  1  0.506791  0.263159  0.631719  1
  Ba  Ba6  1  0.263409  0.355434  0.243951  1
  Ba  Ba7  1  0.111483  0.019457  0.756049  1
  Ag  Ag8  1  0.250000  0.750000  0.500000  1
  P  P9  1  0.745315  0.631808  0.625109  1
  P  P10  1  0.368192  0.993301  0.113507  1
  P  P11  1  0.006699  0.120206  0.374891  1
  P  P12  1  0.500000  0.500000  0.000000  1
  P  P13  1  0.879794  0.254685  0.886493  1
