# generated using pymatgen
data_Ho10InPb5S2
_symmetry_space_group_name_H-M   'P 1'
_cell_length_a   9.12307600
_cell_length_b   9.12307656
_cell_length_c   6.64684300
_cell_angle_alpha   90.00000000
_cell_angle_beta   90.00000000
_cell_angle_gamma   120.13554129
_symmetry_Int_Tables_number   1
_chemical_formula_structural   Ho10InPb5S2
_chemical_formula_sum   'Ho10 In1 Pb5 S2'
_cell_volume   478.44705079
_cell_formula_units_Z   1
loop_
 _symmetry_equiv_pos_site_id
 _symmetry_equiv_pos_as_xyz
  1  'x, y, z'
loop_
 _atom_site_type_symbol
 _atom_site_label
 _atom_site_symmetry_multiplicity
 _atom_site_fract_x
 _atom_site_fract_y
 _atom_site_fract_z
 _atom_site_occupancy
  Ho  Ho0  1  0.756446  0.756446  0.750000  1
  Ho  Ho1  1  0.244199  0.003238  0.750000  1
  Ho  Ho2  1  0.003238  0.244199  0.750000  1
  Ho  Ho3  1  0.242905  0.242905  0.250000  1
  Ho  Ho4  1  0.757529  0.999969  0.250000  1
  Ho  Ho5  1  0.999969  0.757529  0.250000  1
  Ho  Ho6  1  0.664586  0.333727  0.998615  1
  Ho  Ho7  1  0.333727  0.664586  0.998615  1
  Ho  Ho8  1  0.333727  0.664586  0.501385  1
  Ho  Ho9  1  0.664586  0.333727  0.501385  1
  In  In10  1  0.398379  0.398379  0.750000  1
  Pb  Pb11  1  0.603817  0.000126  0.750000  1
  Pb  Pb12  1  0.000126  0.603817  0.750000  1
  Pb  Pb13  1  0.601877  0.601877  0.250000  1
  Pb  Pb14  1  0.396471  0.999389  0.250000  1
  Pb  Pb15  1  0.999389  0.396471  0.250000  1
  S  S16  1  0.999516  0.999516  0.000455  1
  S  S17  1  0.999516  0.999516  0.499545  1
