# generated using pymatgen
data_Dy5Zr(SnRh)6
_symmetry_space_group_name_H-M   'P 1'
_cell_length_a   7.49559592
_cell_length_b   7.55537753
_cell_length_c   7.73546900
_cell_angle_alpha   90.00000000
_cell_angle_beta   90.00000000
_cell_angle_gamma   120.29821004
_symmetry_Int_Tables_number   1
_chemical_formula_structural   Dy5Zr(SnRh)6
_chemical_formula_sum   'Dy5 Zr1 Sn6 Rh6'
_cell_volume   378.23936022
_cell_formula_units_Z   1
loop_
 _symmetry_equiv_pos_site_id
 _symmetry_equiv_pos_as_xyz
  1  'x, y, z'
loop_
 _atom_site_type_symbol
 _atom_site_label
 _atom_site_symmetry_multiplicity
 _atom_site_fract_x
 _atom_site_fract_y
 _atom_site_fract_z
 _atom_site_occupancy
  Dy  Dy0  1  0.592044  0.994796  0.750000  1
  Dy  Dy1  1  0.407041  0.404710  0.750000  1
  Dy  Dy2  1  0.596841  0.006299  0.250000  1
  Dy  Dy3  1  0.403471  0.408261  0.250000  1
  Dy  Dy4  1  0.999419  0.590285  0.250000  1
  Zr  Zr5  1  0.000999  0.597232  0.750000  1
  Sn  Sn6  1  0.262419  0.001489  0.000880  1
  Sn  Sn7  1  0.737953  0.738485  0.498324  1
  Sn  Sn8  1  0.999672  0.258382  0.508986  1
  Sn  Sn9  1  0.999672  0.258382  0.991014  1
  Sn  Sn10  1  0.737953  0.738485  0.001676  1
  Sn  Sn11  1  0.262419  0.001489  0.499120  1
  Rh  Rh12  1  0.678112  0.342539  0.986591  1
  Rh  Rh13  1  0.678112  0.342539  0.513409  1
  Rh  Rh14  1  0.321869  0.664825  0.989206  1
  Rh  Rh15  1  0.321869  0.664825  0.510794  1
  Rh  Rh16  1  0.999597  0.985175  0.750000  1
  Rh  Rh17  1  0.000539  0.001799  0.250000  1
