# generated using pymatgen
data_Dy2P7IrRu11
_symmetry_space_group_name_H-M   'P 1'
_cell_length_a   9.38908409
_cell_length_b   9.43010640
_cell_length_c   3.95458800
_cell_angle_alpha   90.00000000
_cell_angle_beta   90.00000000
_cell_angle_gamma   119.70997973
_symmetry_Int_Tables_number   1
_chemical_formula_structural   Dy2P7IrRu11
_chemical_formula_sum   'Dy2 P7 Ir1 Ru11'
_cell_volume   304.11195404
_cell_formula_units_Z   1
loop_
 _symmetry_equiv_pos_site_id
 _symmetry_equiv_pos_as_xyz
  1  'x, y, z'
loop_
 _atom_site_type_symbol
 _atom_site_label
 _atom_site_symmetry_multiplicity
 _atom_site_fract_x
 _atom_site_fract_y
 _atom_site_fract_z
 _atom_site_occupancy
  Dy  Dy0  1  0.667648  0.334572  0.500000  1
  Dy  Dy1  1  0.331575  0.663702  0.000000  1
  P  P2  1  0.599542  0.713092  0.500000  1
  P  P3  1  0.999373  0.000127  0.000000  1
  P  P4  1  0.278115  0.879883  0.500000  1
  P  P5  1  0.117081  0.399473  0.500000  1
  P  P6  1  0.886130  0.576570  0.000000  1
  P  P7  1  0.426526  0.310616  0.000000  1
  P  P8  1  0.695409  0.120382  0.000000  1
  Ir  Ir9  1  0.551100  0.942766  0.500000  1
  Ru  Ru10  1  0.391274  0.441837  0.500000  1
  Ru  Ru11  1  0.913016  0.123970  0.500000  1
  Ru  Ru12  1  0.209612  0.085569  0.500000  1
  Ru  Ru13  1  0.876878  0.793285  0.500000  1
  Ru  Ru14  1  0.727074  0.893686  0.000000  1
  Ru  Ru15  1  0.109216  0.837171  0.000000  1
  Ru  Ru16  1  0.163923  0.270584  0.000000  1
  Ru  Ru17  1  0.429125  0.068235  0.000000  1
  Ru  Ru18  1  0.935340  0.360962  0.000000  1
  Ru  Ru19  1  0.641147  0.575926  0.000000  1
  Ru  Ru20  1  0.050894  0.607593  0.500000  1
