# generated using pymatgen
data_Na5Yb(CuTe)8
_symmetry_space_group_name_H-M   'P 1'
_cell_length_a   4.20617400
_cell_length_b   7.72471206
_cell_length_c   16.35269684
_cell_angle_alpha   91.39669743
_cell_angle_beta   90.00000000
_cell_angle_gamma   90.00000000
_symmetry_Int_Tables_number   1
_chemical_formula_structural   Na5Yb(CuTe)8
_chemical_formula_sum   'Na5 Yb1 Cu8 Te8'
_cell_volume   531.16551410
_cell_formula_units_Z   1
loop_
 _symmetry_equiv_pos_site_id
 _symmetry_equiv_pos_as_xyz
  1  'x, y, z'
loop_
 _atom_site_type_symbol
 _atom_site_label
 _atom_site_symmetry_multiplicity
 _atom_site_fract_x
 _atom_site_fract_y
 _atom_site_fract_z
 _atom_site_occupancy
  Na  Na0  1  0.000000  0.480083  0.750739  1
  Na  Na1  1  0.000000  0.519917  0.249261  1
  Na  Na2  1  0.000000  0.010964  0.245232  1
  Na  Na3  1  0.500000  0.000000  0.000000  1
  Na  Na4  1  0.000000  0.989036  0.754768  1
  Yb  Yb5  1  0.500000  0.500000  0.500000  1
  Cu  Cu6  1  0.500000  0.923751  0.570024  1
  Cu  Cu7  1  0.000000  0.375681  0.065316  1
  Cu  Cu8  1  0.500000  0.437056  0.919486  1
  Cu  Cu9  1  0.000000  0.867536  0.446286  1
  Cu  Cu10  1  0.500000  0.076249  0.429976  1
  Cu  Cu11  1  0.000000  0.132464  0.553714  1
  Cu  Cu12  1  0.000000  0.624319  0.934684  1
  Cu  Cu13  1  0.500000  0.562944  0.080514  1
  Te  Te14  1  0.500000  0.768395  0.355366  1
  Te  Te15  1  0.500000  0.735791  0.848120  1
  Te  Te16  1  0.500000  0.264209  0.151880  1
  Te  Te17  1  0.000000  0.734635  0.595153  1
  Te  Te18  1  0.000000  0.247824  0.910822  1
  Te  Te19  1  0.000000  0.265365  0.404847  1
  Te  Te20  1  0.000000  0.752176  0.089178  1
  Te  Te21  1  0.500000  0.231605  0.644634  1
