# generated using pymatgen
data_Y3Lu5Cr2(OsC4)2
_symmetry_space_group_name_H-M   'P 1'
_cell_length_a   5.00191900
_cell_length_b   6.46927064
_cell_length_c   9.63073104
_cell_angle_alpha   90.11452173
_cell_angle_beta   90.00000000
_cell_angle_gamma   90.00000000
_symmetry_Int_Tables_number   1
_chemical_formula_structural   Y3Lu5Cr2(OsC4)2
_chemical_formula_sum   'Y3 Lu5 Cr2 Os2 C8'
_cell_volume   311.63796624
_cell_formula_units_Z   1
loop_
 _symmetry_equiv_pos_site_id
 _symmetry_equiv_pos_as_xyz
  1  'x, y, z'
loop_
 _atom_site_type_symbol
 _atom_site_label
 _atom_site_symmetry_multiplicity
 _atom_site_fract_x
 _atom_site_fract_y
 _atom_site_fract_z
 _atom_site_occupancy
  Y  Y0  1  0.750000  0.466157  0.787668  1
  Y  Y1  1  0.750000  0.971045  0.713171  1
  Y  Y2  1  0.250000  0.030073  0.286204  1
  Lu  Lu3  1  0.250000  0.677064  0.560128  1
  Lu  Lu4  1  0.750000  0.324442  0.439244  1
  Lu  Lu5  1  0.750000  0.827629  0.056446  1
  Lu  Lu6  1  0.250000  0.170734  0.944176  1
  Lu  Lu7  1  0.250000  0.534703  0.214704  1
  Cr  Cr8  1  0.250000  0.724240  0.863769  1
  Cr  Cr9  1  0.750000  0.275648  0.136610  1
  Os  Os10  1  0.750000  0.775446  0.363117  1
  Os  Os11  1  0.250000  0.225005  0.635447  1
  C  C12  1  0.250000  0.461126  0.765420  1
  C  C13  1  0.750000  0.539370  0.233434  1
  C  C14  1  0.750000  0.050214  0.257223  1
  C  C15  1  0.250000  0.950204  0.742770  1
  C  C16  1  0.250000  0.816648  0.043518  1
  C  C17  1  0.750000  0.178158  0.958597  1
  C  C18  1  0.750000  0.670548  0.549233  1
  C  C19  1  0.250000  0.331545  0.449119  1
