# generated using pymatgen
data_LiMg4Zn6Os
_symmetry_space_group_name_H-M   'P 1'
_cell_length_a   5.17696924
_cell_length_b   5.25654732
_cell_length_c   8.42148800
_cell_angle_alpha   90.00000000
_cell_angle_beta   90.00000000
_cell_angle_gamma   119.78622191
_symmetry_Int_Tables_number   1
_chemical_formula_structural   LiMg4Zn6Os
_chemical_formula_sum   'Li1 Mg4 Zn6 Os1'
_cell_volume   198.89650313
_cell_formula_units_Z   1
loop_
 _symmetry_equiv_pos_site_id
 _symmetry_equiv_pos_as_xyz
  1  'x, y, z'
loop_
 _atom_site_type_symbol
 _atom_site_label
 _atom_site_symmetry_multiplicity
 _atom_site_fract_x
 _atom_site_fract_y
 _atom_site_fract_z
 _atom_site_occupancy
  Li  Li0  1  0.821524  0.160074  0.250000  1
  Mg  Mg1  1  0.327663  0.649278  0.051710  1
  Mg  Mg2  1  0.665450  0.337195  0.576520  1
  Mg  Mg3  1  0.665450  0.337195  0.923480  1
  Mg  Mg4  1  0.327663  0.649278  0.448290  1
  Zn  Zn5  1  0.010246  0.019443  0.000675  1
  Zn  Zn6  1  0.010246  0.019443  0.499325  1
  Zn  Zn7  1  0.348607  0.164155  0.250000  1
  Zn  Zn8  1  0.659618  0.827819  0.750000  1
  Zn  Zn9  1  0.167691  0.830061  0.750000  1
  Zn  Zn10  1  0.829518  0.665395  0.250000  1
  Os  Os11  1  0.166324  0.340664  0.750000  1
