# generated using pymatgen
data_Nb8V3Si10Mo
_symmetry_space_group_name_H-M   'P 1'
_cell_length_a   5.04472791
_cell_length_b   7.90974993
_cell_length_c   9.48985821
_cell_angle_alpha   114.64534208
_cell_angle_beta   105.43778380
_cell_angle_gamma   89.94552627
_symmetry_Int_Tables_number   1
_chemical_formula_structural   Nb8V3Si10Mo
_chemical_formula_sum   'Nb8 V3 Si10 Mo1'
_cell_volume   329.12948959
_cell_formula_units_Z   1
loop_
 _symmetry_equiv_pos_site_id
 _symmetry_equiv_pos_as_xyz
  1  'x, y, z'
loop_
 _atom_site_type_symbol
 _atom_site_label
 _atom_site_symmetry_multiplicity
 _atom_site_fract_x
 _atom_site_fract_y
 _atom_site_fract_z
 _atom_site_occupancy
  Nb  Nb0  1  0.643198  0.028849  0.286179  1
  Nb  Nb1  1  0.355548  0.971572  0.712587  1
  Nb  Nb2  1  0.857038  0.741014  0.712587  1
  Nb  Nb3  1  0.142982  0.257331  0.286179  1
  Nb  Nb4  1  0.936783  0.191283  0.873500  1
  Nb  Nb5  1  0.063632  0.808802  0.127610  1
  Nb  Nb6  1  0.563978  0.318807  0.127610  1
  Nb  Nb7  1  0.436717  0.682218  0.873500  1
  V  V8  1  0.940654  0.690654  0.381309  1
  V  V9  1  0.441081  0.691081  0.382163  1
  V  V10  1  0.058003  0.308003  0.616005  1
  Si  Si11  1  0.784701  0.984987  0.566086  1
  Si  Si12  1  0.212123  0.009010  0.432601  1
  Si  Si13  1  0.720479  0.423592  0.432601  1
  Si  Si14  1  0.281384  0.581098  0.566086  1
  Si  Si15  1  0.567886  0.651954  0.135788  1
  Si  Si16  1  0.426207  0.350151  0.867404  1
  Si  Si17  1  0.941197  0.517253  0.867404  1
  Si  Si18  1  0.067902  0.483832  0.135788  1
  Si  Si19  1  0.250255  0.000255  0.000511  1
  Si  Si20  1  0.749814  0.999814  0.999628  1
  Mo  Mo21  1  0.558438  0.308438  0.616875  1
