# generated using pymatgen
data_Ca3Sm(FeO3)4
_symmetry_space_group_name_H-M   'P 1'
_cell_length_a   5.39900704
_cell_length_b   5.50157204
_cell_length_c   7.66309100
_cell_angle_alpha   90.00000000
_cell_angle_beta   90.00000000
_cell_angle_gamma   90.01316273
_symmetry_Int_Tables_number   1
_chemical_formula_structural   Ca3Sm(FeO3)4
_chemical_formula_sum   'Ca3 Sm1 Fe4 O12'
_cell_volume   227.61698621
_cell_formula_units_Z   1
loop_
 _symmetry_equiv_pos_site_id
 _symmetry_equiv_pos_as_xyz
  1  'x, y, z'
loop_
 _atom_site_type_symbol
 _atom_site_label
 _atom_site_symmetry_multiplicity
 _atom_site_fract_x
 _atom_site_fract_y
 _atom_site_fract_z
 _atom_site_occupancy
  Ca  Ca0  1  0.490770  0.455832  0.250000  1
  Ca  Ca1  1  0.990895  0.045292  0.750000  1
  Ca  Ca2  1  0.010022  0.956343  0.250000  1
  Sm  Sm3  1  0.511205  0.550347  0.750000  1
  Fe  Fe4  1  0.499465  0.002054  0.497685  1
  Fe  Fe5  1  0.499465  0.002054  0.002315  1
  Fe  Fe6  1  0.000797  0.498642  0.002394  1
  Fe  Fe7  1  0.000797  0.498642  0.497606  1
  O  O8  1  0.208785  0.208940  0.040117  1
  O  O9  1  0.208785  0.208940  0.459883  1
  O  O10  1  0.709210  0.294279  0.956934  1
  O  O11  1  0.784604  0.785127  0.546649  1
  O  O12  1  0.292708  0.704596  0.464265  1
  O  O13  1  0.784604  0.785127  0.953351  1
  O  O14  1  0.423193  0.981707  0.750000  1
  O  O15  1  0.922647  0.522389  0.250000  1
  O  O16  1  0.080938  0.481477  0.750000  1
  O  O17  1  0.709210  0.294279  0.543066  1
  O  O18  1  0.292708  0.704596  0.035735  1
  O  O19  1  0.579191  0.019339  0.250000  1
