# generated using pymatgen
data_Lu5(GeB4)2
_symmetry_space_group_name_H-M   'P 1'
_cell_length_a   7.13713700
_cell_length_b   7.13713700
_cell_length_c   7.91566200
_cell_angle_alpha   90.00000000
_cell_angle_beta   90.00000000
_cell_angle_gamma   90.00000000
_symmetry_Int_Tables_number   1
_chemical_formula_structural   Lu5(GeB4)2
_chemical_formula_sum   'Lu10 Ge4 B16'
_cell_volume   403.21372630
_cell_formula_units_Z   2
loop_
 _symmetry_equiv_pos_site_id
 _symmetry_equiv_pos_as_xyz
  1  'x, y, z'
loop_
 _atom_site_type_symbol
 _atom_site_label
 _atom_site_symmetry_multiplicity
 _atom_site_fract_x
 _atom_site_fract_y
 _atom_site_fract_z
 _atom_site_occupancy
  Lu  Lu0  1  0.680349  0.180349  0.220882  1
  Lu  Lu1  1  0.319651  0.819651  0.779118  1
  Lu  Lu2  1  0.319651  0.819651  0.220882  1
  Lu  Lu3  1  0.819651  0.680349  0.220882  1
  Lu  Lu4  1  0.819651  0.680349  0.779118  1
  Lu  Lu5  1  0.680349  0.180349  0.779118  1
  Lu  Lu6  1  0.180349  0.319651  0.779118  1
  Lu  Lu7  1  0.180349  0.319651  0.220882  1
  Lu  Lu8  1  0.000000  0.000000  0.500000  1
  Lu  Lu9  1  0.500000  0.500000  0.500000  1
  Ge  Ge10  1  0.122450  0.622450  0.500000  1
  Ge  Ge11  1  0.877550  0.377550  0.500000  1
  Ge  Ge12  1  0.377550  0.122450  0.500000  1
  Ge  Ge13  1  0.622450  0.877550  0.500000  1
  B  B14  1  0.172977  0.039271  0.000000  1
  B  B15  1  0.827023  0.960729  0.000000  1
  B  B16  1  0.960729  0.172977  0.000000  1
  B  B17  1  0.327023  0.539271  0.000000  1
  B  B18  1  0.039271  0.827023  0.000000  1
  B  B19  1  0.672977  0.460729  0.000000  1
  B  B20  1  0.539271  0.672977  0.000000  1
  B  B21  1  0.460729  0.327023  0.000000  1
  B  B22  1  0.089452  0.589452  0.000000  1
  B  B23  1  0.910548  0.410548  0.000000  1
  B  B24  1  0.410548  0.089452  0.000000  1
  B  B25  1  0.589452  0.910548  0.000000  1
  B  B26  1  0.000000  0.000000  0.167380  1
  B  B27  1  0.000000  0.000000  0.832620  1
  B  B28  1  0.500000  0.500000  0.832620  1
  B  B29  1  0.500000  0.500000  0.167380  1
