# generated using pymatgen
data_LiNdInPt3
_symmetry_space_group_name_H-M   'P 1'
_cell_length_a   5.52711525
_cell_length_b   5.52711494
_cell_length_c   5.24899250
_cell_angle_alpha   58.23119121
_cell_angle_beta   58.23119636
_cell_angle_gamma   59.99999168
_symmetry_Int_Tables_number   1
_chemical_formula_structural   LiNdInPt3
_chemical_formula_sum   'Li1 Nd1 In1 Pt3'
_cell_volume   110.25899400
_cell_formula_units_Z   1
loop_
 _symmetry_equiv_pos_site_id
 _symmetry_equiv_pos_as_xyz
  1  'x, y, z'
loop_
 _atom_site_type_symbol
 _atom_site_label
 _atom_site_symmetry_multiplicity
 _atom_site_fract_x
 _atom_site_fract_y
 _atom_site_fract_z
 _atom_site_occupancy
  Li  Li0  1  0.621452  0.621452  0.135645  1
  Nd  Nd1  1  0.005385  0.005385  0.983845  1
  In  In2  1  0.256007  0.256007  0.231979  1
  Pt  Pt3  1  0.622234  0.122690  0.632844  1
  Pt  Pt4  1  0.122690  0.622234  0.632844  1
  Pt  Pt5  1  0.622234  0.622234  0.632844  1
