# generated using pymatgen
data_TbNd15(CdNi)4
_symmetry_space_group_name_H-M   'P 1'
_cell_length_a   9.83330651
_cell_length_b   9.83330588
_cell_length_c   9.83330602
_cell_angle_alpha   60.00533326
_cell_angle_beta   60.00533458
_cell_angle_gamma   60.00533414
_symmetry_Int_Tables_number   1
_chemical_formula_structural   TbNd15(CdNi)4
_chemical_formula_sum   'Tb1 Nd15 Cd4 Ni4'
_cell_volume   672.41315089
_cell_formula_units_Z   1
loop_
 _symmetry_equiv_pos_site_id
 _symmetry_equiv_pos_as_xyz
  1  'x, y, z'
loop_
 _atom_site_type_symbol
 _atom_site_label
 _atom_site_symmetry_multiplicity
 _atom_site_fract_x
 _atom_site_fract_y
 _atom_site_fract_z
 _atom_site_occupancy
  Tb  Tb0  1  0.596622  0.596622  0.596622  1
  Nd  Nd1  1  0.598820  0.598820  0.206343  1
  Nd  Nd2  1  0.598820  0.206343  0.598820  1
  Nd  Nd3  1  0.206343  0.598820  0.598820  1
  Nd  Nd4  1  0.059984  0.440565  0.440565  1
  Nd  Nd5  1  0.439253  0.058408  0.058408  1
  Nd  Nd6  1  0.440565  0.059984  0.440565  1
  Nd  Nd7  1  0.058408  0.439253  0.058408  1
  Nd  Nd8  1  0.440565  0.440565  0.059984  1
  Nd  Nd9  1  0.058408  0.058408  0.439253  1
  Nd  Nd10  1  0.190519  0.812183  0.812183  1
  Nd  Nd11  1  0.809743  0.186707  0.186707  1
  Nd  Nd12  1  0.812183  0.190519  0.812183  1
  Nd  Nd13  1  0.186707  0.809743  0.186707  1
  Nd  Nd14  1  0.812183  0.812183  0.190519  1
  Nd  Nd15  1  0.186707  0.186707  0.809743  1
  Cd  Cd16  1  0.829917  0.829917  0.829917  1
  Cd  Cd17  1  0.828908  0.828908  0.510359  1
  Cd  Cd18  1  0.828908  0.510359  0.828908  1
  Cd  Cd19  1  0.510359  0.828908  0.828908  1
  Ni  Ni20  1  0.393308  0.393308  0.393308  1
  Ni  Ni21  1  0.395000  0.395000  0.822770  1
  Ni  Ni22  1  0.395000  0.822770  0.395000  1
  Ni  Ni23  1  0.822770  0.395000  0.395000  1
