# generated using pymatgen
data_AgSe2O7
_symmetry_space_group_name_H-M   'P 1'
_cell_length_a   5.59044702
_cell_length_b   7.58687908
_cell_length_c   9.14544827
_cell_angle_alpha   93.12369574
_cell_angle_beta   87.76158958
_cell_angle_gamma   104.99754162
_symmetry_Int_Tables_number   1
_chemical_formula_structural   AgSe2O7
_chemical_formula_sum   'Ag2 Se4 O14'
_cell_volume   374.00059088
_cell_formula_units_Z   2
loop_
 _symmetry_equiv_pos_site_id
 _symmetry_equiv_pos_as_xyz
  1  'x, y, z'
loop_
 _atom_site_type_symbol
 _atom_site_label
 _atom_site_symmetry_multiplicity
 _atom_site_fract_x
 _atom_site_fract_y
 _atom_site_fract_z
 _atom_site_occupancy
  Ag  Ag0  1  0.000000  0.500000  0.000000  1
  Ag  Ag1  1  0.500000  0.000000  0.500000  1
  Se  Se2  1  0.499109  0.645845  0.763177  1
  Se  Se3  1  0.500891  0.354155  0.236823  1
  Se  Se4  1  0.134545  0.252564  0.684046  1
  Se  Se5  1  0.865455  0.747436  0.315954  1
  O  O6  1  0.710063  0.547150  0.810003  1
  O  O7  1  0.289937  0.452850  0.189997  1
  O  O8  1  0.313224  0.696244  0.898450  1
  O  O9  1  0.686776  0.303756  0.101550  1
  O  O10  1  0.613949  0.822165  0.659042  1
  O  O11  1  0.386051  0.177835  0.340958  1
  O  O12  1  0.290606  0.486872  0.635788  1
  O  O13  1  0.709394  0.513128  0.364212  1
  O  O14  1  0.927105  0.196875  0.557900  1
  O  O15  1  0.072895  0.803125  0.442100  1
  O  O16  1  0.351626  0.135819  0.682904  1
  O  O17  1  0.648374  0.864181  0.317096  1
  O  O18  1  0.038523  0.263008  0.858904  1
  O  O19  1  0.961477  0.736992  0.141096  1
