# generated using pymatgen
data_NdPa3(Co5P3)4
_symmetry_space_group_name_H-M   'P 1'
_cell_length_a   3.69080500
_cell_length_b   10.36232719
_cell_length_c   11.69993696
_cell_angle_alpha   89.88480852
_cell_angle_beta   90.00000000
_cell_angle_gamma   90.00000000
_symmetry_Int_Tables_number   1
_chemical_formula_structural   NdPa3(Co5P3)4
_chemical_formula_sum   'Nd1 Pa3 Co20 P12'
_cell_volume   447.46703415
_cell_formula_units_Z   1
loop_
 _symmetry_equiv_pos_site_id
 _symmetry_equiv_pos_as_xyz
  1  'x, y, z'
loop_
 _atom_site_type_symbol
 _atom_site_label
 _atom_site_symmetry_multiplicity
 _atom_site_fract_x
 _atom_site_fract_y
 _atom_site_fract_z
 _atom_site_occupancy
  Nd  Nd0  1  0.750000  0.083648  0.797806  1
  Pa  Pa1  1  0.250000  0.583105  0.701467  1
  Pa  Pa2  1  0.250000  0.916572  0.201976  1
  Pa  Pa3  1  0.750000  0.417818  0.298467  1
  Co  Co4  1  0.250000  0.715295  0.991096  1
  Co  Co5  1  0.250000  0.786019  0.488142  1
  Co  Co6  1  0.750000  0.285863  0.008752  1
  Co  Co7  1  0.750000  0.215865  0.506629  1
  Co  Co8  1  0.250000  0.409199  0.480412  1
  Co  Co9  1  0.250000  0.091576  0.992261  1
  Co  Co10  1  0.750000  0.591222  0.520216  1
  Co  Co11  1  0.750000  0.905727  0.019629  1
  Co  Co12  1  0.250000  0.222201  0.179339  1
  Co  Co13  1  0.250000  0.282610  0.674947  1
  Co  Co14  1  0.750000  0.778002  0.823735  1
  Co  Co15  1  0.750000  0.719691  0.322074  1
  Co  Co16  1  0.250000  0.879013  0.696799  1
  Co  Co17  1  0.250000  0.616214  0.199332  1
  Co  Co18  1  0.750000  0.115210  0.300231  1
  Co  Co19  1  0.750000  0.387648  0.800780  1
  Co  Co20  1  0.250000  0.471452  0.930520  1
  Co  Co21  1  0.250000  0.028183  0.428050  1
  Co  Co22  1  0.750000  0.528308  0.070000  1
  Co  Co23  1  0.750000  0.970592  0.566277  1
  P  P24  1  0.250000  0.416929  0.111448  1
  P  P25  1  0.250000  0.083059  0.609264  1
  P  P26  1  0.750000  0.583930  0.889526  1
  P  P27  1  0.750000  0.914434  0.389245  1
  P  P28  1  0.250000  0.275318  0.871245  1
  P  P29  1  0.250000  0.224033  0.371249  1
  P  P30  1  0.750000  0.723438  0.129174  1
  P  P31  1  0.750000  0.776786  0.629149  1
  P  P32  1  0.250000  0.607357  0.392118  1
  P  P33  1  0.250000  0.894597  0.892100  1
  P  P34  1  0.750000  0.392445  0.608445  1
  P  P35  1  0.750000  0.106642  0.108101  1
