# generated using pymatgen
data_Dy4Si8AgAu15
_symmetry_space_group_name_H-M   'P 1'
_cell_length_a   4.36091500
_cell_length_b   4.36297800
_cell_length_c   27.41856500
_cell_angle_alpha   90.00000000
_cell_angle_beta   90.00000000
_cell_angle_gamma   90.00000000
_symmetry_Int_Tables_number   1
_chemical_formula_structural   Dy4Si8AgAu15
_chemical_formula_sum   'Dy4 Si8 Ag1 Au15'
_cell_volume   521.68141640
_cell_formula_units_Z   1
loop_
 _symmetry_equiv_pos_site_id
 _symmetry_equiv_pos_as_xyz
  1  'x, y, z'
loop_
 _atom_site_type_symbol
 _atom_site_label
 _atom_site_symmetry_multiplicity
 _atom_site_fract_x
 _atom_site_fract_y
 _atom_site_fract_z
 _atom_site_occupancy
  Dy  Dy0  1  0.000000  0.500000  0.750133  1
  Dy  Dy1  1  0.500000  0.000000  0.250225  1
  Dy  Dy2  1  0.500000  0.500000  0.000042  1
  Dy  Dy3  1  0.500000  0.500000  0.500278  1
  Si  Si4  1  0.000000  0.000000  0.957798  1
  Si  Si5  1  0.000000  0.000000  0.457622  1
  Si  Si6  1  0.500000  0.000000  0.792940  1
  Si  Si7  1  0.500000  0.000000  0.708080  1
  Si  Si8  1  0.000000  0.500000  0.207781  1
  Si  Si9  1  0.000000  0.500000  0.292755  1
  Si  Si10  1  0.000000  0.000000  0.042559  1
  Si  Si11  1  0.000000  0.000000  0.542288  1
  Ag  Ag12  1  0.000000  0.000000  0.659665  1
  Au  Au13  1  0.500000  0.000000  0.085851  1
  Au  Au14  1  0.500000  0.500000  0.664609  1
  Au  Au15  1  0.500000  0.500000  0.836000  1
  Au  Au16  1  0.000000  0.500000  0.085693  1
  Au  Au17  1  0.500000  0.000000  0.914823  1
  Au  Au18  1  0.000000  0.500000  0.414725  1
  Au  Au19  1  0.500000  0.500000  0.336533  1
  Au  Au20  1  0.500000  0.000000  0.414298  1
  Au  Au21  1  0.000000  0.000000  0.335481  1
  Au  Au22  1  0.000000  0.000000  0.164796  1
  Au  Au23  1  0.500000  0.000000  0.584423  1
  Au  Au24  1  0.000000  0.000000  0.836057  1
  Au  Au25  1  0.500000  0.500000  0.164042  1
  Au  Au26  1  0.000000  0.500000  0.586055  1
  Au  Au27  1  0.000000  0.500000  0.914447  1
