# generated using pymatgen
data_La2Zn3Ga4Ni
_symmetry_space_group_name_H-M   'P 1'
_cell_length_a   4.31520700
_cell_length_b   4.31520700
_cell_length_c   10.46674900
_cell_angle_alpha   90.00000000
_cell_angle_beta   90.00000000
_cell_angle_gamma   90.00000000
_symmetry_Int_Tables_number   1
_chemical_formula_structural   La2Zn3Ga4Ni
_chemical_formula_sum   'La2 Zn3 Ga4 Ni1'
_cell_volume   194.90145300
_cell_formula_units_Z   1
loop_
 _symmetry_equiv_pos_site_id
 _symmetry_equiv_pos_as_xyz
  1  'x, y, z'
loop_
 _atom_site_type_symbol
 _atom_site_label
 _atom_site_symmetry_multiplicity
 _atom_site_fract_x
 _atom_site_fract_y
 _atom_site_fract_z
 _atom_site_occupancy
  La  La0  1  0.000000  0.500000  0.257573  1
  La  La1  1  0.500000  0.000000  0.749810  1
  Zn  Zn2  1  0.000000  0.000000  0.998017  1
  Zn  Zn3  1  0.500000  0.500000  0.998017  1
  Zn  Zn4  1  0.500000  0.000000  0.369708  1
  Ga  Ga5  1  0.000000  0.000000  0.510277  1
  Ga  Ga6  1  0.500000  0.500000  0.510277  1
  Ga  Ga7  1  0.000000  0.500000  0.849853  1
  Ga  Ga8  1  0.500000  0.000000  0.134314  1
  Ni  Ni9  1  0.000000  0.500000  0.622152  1
