# generated using pymatgen
data_BaH4Pd
_symmetry_space_group_name_H-M   'P 1'
_cell_length_a   6.99517185
_cell_length_b   6.99517158
_cell_length_c   5.67409800
_cell_angle_alpha   90.00000000
_cell_angle_beta   90.00000000
_cell_angle_gamma   147.13773388
_symmetry_Int_Tables_number   1
_chemical_formula_structural   BaH4Pd
_chemical_formula_sum   'Ba2 H8 Pd2'
_cell_volume   150.65740744
_cell_formula_units_Z   2
loop_
 _symmetry_equiv_pos_site_id
 _symmetry_equiv_pos_as_xyz
  1  'x, y, z'
loop_
 _atom_site_type_symbol
 _atom_site_label
 _atom_site_symmetry_multiplicity
 _atom_site_fract_x
 _atom_site_fract_y
 _atom_site_fract_z
 _atom_site_occupancy
  Ba  Ba0  1  0.634439  0.365561  0.750000  1
  Ba  Ba1  1  0.365561  0.634439  0.250000  1
  H  H2  1  0.817910  0.182090  0.965938  1
  H  H3  1  0.182090  0.817910  0.034062  1
  H  H4  1  0.817910  0.182090  0.534062  1
  H  H5  1  0.182090  0.817910  0.465938  1
  H  H6  1  0.416417  0.583583  0.750000  1
  H  H7  1  0.583583  0.416417  0.250000  1
  H  H8  1  0.000000  0.000000  0.000000  1
  H  H9  1  0.000000  0.000000  0.500000  1
  Pd  Pd10  1  0.909867  0.090133  0.750000  1
  Pd  Pd11  1  0.090133  0.909867  0.250000  1
