# generated using pymatgen
data_TmSnHIr
_symmetry_space_group_name_H-M   'P 1'
_cell_length_a   4.33644300
_cell_length_b   7.21213400
_cell_length_c   8.39899100
_cell_angle_alpha   90.00000000
_cell_angle_beta   90.00000000
_cell_angle_gamma   90.00000000
_symmetry_Int_Tables_number   1
_chemical_formula_structural   TmSnHIr
_chemical_formula_sum   'Tm4 Sn4 H4 Ir4'
_cell_volume   262.67851071
_cell_formula_units_Z   4
loop_
 _symmetry_equiv_pos_site_id
 _symmetry_equiv_pos_as_xyz
  1  'x, y, z'
loop_
 _atom_site_type_symbol
 _atom_site_label
 _atom_site_symmetry_multiplicity
 _atom_site_fract_x
 _atom_site_fract_y
 _atom_site_fract_z
 _atom_site_occupancy
  Tm  Tm0  1  0.750000  0.518441  0.809718  1
  Tm  Tm1  1  0.250000  0.481559  0.190282  1
  Tm  Tm2  1  0.250000  0.981559  0.309718  1
  Tm  Tm3  1  0.750000  0.018441  0.690282  1
  Sn  Sn4  1  0.750000  0.155607  0.081234  1
  Sn  Sn5  1  0.250000  0.844393  0.918766  1
  Sn  Sn6  1  0.250000  0.344393  0.581234  1
  Sn  Sn7  1  0.750000  0.655607  0.418766  1
  H  H8  1  0.250000  0.961429  0.577215  1
  H  H9  1  0.750000  0.038571  0.422785  1
  H  H10  1  0.750000  0.538571  0.077215  1
  H  H11  1  0.250000  0.461429  0.922785  1
  Ir  Ir12  1  0.750000  0.271552  0.396825  1
  Ir  Ir13  1  0.250000  0.728448  0.603175  1
  Ir  Ir14  1  0.250000  0.228448  0.896825  1
  Ir  Ir15  1  0.750000  0.771552  0.103175  1
