# generated using pymatgen
data_Tb5Lu3Hg4
_symmetry_space_group_name_H-M   'P 1'
_cell_length_a   5.05167000
_cell_length_b   7.17785290
_cell_length_c   9.16661901
_cell_angle_alpha   90.06860335
_cell_angle_beta   90.00000000
_cell_angle_gamma   90.00000000
_symmetry_Int_Tables_number   1
_chemical_formula_structural   Tb5Lu3Hg4
_chemical_formula_sum   'Tb5 Lu3 Hg4'
_cell_volume   332.38268857
_cell_formula_units_Z   1
loop_
 _symmetry_equiv_pos_site_id
 _symmetry_equiv_pos_as_xyz
  1  'x, y, z'
loop_
 _atom_site_type_symbol
 _atom_site_label
 _atom_site_symmetry_multiplicity
 _atom_site_fract_x
 _atom_site_fract_y
 _atom_site_fract_z
 _atom_site_occupancy
  Tb  Tb0  1  0.250000  0.837019  0.922220  1
  Tb  Tb1  1  0.750000  0.511515  0.811471  1
  Tb  Tb2  1  0.250000  0.485037  0.189557  1
  Tb  Tb3  1  0.750000  0.015257  0.686277  1
  Tb  Tb4  1  0.250000  0.985913  0.312151  1
  Lu  Lu5  1  0.750000  0.659805  0.424968  1
  Lu  Lu6  1  0.250000  0.337976  0.575859  1
  Lu  Lu7  1  0.750000  0.164505  0.077843  1
  Hg  Hg8  1  0.750000  0.245537  0.399038  1
  Hg  Hg9  1  0.250000  0.752348  0.596867  1
  Hg  Hg10  1  0.750000  0.745803  0.105420  1
  Hg  Hg11  1  0.250000  0.259285  0.898329  1
