# generated using pymatgen
data_Ho20Sn9Pb7
_symmetry_space_group_name_H-M   'P 1'
_cell_length_a   8.12207765
_cell_length_b   8.17294365
_cell_length_c   15.50877488
_cell_angle_alpha   89.99241662
_cell_angle_beta   89.96443418
_cell_angle_gamma   90.01784224
_symmetry_Int_Tables_number   1
_chemical_formula_structural   Ho20Sn9Pb7
_chemical_formula_sum   'Ho20 Sn9 Pb7'
_cell_volume   1029.49211629
_cell_formula_units_Z   1
loop_
 _symmetry_equiv_pos_site_id
 _symmetry_equiv_pos_as_xyz
  1  'x, y, z'
loop_
 _atom_site_type_symbol
 _atom_site_label
 _atom_site_symmetry_multiplicity
 _atom_site_fract_x
 _atom_site_fract_y
 _atom_site_fract_z
 _atom_site_occupancy
  Ho  Ho0  1  0.380132  0.839778  0.878320  1
  Ho  Ho1  1  0.880342  0.660792  0.623171  1
  Ho  Ho2  1  0.618887  0.161381  0.376695  1
  Ho  Ho3  1  0.120595  0.335922  0.122548  1
  Ho  Ho4  1  0.617345  0.161443  0.122638  1
  Ho  Ho5  1  0.119044  0.338654  0.376785  1
  Ho  Ho6  1  0.380291  0.838725  0.622953  1
  Ho  Ho7  1  0.879993  0.661109  0.876925  1
  Ho  Ho8  1  0.536076  0.323530  0.897226  1
  Ho  Ho9  1  0.037466  0.175506  0.603619  1
  Ho  Ho10  1  0.461861  0.675700  0.395835  1
  Ho  Ho11  1  0.966190  0.826686  0.102839  1
  Ho  Ho12  1  0.461798  0.678350  0.103290  1
  Ho  Ho13  1  0.962221  0.824493  0.395948  1
  Ho  Ho14  1  0.538117  0.325056  0.603831  1
  Ho  Ho15  1  0.039684  0.173982  0.897693  1
  Ho  Ho16  1  0.210633  0.503533  0.750074  1
  Ho  Ho17  1  0.710751  0.996180  0.750082  1
  Ho  Ho18  1  0.789406  0.496131  0.249613  1
  Ho  Ho19  1  0.289003  0.003749  0.248647  1
  Sn  Sn20  1  0.282067  0.031708  0.042075  1
  Sn  Sn21  1  0.576149  0.622393  0.750523  1
  Sn  Sn22  1  0.076540  0.877495  0.750145  1
  Sn  Sn23  1  0.423156  0.378443  0.250012  1
  Sn  Sn24  1  0.922780  0.121995  0.250001  1
  Sn  Sn25  1  0.345509  0.148968  0.750153  1
  Sn  Sn26  1  0.845751  0.350322  0.750699  1
  Sn  Sn27  1  0.655301  0.851529  0.249677  1
  Sn  Sn28  1  0.154544  0.648483  0.249620  1
  Pb  Pb29  1  0.780557  0.468476  0.458533  1
  Pb  Pb30  1  0.718912  0.967875  0.541123  1
  Pb  Pb31  1  0.218453  0.532322  0.959096  1
  Pb  Pb32  1  0.719573  0.967585  0.958812  1
  Pb  Pb33  1  0.219124  0.531905  0.541349  1
  Pb  Pb34  1  0.280529  0.031785  0.458245  1
  Pb  Pb35  1  0.781219  0.468013  0.041206  1
