# generated using pymatgen
data_La5Pr3(SBr6)2
_symmetry_space_group_name_H-M   'P 1'
_cell_length_a   4.18797200
_cell_length_b   13.56199893
_cell_length_c   14.39217700
_cell_angle_alpha   89.92725436
_cell_angle_beta   90.00000000
_cell_angle_gamma   90.00000000
_symmetry_Int_Tables_number   1
_chemical_formula_structural   La5Pr3(SBr6)2
_chemical_formula_sum   'La5 Pr3 S2 Br12'
_cell_volume   817.43572982
_cell_formula_units_Z   1
loop_
 _symmetry_equiv_pos_site_id
 _symmetry_equiv_pos_as_xyz
  1  'x, y, z'
loop_
 _atom_site_type_symbol
 _atom_site_label
 _atom_site_symmetry_multiplicity
 _atom_site_fract_x
 _atom_site_fract_y
 _atom_site_fract_z
 _atom_site_occupancy
  La  La0  1  0.500000  0.117468  0.339916  1
  La  La1  1  0.500000  0.879750  0.658180  1
  La  La2  1  0.500000  0.619225  0.159549  1
  La  La3  1  0.500000  0.382339  0.842209  1
  La  La4  1  0.000000  0.115945  0.576743  1
  Pr  Pr5  1  0.000000  0.886176  0.424614  1
  Pr  Pr6  1  0.000000  0.613829  0.924836  1
  Pr  Pr7  1  0.000000  0.386374  0.075498  1
  S  S8  1  0.500000  0.999880  0.499905  1
  S  S9  1  0.500000  0.500612  0.000862  1
  Br  Br10  1  0.500000  0.245785  0.160495  1
  Br  Br11  1  0.500000  0.753804  0.839210  1
  Br  Br12  1  0.500000  0.745321  0.338999  1
  Br  Br13  1  0.500000  0.257588  0.661374  1
  Br  Br14  1  0.000000  0.259944  0.412294  1
  Br  Br15  1  0.000000  0.738923  0.584616  1
  Br  Br16  1  0.000000  0.759954  0.085147  1
  Br  Br17  1  0.000000  0.240414  0.914895  1
  Br  Br18  1  0.000000  0.996027  0.239791  1
  Br  Br19  1  0.000000  0.000310  0.760413  1
  Br  Br20  1  0.000000  0.496986  0.259419  1
  Br  Br21  1  0.000000  0.503344  0.741034  1
