# generated using pymatgen
data_Nd8InHgRh2
_symmetry_space_group_name_H-M   'P 1'
_cell_length_a   9.94501348
_cell_length_b   9.94501423
_cell_length_c   9.94449900
_cell_angle_alpha   60.00171711
_cell_angle_beta   60.00171460
_cell_angle_gamma   60.01624659
_symmetry_Int_Tables_number   1
_chemical_formula_structural   Nd8InHgRh2
_chemical_formula_sum   'Nd16 In2 Hg2 Rh4'
_cell_volume   695.57386715
_cell_formula_units_Z   2
loop_
 _symmetry_equiv_pos_site_id
 _symmetry_equiv_pos_as_xyz
  1  'x, y, z'
loop_
 _atom_site_type_symbol
 _atom_site_label
 _atom_site_symmetry_multiplicity
 _atom_site_fract_x
 _atom_site_fract_y
 _atom_site_fract_z
 _atom_site_occupancy
  Nd  Nd0  1  0.599827  0.599827  0.598844  1
  Nd  Nd1  1  0.599827  0.599827  0.201503  1
  Nd  Nd2  1  0.600963  0.200656  0.599191  1
  Nd  Nd3  1  0.200656  0.600963  0.599191  1
  Nd  Nd4  1  0.059593  0.440580  0.440533  1
  Nd  Nd5  1  0.440580  0.059593  0.059294  1
  Nd  Nd6  1  0.440580  0.059593  0.440533  1
  Nd  Nd7  1  0.059593  0.440580  0.059294  1
  Nd  Nd8  1  0.439404  0.439404  0.060596  1
  Nd  Nd9  1  0.058128  0.058128  0.441872  1
  Nd  Nd10  1  0.191011  0.812443  0.811461  1
  Nd  Nd11  1  0.812443  0.191011  0.185084  1
  Nd  Nd12  1  0.812443  0.191011  0.811461  1
  Nd  Nd13  1  0.191011  0.812443  0.185084  1
  Nd  Nd14  1  0.812579  0.812579  0.187421  1
  Nd  Nd15  1  0.188791  0.188791  0.811209  1
  In  In16  1  0.829801  0.829801  0.832009  1
  In  In17  1  0.829801  0.829801  0.508390  1
  Hg  Hg18  1  0.833591  0.498690  0.833860  1
  Hg  Hg19  1  0.498690  0.833591  0.833860  1
  Rh  Rh20  1  0.392229  0.392229  0.391691  1
  Rh  Rh21  1  0.392229  0.392229  0.823851  1
  Rh  Rh22  1  0.392837  0.823395  0.391884  1
  Rh  Rh23  1  0.823395  0.392837  0.391884  1
