# generated using pymatgen
data_La4YbSi2Sn
_symmetry_space_group_name_H-M   'P 1'
_cell_length_a   8.06482100
_cell_length_b   9.24109957
_cell_length_c   8.06482100
_cell_angle_alpha   115.87162868
_cell_angle_beta   90.00000000
_cell_angle_gamma   115.87162868
_symmetry_Int_Tables_number   1
_chemical_formula_structural   La4YbSi2Sn
_chemical_formula_sum   'La8 Yb2 Si4 Sn2'
_cell_volume   472.95933969
_cell_formula_units_Z   2
loop_
 _symmetry_equiv_pos_site_id
 _symmetry_equiv_pos_as_xyz
  1  'x, y, z'
loop_
 _atom_site_type_symbol
 _atom_site_label
 _atom_site_symmetry_multiplicity
 _atom_site_fract_x
 _atom_site_fract_y
 _atom_site_fract_z
 _atom_site_occupancy
  La  La0  1  0.535567  0.719357  0.683792  1
  La  La1  1  0.183792  0.719357  0.035567  1
  La  La2  1  0.683792  0.719357  0.183792  1
  La  La3  1  0.035567  0.719357  0.535567  1
  La  La4  1  0.464433  0.280643  0.316208  1
  La  La5  1  0.816208  0.280643  0.964433  1
  La  La6  1  0.316208  0.280643  0.816208  1
  La  La7  1  0.964433  0.280643  0.464433  1
  Yb  Yb8  1  0.000000  0.000000  0.000000  1
  Yb  Yb9  1  0.500000  0.000000  0.500000  1
  Si  Si10  1  0.886992  0.000000  0.613008  1
  Si  Si11  1  0.113008  0.000000  0.386992  1
  Si  Si12  1  0.613008  0.000000  0.113008  1
  Si  Si13  1  0.386992  0.000000  0.886992  1
  Sn  Sn14  1  0.750000  0.500000  0.750000  1
  Sn  Sn15  1  0.250000  0.500000  0.250000  1
