# generated using pymatgen
data_U4Mn6Ge6Rh
_symmetry_space_group_name_H-M   'P 1'
_cell_length_a   7.05430401
_cell_length_b   7.05430319
_cell_length_c   7.05430315
_cell_angle_alpha   109.37018561
_cell_angle_beta   109.37019142
_cell_angle_gamma   109.67347598
_symmetry_Int_Tables_number   1
_chemical_formula_structural   U4Mn6Ge6Rh
_chemical_formula_sum   'U4 Mn6 Ge6 Rh1'
_cell_volume   270.23179921
_cell_formula_units_Z   1
loop_
 _symmetry_equiv_pos_site_id
 _symmetry_equiv_pos_as_xyz
  1  'x, y, z'
loop_
 _atom_site_type_symbol
 _atom_site_label
 _atom_site_symmetry_multiplicity
 _atom_site_fract_x
 _atom_site_fract_y
 _atom_site_fract_z
 _atom_site_occupancy
  U  U0  1  0.506816  0.493184  0.500000  1
  U  U1  1  0.993184  0.006816  0.500000  1
  U  U2  1  0.506816  0.006816  0.013631  1
  U  U3  1  0.993184  0.493184  0.986369  1
  Mn  Mn4  1  0.750000  0.250000  0.500000  1
  Mn  Mn5  1  0.501573  0.251098  0.749525  1
  Mn  Mn6  1  0.501573  0.752048  0.250475  1
  Mn  Mn7  1  0.247952  0.498427  0.749525  1
  Mn  Mn8  1  0.748902  0.498427  0.250475  1
  Mn  Mn9  1  0.000000  0.000000  0.000000  1
  Ge  Ge10  1  0.316418  0.316418  0.000000  1
  Ge  Ge11  1  0.000464  0.312122  0.311659  1
  Ge  Ge12  1  0.000464  0.688805  0.688341  1
  Ge  Ge13  1  0.687878  0.999536  0.688341  1
  Ge  Ge14  1  0.311195  0.999536  0.311659  1
  Ge  Ge15  1  0.683582  0.683582  0.000000  1
  Rh  Rh16  1  0.250000  0.750000  0.500000  1
