# generated using pymatgen
data_Ba4MgZn(ReN4)2
_symmetry_space_group_name_H-M   'P 1'
_cell_length_a   5.95074100
_cell_length_b   7.17634172
_cell_length_c   8.48979946
_cell_angle_alpha   59.00853034
_cell_angle_beta   90.00000000
_cell_angle_gamma   90.00000000
_symmetry_Int_Tables_number   1
_chemical_formula_structural   Ba4MgZn(ReN4)2
_chemical_formula_sum   'Ba4 Mg1 Zn1 Re2 N8'
_cell_volume   310.79643632
_cell_formula_units_Z   1
loop_
 _symmetry_equiv_pos_site_id
 _symmetry_equiv_pos_as_xyz
  1  'x, y, z'
loop_
 _atom_site_type_symbol
 _atom_site_label
 _atom_site_symmetry_multiplicity
 _atom_site_fract_x
 _atom_site_fract_y
 _atom_site_fract_z
 _atom_site_occupancy
  Ba  Ba0  1  0.250000  0.225706  0.095809  1
  Ba  Ba1  1  0.750000  0.763370  0.902689  1
  Ba  Ba2  1  0.750000  0.749509  0.377457  1
  Ba  Ba3  1  0.250000  0.252806  0.626488  1
  Mg  Mg4  1  0.750000  0.282132  0.387990  1
  Zn  Zn5  1  0.250000  0.747415  0.607881  1
  Re  Re6  1  0.250000  0.666207  0.187360  1
  Re  Re7  1  0.750000  0.328436  0.812849  1
  N  N8  1  0.499283  0.500099  0.759561  1
  N  N9  1  0.998764  0.494098  0.236090  1
  N  N10  1  0.501236  0.494098  0.236090  1
  N  N11  1  0.000717  0.500099  0.759561  1
  N  N12  1  0.750000  0.210211  0.661103  1
  N  N13  1  0.250000  0.776653  0.340796  1
  N  N14  1  0.750000  0.121242  0.056001  1
  N  N15  1  0.250000  0.887919  0.952275  1
