# generated using pymatgen
data_Dy4Ho4B24IrRu3
_symmetry_space_group_name_H-M   'P 1'
_cell_length_a   3.65818800
_cell_length_b   9.14822163
_cell_length_c   11.50350580
_cell_angle_alpha   90.04271661
_cell_angle_beta   90.00000000
_cell_angle_gamma   90.00000000
_symmetry_Int_Tables_number   1
_chemical_formula_structural   Dy4Ho4B24IrRu3
_chemical_formula_sum   'Dy4 Ho4 B24 Ir1 Ru3'
_cell_volume   384.97523579
_cell_formula_units_Z   1
loop_
 _symmetry_equiv_pos_site_id
 _symmetry_equiv_pos_as_xyz
  1  'x, y, z'
loop_
 _atom_site_type_symbol
 _atom_site_label
 _atom_site_symmetry_multiplicity
 _atom_site_fract_x
 _atom_site_fract_y
 _atom_site_fract_z
 _atom_site_occupancy
  Dy  Dy0  1  0.000000  0.319664  0.414501  1
  Dy  Dy1  1  0.000000  0.678483  0.588896  1
  Dy  Dy2  1  0.000000  0.823833  0.084153  1
  Dy  Dy3  1  0.000000  0.178124  0.913136  1
  Ho  Ho4  1  0.000000  0.945677  0.372944  1
  Ho  Ho5  1  0.000000  0.055932  0.627054  1
  Ho  Ho6  1  0.000000  0.441964  0.125806  1
  Ho  Ho7  1  0.000000  0.555939  0.873166  1
  B  B8  1  0.500000  0.553650  0.433551  1
  B  B9  1  0.500000  0.445970  0.567206  1
  B  B10  1  0.500000  0.054258  0.067030  1
  B  B11  1  0.500000  0.946151  0.932652  1
  B  B12  1  0.500000  0.749473  0.420949  1
  B  B13  1  0.500000  0.251553  0.580210  1
  B  B14  1  0.500000  0.247980  0.079984  1
  B  B15  1  0.500000  0.752062  0.919886  1
  B  B16  1  0.500000  0.791989  0.265675  1
  B  B17  1  0.500000  0.209013  0.733622  1
  B  B18  1  0.500000  0.291226  0.233990  1
  B  B19  1  0.500000  0.708757  0.766470  1
  B  B20  1  0.500000  0.632103  0.183795  1
  B  B21  1  0.500000  0.368306  0.814764  1
  B  B22  1  0.500000  0.131861  0.315005  1
  B  B23  1  0.500000  0.867946  0.685337  1
  B  B24  1  0.500000  0.983646  0.212925  1
  B  B25  1  0.500000  0.016463  0.786764  1
  B  B26  1  0.500000  0.482357  0.286805  1
  B  B27  1  0.500000  0.516451  0.713323  1
  B  B28  1  0.500000  0.609631  0.030458  1
  B  B29  1  0.500000  0.390416  0.969902  1
  B  B30  1  0.500000  0.109037  0.469967  1
  B  B31  1  0.500000  0.890204  0.529763  1
  Ir  Ir32  1  0.000000  0.637497  0.321627  1
  Ru  Ru33  1  0.000000  0.362298  0.678476  1
  Ru  Ru34  1  0.000000  0.138170  0.179165  1
  Ru  Ru35  1  0.000000  0.861916  0.821045  1
