# generated using pymatgen
data_RbAu2(SO4)4
_symmetry_space_group_name_H-M   'P 1'
_cell_length_a   6.97570335
_cell_length_b   6.97570280
_cell_length_c   9.62044054
_cell_angle_alpha   73.10265517
_cell_angle_beta   73.10266123
_cell_angle_gamma   84.51040210
_symmetry_Int_Tables_number   1
_chemical_formula_structural   RbAu2(SO4)4
_chemical_formula_sum   'Rb1 Au2 S4 O16'
_cell_volume   428.55388584
_cell_formula_units_Z   1
loop_
 _symmetry_equiv_pos_site_id
 _symmetry_equiv_pos_as_xyz
  1  'x, y, z'
loop_
 _atom_site_type_symbol
 _atom_site_label
 _atom_site_symmetry_multiplicity
 _atom_site_fract_x
 _atom_site_fract_y
 _atom_site_fract_z
 _atom_site_occupancy
  Rb  Rb0  1  0.000000  0.000000  0.000000  1
  Au  Au1  1  0.000000  0.000000  0.500000  1
  Au  Au2  1  0.500000  0.500000  0.500000  1
  S  S3  1  0.089091  0.589838  0.719474  1
  S  S4  1  0.589838  0.089091  0.719474  1
  S  S5  1  0.910909  0.410162  0.280526  1
  S  S6  1  0.410162  0.910909  0.280526  1
  O  O7  1  0.320561  0.625353  0.658500  1
  O  O8  1  0.625353  0.320561  0.658500  1
  O  O9  1  0.679439  0.374647  0.341500  1
  O  O10  1  0.374647  0.679439  0.341500  1
  O  O11  1  0.023742  0.688113  0.838086  1
  O  O12  1  0.688113  0.023742  0.838086  1
  O  O13  1  0.976258  0.311887  0.161914  1
  O  O14  1  0.311887  0.976258  0.161914  1
  O  O15  1  0.001250  0.697101  0.583717  1
  O  O16  1  0.697101  0.001250  0.583717  1
  O  O17  1  0.998750  0.302899  0.416283  1
  O  O18  1  0.302899  0.998750  0.416283  1
  O  O19  1  0.044466  0.381248  0.751845  1
  O  O20  1  0.381248  0.044466  0.751845  1
  O  O21  1  0.955534  0.618752  0.248155  1
  O  O22  1  0.618752  0.955534  0.248155  1
