# generated using pymatgen
data_NaNd2(AsRu)6
_symmetry_space_group_name_H-M   'P 1'
_cell_length_a   8.48448630
_cell_length_b   8.48448637
_cell_length_c   5.99562506
_cell_angle_alpha   79.06194282
_cell_angle_beta   79.06193911
_cell_angle_gamma   41.06742020
_symmetry_Int_Tables_number   1
_chemical_formula_structural   NaNd2(AsRu)6
_chemical_formula_sum   'Na1 Nd2 As6 Ru6'
_cell_volume   277.65945224
_cell_formula_units_Z   1
loop_
 _symmetry_equiv_pos_site_id
 _symmetry_equiv_pos_as_xyz
  1  'x, y, z'
loop_
 _atom_site_type_symbol
 _atom_site_label
 _atom_site_symmetry_multiplicity
 _atom_site_fract_x
 _atom_site_fract_y
 _atom_site_fract_z
 _atom_site_occupancy
  Na  Na0  1  0.000000  0.000000  0.000000  1
  Nd  Nd1  1  0.665765  0.665765  0.668359  1
  Nd  Nd2  1  0.334235  0.334235  0.331641  1
  As  As3  1  0.877554  0.877554  0.506462  1
  As  As4  1  0.210200  0.210200  0.841825  1
  As  As5  1  0.545094  0.545094  0.177764  1
  As  As6  1  0.454906  0.454906  0.822236  1
  As  As7  1  0.789800  0.789800  0.158175  1
  As  As8  1  0.122446  0.122446  0.493538  1
  Ru  Ru9  1  0.082041  0.582016  0.830786  1
  Ru  Ru10  1  0.417984  0.917959  0.169214  1
  Ru  Ru11  1  0.751247  0.248753  0.500000  1
  Ru  Ru12  1  0.248753  0.751247  0.500000  1
  Ru  Ru13  1  0.582016  0.082041  0.830786  1
  Ru  Ru14  1  0.917959  0.417984  0.169214  1
