# generated using pymatgen
data_Sc22AgIr3Os4
_symmetry_space_group_name_H-M   'P 1'
_cell_length_a   9.48524651
_cell_length_b   9.54091067
_cell_length_c   9.54408014
_cell_angle_alpha   59.92742224
_cell_angle_beta   60.18239389
_cell_angle_gamma   60.21633842
_symmetry_Int_Tables_number   1
_chemical_formula_structural   Sc22AgIr3Os4
_chemical_formula_sum   'Sc22 Ag1 Ir3 Os4'
_cell_volume   612.23677406
_cell_formula_units_Z   1
loop_
 _symmetry_equiv_pos_site_id
 _symmetry_equiv_pos_as_xyz
  1  'x, y, z'
loop_
 _atom_site_type_symbol
 _atom_site_label
 _atom_site_symmetry_multiplicity
 _atom_site_fract_x
 _atom_site_fract_y
 _atom_site_fract_z
 _atom_site_occupancy
  Sc  Sc0  1  0.801284  0.804691  0.195311  1
  Sc  Sc1  1  0.198488  0.804590  0.195416  1
  Sc  Sc2  1  0.802940  0.197065  0.197071  1
  Sc  Sc3  1  0.198716  0.195309  0.804689  1
  Sc  Sc4  1  0.801512  0.195410  0.804584  1
  Sc  Sc5  1  0.197060  0.802935  0.802929  1
  Sc  Sc6  1  0.614425  0.617603  0.150798  1
  Sc  Sc7  1  0.617184  0.150794  0.617607  1
  Sc  Sc8  1  0.151143  0.622726  0.619702  1
  Sc  Sc9  1  0.606423  0.619699  0.622726  1
  Sc  Sc10  1  0.385575  0.382397  0.849202  1
  Sc  Sc11  1  0.382816  0.849206  0.382393  1
  Sc  Sc12  1  0.848857  0.377274  0.380298  1
  Sc  Sc13  1  0.393577  0.380301  0.377274  1
  Sc  Sc14  1  0.837240  0.857337  0.469082  1
  Sc  Sc15  1  0.836356  0.469076  0.857334  1
  Sc  Sc16  1  0.469606  0.843154  0.844341  1
  Sc  Sc17  1  0.842899  0.844347  0.843152  1
  Sc  Sc18  1  0.162760  0.142663  0.530918  1
  Sc  Sc19  1  0.163644  0.530924  0.142666  1
  Sc  Sc20  1  0.530394  0.156846  0.155659  1
  Sc  Sc21  1  0.157101  0.155653  0.156848  1
  Ag  Ag22  1  0.000000  0.500000  0.500000  1
  Ir  Ir23  1  0.500000  0.000000  0.500000  1
  Ir  Ir24  1  0.000000  0.500000  0.000000  1
  Ir  Ir25  1  0.500000  0.000000  0.000000  1
  Os  Os26  1  0.000000  0.000000  0.000000  1
  Os  Os27  1  0.500000  0.500000  0.500000  1
  Os  Os28  1  0.000000  0.000000  0.500000  1
  Os  Os29  1  0.500000  0.500000  0.000000  1
