# generated using pymatgen
data_TbEr11Os4
_symmetry_space_group_name_H-M   'P 1'
_cell_length_a   7.38324224
_cell_length_b   8.95241800
_cell_length_c   6.26198820
_cell_angle_alpha   90.00000000
_cell_angle_beta   89.97093661
_cell_angle_gamma   90.00000000
_symmetry_Int_Tables_number   1
_chemical_formula_structural   TbEr11Os4
_chemical_formula_sum   'Tb1 Er11 Os4'
_cell_volume   413.90403324
_cell_formula_units_Z   1
loop_
 _symmetry_equiv_pos_site_id
 _symmetry_equiv_pos_as_xyz
  1  'x, y, z'
loop_
 _atom_site_type_symbol
 _atom_site_label
 _atom_site_symmetry_multiplicity
 _atom_site_fract_x
 _atom_site_fract_y
 _atom_site_fract_z
 _atom_site_occupancy
  Tb  Tb0  1  0.461545  0.750000  0.128376  1
  Er  Er1  1  0.174549  0.062771  0.165844  1
  Er  Er2  1  0.174549  0.437229  0.165844  1
  Er  Er3  1  0.675142  0.062841  0.334446  1
  Er  Er4  1  0.675142  0.437159  0.334446  1
  Er  Er5  1  0.961411  0.750000  0.371456  1
  Er  Er6  1  0.038675  0.250000  0.628781  1
  Er  Er7  1  0.325051  0.562311  0.665334  1
  Er  Er8  1  0.325051  0.937689  0.665334  1
  Er  Er9  1  0.825365  0.562561  0.834008  1
  Er  Er10  1  0.825365  0.937439  0.834008  1
  Er  Er11  1  0.538680  0.250000  0.871287  1
  Os  Os12  1  0.881862  0.250000  0.039354  1
  Os  Os13  1  0.381759  0.250000  0.460695  1
  Os  Os14  1  0.618594  0.750000  0.540576  1
  Os  Os15  1  0.117260  0.750000  0.960210  1
