# generated using pymatgen
data_NdSm11Co2I17
_symmetry_space_group_name_H-M   'P 1'
_cell_length_a   9.89618143
_cell_length_b   11.88936681
_cell_length_c   11.84868934
_cell_angle_alpha   74.40632055
_cell_angle_beta   75.26359117
_cell_angle_gamma   65.45936237
_symmetry_Int_Tables_number   1
_chemical_formula_structural   NdSm11Co2I17
_chemical_formula_sum   'Nd1 Sm11 Co2 I17'
_cell_volume   1205.18148374
_cell_formula_units_Z   1
loop_
 _symmetry_equiv_pos_site_id
 _symmetry_equiv_pos_as_xyz
  1  'x, y, z'
loop_
 _atom_site_type_symbol
 _atom_site_label
 _atom_site_symmetry_multiplicity
 _atom_site_fract_x
 _atom_site_fract_y
 _atom_site_fract_z
 _atom_site_occupancy
  Nd  Nd0  1  0.137811  0.711316  0.150687  1
  Sm  Sm1  1  0.452258  0.494830  0.321187  1
  Sm  Sm2  1  0.547116  0.667681  0.014778  1
  Sm  Sm3  1  0.278878  0.979263  0.108562  1
  Sm  Sm4  1  0.859156  0.288961  0.848874  1
  Sm  Sm5  1  0.409452  0.240840  0.718705  1
  Sm  Sm6  1  0.721179  0.021636  0.891386  1
  Sm  Sm7  1  0.549156  0.504237  0.678194  1
  Sm  Sm8  1  0.453257  0.332509  0.984641  1
  Sm  Sm9  1  0.589573  0.759216  0.281096  1
  Sm  Sm10  1  0.819148  0.191376  0.585835  1
  Sm  Sm11  1  0.180938  0.808478  0.415009  1
  Co  Co12  1  0.364203  0.737847  0.215623  1
  Co  Co13  1  0.635912  0.262233  0.784338  1
  I  I14  1  0.054564  0.102535  0.326871  1
  I  I15  1  0.467440  0.945544  0.839962  1
  I  I16  1  0.428776  0.811466  0.539948  1
  I  I17  1  0.571348  0.188130  0.460615  1
  I  I18  1  0.838454  0.712174  0.042691  1
  I  I19  1  0.227207  0.413847  0.239674  1
  I  I20  1  0.693883  0.364402  0.106715  1
  I  I21  1  0.532636  0.054672  0.159982  1
  I  I22  1  0.748024  0.471351  0.416330  1
  I  I23  1  0.882059  0.786500  0.371914  1
  I  I24  1  0.948488  0.897017  0.674169  1
  I  I25  1  0.160054  0.288589  0.956008  1
  I  I26  1  0.307314  0.635416  0.891286  1
  I  I27  1  0.999074  0.002019  0.999903  1
  I  I28  1  0.114847  0.214814  0.631288  1
  I  I29  1  0.774833  0.582975  0.761033  1
  I  I30  1  0.252960  0.528126  0.582696  1
