# generated using pymatgen
data_K2Hf3(NiSe4)2
_symmetry_space_group_name_H-M   'P 1'
_cell_length_a   3.77403745
_cell_length_b   7.92520252
_cell_length_c   13.22789111
_cell_angle_alpha   94.22057102
_cell_angle_beta   98.20147336
_cell_angle_gamma   103.77462839
_symmetry_Int_Tables_number   1
_chemical_formula_structural   K2Hf3(NiSe4)2
_chemical_formula_sum   'K2 Hf3 Ni2 Se8'
_cell_volume   377.94904539
_cell_formula_units_Z   1
loop_
 _symmetry_equiv_pos_site_id
 _symmetry_equiv_pos_as_xyz
  1  'x, y, z'
loop_
 _atom_site_type_symbol
 _atom_site_label
 _atom_site_symmetry_multiplicity
 _atom_site_fract_x
 _atom_site_fract_y
 _atom_site_fract_z
 _atom_site_occupancy
  K  K0  1  0.864986  0.526624  0.203346  1
  K  K1  1  0.135014  0.473376  0.796653  1
  Hf  Hf2  1  0.500000  0.000000  0.000000  1
  Hf  Hf3  1  0.714607  0.053727  0.375487  1
  Hf  Hf4  1  0.285392  0.946273  0.624512  1
  Ni  Ni5  1  0.131203  0.071972  0.190436  1
  Ni  Ni6  1  0.868796  0.928029  0.809563  1
  Se  Se7  1  0.148396  0.245819  0.050972  1
  Se  Se8  1  0.533573  0.880845  0.186300  1
  Se  Se9  1  0.312443  0.283635  0.341250  1
  Se  Se10  1  0.122574  0.821342  0.423808  1
  Se  Se11  1  0.877426  0.178659  0.576191  1
  Se  Se12  1  0.687558  0.716366  0.658751  1
  Se  Se13  1  0.466427  0.119155  0.813700  1
  Se  Se14  1  0.851603  0.754180  0.949027  1
