# generated using pymatgen
data_YTm5(CdHg2)6
_symmetry_space_group_name_H-M   'P 1'
_cell_length_a   5.08811201
_cell_length_b   7.04310701
_cell_length_c   15.47056200
_cell_angle_alpha   89.99995345
_cell_angle_beta   89.99741989
_cell_angle_gamma   90.00634193
_symmetry_Int_Tables_number   1
_chemical_formula_structural   YTm5(CdHg2)6
_chemical_formula_sum   'Y1 Tm5 Cd6 Hg12'
_cell_volume   554.40487168
_cell_formula_units_Z   1
loop_
 _symmetry_equiv_pos_site_id
 _symmetry_equiv_pos_as_xyz
  1  'x, y, z'
loop_
 _atom_site_type_symbol
 _atom_site_label
 _atom_site_symmetry_multiplicity
 _atom_site_fract_x
 _atom_site_fract_y
 _atom_site_fract_z
 _atom_site_occupancy
  Y  Y0  1  0.500099  0.500000  0.833324  1
  Tm  Tm1  1  0.000004  0.000000  0.000068  1
  Tm  Tm2  1  0.499910  0.500000  0.166315  1
  Tm  Tm3  1  0.999920  0.000001  0.333349  1
  Tm  Tm4  1  0.500005  0.500001  0.500390  1
  Tm  Tm5  1  0.000090  0.000000  0.666552  1
  Cd  Cd6  1  0.000009  0.500000  0.000213  1
  Cd  Cd7  1  0.499900  0.000000  0.166519  1
  Cd  Cd8  1  0.999945  0.500000  0.333241  1
  Cd  Cd9  1  0.499999  0.000000  0.500190  1
  Cd  Cd10  1  0.000073  0.500000  0.666550  1
  Cd  Cd11  1  0.500091  0.000001  0.833304  1
  Hg  Hg12  1  0.499921  0.250150  0.001372  1
  Hg  Hg13  1  0.500064  0.749849  0.001372  1
  Hg  Hg14  1  0.999948  0.247566  0.166614  1
  Hg  Hg15  1  0.999832  0.752435  0.166614  1
  Hg  Hg16  1  0.499816  0.252002  0.333277  1
  Hg  Hg17  1  0.499990  0.747998  0.333277  1
  Hg  Hg18  1  0.000072  0.247680  0.499975  1
  Hg  Hg19  1  0.999957  0.752321  0.499974  1
  Hg  Hg20  1  0.500007  0.250312  0.665350  1
  Hg  Hg21  1  0.500149  0.749688  0.665350  1
  Hg  Hg22  1  0.000244  0.244353  0.833405  1
  Hg  Hg23  1  0.999957  0.755648  0.833405  1
