# generated using pymatgen
data_TiNb3(Al3Cu)2
_symmetry_space_group_name_H-M   'P 1'
_cell_length_a   5.16493700
_cell_length_b   5.16493619
_cell_length_c   7.95244200
_cell_angle_alpha   90.00000000
_cell_angle_beta   90.00000000
_cell_angle_gamma   119.99999881
_symmetry_Int_Tables_number   1
_chemical_formula_structural   TiNb3(Al3Cu)2
_chemical_formula_sum   'Ti1 Nb3 Al6 Cu2'
_cell_volume   183.72198788
_cell_formula_units_Z   1
loop_
 _symmetry_equiv_pos_site_id
 _symmetry_equiv_pos_as_xyz
  1  'x, y, z'
loop_
 _atom_site_type_symbol
 _atom_site_label
 _atom_site_symmetry_multiplicity
 _atom_site_fract_x
 _atom_site_fract_y
 _atom_site_fract_z
 _atom_site_occupancy
  Ti  Ti0  1  0.666666  0.333333  0.069500  1
  Nb  Nb1  1  0.666666  0.333333  0.432449  1
  Nb  Nb2  1  0.333333  0.666667  0.569669  1
  Nb  Nb3  1  0.333333  0.666667  0.928037  1
  Al  Al4  1  0.169701  0.339403  0.249138  1
  Al  Al5  1  0.169700  0.830298  0.249138  1
  Al  Al6  1  0.660598  0.830298  0.249138  1
  Al  Al7  1  0.340070  0.170034  0.750813  1
  Al  Al8  1  0.829964  0.170034  0.750813  1
  Al  Al9  1  0.829964  0.659930  0.750813  1
  Cu  Cu10  1  0.000000  0.000000  0.000358  1
  Cu  Cu11  1  0.000000  0.000000  0.500136  1
