# generated using pymatgen
data_Er3Tm5Tl3Rh
_symmetry_space_group_name_H-M   'P 1'
_cell_length_a   10.30854300
_cell_length_b   10.30854402
_cell_length_c   6.95293800
_cell_angle_alpha   90.00000000
_cell_angle_beta   90.00000000
_cell_angle_gamma   119.99999994
_symmetry_Int_Tables_number   1
_chemical_formula_structural   Er3Tm5Tl3Rh
_chemical_formula_sum   'Er6 Tm10 Tl6 Rh2'
_cell_volume   639.87273496
_cell_formula_units_Z   2
loop_
 _symmetry_equiv_pos_site_id
 _symmetry_equiv_pos_as_xyz
  1  'x, y, z'
loop_
 _atom_site_type_symbol
 _atom_site_label
 _atom_site_symmetry_multiplicity
 _atom_site_fract_x
 _atom_site_fract_y
 _atom_site_fract_z
 _atom_site_occupancy
  Er  Er0  1  0.532523  0.065049  0.516154  1
  Er  Er1  1  0.934951  0.467477  0.516154  1
  Er  Er2  1  0.532523  0.467477  0.516154  1
  Er  Er3  1  0.467477  0.934951  0.016154  1
  Er  Er4  1  0.065049  0.532523  0.016154  1
  Er  Er5  1  0.467477  0.532523  0.016154  1
  Tm  Tm6  1  0.176369  0.352735  0.720535  1
  Tm  Tm7  1  0.647265  0.823631  0.720535  1
  Tm  Tm8  1  0.176369  0.823631  0.720535  1
  Tm  Tm9  1  0.823631  0.647265  0.220535  1
  Tm  Tm10  1  0.352735  0.176369  0.220535  1
  Tm  Tm11  1  0.823631  0.176369  0.220535  1
  Tm  Tm12  1  0.666667  0.333333  0.895263  1
  Tm  Tm13  1  0.333333  0.666667  0.395263  1
  Tm  Tm14  1  0.000000  0.000000  0.500252  1
  Tm  Tm15  1  0.000000  0.000000  0.000252  1
  Tl  Tl16  1  0.837201  0.674403  0.762116  1
  Tl  Tl17  1  0.325597  0.162799  0.762116  1
  Tl  Tl18  1  0.837201  0.162799  0.762116  1
  Tl  Tl19  1  0.162799  0.325597  0.262116  1
  Tl  Tl20  1  0.674403  0.837201  0.262116  1
  Tl  Tl21  1  0.162799  0.837201  0.262116  1
  Rh  Rh22  1  0.666667  0.333333  0.287070  1
  Rh  Rh23  1  0.333333  0.666667  0.787070  1
