# generated using pymatgen
data_Sc8Ta3Si16Mo9
_symmetry_space_group_name_H-M   'P 1'
_cell_length_a   6.61146766
_cell_length_b   6.83356387
_cell_length_c   12.75863300
_cell_angle_alpha   90.00000000
_cell_angle_beta   90.00000000
_cell_angle_gamma   89.84993835
_symmetry_Int_Tables_number   1
_chemical_formula_structural   Sc8Ta3Si16Mo9
_chemical_formula_sum   'Sc8 Ta3 Si16 Mo9'
_cell_volume   576.43161406
_cell_formula_units_Z   1
loop_
 _symmetry_equiv_pos_site_id
 _symmetry_equiv_pos_as_xyz
  1  'x, y, z'
loop_
 _atom_site_type_symbol
 _atom_site_label
 _atom_site_symmetry_multiplicity
 _atom_site_fract_x
 _atom_site_fract_y
 _atom_site_fract_z
 _atom_site_occupancy
  Sc  Sc0  1  0.494411  0.328113  0.093406  1
  Sc  Sc1  1  0.997875  0.170428  0.406560  1
  Sc  Sc2  1  0.502822  0.671519  0.593918  1
  Sc  Sc3  1  0.002823  0.827806  0.905844  1
  Sc  Sc4  1  0.502822  0.671519  0.906082  1
  Sc  Sc5  1  0.002823  0.827806  0.594156  1
  Sc  Sc6  1  0.494411  0.328113  0.406594  1
  Sc  Sc7  1  0.997875  0.170428  0.093440  1
  Ta  Ta8  1  0.659464  0.004257  0.750000  1
  Ta  Ta9  1  0.159456  0.495308  0.750000  1
  Ta  Ta10  1  0.340299  0.998439  0.250000  1
  Si  Si11  1  0.667470  0.038099  0.541501  1
  Si  Si12  1  0.166824  0.461627  0.958905  1
  Si  Si13  1  0.333229  0.962265  0.042358  1
  Si  Si14  1  0.832810  0.537716  0.454641  1
  Si  Si15  1  0.333229  0.962265  0.457642  1
  Si  Si16  1  0.832810  0.537716  0.045359  1
  Si  Si17  1  0.667470  0.038099  0.958499  1
  Si  Si18  1  0.166824  0.461627  0.541095  1
  Si  Si19  1  0.535580  0.382410  0.750000  1
  Si  Si20  1  0.034883  0.118311  0.750000  1
  Si  Si21  1  0.469666  0.618124  0.250000  1
  Si  Si22  1  0.963559  0.877076  0.250000  1
  Si  Si23  1  0.794569  0.639218  0.750000  1
  Si  Si24  1  0.294606  0.860589  0.750000  1
  Si  Si25  1  0.199189  0.363305  0.250000  1
  Si  Si26  1  0.705945  0.143829  0.250000  1
  Mo  Mo27  1  0.831661  0.334803  0.623118  1
  Mo  Mo28  1  0.332558  0.165807  0.875663  1
  Mo  Mo29  1  0.170724  0.665228  0.124589  1
  Mo  Mo30  1  0.669861  0.837179  0.374966  1
  Mo  Mo31  1  0.170724  0.665228  0.375411  1
  Mo  Mo32  1  0.669861  0.837179  0.125034  1
  Mo  Mo33  1  0.831661  0.334803  0.876882  1
  Mo  Mo34  1  0.332558  0.165807  0.624337  1
  Mo  Mo35  1  0.836645  0.497957  0.250000  1
