# generated using pymatgen
data_Eu2SnPtRh
_symmetry_space_group_name_H-M   'P 1'
_cell_length_a   5.87714279
_cell_length_b   5.87714200
_cell_length_c   8.26878772
_cell_angle_alpha   101.95548488
_cell_angle_beta   101.95548614
_cell_angle_gamma   59.57203611
_symmetry_Int_Tables_number   1
_chemical_formula_structural   Eu2SnPtRh
_chemical_formula_sum   'Eu4 Sn2 Pt2 Rh2'
_cell_volume   239.15443684
_cell_formula_units_Z   2
loop_
 _symmetry_equiv_pos_site_id
 _symmetry_equiv_pos_as_xyz
  1  'x, y, z'
loop_
 _atom_site_type_symbol
 _atom_site_label
 _atom_site_symmetry_multiplicity
 _atom_site_fract_x
 _atom_site_fract_y
 _atom_site_fract_z
 _atom_site_occupancy
  Eu  Eu0  1  0.792178  0.500553  0.148668  1
  Eu  Eu1  1  0.499446  0.207822  0.351332  1
  Eu  Eu2  1  0.501033  0.795139  0.647173  1
  Eu  Eu3  1  0.204862  0.498967  0.852827  1
  Sn  Sn4  1  0.137239  0.862760  0.250000  1
  Sn  Sn5  1  0.853517  0.146482  0.749999  1
  Pt  Pt6  1  0.999808  0.719504  0.500609  1
  Pt  Pt7  1  0.280495  0.000192  0.999392  1
  Rh  Rh8  1  0.734805  0.003384  0.996927  1
  Rh  Rh9  1  0.996616  0.265194  0.503073  1
