# generated using pymatgen
data_Pr12CoOsI17
_symmetry_space_group_name_H-M   'P 1'
_cell_length_a   10.12064585
_cell_length_b   12.11991270
_cell_length_c   12.15606097
_cell_angle_alpha   93.37216079
_cell_angle_beta   104.82886708
_cell_angle_gamma   114.52808905
_symmetry_Int_Tables_number   1
_chemical_formula_structural   Pr12CoOsI17
_chemical_formula_sum   'Pr12 Co1 Os1 I17'
_cell_volume   1288.03535026
_cell_formula_units_Z   1
loop_
 _symmetry_equiv_pos_site_id
 _symmetry_equiv_pos_as_xyz
  1  'x, y, z'
loop_
 _atom_site_type_symbol
 _atom_site_label
 _atom_site_symmetry_multiplicity
 _atom_site_fract_x
 _atom_site_fract_y
 _atom_site_fract_z
 _atom_site_occupancy
  Pr  Pr0  1  0.058688  0.512539  0.323700  1
  Pr  Pr1  1  0.990050  0.809473  0.583588  1
  Pr  Pr2  1  0.642506  0.240225  0.285166  1
  Pr  Pr3  1  0.010936  0.188546  0.418782  1
  Pr  Pr4  1  0.222236  0.670978  0.986466  1
  Pr  Pr5  1  0.257601  0.982410  0.890961  1
  Pr  Pr6  1  0.352807  0.759013  0.716543  1
  Pr  Pr7  1  0.944550  0.492128  0.678427  1
  Pr  Pr8  1  0.739061  0.011326  0.107525  1
  Pr  Pr9  1  0.154362  0.287611  0.150850  1
  Pr  Pr10  1  0.776060  0.331183  0.009016  1
  Pr  Pr11  1  0.851261  0.712763  0.848578  1
  Co  Co12  1  0.103901  0.738345  0.785014  1
  Os  Os13  1  0.895761  0.261785  0.214305  1
  I  I14  1  0.784871  0.529554  0.419396  1
  I  I15  1  0.641407  0.419996  0.757259  1
  I  I16  1  0.843323  0.893198  0.326311  1
  I  I17  1  0.326174  0.212248  0.370843  1
  I  I18  1  0.157485  0.104068  0.676697  1
  I  I19  1  0.585476  0.052005  0.842445  1
  I  I20  1  0.756470  0.185478  0.539840  1
  I  I21  1  0.547719  0.705415  0.952045  1
  I  I22  1  0.358688  0.582614  0.239344  1
  I  I23  1  0.215234  0.471683  0.583619  1
  I  I24  1  0.055937  0.368625  0.896201  1
  I  I25  1  0.449972  0.290585  0.044685  1
  I  I26  1  0.000211  0.999276  0.998911  1
  I  I27  1  0.245966  0.818498  0.463792  1
  I  I28  1  0.409898  0.946125  0.155639  1
  I  I29  1  0.674633  0.787940  0.631383  1
  I  I30  1  0.946758  0.634369  0.102667  1
