# generated using pymatgen
data_Ba5As4
_symmetry_space_group_name_H-M   'P 1'
_cell_length_a   8.66876652
_cell_length_b   8.73604400
_cell_length_c   9.57186695
_cell_angle_alpha   90.00000000
_cell_angle_beta   116.92509218
_cell_angle_gamma   90.00000000
_symmetry_Int_Tables_number   1
_chemical_formula_structural   Ba5As4
_chemical_formula_sum   'Ba10 As8'
_cell_volume   646.30645438
_cell_formula_units_Z   2
loop_
 _symmetry_equiv_pos_site_id
 _symmetry_equiv_pos_as_xyz
  1  'x, y, z'
loop_
 _atom_site_type_symbol
 _atom_site_label
 _atom_site_symmetry_multiplicity
 _atom_site_fract_x
 _atom_site_fract_y
 _atom_site_fract_z
 _atom_site_occupancy
  Ba  Ba0  1  0.184725  0.163343  0.706208  1
  Ba  Ba1  1  0.521483  0.836657  0.706208  1
  Ba  Ba2  1  0.021483  0.663343  0.706208  1
  Ba  Ba3  1  0.684725  0.336657  0.706208  1
  Ba  Ba4  1  0.815275  0.836657  0.293792  1
  Ba  Ba5  1  0.478517  0.163343  0.293792  1
  Ba  Ba6  1  0.978517  0.336657  0.293792  1
  Ba  Ba7  1  0.315275  0.663343  0.293792  1
  Ba  Ba8  1  0.500000  0.500000  0.000000  1
  Ba  Ba9  1  0.000000  0.000000  0.000000  1
  As  As10  1  0.301880  0.500000  0.603761  1
  As  As11  1  0.801880  0.000000  0.603761  1
  As  As12  1  0.698120  0.500000  0.396239  1
  As  As13  1  0.198120  0.000000  0.396239  1
  As  As14  1  0.604597  0.103906  0.000000  1
  As  As15  1  0.395403  0.896094  0.000000  1
  As  As16  1  0.895403  0.603906  0.000000  1
  As  As17  1  0.104597  0.396094  0.000000  1
