# generated using pymatgen
data_Tb15NdCd4IrPd3
_symmetry_space_group_name_H-M   'P 1'
_cell_length_a   9.76566310
_cell_length_b   9.71653380
_cell_length_c   9.71747600
_cell_angle_alpha   59.99679223
_cell_angle_beta   60.16309286
_cell_angle_gamma   60.04650771
_symmetry_Int_Tables_number   1
_chemical_formula_structural   Tb15NdCd4IrPd3
_chemical_formula_sum   'Tb15 Nd1 Cd4 Ir1 Pd3'
_cell_volume   653.01965589
_cell_formula_units_Z   1
loop_
 _symmetry_equiv_pos_site_id
 _symmetry_equiv_pos_as_xyz
  1  'x, y, z'
loop_
 _atom_site_type_symbol
 _atom_site_label
 _atom_site_symmetry_multiplicity
 _atom_site_fract_x
 _atom_site_fract_y
 _atom_site_fract_z
 _atom_site_occupancy
  Tb  Tb0  1  0.355079  0.349921  0.346895  1
  Tb  Tb1  1  0.355079  0.349921  0.948105  1
  Tb  Tb2  1  0.358798  0.942649  0.349277  1
  Tb  Tb3  1  0.932516  0.358465  0.354509  1
  Tb  Tb4  1  0.806897  0.189922  0.188308  1
  Tb  Tb5  1  0.192973  0.809738  0.808978  1
  Tb  Tb6  1  0.192973  0.809738  0.188310  1
  Tb  Tb7  1  0.806897  0.189922  0.814871  1
  Tb  Tb8  1  0.193187  0.189977  0.808418  1
  Tb  Tb9  1  0.807807  0.816246  0.187973  1
  Tb  Tb10  1  0.936875  0.561580  0.565492  1
  Tb  Tb11  1  0.564353  0.936597  0.937267  1
  Tb  Tb12  1  0.564353  0.936597  0.561783  1
  Tb  Tb13  1  0.936875  0.561580  0.936053  1
  Tb  Tb14  1  0.568067  0.562397  0.934768  1
  Nd  Nd15  1  0.935919  0.933804  0.565139  1
  Cd  Cd16  1  0.580542  0.582146  0.582766  1
  Cd  Cd17  1  0.580542  0.582146  0.254543  1
  Cd  Cd18  1  0.577429  0.255631  0.583469  1
  Cd  Cd19  1  0.258044  0.577620  0.582167  1
  Ir  Ir20  1  0.571383  0.142310  0.143154  1
  Pd  Pd21  1  0.141798  0.146292  0.145582  1
  Pd  Pd22  1  0.141798  0.146292  0.566327  1
  Pd  Pd23  1  0.139811  0.568506  0.145841  1
