# generated using pymatgen
data_LaTlV2F14
_symmetry_space_group_name_H-M   'P 1'
_cell_length_a   5.62219413
_cell_length_b   9.04366328
_cell_length_c   12.05520200
_cell_angle_alpha   63.18564475
_cell_angle_beta   89.90871918
_cell_angle_gamma   89.98026231
_symmetry_Int_Tables_number   1
_chemical_formula_structural   LaTlV2F14
_chemical_formula_sum   'La2 Tl2 V4 F28'
_cell_volume   547.04005251
_cell_formula_units_Z   2
loop_
 _symmetry_equiv_pos_site_id
 _symmetry_equiv_pos_as_xyz
  1  'x, y, z'
loop_
 _atom_site_type_symbol
 _atom_site_label
 _atom_site_symmetry_multiplicity
 _atom_site_fract_x
 _atom_site_fract_y
 _atom_site_fract_z
 _atom_site_occupancy
  La  La0  1  0.255520  0.810406  0.270364  1
  La  La1  1  0.744480  0.189594  0.729636  1
  Tl  Tl2  1  0.762178  0.202242  0.226259  1
  Tl  Tl3  1  0.237822  0.797758  0.773741  1
  V  V4  1  0.752932  0.720956  0.041950  1
  V  V5  1  0.247068  0.279044  0.958050  1
  V  V6  1  0.256141  0.271324  0.447611  1
  V  V7  1  0.743859  0.728676  0.552389  1
  F  F8  1  0.943068  0.708724  0.432581  1
  F  F9  1  0.056932  0.291276  0.567419  1
  F  F10  1  0.444086  0.300245  0.076471  1
  F  F11  1  0.555914  0.699755  0.923529  1
  F  F12  1  0.484795  0.732243  0.133274  1
  F  F13  1  0.515205  0.267757  0.866726  1
  F  F14  1  0.975730  0.273500  0.355194  1
  F  F15  1  0.024270  0.726500  0.644806  1
  F  F16  1  0.949221  0.742545  0.163858  1
  F  F17  1  0.050779  0.257455  0.836142  1
  F  F18  1  0.459127  0.254630  0.322888  1
  F  F19  1  0.540873  0.745370  0.677112  1
  F  F20  1  0.762253  0.493589  0.135509  1
  F  F21  1  0.237747  0.506411  0.864491  1
  F  F22  1  0.268552  0.499833  0.358065  1
  F  F23  1  0.731448  0.500167  0.641935  1
  F  F24  1  0.962686  0.291626  0.042675  1
  F  F25  1  0.037314  0.708374  0.957325  1
  F  F26  1  0.471434  0.715478  0.462579  1
  F  F27  1  0.528566  0.284522  0.537421  1
  F  F28  1  0.742918  0.950315  0.468020  1
  F  F29  1  0.257082  0.049685  0.531980  1
  F  F30  1  0.240465  0.052842  0.046336  1
  F  F31  1  0.759535  0.947158  0.953664  1
  F  F32  1  0.593927  0.983804  0.230919  1
  F  F33  1  0.406073  0.016196  0.769081  1
  F  F34  1  0.073147  0.039655  0.270857  1
  F  F35  1  0.926853  0.960345  0.729143  1
