# generated using pymatgen
data_Ba4DyPaO8
_symmetry_space_group_name_H-M   'P 1'
_cell_length_a   7.52997300
_cell_length_b   7.52997336
_cell_length_c   6.21481300
_cell_angle_alpha   90.00000000
_cell_angle_beta   90.00000000
_cell_angle_gamma   131.31002803
_symmetry_Int_Tables_number   1
_chemical_formula_structural   Ba4DyPaO8
_chemical_formula_sum   'Ba4 Dy1 Pa1 O8'
_cell_volume   264.69198471
_cell_formula_units_Z   1
loop_
 _symmetry_equiv_pos_site_id
 _symmetry_equiv_pos_as_xyz
  1  'x, y, z'
loop_
 _atom_site_type_symbol
 _atom_site_label
 _atom_site_symmetry_multiplicity
 _atom_site_fract_x
 _atom_site_fract_y
 _atom_site_fract_z
 _atom_site_occupancy
  Ba  Ba0  1  0.350110  0.649890  0.000000  1
  Ba  Ba1  1  0.853027  0.146973  0.500000  1
  Ba  Ba2  1  0.146973  0.853027  0.500000  1
  Ba  Ba3  1  0.649890  0.350110  0.000000  1
  Dy  Dy4  1  0.000000  0.000000  0.000000  1
  Pa  Pa5  1  0.500000  0.500000  0.500000  1
  O  O6  1  0.251950  0.251950  0.742608  1
  O  O7  1  0.748050  0.748050  0.257392  1
  O  O8  1  0.748050  0.748050  0.742608  1
  O  O9  1  0.251950  0.251950  0.257392  1
  O  O10  1  0.166417  0.833583  0.000000  1
  O  O11  1  0.661764  0.338236  0.500000  1
  O  O12  1  0.338236  0.661764  0.500000  1
  O  O13  1  0.833583  0.166417  0.000000  1
