# generated using pymatgen
data_Y4Ga12Rh
_symmetry_space_group_name_H-M   'P 1'
_cell_length_a   7.48232907
_cell_length_b   7.48205698
_cell_length_c   7.48221535
_cell_angle_alpha   109.47626515
_cell_angle_beta   109.47560008
_cell_angle_gamma   109.45811344
_symmetry_Int_Tables_number   1
_chemical_formula_structural   Y4Ga12Rh
_chemical_formula_sum   'Y4 Ga12 Rh1'
_cell_volume   322.46743143
_cell_formula_units_Z   1
loop_
 _symmetry_equiv_pos_site_id
 _symmetry_equiv_pos_as_xyz
  1  'x, y, z'
loop_
 _atom_site_type_symbol
 _atom_site_label
 _atom_site_symmetry_multiplicity
 _atom_site_fract_x
 _atom_site_fract_y
 _atom_site_fract_z
 _atom_site_occupancy
  Y  Y0  1  0.500000  0.500000  0.500000  1
  Y  Y1  1  0.000000  0.000000  0.500000  1
  Y  Y2  1  0.000000  0.500000  0.000000  1
  Y  Y3  1  0.500000  0.000000  0.000000  1
  Ga  Ga4  1  0.750007  0.250008  0.500019  1
  Ga  Ga5  1  0.001055  0.708727  0.709792  1
  Ga  Ga6  1  0.291258  0.998930  0.290208  1
  Ga  Ga7  1  0.500407  0.250179  0.750568  1
  Ga  Ga8  1  0.749827  0.499617  0.249431  1
  Ga  Ga9  1  0.249993  0.749992  0.499981  1
  Ga  Ga10  1  0.250173  0.500383  0.750569  1
  Ga  Ga11  1  0.708742  0.001070  0.709792  1
  Ga  Ga12  1  0.499593  0.749821  0.249432  1
  Ga  Ga13  1  0.708688  0.708655  0.000007  1
  Ga  Ga14  1  0.291312  0.291345  0.999993  1
  Ga  Ga15  1  0.998945  0.291273  0.290208  1
  Rh  Rh16  1  0.000000  0.000000  0.000000  1
