# generated using pymatgen
data_Ho(Ti3Pb2)2
_symmetry_space_group_name_H-M   'P 1'
_cell_length_a   8.48238175
_cell_length_b   8.48238219
_cell_length_c   8.48238070
_cell_angle_alpha   40.31341272
_cell_angle_beta   40.31340709
_cell_angle_gamma   40.31341272
_symmetry_Int_Tables_number   1
_chemical_formula_structural   Ho(Ti3Pb2)2
_chemical_formula_sum   'Ho1 Ti6 Pb4'
_cell_volume   230.31365477
_cell_formula_units_Z   1
loop_
 _symmetry_equiv_pos_site_id
 _symmetry_equiv_pos_as_xyz
  1  'x, y, z'
loop_
 _atom_site_type_symbol
 _atom_site_label
 _atom_site_symmetry_multiplicity
 _atom_site_fract_x
 _atom_site_fract_y
 _atom_site_fract_z
 _atom_site_occupancy
  Ho  Ho0  1  0.000000  0.000000  0.000000  1
  Ti  Ti1  1  0.601247  0.601247  0.117129  1
  Ti  Ti2  1  0.882871  0.398755  0.398753  1
  Ti  Ti3  1  0.398755  0.882871  0.398753  1
  Ti  Ti4  1  0.601246  0.117129  0.601248  1
  Ti  Ti5  1  0.117129  0.601246  0.601248  1
  Ti  Ti6  1  0.398754  0.398754  0.882871  1
  Pb  Pb7  1  0.126558  0.126558  0.126558  1
  Pb  Pb8  1  0.331951  0.331951  0.331951  1
  Pb  Pb9  1  0.668049  0.668049  0.668049  1
  Pb  Pb10  1  0.873442  0.873442  0.873442  1
