# generated using pymatgen
data_Gd3LuCCl5
_symmetry_space_group_name_H-M   'P 1'
_cell_length_a   8.72027098
_cell_length_b   8.72027051
_cell_length_c   7.83352001
_cell_angle_alpha   103.25129118
_cell_angle_beta   103.25129035
_cell_angle_gamma   24.73359373
_symmetry_Int_Tables_number   1
_chemical_formula_structural   Gd3LuCCl5
_chemical_formula_sum   'Gd3 Lu1 C1 Cl5'
_cell_volume   242.27485076
_cell_formula_units_Z   1
loop_
 _symmetry_equiv_pos_site_id
 _symmetry_equiv_pos_as_xyz
  1  'x, y, z'
loop_
 _atom_site_type_symbol
 _atom_site_label
 _atom_site_symmetry_multiplicity
 _atom_site_fract_x
 _atom_site_fract_y
 _atom_site_fract_z
 _atom_site_occupancy
  Gd  Gd0  1  0.997116  0.997116  0.212653  1
  Gd  Gd1  1  0.001313  0.001313  0.786179  1
  Gd  Gd2  1  0.354765  0.354765  0.918997  1
  Lu  Lu3  1  0.643260  0.643260  0.081476  1
  C  C4  1  0.504563  0.504563  0.001814  1
  Cl  Cl5  1  0.824611  0.824611  0.165038  1
  Cl  Cl6  1  0.165285  0.165285  0.328878  1
  Cl  Cl7  1  0.501499  0.501499  0.500062  1
  Cl  Cl8  1  0.835654  0.835654  0.652453  1
  Cl  Cl9  1  0.172024  0.172024  0.852438  1
