# generated using pymatgen
data_NbV3Co2RhSe12
_symmetry_space_group_name_H-M   'P 1'
_cell_length_a   7.17178239
_cell_length_b   7.17178226
_cell_length_c   18.99429636
_cell_angle_alpha   70.30693063
_cell_angle_beta   70.30693167
_cell_angle_gamma   26.55655491
_symmetry_Int_Tables_number   1
_chemical_formula_structural   NbV3Co2RhSe12
_chemical_formula_sum   'Nb1 V3 Co2 Rh1 Se12'
_cell_volume   409.76456251
_cell_formula_units_Z   1
loop_
 _symmetry_equiv_pos_site_id
 _symmetry_equiv_pos_as_xyz
  1  'x, y, z'
loop_
 _atom_site_type_symbol
 _atom_site_label
 _atom_site_symmetry_multiplicity
 _atom_site_fract_x
 _atom_site_fract_y
 _atom_site_fract_z
 _atom_site_occupancy
  Nb  Nb0  1  0.381292  0.381292  0.148407  1
  V  V1  1  0.741084  0.741084  0.595337  1
  V  V2  1  0.257458  0.257458  0.407185  1
  V  V3  1  0.621179  0.621179  0.847812  1
  Co  Co4  1  0.772229  0.772229  0.284498  1
  Co  Co5  1  0.225908  0.225908  0.717535  1
  Rh  Rh6  1  0.001009  0.001009  0.998782  1
  Se  Se7  1  0.856866  0.856866  0.455837  1
  Se  Se8  1  0.035712  0.035712  0.117588  1
  Se  Se9  1  0.799599  0.799599  0.769281  1
  Se  Se10  1  0.395347  0.395347  0.285449  1
  Se  Se11  1  0.181926  0.181926  0.923511  1
  Se  Se12  1  0.603217  0.603217  0.717877  1
  Se  Se13  1  0.141740  0.141740  0.546987  1
  Se  Se14  1  0.815220  0.815220  0.068613  1
  Se  Se15  1  0.365221  0.365221  0.606552  1
  Se  Se16  1  0.976877  0.976877  0.877977  1
  Se  Se17  1  0.194851  0.194851  0.234578  1
  Se  Se18  1  0.633264  0.633264  0.396195  1
