# generated using pymatgen
data_TbY3CdCo
_symmetry_space_group_name_H-M   'P 1'
_cell_length_a   9.55134080
_cell_length_b   9.55133981
_cell_length_c   9.55134000
_cell_angle_alpha   59.99999936
_cell_angle_beta   60.00000276
_cell_angle_gamma   59.99999644
_symmetry_Int_Tables_number   1
_chemical_formula_structural   TbY3CdCo
_chemical_formula_sum   'Tb4 Y12 Cd4 Co4'
_cell_volume   616.13792282
_cell_formula_units_Z   4
loop_
 _symmetry_equiv_pos_site_id
 _symmetry_equiv_pos_as_xyz
  1  'x, y, z'
loop_
 _atom_site_type_symbol
 _atom_site_label
 _atom_site_symmetry_multiplicity
 _atom_site_fract_x
 _atom_site_fract_y
 _atom_site_fract_z
 _atom_site_occupancy
  Tb  Tb0  1  0.596337  0.596337  0.596337  1
  Tb  Tb1  1  0.596337  0.596337  0.210990  1
  Tb  Tb2  1  0.596337  0.210990  0.596337  1
  Tb  Tb3  1  0.210990  0.596337  0.596337  1
  Y  Y4  1  0.061347  0.438653  0.438653  1
  Y  Y5  1  0.438653  0.061347  0.061347  1
  Y  Y6  1  0.438653  0.061347  0.438653  1
  Y  Y7  1  0.061347  0.438653  0.061347  1
  Y  Y8  1  0.438653  0.438653  0.061347  1
  Y  Y9  1  0.061347  0.061347  0.438653  1
  Y  Y10  1  0.188573  0.811427  0.811427  1
  Y  Y11  1  0.811427  0.188573  0.188573  1
  Y  Y12  1  0.811427  0.188573  0.811427  1
  Y  Y13  1  0.188573  0.811427  0.188573  1
  Y  Y14  1  0.811427  0.811427  0.188573  1
  Y  Y15  1  0.188573  0.188573  0.811427  1
  Cd  Cd16  1  0.830700  0.830700  0.830700  1
  Cd  Cd17  1  0.830700  0.830700  0.507901  1
  Cd  Cd18  1  0.830700  0.507901  0.830700  1
  Cd  Cd19  1  0.507901  0.830700  0.830700  1
  Co  Co20  1  0.391641  0.391641  0.391641  1
  Co  Co21  1  0.391641  0.391641  0.825076  1
  Co  Co22  1  0.391641  0.825076  0.391641  1
  Co  Co23  1  0.825076  0.391641  0.391641  1
