# generated using pymatgen
data_Tb3ZnIn3AgRh
_symmetry_space_group_name_H-M   'P 1'
_cell_length_a   7.82253600
_cell_length_b   7.82253572
_cell_length_c   3.85769800
_cell_angle_alpha   90.00000000
_cell_angle_beta   90.00000000
_cell_angle_gamma   120.00000963
_symmetry_Int_Tables_number   1
_chemical_formula_structural   Tb3ZnIn3AgRh
_chemical_formula_sum   'Tb3 Zn1 In3 Ag1 Rh1'
_cell_volume   204.43438353
_cell_formula_units_Z   1
loop_
 _symmetry_equiv_pos_site_id
 _symmetry_equiv_pos_as_xyz
  1  'x, y, z'
loop_
 _atom_site_type_symbol
 _atom_site_label
 _atom_site_symmetry_multiplicity
 _atom_site_fract_x
 _atom_site_fract_y
 _atom_site_fract_z
 _atom_site_occupancy
  Tb  Tb0  1  0.974432  0.583517  0.500000  1
  Tb  Tb1  1  0.416483  0.390916  0.500000  1
  Tb  Tb2  1  0.609084  0.025568  0.500000  1
  Zn  Zn3  1  0.000000  0.000000  0.500000  1
  In  In4  1  0.738167  0.742394  0.000000  1
  In  In5  1  0.004227  0.261833  0.000000  1
  In  In6  1  0.257606  0.995773  0.000000  1
  Ag  Ag7  1  0.333333  0.666667  0.000000  1
  Rh  Rh8  1  0.666667  0.333333  0.000000  1
