# generated using pymatgen
data_YbPr3(Pd2Pb)2
_symmetry_space_group_name_H-M   'P 1'
_cell_length_a   8.01007197
_cell_length_b   8.01007197
_cell_length_c   3.82735100
_cell_angle_alpha   90.00000000
_cell_angle_beta   90.00000000
_cell_angle_gamma   90.08031352
_symmetry_Int_Tables_number   1
_chemical_formula_structural   YbPr3(Pd2Pb)2
_chemical_formula_sum   'Yb1 Pr3 Pd4 Pb2'
_cell_volume   245.56739428
_cell_formula_units_Z   1
loop_
 _symmetry_equiv_pos_site_id
 _symmetry_equiv_pos_as_xyz
  1  'x, y, z'
loop_
 _atom_site_type_symbol
 _atom_site_label
 _atom_site_symmetry_multiplicity
 _atom_site_fract_x
 _atom_site_fract_y
 _atom_site_fract_z
 _atom_site_occupancy
  Yb  Yb0  1  0.327269  0.827269  0.500000  1
  Pr  Pr1  1  0.672795  0.172795  0.500000  1
  Pr  Pr2  1  0.826662  0.676153  0.500000  1
  Pr  Pr3  1  0.176153  0.326662  0.500000  1
  Pd  Pd4  1  0.877192  0.377192  0.000000  1
  Pd  Pd5  1  0.618287  0.871855  0.000000  1
  Pd  Pd6  1  0.371855  0.118287  0.000000  1
  Pd  Pd7  1  0.128483  0.628483  0.000000  1
  Pb  Pb8  1  0.496058  0.505247  0.000000  1
  Pb  Pb9  1  0.005247  0.996058  0.000000  1
