# generated using pymatgen
data_Pr4HoIr3
_symmetry_space_group_name_H-M   'P 1'
_cell_length_a   11.26291600
_cell_length_b   11.26291600
_cell_length_c   6.56586400
_cell_angle_alpha   90.00000000
_cell_angle_beta   90.00000000
_cell_angle_gamma   90.00000000
_symmetry_Int_Tables_number   1
_chemical_formula_structural   Pr4HoIr3
_chemical_formula_sum   'Pr16 Ho4 Ir12'
_cell_volume   832.90136357
_cell_formula_units_Z   4
loop_
 _symmetry_equiv_pos_site_id
 _symmetry_equiv_pos_as_xyz
  1  'x, y, z'
loop_
 _atom_site_type_symbol
 _atom_site_label
 _atom_site_symmetry_multiplicity
 _atom_site_fract_x
 _atom_site_fract_y
 _atom_site_fract_z
 _atom_site_occupancy
  Pr  Pr0  1  0.288771  0.087528  0.381498  1
  Pr  Pr1  1  0.288771  0.912472  0.881498  1
  Pr  Pr2  1  0.711229  0.087528  0.881498  1
  Pr  Pr3  1  0.711229  0.912472  0.381498  1
  Pr  Pr4  1  0.587528  0.788771  0.881498  1
  Pr  Pr5  1  0.587528  0.211229  0.381498  1
  Pr  Pr6  1  0.412472  0.788771  0.381498  1
  Pr  Pr7  1  0.412472  0.211229  0.881498  1
  Pr  Pr8  1  0.211229  0.412472  0.618502  1
  Pr  Pr9  1  0.211229  0.587528  0.118502  1
  Pr  Pr10  1  0.788771  0.412472  0.118502  1
  Pr  Pr11  1  0.788771  0.587528  0.618502  1
  Pr  Pr12  1  0.912472  0.711229  0.118502  1
  Pr  Pr13  1  0.912472  0.288771  0.618502  1
  Pr  Pr14  1  0.087528  0.711229  0.618502  1
  Pr  Pr15  1  0.087528  0.288771  0.118502  1
  Ho  Ho16  1  0.000000  0.000000  0.500000  1
  Ho  Ho17  1  0.000000  0.000000  0.000000  1
  Ho  Ho18  1  0.500000  0.500000  0.000000  1
  Ho  Ho19  1  0.500000  0.500000  0.500000  1
  Ir  Ir20  1  0.852366  0.147634  0.250000  1
  Ir  Ir21  1  0.852366  0.852366  0.750000  1
  Ir  Ir22  1  0.147634  0.147634  0.750000  1
  Ir  Ir23  1  0.147634  0.852366  0.250000  1
  Ir  Ir24  1  0.647634  0.352366  0.750000  1
  Ir  Ir25  1  0.647634  0.647634  0.250000  1
  Ir  Ir26  1  0.352366  0.352366  0.250000  1
  Ir  Ir27  1  0.352366  0.647634  0.750000  1
  Ir  Ir28  1  0.500000  0.000000  0.117532  1
  Ir  Ir29  1  0.500000  0.000000  0.617532  1
  Ir  Ir30  1  0.000000  0.500000  0.882468  1
  Ir  Ir31  1  0.000000  0.500000  0.382468  1
