# generated using pymatgen
data_ZrSc5(Be2Rh5)2
_symmetry_space_group_name_H-M   'P 1'
_cell_length_a   9.56893500
_cell_length_b   9.56893500
_cell_length_c   3.22199900
_cell_angle_alpha   90.00000000
_cell_angle_beta   90.00000000
_cell_angle_gamma   90.00000000
_symmetry_Int_Tables_number   1
_chemical_formula_structural   ZrSc5(Be2Rh5)2
_chemical_formula_sum   'Zr1 Sc5 Be4 Rh10'
_cell_volume   295.02078232
_cell_formula_units_Z   1
loop_
 _symmetry_equiv_pos_site_id
 _symmetry_equiv_pos_as_xyz
  1  'x, y, z'
loop_
 _atom_site_type_symbol
 _atom_site_label
 _atom_site_symmetry_multiplicity
 _atom_site_fract_x
 _atom_site_fract_y
 _atom_site_fract_z
 _atom_site_occupancy
  Zr  Zr0  1  0.000000  0.000000  0.000000  1
  Sc  Sc1  1  0.823782  0.326635  0.000000  1
  Sc  Sc2  1  0.326635  0.176218  0.000000  1
  Sc  Sc3  1  0.673365  0.823782  0.000000  1
  Sc  Sc4  1  0.176218  0.673365  0.000000  1
  Sc  Sc5  1  0.500000  0.500000  0.000000  1
  Be  Be6  1  0.620899  0.123247  0.000000  1
  Be  Be7  1  0.123247  0.379101  0.000000  1
  Be  Be8  1  0.876753  0.620899  0.000000  1
  Be  Be9  1  0.379101  0.876753  0.000000  1
  Rh  Rh10  1  0.071251  0.216151  0.500000  1
  Rh  Rh11  1  0.216151  0.928749  0.500000  1
  Rh  Rh12  1  0.783849  0.071251  0.500000  1
  Rh  Rh13  1  0.928749  0.783849  0.500000  1
  Rh  Rh14  1  0.428356  0.715662  0.500000  1
  Rh  Rh15  1  0.571644  0.284338  0.500000  1
  Rh  Rh16  1  0.715662  0.571644  0.500000  1
  Rh  Rh17  1  0.284338  0.428356  0.500000  1
  Rh  Rh18  1  0.500000  0.000000  0.500000  1
  Rh  Rh19  1  0.000000  0.500000  0.500000  1
