# generated using pymatgen
data_YbEr9(RuPb3)2
_symmetry_space_group_name_H-M   'P 1'
_cell_length_a   9.26375300
_cell_length_b   9.26375238
_cell_length_c   6.55089600
_cell_angle_alpha   90.00000000
_cell_angle_beta   90.00000000
_cell_angle_gamma   119.99999866
_symmetry_Int_Tables_number   1
_chemical_formula_structural   YbEr9(RuPb3)2
_chemical_formula_sum   'Yb1 Er9 Ru2 Pb6'
_cell_volume   486.86129159
_cell_formula_units_Z   1
loop_
 _symmetry_equiv_pos_site_id
 _symmetry_equiv_pos_as_xyz
  1  'x, y, z'
loop_
 _atom_site_type_symbol
 _atom_site_label
 _atom_site_symmetry_multiplicity
 _atom_site_fract_x
 _atom_site_fract_y
 _atom_site_fract_z
 _atom_site_occupancy
  Yb  Yb0  1  0.333333  0.666667  0.500000  1
  Er  Er1  1  0.999948  0.763688  0.750533  1
  Er  Er2  1  0.236312  0.000052  0.249467  1
  Er  Er3  1  0.763740  0.000052  0.750533  1
  Er  Er4  1  0.999948  0.236260  0.249467  1
  Er  Er5  1  0.666667  0.333333  0.500000  1
  Er  Er6  1  0.763740  0.763688  0.249467  1
  Er  Er7  1  0.236312  0.236260  0.750533  1
  Er  Er8  1  0.333333  0.666667  0.000000  1
  Er  Er9  1  0.666667  0.333333  0.000000  1
  Ru  Ru10  1  0.000000  0.000000  0.000000  1
  Ru  Ru11  1  0.000000  0.000000  0.500000  1
  Pb  Pb12  1  0.402640  0.402098  0.248892  1
  Pb  Pb13  1  0.999457  0.402098  0.751108  1
  Pb  Pb14  1  0.999457  0.597360  0.248892  1
  Pb  Pb15  1  0.597902  0.000543  0.248892  1
  Pb  Pb16  1  0.402640  0.000543  0.751108  1
  Pb  Pb17  1  0.597902  0.597360  0.751108  1
