# generated using pymatgen
data_FeMo5(PO4)6
_symmetry_space_group_name_H-M   'P 1'
_cell_length_a   9.55809273
_cell_length_b   9.55818499
_cell_length_c   6.77206000
_cell_angle_alpha   110.74147285
_cell_angle_beta   110.74241944
_cell_angle_gamma   70.87506458
_symmetry_Int_Tables_number   1
_chemical_formula_structural   FeMo5(PO4)6
_chemical_formula_sum   'Fe1 Mo5 P6 O24'
_cell_volume   526.42149159
_cell_formula_units_Z   1
loop_
 _symmetry_equiv_pos_site_id
 _symmetry_equiv_pos_as_xyz
  1  'x, y, z'
loop_
 _atom_site_type_symbol
 _atom_site_label
 _atom_site_symmetry_multiplicity
 _atom_site_fract_x
 _atom_site_fract_y
 _atom_site_fract_z
 _atom_site_occupancy
  Fe  Fe0  1  0.382170  0.882173  0.882103  1
  Mo  Mo1  1  0.500761  0.500559  0.002608  1
  Mo  Mo2  1  0.614984  0.115020  0.115148  1
  Mo  Mo3  1  0.120538  0.620533  0.120570  1
  Mo  Mo4  1  0.000559  0.000766  0.498710  1
  Mo  Mo5  1  0.880415  0.380425  0.880348  1
  P  P6  1  0.747354  0.748599  0.142156  1
  P  P7  1  0.821895  0.321914  0.321824  1
  P  P8  1  0.326088  0.826077  0.326059  1
  P  P9  1  0.674734  0.174703  0.674860  1
  P  P10  1  0.182857  0.682832  0.682848  1
  P  P11  1  0.248589  0.247368  0.853744  1
  O  O12  1  0.364090  0.119888  0.977705  1
  O  O13  1  0.130622  0.368917  0.987805  1
  O  O14  1  0.659548  0.651818  0.169684  1
  O  O15  1  0.901168  0.359349  0.195326  1
  O  O16  1  0.365331  0.898607  0.190461  1
  O  O17  1  0.638443  0.352378  0.214795  1
  O  O18  1  0.357885  0.641769  0.222696  1
  O  O19  1  0.852346  0.138484  0.276128  1
  O  O20  1  0.141782  0.857881  0.276982  1
  O  O21  1  0.839739  0.848482  0.344982  1
  O  O22  1  0.594407  0.138491  0.431964  1
  O  O23  1  0.143006  0.604204  0.439103  1
  O  O24  1  0.859374  0.401225  0.565093  1
  O  O25  1  0.398637  0.865321  0.573416  1
  O  O26  1  0.151852  0.159544  0.641669  1
  O  O27  1  0.858126  0.143493  0.718579  1
  O  O28  1  0.153384  0.865737  0.727406  1
  O  O29  1  0.643515  0.358108  0.783099  1
  O  O30  1  0.365765  0.653379  0.791667  1
  O  O31  1  0.638575  0.094453  0.801308  1
  O  O32  1  0.104215  0.642979  0.808129  1
  O  O33  1  0.348471  0.339767  0.843121  1
  O  O34  1  0.868912  0.630641  0.011671  1
  O  O35  1  0.619854  0.864106  0.006240  1
