# generated using pymatgen
data_Sc2Pa(SnRh)3
_symmetry_space_group_name_H-M   'P 1'
_cell_length_a   7.45037450
_cell_length_b   7.60634521
_cell_length_c   3.71549700
_cell_angle_alpha   90.00000000
_cell_angle_beta   90.00000000
_cell_angle_gamma   120.69114572
_symmetry_Int_Tables_number   1
_chemical_formula_structural   Sc2Pa(SnRh)3
_chemical_formula_sum   'Sc2 Pa1 Sn3 Rh3'
_cell_volume   181.06509443
_cell_formula_units_Z   1
loop_
 _symmetry_equiv_pos_site_id
 _symmetry_equiv_pos_as_xyz
  1  'x, y, z'
loop_
 _atom_site_type_symbol
 _atom_site_label
 _atom_site_symmetry_multiplicity
 _atom_site_fract_x
 _atom_site_fract_y
 _atom_site_fract_z
 _atom_site_occupancy
  Sc  Sc0  1  0.400313  0.397344  0.500000  1
  Sc  Sc1  1  0.599671  0.997028  0.500000  1
  Pa  Pa2  1  0.999992  0.590196  0.500000  1
  Sn  Sn3  1  0.714610  0.735331  0.000000  1
  Sn  Sn4  1  0.285501  0.020710  0.000000  1
  Sn  Sn5  1  0.999925  0.246118  0.000000  1
  Rh  Rh6  1  0.691947  0.359431  0.000000  1
  Rh  Rh7  1  0.308060  0.667489  0.000000  1
  Rh  Rh8  1  0.999982  0.986352  0.500000  1
