# generated using pymatgen
data_Er2Lu3ZnIn3
_symmetry_space_group_name_H-M   'P 1'
_cell_length_a   9.01110362
_cell_length_b   9.01110338
_cell_length_c   6.61603800
_cell_angle_alpha   90.00000000
_cell_angle_beta   90.00000000
_cell_angle_gamma   119.88402927
_symmetry_Int_Tables_number   1
_chemical_formula_structural   Er2Lu3ZnIn3
_chemical_formula_sum   'Er4 Lu6 Zn2 In6'
_cell_volume   465.79080239
_cell_formula_units_Z   2
loop_
 _symmetry_equiv_pos_site_id
 _symmetry_equiv_pos_as_xyz
  1  'x, y, z'
loop_
 _atom_site_type_symbol
 _atom_site_label
 _atom_site_symmetry_multiplicity
 _atom_site_fract_x
 _atom_site_fract_y
 _atom_site_fract_z
 _atom_site_occupancy
  Er  Er0  1  0.274857  0.000406  0.750000  1
  Er  Er1  1  0.725143  0.999594  0.250000  1
  Er  Er2  1  0.000406  0.274857  0.750000  1
  Er  Er3  1  0.999594  0.725143  0.250000  1
  Lu  Lu4  1  0.334345  0.665655  0.500000  1
  Lu  Lu5  1  0.665655  0.334345  0.500000  1
  Lu  Lu6  1  0.665655  0.334345  0.000000  1
  Lu  Lu7  1  0.334345  0.665655  0.000000  1
  Lu  Lu8  1  0.727371  0.727371  0.750000  1
  Lu  Lu9  1  0.272629  0.272629  0.250000  1
  Zn  Zn10  1  0.000000  0.000000  0.500000  1
  Zn  Zn11  1  0.000000  0.000000  0.000000  1
  In  In12  1  0.620626  0.998977  0.750000  1
  In  In13  1  0.379374  0.001023  0.250000  1
  In  In14  1  0.998977  0.620626  0.750000  1
  In  In15  1  0.001023  0.379374  0.250000  1
  In  In16  1  0.381092  0.381092  0.750000  1
  In  In17  1  0.618908  0.618908  0.250000  1
