# generated using pymatgen
data_Ti3CrRe2P3
_symmetry_space_group_name_H-M   'P 1'
_cell_length_a   6.58775311
_cell_length_b   6.58775379
_cell_length_c   3.26572600
_cell_angle_alpha   90.00000000
_cell_angle_beta   90.00000000
_cell_angle_gamma   120.53985878
_symmetry_Int_Tables_number   1
_chemical_formula_structural   Ti3CrRe2P3
_chemical_formula_sum   'Ti3 Cr1 Re2 P3'
_cell_volume   122.06655841
_cell_formula_units_Z   1
loop_
 _symmetry_equiv_pos_site_id
 _symmetry_equiv_pos_as_xyz
  1  'x, y, z'
loop_
 _atom_site_type_symbol
 _atom_site_label
 _atom_site_symmetry_multiplicity
 _atom_site_fract_x
 _atom_site_fract_y
 _atom_site_fract_z
 _atom_site_occupancy
  Ti  Ti0  1  0.411800  0.411800  0.500000  1
  Ti  Ti1  1  0.596576  0.994926  0.500000  1
  Ti  Ti2  1  0.994926  0.596576  0.500000  1
  Cr  Cr3  1  0.744022  0.744022  0.000000  1
  Re  Re4  1  0.001607  0.256289  0.000000  1
  Re  Re5  1  0.256289  0.001607  0.000000  1
  P  P6  1  0.669608  0.340931  0.000000  1
  P  P7  1  0.340931  0.669608  0.000000  1
  P  P8  1  0.984241  0.984241  0.500000  1
