# generated using pymatgen
data_CaSmRuC2
_symmetry_space_group_name_H-M   'P 1'
_cell_length_a   5.19221300
_cell_length_b   6.46207700
_cell_length_c   10.37475100
_cell_angle_alpha   90.00000000
_cell_angle_beta   90.00000000
_cell_angle_gamma   90.00000000
_symmetry_Int_Tables_number   1
_chemical_formula_structural   CaSmRuC2
_chemical_formula_sum   'Ca4 Sm4 Ru4 C8'
_cell_volume   348.09862757
_cell_formula_units_Z   4
loop_
 _symmetry_equiv_pos_site_id
 _symmetry_equiv_pos_as_xyz
  1  'x, y, z'
loop_
 _atom_site_type_symbol
 _atom_site_label
 _atom_site_symmetry_multiplicity
 _atom_site_fract_x
 _atom_site_fract_y
 _atom_site_fract_z
 _atom_site_occupancy
  Ca  Ca0  1  0.250000  0.466286  0.777148  1
  Ca  Ca1  1  0.750000  0.033714  0.277148  1
  Ca  Ca2  1  0.250000  0.966286  0.722852  1
  Ca  Ca3  1  0.750000  0.533714  0.222852  1
  Sm  Sm4  1  0.250000  0.809440  0.056403  1
  Sm  Sm5  1  0.750000  0.690560  0.556403  1
  Sm  Sm6  1  0.250000  0.309440  0.443597  1
  Sm  Sm7  1  0.750000  0.190560  0.943597  1
  Ru  Ru8  1  0.250000  0.274431  0.144328  1
  Ru  Ru9  1  0.750000  0.225569  0.644328  1
  Ru  Ru10  1  0.250000  0.774431  0.355672  1
  Ru  Ru11  1  0.750000  0.725569  0.855672  1
  C  C12  1  0.250000  0.691567  0.530368  1
  C  C13  1  0.750000  0.808433  0.030368  1
  C  C14  1  0.250000  0.191567  0.969632  1
  C  C15  1  0.750000  0.308433  0.469632  1
  C  C16  1  0.250000  0.034002  0.255202  1
  C  C17  1  0.750000  0.465998  0.755202  1
  C  C18  1  0.250000  0.534002  0.244798  1
  C  C19  1  0.750000  0.965998  0.744798  1
