# generated using pymatgen
data_Ce3ScBi2Sb3
_symmetry_space_group_name_H-M   'P 1'
_cell_length_a   9.54733600
_cell_length_b   9.54733592
_cell_length_c   6.48419600
_cell_angle_alpha   90.00000000
_cell_angle_beta   90.00000000
_cell_angle_gamma   119.99999335
_symmetry_Int_Tables_number   1
_chemical_formula_structural   Ce3ScBi2Sb3
_chemical_formula_sum   'Ce6 Sc2 Bi4 Sb6'
_cell_volume   511.86001506
_cell_formula_units_Z   2
loop_
 _symmetry_equiv_pos_site_id
 _symmetry_equiv_pos_as_xyz
  1  'x, y, z'
loop_
 _atom_site_type_symbol
 _atom_site_label
 _atom_site_symmetry_multiplicity
 _atom_site_fract_x
 _atom_site_fract_y
 _atom_site_fract_z
 _atom_site_occupancy
  Ce  Ce0  1  0.620449  0.000000  0.250000  1
  Ce  Ce1  1  0.379551  0.000000  0.750000  1
  Ce  Ce2  1  0.000000  0.620449  0.250000  1
  Ce  Ce3  1  0.000000  0.379551  0.750000  1
  Ce  Ce4  1  0.379551  0.379551  0.250000  1
  Ce  Ce5  1  0.620449  0.620449  0.750000  1
  Sc  Sc6  1  0.000000  0.000000  0.000000  1
  Sc  Sc7  1  0.000000  0.000000  0.500000  1
  Bi  Bi8  1  0.333333  0.666667  0.000000  1
  Bi  Bi9  1  0.666667  0.333333  0.000000  1
  Bi  Bi10  1  0.666667  0.333333  0.500000  1
  Bi  Bi11  1  0.333333  0.666667  0.500000  1
  Sb  Sb12  1  0.262188  0.000000  0.250000  1
  Sb  Sb13  1  0.737812  0.000000  0.750000  1
  Sb  Sb14  1  0.000000  0.262188  0.250000  1
  Sb  Sb15  1  0.000000  0.737812  0.750000  1
  Sb  Sb16  1  0.737812  0.737812  0.250000  1
  Sb  Sb17  1  0.262188  0.262188  0.750000  1
