# generated using pymatgen
data_Hf18ZnCo(Re3W)2
_symmetry_space_group_name_H-M   'P 1'
_cell_length_a   8.64258800
_cell_length_b   8.64258771
_cell_length_c   8.49962200
_cell_angle_alpha   90.00000000
_cell_angle_beta   90.00000000
_cell_angle_gamma   119.99999347
_symmetry_Int_Tables_number   1
_chemical_formula_structural   Hf18ZnCo(Re3W)2
_chemical_formula_sum   'Hf18 Zn1 Co1 Re6 W2'
_cell_volume   549.81663814
_cell_formula_units_Z   1
loop_
 _symmetry_equiv_pos_site_id
 _symmetry_equiv_pos_as_xyz
  1  'x, y, z'
loop_
 _atom_site_type_symbol
 _atom_site_label
 _atom_site_symmetry_multiplicity
 _atom_site_fract_x
 _atom_site_fract_y
 _atom_site_fract_z
 _atom_site_occupancy
  Hf  Hf0  1  0.193801  0.806199  0.450339  1
  Hf  Hf1  1  0.193801  0.387604  0.450339  1
  Hf  Hf2  1  0.612396  0.806199  0.450339  1
  Hf  Hf3  1  0.799202  0.200798  0.558141  1
  Hf  Hf4  1  0.799202  0.598404  0.558141  1
  Hf  Hf5  1  0.401596  0.200798  0.558141  1
  Hf  Hf6  1  0.799202  0.200798  0.941859  1
  Hf  Hf7  1  0.799202  0.598404  0.941859  1
  Hf  Hf8  1  0.401596  0.200798  0.941859  1
  Hf  Hf9  1  0.193801  0.806199  0.049661  1
  Hf  Hf10  1  0.193801  0.387604  0.049661  1
  Hf  Hf11  1  0.612396  0.806199  0.049661  1
  Hf  Hf12  1  0.540781  0.459219  0.250000  1
  Hf  Hf13  1  0.540781  0.081561  0.250000  1
  Hf  Hf14  1  0.918439  0.459219  0.250000  1
  Hf  Hf15  1  0.459353  0.540647  0.750000  1
  Hf  Hf16  1  0.459353  0.918706  0.750000  1
  Hf  Hf17  1  0.081294  0.540647  0.750000  1
  Zn  Zn18  1  0.333333  0.666667  0.250000  1
  Co  Co19  1  0.666667  0.333333  0.750000  1
  Re  Re20  1  0.887950  0.112050  0.250000  1
  Re  Re21  1  0.887950  0.775900  0.250000  1
  Re  Re22  1  0.224100  0.112050  0.250000  1
  Re  Re23  1  0.111044  0.888956  0.750000  1
  Re  Re24  1  0.111044  0.222086  0.750000  1
  Re  Re25  1  0.777914  0.888956  0.750000  1
  W  W26  1  0.000000  0.000000  0.498016  1
  W  W27  1  0.000000  0.000000  0.001984  1
