# generated using pymatgen
data_La2Y2As7Ir8
_symmetry_space_group_name_H-M   'P 1'
_cell_length_a   4.11506500
_cell_length_b   13.24827178
_cell_length_c   13.62769094
_cell_angle_alpha   81.92461976
_cell_angle_beta   90.00000000
_cell_angle_gamma   90.00000000
_symmetry_Int_Tables_number   1
_chemical_formula_structural   La2Y2As7Ir8
_chemical_formula_sum   'La4 Y4 As14 Ir16'
_cell_volume   735.58064828
_cell_formula_units_Z   2
loop_
 _symmetry_equiv_pos_site_id
 _symmetry_equiv_pos_as_xyz
  1  'x, y, z'
loop_
 _atom_site_type_symbol
 _atom_site_label
 _atom_site_symmetry_multiplicity
 _atom_site_fract_x
 _atom_site_fract_y
 _atom_site_fract_z
 _atom_site_occupancy
  La  La0  1  0.250000  0.101828  0.789155  1
  La  La1  1  0.750000  0.898172  0.210845  1
  La  La2  1  0.250000  0.286136  0.103816  1
  La  La3  1  0.750000  0.713864  0.896184  1
  Y  Y4  1  0.250000  0.521292  0.294372  1
  Y  Y5  1  0.750000  0.478708  0.705628  1
  Y  Y6  1  0.250000  0.206366  0.441438  1
  Y  Y7  1  0.750000  0.793634  0.558562  1
  As  As8  1  0.250000  0.057189  0.101238  1
  As  As9  1  0.750000  0.942811  0.898762  1
  As  As10  1  0.250000  0.314805  0.685714  1
  As  As11  1  0.750000  0.685195  0.314286  1
  As  As12  1  0.250000  0.606808  0.569309  1
  As  As13  1  0.750000  0.393192  0.430691  1
  As  As14  1  0.250000  0.844589  0.717107  1
  As  As15  1  0.750000  0.155411  0.282893  1
  As  As16  1  0.750000  0.255722  0.917129  1
  As  As17  1  0.250000  0.744278  0.082871  1
  As  As18  1  0.750000  0.096798  0.585902  1
  As  As19  1  0.250000  0.903202  0.414098  1
  As  As20  1  0.750000  0.472058  0.129344  1
  As  As21  1  0.250000  0.527942  0.870656  1
  Ir  Ir22  1  0.250000  0.989841  0.573584  1
  Ir  Ir23  1  0.750000  0.010159  0.426416  1
  Ir  Ir24  1  0.250000  0.662530  0.731644  1
  Ir  Ir25  1  0.750000  0.337470  0.268356  1
  Ir  Ir26  1  0.250000  0.553674  0.048057  1
  Ir  Ir27  1  0.750000  0.446326  0.951943  1
  Ir  Ir28  1  0.250000  0.056905  0.280450  1
  Ir  Ir29  1  0.750000  0.943095  0.719550  1
  Ir  Ir30  1  0.250000  0.425192  0.522008  1
  Ir  Ir31  1  0.750000  0.574808  0.477992  1
  Ir  Ir32  1  0.250000  0.919515  0.997243  1
  Ir  Ir33  1  0.750000  0.080485  0.002757  1
  Ir  Ir34  1  0.250000  0.721215  0.404376  1
  Ir  Ir35  1  0.750000  0.278785  0.595624  1
  Ir  Ir36  1  0.250000  0.345093  0.857608  1
  Ir  Ir37  1  0.750000  0.654907  0.142392  1
