# generated using pymatgen
data_Be2NbB2Mo
_symmetry_space_group_name_H-M   'P 1'
_cell_length_a   4.55303822
_cell_length_b   4.55303803
_cell_length_c   4.55303867
_cell_angle_alpha   138.01530317
_cell_angle_beta   103.23102689
_cell_angle_gamma   91.59293599
_symmetry_Int_Tables_number   1
_chemical_formula_structural   Be2NbB2Mo
_chemical_formula_sum   'Be2 Nb1 B2 Mo1'
_cell_volume   58.55333673
_cell_formula_units_Z   1
loop_
 _symmetry_equiv_pos_site_id
 _symmetry_equiv_pos_as_xyz
  1  'x, y, z'
loop_
 _atom_site_type_symbol
 _atom_site_label
 _atom_site_symmetry_multiplicity
 _atom_site_fract_x
 _atom_site_fract_y
 _atom_site_fract_z
 _atom_site_occupancy
  Be  Be0  1  0.585157  0.251982  0.333175  1
  Be  Be1  1  0.081193  0.748019  0.333176  1
  Nb  Nb2  1  0.499126  0.500001  0.999125  1
  B  B3  1  0.918167  0.251060  0.667107  1
  B  B4  1  0.416049  0.748941  0.667109  1
  Mo  Mo5  1  0.000308  0.000000  0.000308  1
