# generated using pymatgen
data_Li3Y3CdSiP
_symmetry_space_group_name_H-M   'P 1'
_cell_length_a   7.19932100
_cell_length_b   7.19932309
_cell_length_c   4.13138700
_cell_angle_alpha   90.00000000
_cell_angle_beta   90.00000000
_cell_angle_gamma   119.99999499
_symmetry_Int_Tables_number   1
_chemical_formula_structural   Li3Y3CdSiP
_chemical_formula_sum   'Li3 Y3 Cd1 Si1 P1'
_cell_volume   185.44269684
_cell_formula_units_Z   1
loop_
 _symmetry_equiv_pos_site_id
 _symmetry_equiv_pos_as_xyz
  1  'x, y, z'
loop_
 _atom_site_type_symbol
 _atom_site_label
 _atom_site_symmetry_multiplicity
 _atom_site_fract_x
 _atom_site_fract_y
 _atom_site_fract_z
 _atom_site_occupancy
  Li  Li0  1  0.253908  0.998183  0.500000  1
  Li  Li1  1  0.744274  0.746092  0.500000  1
  Li  Li2  1  0.001817  0.255726  0.500000  1
  Y  Y3  1  0.999421  0.562976  0.000000  1
  Y  Y4  1  0.563554  0.000579  0.000000  1
  Y  Y5  1  0.437024  0.436446  0.000000  1
  Cd  Cd6  1  0.000000  0.000000  0.000000  1
  Si  Si7  1  0.666667  0.333333  0.500000  1
  P  P8  1  0.333333  0.666667  0.500000  1
