# generated using pymatgen
data_Pr16AlCd3Ir4
_symmetry_space_group_name_H-M   'P 1'
_cell_length_a   10.01793371
_cell_length_b   10.01808828
_cell_length_c   10.01732837
_cell_angle_alpha   60.08877251
_cell_angle_beta   59.99577647
_cell_angle_gamma   60.00213340
_symmetry_Int_Tables_number   1
_chemical_formula_structural   Pr16AlCd3Ir4
_chemical_formula_sum   'Pr16 Al1 Cd3 Ir4'
_cell_volume   711.35038076
_cell_formula_units_Z   1
loop_
 _symmetry_equiv_pos_site_id
 _symmetry_equiv_pos_as_xyz
  1  'x, y, z'
loop_
 _atom_site_type_symbol
 _atom_site_label
 _atom_site_symmetry_multiplicity
 _atom_site_fract_x
 _atom_site_fract_y
 _atom_site_fract_z
 _atom_site_occupancy
  Pr  Pr0  1  0.347775  0.347355  0.347514  1
  Pr  Pr1  1  0.349992  0.350446  0.953059  1
  Pr  Pr2  1  0.350245  0.952922  0.350369  1
  Pr  Pr3  1  0.953402  0.349978  0.350031  1
  Pr  Pr4  1  0.810031  0.189769  0.189539  1
  Pr  Pr5  1  0.191357  0.806437  0.806464  1
  Pr  Pr6  1  0.189692  0.809764  0.189954  1
  Pr  Pr7  1  0.806459  0.191747  0.806436  1
  Pr  Pr8  1  0.189572  0.189941  0.809830  1
  Pr  Pr9  1  0.806248  0.806639  0.191640  1
  Pr  Pr10  1  0.938080  0.561749  0.561822  1
  Pr  Pr11  1  0.560483  0.939031  0.938992  1
  Pr  Pr12  1  0.561902  0.938431  0.561740  1
  Pr  Pr13  1  0.939042  0.560247  0.939209  1
  Pr  Pr14  1  0.562096  0.561581  0.938289  1
  Pr  Pr15  1  0.938986  0.939144  0.560394  1
  Al  Al16  1  0.579833  0.579816  0.579840  1
  Cd  Cd17  1  0.579626  0.579697  0.263448  1
  Cd  Cd18  1  0.579628  0.263442  0.579684  1
  Cd  Cd19  1  0.263523  0.579655  0.579589  1
  Ir  Ir20  1  0.141565  0.141789  0.141718  1
  Ir  Ir21  1  0.142132  0.142245  0.576090  1
  Ir  Ir22  1  0.142236  0.576048  0.142167  1
  Ir  Ir23  1  0.576090  0.142126  0.142182  1
