# generated using pymatgen
data_Pr3LuSc6(Si5Ir2)4
_symmetry_space_group_name_H-M   'P 1'
_cell_length_a   12.55502661
_cell_length_b   12.55502529
_cell_length_c   4.17843700
_cell_angle_alpha   90.00000000
_cell_angle_beta   90.00000000
_cell_angle_gamma   90.16116745
_symmetry_Int_Tables_number   1
_chemical_formula_structural   Pr3LuSc6(Si5Ir2)4
_chemical_formula_sum   'Pr3 Lu1 Sc6 Si20 Ir8'
_cell_volume   658.63888905
_cell_formula_units_Z   1
loop_
 _symmetry_equiv_pos_site_id
 _symmetry_equiv_pos_as_xyz
  1  'x, y, z'
loop_
 _atom_site_type_symbol
 _atom_site_label
 _atom_site_symmetry_multiplicity
 _atom_site_fract_x
 _atom_site_fract_y
 _atom_site_fract_z
 _atom_site_occupancy
  Pr  Pr0  1  0.115620  0.615512  0.500000  1
  Pr  Pr1  1  0.884488  0.384380  0.500000  1
  Pr  Pr2  1  0.614329  0.885671  0.500000  1
  Lu  Lu3  1  0.384250  0.115750  0.500000  1
  Sc  Sc4  1  0.672953  0.174680  0.500000  1
  Sc  Sc5  1  0.325320  0.827047  0.500000  1
  Sc  Sc6  1  0.176239  0.323761  0.500000  1
  Sc  Sc7  1  0.824729  0.675271  0.500000  1
  Sc  Sc8  1  0.001208  0.000218  0.000000  1
  Sc  Sc9  1  0.499782  0.498792  0.000000  1
  Si  Si10  1  0.567216  0.068199  0.000000  1
  Si  Si11  1  0.431801  0.932784  0.000000  1
  Si  Si12  1  0.069528  0.430472  0.000000  1
  Si  Si13  1  0.930903  0.569097  0.000000  1
  Si  Si14  1  0.201801  0.163713  0.000000  1
  Si  Si15  1  0.800134  0.836972  0.000000  1
  Si  Si16  1  0.164218  0.801906  0.000000  1
  Si  Si17  1  0.698094  0.335782  0.000000  1
  Si  Si18  1  0.836228  0.199925  0.000000  1
  Si  Si19  1  0.300075  0.663772  0.000000  1
  Si  Si20  1  0.663028  0.699866  0.000000  1
  Si  Si21  1  0.336287  0.298199  0.000000  1
  Si  Si22  1  0.009263  0.149472  0.500000  1
  Si  Si23  1  0.992121  0.850939  0.500000  1
  Si  Si24  1  0.152266  0.993274  0.500000  1
  Si  Si25  1  0.506726  0.347734  0.500000  1
  Si  Si26  1  0.850619  0.009678  0.500000  1
  Si  Si27  1  0.490322  0.649381  0.500000  1
  Si  Si28  1  0.649061  0.507879  0.500000  1
  Si  Si29  1  0.350528  0.490737  0.500000  1
  Ir  Ir30  1  0.024903  0.241032  0.000000  1
  Ir  Ir31  1  0.976153  0.759095  0.000000  1
  Ir  Ir32  1  0.245512  0.978806  0.000000  1
  Ir  Ir33  1  0.521194  0.254488  0.000000  1
  Ir  Ir34  1  0.757904  0.024675  0.000000  1
  Ir  Ir35  1  0.475325  0.742096  0.000000  1
  Ir  Ir36  1  0.740905  0.523847  0.000000  1
  Ir  Ir37  1  0.258968  0.475097  0.000000  1
