# generated using pymatgen
data_Hf8Cd4Cu5Ni3
_symmetry_space_group_name_H-M   'P 1'
_cell_length_a   7.20696606
_cell_length_b   7.20696708
_cell_length_c   6.65822300
_cell_angle_alpha   90.02342565
_cell_angle_beta   90.02342598
_cell_angle_gamma   89.61344179
_symmetry_Int_Tables_number   1
_chemical_formula_structural   Hf8Cd4Cu5Ni3
_chemical_formula_sum   'Hf8 Cd4 Cu5 Ni3'
_cell_volume   345.82261879
_cell_formula_units_Z   1
loop_
 _symmetry_equiv_pos_site_id
 _symmetry_equiv_pos_as_xyz
  1  'x, y, z'
loop_
 _atom_site_type_symbol
 _atom_site_label
 _atom_site_symmetry_multiplicity
 _atom_site_fract_x
 _atom_site_fract_y
 _atom_site_fract_z
 _atom_site_occupancy
  Hf  Hf0  1  0.186035  0.186035  0.990201  1
  Hf  Hf1  1  0.819528  0.819528  0.994344  1
  Hf  Hf2  1  0.307796  0.684229  0.506243  1
  Hf  Hf3  1  0.684229  0.307796  0.506243  1
  Hf  Hf4  1  0.649017  0.342961  0.991648  1
  Hf  Hf5  1  0.342961  0.649017  0.991648  1
  Hf  Hf6  1  0.853478  0.853478  0.509367  1
  Hf  Hf7  1  0.155081  0.155081  0.513742  1
  Cd  Cd8  1  0.499648  0.996967  0.250645  1
  Cd  Cd9  1  0.996967  0.499648  0.250645  1
  Cd  Cd10  1  0.997651  0.499798  0.750094  1
  Cd  Cd11  1  0.499798  0.997651  0.750094  1
  Cu  Cu12  1  0.374469  0.374469  0.290294  1
  Cu  Cu13  1  0.625435  0.625435  0.288341  1
  Cu  Cu14  1  0.127028  0.876867  0.210933  1
  Cu  Cu15  1  0.876867  0.127028  0.210933  1
  Cu  Cu16  1  0.625997  0.625997  0.708447  1
  Ni  Ni17  1  0.377657  0.377657  0.718210  1
  Ni  Ni18  1  0.125663  0.874695  0.783963  1
  Ni  Ni19  1  0.874695  0.125663  0.783963  1
