# generated using pymatgen
data_YbFe5(AsO4)4
_symmetry_space_group_name_H-M   'P 1'
_cell_length_a   8.86357467
_cell_length_b   5.46798318
_cell_length_c   9.38124800
_cell_angle_alpha   59.73697909
_cell_angle_beta   90.70062514
_cell_angle_gamma   91.11712202
_symmetry_Int_Tables_number   1
_chemical_formula_structural   YbFe5(AsO4)4
_chemical_formula_sum   'Yb1 Fe5 As4 O16'
_cell_volume   392.63222174
_cell_formula_units_Z   1
loop_
 _symmetry_equiv_pos_site_id
 _symmetry_equiv_pos_as_xyz
  1  'x, y, z'
loop_
 _atom_site_type_symbol
 _atom_site_label
 _atom_site_symmetry_multiplicity
 _atom_site_fract_x
 _atom_site_fract_y
 _atom_site_fract_z
 _atom_site_occupancy
  Yb  Yb0  1  0.000000  0.500000  0.500000  1
  Fe  Fe1  1  0.148292  0.474121  0.110010  1
  Fe  Fe2  1  0.640212  0.501129  0.392104  1
  Fe  Fe3  1  0.851708  0.525879  0.889990  1
  Fe  Fe4  1  0.359788  0.498871  0.607896  1
  Fe  Fe5  1  0.500000  0.500000  0.000000  1
  As  As6  1  0.311426  0.839376  0.195995  1
  As  As7  1  0.794733  0.159737  0.291546  1
  As  As8  1  0.688574  0.160624  0.804005  1
  As  As9  1  0.205267  0.840263  0.708454  1
  O  O10  1  0.073969  0.679775  0.865094  1
  O  O11  1  0.566433  0.307535  0.637315  1
  O  O12  1  0.926031  0.320225  0.134906  1
  O  O13  1  0.433567  0.692465  0.362685  1
  O  O14  1  0.205077  0.196999  0.639540  1
  O  O15  1  0.694203  0.801430  0.877952  1
  O  O16  1  0.794923  0.803001  0.360460  1
  O  O17  1  0.305797  0.198570  0.122048  1
  O  O18  1  0.161851  0.779718  0.549525  1
  O  O19  1  0.642731  0.235084  0.955394  1
  O  O20  1  0.136275  0.670565  0.254119  1
  O  O21  1  0.621392  0.328014  0.233109  1
  O  O22  1  0.863725  0.329435  0.745881  1
  O  O23  1  0.378608  0.671986  0.766891  1
  O  O24  1  0.357269  0.764916  0.044606  1
  O  O25  1  0.838149  0.220282  0.450475  1
