# generated using pymatgen
data_KEu(SO4)2
_symmetry_space_group_name_H-M   'P 1'
_cell_length_a   7.28011100
_cell_length_b   8.77532487
_cell_length_c   10.79610300
_cell_angle_alpha   92.64230146
_cell_angle_beta   90.00000000
_cell_angle_gamma   90.00000000
_symmetry_Int_Tables_number   1
_chemical_formula_structural   KEu(SO4)2
_chemical_formula_sum   'K4 Eu4 S8 O32'
_cell_volume   688.97940308
_cell_formula_units_Z   4
loop_
 _symmetry_equiv_pos_site_id
 _symmetry_equiv_pos_as_xyz
  1  'x, y, z'
loop_
 _atom_site_type_symbol
 _atom_site_label
 _atom_site_symmetry_multiplicity
 _atom_site_fract_x
 _atom_site_fract_y
 _atom_site_fract_z
 _atom_site_occupancy
  K  K0  1  0.849310  0.561726  0.345146  1
  K  K1  1  0.349310  0.438274  0.154854  1
  K  K2  1  0.150690  0.438274  0.654854  1
  K  K3  1  0.650690  0.561726  0.845146  1
  Eu  Eu4  1  0.668811  0.057265  0.349364  1
  Eu  Eu5  1  0.168811  0.942735  0.150636  1
  Eu  Eu6  1  0.331189  0.942735  0.650636  1
  Eu  Eu7  1  0.831189  0.057265  0.849364  1
  S  S8  1  0.841841  0.272706  0.091613  1
  S  S9  1  0.341841  0.727294  0.408387  1
  S  S10  1  0.158159  0.727294  0.908387  1
  S  S11  1  0.658159  0.272706  0.591613  1
  S  S12  1  0.666674  0.818981  0.109531  1
  S  S13  1  0.166674  0.181019  0.390469  1
  S  S14  1  0.333326  0.181019  0.890469  1
  S  S15  1  0.833326  0.818981  0.609531  1
  O  O16  1  0.967175  0.394273  0.132449  1
  O  O17  1  0.467175  0.605727  0.367551  1
  O  O18  1  0.032825  0.605727  0.867551  1
  O  O19  1  0.532825  0.394273  0.632449  1
  O  O20  1  0.747610  0.301013  0.469763  1
  O  O21  1  0.247610  0.698987  0.030237  1
  O  O22  1  0.252390  0.698987  0.530237  1
  O  O23  1  0.752390  0.301013  0.969763  1
  O  O24  1  0.698373  0.246646  0.187217  1
  O  O25  1  0.198373  0.753354  0.312783  1
  O  O26  1  0.301627  0.753354  0.812783  1
  O  O27  1  0.801627  0.246646  0.687217  1
  O  O28  1  0.444159  0.875390  0.438219  1
  O  O29  1  0.944159  0.124610  0.061781  1
  O  O30  1  0.555841  0.124610  0.561781  1
  O  O31  1  0.055841  0.875390  0.938219  1
  O  O32  1  0.680401  0.874732  0.982539  1
  O  O33  1  0.180401  0.125268  0.517461  1
  O  O34  1  0.319599  0.125268  0.017461  1
  O  O35  1  0.819599  0.874732  0.482539  1
  O  O36  1  0.857284  0.653677  0.606323  1
  O  O37  1  0.357284  0.346323  0.893677  1
  O  O38  1  0.142716  0.346323  0.393677  1
  O  O39  1  0.642716  0.653677  0.106323  1
  O  O40  1  0.667326  0.864114  0.688118  1
  O  O41  1  0.167326  0.135886  0.811882  1
  O  O42  1  0.332674  0.135886  0.311882  1
  O  O43  1  0.832674  0.864114  0.188118  1
  O  O44  1  0.988627  0.902817  0.677063  1
  O  O45  1  0.488627  0.097183  0.822937  1
  O  O46  1  0.011373  0.097183  0.322937  1
  O  O47  1  0.511373  0.902817  0.177063  1
