# generated using pymatgen
data_Yb5Er3(SiPt)8
_symmetry_space_group_name_H-M   'P 1'
_cell_length_a   4.29576900
_cell_length_b   7.35435700
_cell_length_c   14.14631800
_cell_angle_alpha   90.00000000
_cell_angle_beta   90.00000000
_cell_angle_gamma   90.00000000
_symmetry_Int_Tables_number   1
_chemical_formula_structural   Yb5Er3(SiPt)8
_chemical_formula_sum   'Yb5 Er3 Si8 Pt8'
_cell_volume   446.91923222
_cell_formula_units_Z   1
loop_
 _symmetry_equiv_pos_site_id
 _symmetry_equiv_pos_as_xyz
  1  'x, y, z'
loop_
 _atom_site_type_symbol
 _atom_site_label
 _atom_site_symmetry_multiplicity
 _atom_site_fract_x
 _atom_site_fract_y
 _atom_site_fract_z
 _atom_site_occupancy
  Yb  Yb0  1  0.000000  0.294642  0.500000  1
  Yb  Yb1  1  0.000000  0.199168  0.248172  1
  Yb  Yb2  1  0.500000  0.800355  0.252563  1
  Yb  Yb3  1  0.000000  0.199168  0.751828  1
  Yb  Yb4  1  0.500000  0.800355  0.747437  1
  Er  Er5  1  0.000000  0.295366  0.000000  1
  Er  Er6  1  0.500000  0.704108  0.500000  1
  Er  Er7  1  0.500000  0.707878  0.000000  1
  Si  Si8  1  0.000000  0.911170  0.590884  1
  Si  Si9  1  0.500000  0.087883  0.909027  1
  Si  Si10  1  0.000000  0.911170  0.409116  1
  Si  Si11  1  0.500000  0.087883  0.090973  1
  Si  Si12  1  0.000000  0.588800  0.149686  1
  Si  Si13  1  0.500000  0.411954  0.345998  1
  Si  Si14  1  0.000000  0.588800  0.850314  1
  Si  Si15  1  0.500000  0.411954  0.654002  1
  Pt  Pt16  1  0.500000  0.085917  0.607355  1
  Pt  Pt17  1  0.000000  0.912732  0.894828  1
  Pt  Pt18  1  0.500000  0.085917  0.392645  1
  Pt  Pt19  1  0.000000  0.912732  0.105172  1
  Pt  Pt20  1  0.500000  0.417970  0.150115  1
  Pt  Pt21  1  0.000000  0.583053  0.347207  1
  Pt  Pt22  1  0.500000  0.417970  0.849885  1
  Pt  Pt23  1  0.000000  0.583053  0.652793  1
