# generated using pymatgen
data_ZrScBIr6
_symmetry_space_group_name_H-M   'P 1'
_cell_length_a   5.72852063
_cell_length_b   5.72852042
_cell_length_c   5.72852000
_cell_angle_alpha   59.99999090
_cell_angle_beta   59.99999211
_cell_angle_gamma   59.99999686
_symmetry_Int_Tables_number   1
_chemical_formula_structural   ZrScBIr6
_chemical_formula_sum   'Zr1 Sc1 B1 Ir6'
_cell_volume   132.92672879
_cell_formula_units_Z   1
loop_
 _symmetry_equiv_pos_site_id
 _symmetry_equiv_pos_as_xyz
  1  'x, y, z'
loop_
 _atom_site_type_symbol
 _atom_site_label
 _atom_site_symmetry_multiplicity
 _atom_site_fract_x
 _atom_site_fract_y
 _atom_site_fract_z
 _atom_site_occupancy
  Zr  Zr0  1  0.250000  0.250000  0.250000  1
  Sc  Sc1  1  0.750000  0.750000  0.750000  1
  B  B2  1  0.000000  0.000000  0.000000  1
  Ir  Ir3  1  0.741204  0.741204  0.258796  1
  Ir  Ir4  1  0.258796  0.741204  0.258796  1
  Ir  Ir5  1  0.741204  0.258796  0.258796  1
  Ir  Ir6  1  0.258796  0.258796  0.741204  1
  Ir  Ir7  1  0.741204  0.258796  0.741204  1
  Ir  Ir8  1  0.258796  0.741204  0.741204  1
