# generated using pymatgen
data_Ho4Mg4IrRh3
_symmetry_space_group_name_H-M   'P 1'
_cell_length_a   4.10652300
_cell_length_b   7.07439271
_cell_length_c   8.48892833
_cell_angle_alpha   90.56262039
_cell_angle_beta   90.00000000
_cell_angle_gamma   90.00000000
_symmetry_Int_Tables_number   1
_chemical_formula_structural   Ho4Mg4IrRh3
_chemical_formula_sum   'Ho4 Mg4 Ir1 Rh3'
_cell_volume   246.60129483
_cell_formula_units_Z   1
loop_
 _symmetry_equiv_pos_site_id
 _symmetry_equiv_pos_as_xyz
  1  'x, y, z'
loop_
 _atom_site_type_symbol
 _atom_site_label
 _atom_site_symmetry_multiplicity
 _atom_site_fract_x
 _atom_site_fract_y
 _atom_site_fract_z
 _atom_site_occupancy
  Ho  Ho0  1  0.250000  0.540460  0.178197  1
  Ho  Ho1  1  0.750000  0.463120  0.824572  1
  Ho  Ho2  1  0.250000  0.033509  0.324202  1
  Ho  Ho3  1  0.750000  0.961042  0.674641  1
  Mg  Mg4  1  0.250000  0.137113  0.938670  1
  Mg  Mg5  1  0.750000  0.864084  0.061625  1
  Mg  Mg6  1  0.250000  0.635871  0.561788  1
  Mg  Mg7  1  0.750000  0.363384  0.438600  1
  Ir  Ir8  1  0.750000  0.748207  0.372122  1
  Rh  Rh9  1  0.250000  0.250641  0.627366  1
  Rh  Rh10  1  0.750000  0.251275  0.124790  1
  Rh  Rh11  1  0.250000  0.751295  0.873429  1
