# generated using pymatgen
data_YbCdGePt3
_symmetry_space_group_name_H-M   'P 1'
_cell_length_a   5.54406340
_cell_length_b   5.54406260
_cell_length_c   5.18107998
_cell_angle_alpha   57.65406876
_cell_angle_beta   57.65407490
_cell_angle_gamma   60.00000198
_symmetry_Int_Tables_number   1
_chemical_formula_structural   YbCdGePt3
_chemical_formula_sum   'Yb1 Cd1 Ge1 Pt3'
_cell_volume   108.44646106
_cell_formula_units_Z   1
loop_
 _symmetry_equiv_pos_site_id
 _symmetry_equiv_pos_as_xyz
  1  'x, y, z'
loop_
 _atom_site_type_symbol
 _atom_site_label
 _atom_site_symmetry_multiplicity
 _atom_site_fract_x
 _atom_site_fract_y
 _atom_site_fract_z
 _atom_site_occupancy
  Yb  Yb0  1  0.751061  0.751061  0.746815  1
  Cd  Cd1  1  0.000678  0.000678  0.997965  1
  Ge  Ge2  1  0.375070  0.375070  0.874789  1
  Pt  Pt3  1  0.373638  0.875914  0.376810  1
  Pt  Pt4  1  0.373638  0.373638  0.376810  1
  Pt  Pt5  1  0.875914  0.373638  0.376810  1
