# generated using pymatgen
data_Nd2Pa(GaPt)3
_symmetry_space_group_name_H-M   'P 1'
_cell_length_a   7.39288654
_cell_length_b   7.39288591
_cell_length_c   3.98568900
_cell_angle_alpha   90.00000000
_cell_angle_beta   90.00000000
_cell_angle_gamma   119.93521305
_symmetry_Int_Tables_number   1
_chemical_formula_structural   Nd2Pa(GaPt)3
_chemical_formula_sum   'Nd2 Pa1 Ga3 Pt3'
_cell_volume   188.77532985
_cell_formula_units_Z   1
loop_
 _symmetry_equiv_pos_site_id
 _symmetry_equiv_pos_as_xyz
  1  'x, y, z'
loop_
 _atom_site_type_symbol
 _atom_site_label
 _atom_site_symmetry_multiplicity
 _atom_site_fract_x
 _atom_site_fract_y
 _atom_site_fract_z
 _atom_site_occupancy
  Nd  Nd0  1  0.997575  0.588301  0.500000  1
  Nd  Nd1  1  0.588301  0.997575  0.500000  1
  Pa  Pa2  1  0.415775  0.415775  0.500000  1
  Ga  Ga3  1  0.761448  0.761448  0.000000  1
  Ga  Ga4  1  0.246446  0.994870  0.000000  1
  Ga  Ga5  1  0.994870  0.246446  0.000000  1
  Pt  Pt6  1  0.641521  0.335051  0.000000  1
  Pt  Pt7  1  0.335051  0.641521  0.000000  1
  Pt  Pt8  1  0.019015  0.019015  0.500000  1
