# generated using pymatgen
data_La2Al20TcIr3
_symmetry_space_group_name_H-M   'P 1'
_cell_length_a   6.93018239
_cell_length_b   6.91389325
_cell_length_c   9.23721129
_cell_angle_alpha   90.13572737
_cell_angle_beta   90.17775787
_cell_angle_gamma   97.13819273
_symmetry_Int_Tables_number   1
_chemical_formula_structural   La2Al20TcIr3
_chemical_formula_sum   'La2 Al20 Tc1 Ir3'
_cell_volume   439.16251254
_cell_formula_units_Z   1
loop_
 _symmetry_equiv_pos_site_id
 _symmetry_equiv_pos_as_xyz
  1  'x, y, z'
loop_
 _atom_site_type_symbol
 _atom_site_label
 _atom_site_symmetry_multiplicity
 _atom_site_fract_x
 _atom_site_fract_y
 _atom_site_fract_z
 _atom_site_occupancy
  La  La0  1  0.877560  0.127407  0.750516  1
  La  La1  1  0.122440  0.872593  0.249484  1
  Al  Al2  1  0.590856  0.857618  0.249693  1
  Al  Al3  1  0.775982  0.516211  0.247331  1
  Al  Al4  1  0.159658  0.838847  0.897101  1
  Al  Al5  1  0.409144  0.142382  0.750307  1
  Al  Al6  1  0.624053  0.380272  0.949384  1
  Al  Al7  1  0.839252  0.159358  0.395817  1
  Al  Al8  1  0.774950  0.773160  0.001265  1
  Al  Al9  1  0.858319  0.590124  0.750661  1
  Al  Al10  1  0.840342  0.161153  0.102899  1
  Al  Al11  1  0.224018  0.483789  0.752669  1
  Al  Al12  1  0.160748  0.840642  0.604183  1
  Al  Al13  1  0.774775  0.773969  0.499894  1
  Al  Al14  1  0.482880  0.225020  0.251280  1
  Al  Al15  1  0.621741  0.379212  0.552226  1
  Al  Al16  1  0.225225  0.226031  0.500106  1
  Al  Al17  1  0.378259  0.620788  0.447774  1
  Al  Al18  1  0.141681  0.409876  0.249339  1
  Al  Al19  1  0.517120  0.774980  0.748720  1
  Al  Al20  1  0.375947  0.619728  0.050616  1
  Al  Al21  1  0.225050  0.226840  0.998735  1
  Tc  Tc22  1  0.000000  0.500000  0.000000  1
  Ir  Ir23  1  0.500000  0.000000  0.000000  1
  Ir  Ir24  1  0.500000  0.000000  0.500000  1
  Ir  Ir25  1  0.000000  0.500000  0.500000  1
