# generated using pymatgen
data_Dy15Pa(InOs)4
_symmetry_space_group_name_H-M   'P 1'
_cell_length_a   9.69304275
_cell_length_b   9.69304542
_cell_length_c   9.69305000
_cell_angle_alpha   59.78503583
_cell_angle_beta   59.78514290
_cell_angle_gamma   59.78506615
_symmetry_Int_Tables_number   1
_chemical_formula_structural   Dy15Pa(InOs)4
_chemical_formula_sum   'Dy15 Pa1 In4 Os4'
_cell_volume   640.82817661
_cell_formula_units_Z   1
loop_
 _symmetry_equiv_pos_site_id
 _symmetry_equiv_pos_as_xyz
  1  'x, y, z'
loop_
 _atom_site_type_symbol
 _atom_site_label
 _atom_site_symmetry_multiplicity
 _atom_site_fract_x
 _atom_site_fract_y
 _atom_site_fract_z
 _atom_site_occupancy
  Dy  Dy0  1  0.599297  0.599296  0.201330  1
  Dy  Dy1  1  0.599501  0.200888  0.599433  1
  Dy  Dy2  1  0.200888  0.599500  0.599434  1
  Dy  Dy3  1  0.060093  0.441629  0.441760  1
  Dy  Dy4  1  0.441485  0.058984  0.058873  1
  Dy  Dy5  1  0.441630  0.060094  0.441759  1
  Dy  Dy6  1  0.058983  0.441485  0.058874  1
  Dy  Dy7  1  0.441806  0.441806  0.059917  1
  Dy  Dy8  1  0.058960  0.058963  0.441567  1
  Dy  Dy9  1  0.192647  0.809277  0.809144  1
  Dy  Dy10  1  0.808739  0.192267  0.191907  1
  Dy  Dy11  1  0.809276  0.192648  0.809144  1
  Dy  Dy12  1  0.192266  0.808739  0.191907  1
  Dy  Dy13  1  0.809215  0.809214  0.192745  1
  Dy  Dy14  1  0.191856  0.191857  0.808571  1
  Pa  Pa15  1  0.589310  0.589310  0.589672  1
  In  In16  1  0.832625  0.832625  0.831965  1
  In  In17  1  0.831021  0.831021  0.503258  1
  In  In18  1  0.830396  0.503458  0.830854  1
  In  In19  1  0.503458  0.830395  0.830853  1
  Os  Os20  1  0.389920  0.389919  0.390345  1
  Os  Os21  1  0.397112  0.397113  0.822374  1
  Os  Os22  1  0.397148  0.822367  0.397156  1
  Os  Os23  1  0.822369  0.397148  0.397155  1
