# generated using pymatgen
data_Li2Dy3ZrIr3
_symmetry_space_group_name_H-M   'P 1'
_cell_length_a   7.31585721
_cell_length_b   7.27162808
_cell_length_c   3.98842500
_cell_angle_alpha   90.00000000
_cell_angle_beta   90.00000000
_cell_angle_gamma   119.80021023
_symmetry_Int_Tables_number   1
_chemical_formula_structural   Li2Dy3ZrIr3
_chemical_formula_sum   'Li2 Dy3 Zr1 Ir3'
_cell_volume   184.11948512
_cell_formula_units_Z   1
loop_
 _symmetry_equiv_pos_site_id
 _symmetry_equiv_pos_as_xyz
  1  'x, y, z'
loop_
 _atom_site_type_symbol
 _atom_site_label
 _atom_site_symmetry_multiplicity
 _atom_site_fract_x
 _atom_site_fract_y
 _atom_site_fract_z
 _atom_site_occupancy
  Li  Li0  1  0.246906  0.243232  0.500000  1
  Li  Li1  1  0.753094  0.996326  0.500000  1
  Dy  Dy2  1  0.569484  0.582712  0.000000  1
  Dy  Dy3  1  0.430516  0.013227  0.000000  1
  Dy  Dy4  1  0.000000  0.390590  0.000000  1
  Zr  Zr5  1  0.000000  0.756287  0.500000  1
  Ir  Ir6  1  0.000000  0.986722  0.000000  1
  Ir  Ir7  1  0.680249  0.355577  0.500000  1
  Ir  Ir8  1  0.319751  0.675329  0.500000  1
