# generated using pymatgen
data_Rb3Ta8O21
_symmetry_space_group_name_H-M   'P 1'
_cell_length_a   9.24753900
_cell_length_b   9.24753915
_cell_length_c   12.21774000
_cell_angle_alpha   90.00000000
_cell_angle_beta   90.00000000
_cell_angle_gamma   120.00001021
_symmetry_Int_Tables_number   1
_chemical_formula_structural   Rb3Ta8O21
_chemical_formula_sum   'Rb6 Ta16 O42'
_cell_volume   904.84421872
_cell_formula_units_Z   2
loop_
 _symmetry_equiv_pos_site_id
 _symmetry_equiv_pos_as_xyz
  1  'x, y, z'
loop_
 _atom_site_type_symbol
 _atom_site_label
 _atom_site_symmetry_multiplicity
 _atom_site_fract_x
 _atom_site_fract_y
 _atom_site_fract_z
 _atom_site_occupancy
  Rb  Rb0  1  0.000000  0.591450  0.250000  1
  Rb  Rb1  1  0.000000  0.408550  0.750000  1
  Rb  Rb2  1  0.408550  0.408550  0.250000  1
  Rb  Rb3  1  0.591450  0.591450  0.750000  1
  Rb  Rb4  1  0.408550  0.000000  0.750000  1
  Rb  Rb5  1  0.591450  0.000000  0.250000  1
  Ta  Ta6  1  0.000000  0.752867  0.594518  1
  Ta  Ta7  1  0.000000  0.752867  0.905482  1
  Ta  Ta8  1  0.000000  0.247133  0.405482  1
  Ta  Ta9  1  0.000000  0.247133  0.094518  1
  Ta  Ta10  1  0.333333  0.666667  0.500000  1
  Ta  Ta11  1  0.333333  0.666667  0.000000  1
  Ta  Ta12  1  0.247133  0.247133  0.905482  1
  Ta  Ta13  1  0.247133  0.247133  0.594518  1
  Ta  Ta14  1  0.247133  0.000000  0.094518  1
  Ta  Ta15  1  0.247133  0.000000  0.405482  1
  Ta  Ta16  1  0.752867  0.752867  0.094518  1
  Ta  Ta17  1  0.752867  0.752867  0.405482  1
  Ta  Ta18  1  0.666667  0.333333  0.500000  1
  Ta  Ta19  1  0.666667  0.333333  0.000000  1
  Ta  Ta20  1  0.752867  0.000000  0.594518  1
  Ta  Ta21  1  0.752867  0.000000  0.905482  1
  O  O22  1  0.000000  0.803473  0.073749  1
  O  O23  1  0.000000  0.803473  0.426251  1
  O  O24  1  0.000000  0.790340  0.750000  1
  O  O25  1  0.168293  0.688580  0.906431  1
  O  O26  1  0.168293  0.688580  0.593569  1
  O  O27  1  0.000000  0.209660  0.250000  1
  O  O28  1  0.311420  0.831707  0.093569  1
  O  O29  1  0.311420  0.831707  0.406431  1
  O  O30  1  0.000000  0.196527  0.573749  1
  O  O31  1  0.000000  0.196527  0.926251  1
  O  O32  1  0.168293  0.479712  0.093569  1
  O  O33  1  0.168293  0.479712  0.406431  1
  O  O34  1  0.311420  0.479712  0.906431  1
  O  O35  1  0.311420  0.479712  0.593569  1
  O  O36  1  0.196527  0.196527  0.073749  1
  O  O37  1  0.196527  0.196527  0.426251  1
  O  O38  1  0.520288  0.831707  0.593569  1
  O  O39  1  0.520288  0.831707  0.906431  1
  O  O40  1  0.209660  0.209660  0.750000  1
  O  O41  1  0.520288  0.688580  0.406431  1
  O  O42  1  0.520288  0.688580  0.093569  1
  O  O43  1  0.196527  0.000000  0.926251  1
  O  O44  1  0.196527  0.000000  0.573749  1
  O  O45  1  0.209660  0.000000  0.250000  1
  O  O46  1  0.479712  0.311420  0.906431  1
  O  O47  1  0.479712  0.311420  0.593569  1
  O  O48  1  0.790340  0.790340  0.250000  1
  O  O49  1  0.479712  0.168293  0.093569  1
  O  O50  1  0.479712  0.168293  0.406431  1
  O  O51  1  0.803473  0.803473  0.573749  1
  O  O52  1  0.803473  0.803473  0.926251  1
  O  O53  1  0.688580  0.520288  0.093569  1
  O  O54  1  0.688580  0.520288  0.406431  1
  O  O55  1  0.831707  0.520288  0.593569  1
  O  O56  1  0.831707  0.520288  0.906431  1
  O  O57  1  0.688580  0.168293  0.593569  1
  O  O58  1  0.688580  0.168293  0.906431  1
  O  O59  1  0.831707  0.311420  0.406431  1
  O  O60  1  0.831707  0.311420  0.093569  1
  O  O61  1  0.790340  0.000000  0.750000  1
  O  O62  1  0.803473  0.000000  0.426251  1
  O  O63  1  0.803473  0.000000  0.073749  1
