# generated using pymatgen
data_Ba2NaAg3Se5
_symmetry_space_group_name_H-M   'P 1'
_cell_length_a   9.48182084
_cell_length_b   9.48181971
_cell_length_c   11.21435729
_cell_angle_alpha   82.30087532
_cell_angle_beta   82.30087520
_cell_angle_gamma   37.16530744
_symmetry_Int_Tables_number   1
_chemical_formula_structural   Ba2NaAg3Se5
_chemical_formula_sum   'Ba4 Na2 Ag6 Se10'
_cell_volume   602.97154780
_cell_formula_units_Z   2
loop_
 _symmetry_equiv_pos_site_id
 _symmetry_equiv_pos_as_xyz
  1  'x, y, z'
loop_
 _atom_site_type_symbol
 _atom_site_label
 _atom_site_symmetry_multiplicity
 _atom_site_fract_x
 _atom_site_fract_y
 _atom_site_fract_z
 _atom_site_occupancy
  Ba  Ba0  1  0.763388  0.763388  0.690974  1
  Ba  Ba1  1  0.236612  0.236612  0.309026  1
  Ba  Ba2  1  0.457544  0.457544  0.701085  1
  Ba  Ba3  1  0.542456  0.542456  0.298915  1
  Na  Na4  1  0.105620  0.105620  0.764063  1
  Na  Na5  1  0.894380  0.894380  0.235937  1
  Ag  Ag6  1  0.762361  0.237639  0.000000  1
  Ag  Ag7  1  0.237639  0.762361  0.000000  1
  Ag  Ag8  1  0.925541  0.410783  0.011033  1
  Ag  Ag9  1  0.410783  0.925541  0.011033  1
  Ag  Ag10  1  0.074459  0.589217  0.988967  1
  Ag  Ag11  1  0.589217  0.074459  0.988967  1
  Se  Se12  1  0.421943  0.824734  0.527886  1
  Se  Se13  1  0.824734  0.421943  0.527886  1
  Se  Se14  1  0.578057  0.175266  0.472114  1
  Se  Se15  1  0.175266  0.578057  0.472114  1
  Se  Se16  1  0.599384  0.599384  0.857411  1
  Se  Se17  1  0.400616  0.400616  0.142589  1
  Se  Se18  1  0.067735  0.067735  0.177484  1
  Se  Se19  1  0.932265  0.932265  0.822516  1
  Se  Se20  1  0.263439  0.263439  0.826208  1
  Se  Se21  1  0.736561  0.736561  0.173792  1
