# generated using pymatgen
data_La2YbIr2
_symmetry_space_group_name_H-M   'P 1'
_cell_length_a   7.63037874
_cell_length_b   7.63037773
_cell_length_c   7.63037956
_cell_angle_alpha   71.38965589
_cell_angle_beta   71.38966173
_cell_angle_gamma   71.38964569
_symmetry_Int_Tables_number   1
_chemical_formula_structural   La2YbIr2
_chemical_formula_sum   'La6 Yb3 Ir6'
_cell_volume   387.16289088
_cell_formula_units_Z   3
loop_
 _symmetry_equiv_pos_site_id
 _symmetry_equiv_pos_as_xyz
  1  'x, y, z'
loop_
 _atom_site_type_symbol
 _atom_site_label
 _atom_site_symmetry_multiplicity
 _atom_site_fract_x
 _atom_site_fract_y
 _atom_site_fract_z
 _atom_site_occupancy
  La  La0  1  0.145454  0.390127  0.680947  1
  La  La1  1  0.680947  0.145454  0.390127  1
  La  La2  1  0.390127  0.680947  0.145454  1
  La  La3  1  0.854546  0.609873  0.319053  1
  La  La4  1  0.319053  0.854546  0.609873  1
  La  La5  1  0.609873  0.319053  0.854546  1
  Yb  Yb6  1  0.000000  0.000000  0.000000  1
  Yb  Yb7  1  0.803270  0.803270  0.803270  1
  Yb  Yb8  1  0.196730  0.196730  0.196730  1
  Ir  Ir9  1  0.953267  0.171822  0.582740  1
  Ir  Ir10  1  0.582740  0.953267  0.171822  1
  Ir  Ir11  1  0.171822  0.582740  0.953267  1
  Ir  Ir12  1  0.046733  0.828178  0.417260  1
  Ir  Ir13  1  0.417260  0.046733  0.828178  1
  Ir  Ir14  1  0.828178  0.417260  0.046733  1
