# generated using pymatgen
data_Pr16MgHg3(IrRh)2
_symmetry_space_group_name_H-M   'P 1'
_cell_length_a   9.98107346
_cell_length_b   10.03645106
_cell_length_c   10.05412162
_cell_angle_alpha   59.90408311
_cell_angle_beta   59.86485943
_cell_angle_gamma   59.79538565
_symmetry_Int_Tables_number   1
_chemical_formula_structural   Pr16MgHg3(IrRh)2
_chemical_formula_sum   'Pr16 Mg1 Hg3 Ir2 Rh2'
_cell_volume   709.82638166
_cell_formula_units_Z   1
loop_
 _symmetry_equiv_pos_site_id
 _symmetry_equiv_pos_as_xyz
  1  'x, y, z'
loop_
 _atom_site_type_symbol
 _atom_site_label
 _atom_site_symmetry_multiplicity
 _atom_site_fract_x
 _atom_site_fract_y
 _atom_site_fract_z
 _atom_site_occupancy
  Pr  Pr0  1  0.348421  0.347597  0.347381  1
  Pr  Pr1  1  0.349760  0.348706  0.953531  1
  Pr  Pr2  1  0.349577  0.953857  0.348742  1
  Pr  Pr3  1  0.946785  0.350914  0.351501  1
  Pr  Pr4  1  0.807553  0.191792  0.192431  1
  Pr  Pr5  1  0.185885  0.810605  0.810075  1
  Pr  Pr6  1  0.187712  0.811341  0.189413  1
  Pr  Pr7  1  0.806053  0.191524  0.807224  1
  Pr  Pr8  1  0.187721  0.188980  0.811378  1
  Pr  Pr9  1  0.805812  0.807421  0.192284  1
  Pr  Pr10  1  0.939301  0.560965  0.563009  1
  Pr  Pr11  1  0.558138  0.939743  0.939534  1
  Pr  Pr12  1  0.558560  0.940203  0.563117  1
  Pr  Pr13  1  0.939205  0.559489  0.938085  1
  Pr  Pr14  1  0.560579  0.563050  0.939089  1
  Pr  Pr15  1  0.939738  0.938657  0.559555  1
  Mg  Mg16  1  0.287095  0.570220  0.570447  1
  Hg  Hg17  1  0.580579  0.586465  0.586813  1
  Hg  Hg18  1  0.580943  0.586931  0.245725  1
  Hg  Hg19  1  0.580926  0.245893  0.587027  1
  Ir  Ir20  1  0.140883  0.142921  0.142515  1
  Ir  Ir21  1  0.142274  0.143777  0.574838  1
  Rh  Rh22  1  0.141933  0.575552  0.143287  1
  Rh  Rh23  1  0.574567  0.143399  0.142996  1
