# generated using pymatgen
data_NaLa6ScAu10
_symmetry_space_group_name_H-M   'P 1'
_cell_length_a   8.24080937
_cell_length_b   8.24080834
_cell_length_c   8.24080900
_cell_angle_alpha   65.98453968
_cell_angle_beta   65.98453527
_cell_angle_gamma   65.98452713
_symmetry_Int_Tables_number   1
_chemical_formula_structural   NaLa6ScAu10
_chemical_formula_sum   'Na1 La6 Sc1 Au10'
_cell_volume   446.98313264
_cell_formula_units_Z   1
loop_
 _symmetry_equiv_pos_site_id
 _symmetry_equiv_pos_as_xyz
  1  'x, y, z'
loop_
 _atom_site_type_symbol
 _atom_site_label
 _atom_site_symmetry_multiplicity
 _atom_site_fract_x
 _atom_site_fract_y
 _atom_site_fract_z
 _atom_site_occupancy
  Na  Na0  1  0.653979  0.653979  0.653979  1
  La  La1  1  0.890022  0.195160  0.622023  1
  La  La2  1  0.622023  0.890022  0.195160  1
  La  La3  1  0.195160  0.622023  0.890022  1
  La  La4  1  0.104273  0.811089  0.381353  1
  La  La5  1  0.381353  0.104273  0.811089  1
  La  La6  1  0.811089  0.381353  0.104273  1
  Sc  Sc7  1  0.344036  0.344036  0.344036  1
  Au  Au8  1  0.000394  0.000394  0.000394  1
  Au  Au9  1  0.492922  0.492922  0.492922  1
  Au  Au10  1  0.802707  0.802707  0.802707  1
  Au  Au11  1  0.197967  0.197967  0.197967  1
  Au  Au12  1  0.953233  0.545579  0.311300  1
  Au  Au13  1  0.311300  0.953233  0.545579  1
  Au  Au14  1  0.545579  0.311300  0.953233  1
  Au  Au15  1  0.067884  0.447961  0.678118  1
  Au  Au16  1  0.678118  0.067884  0.447961  1
  Au  Au17  1  0.447961  0.678118  0.067884  1
