# generated using pymatgen
data_DySc2(CuSi)4
_symmetry_space_group_name_H-M   'P 1'
_cell_length_a   7.63998942
_cell_length_b   7.63998909
_cell_length_c   7.63998966
_cell_angle_alpha   149.66671581
_cell_angle_beta   129.24707991
_cell_angle_gamma   60.27958192
_symmetry_Int_Tables_number   1
_chemical_formula_structural   DySc2(CuSi)4
_chemical_formula_sum   'Dy1 Sc2 Cu4 Si4'
_cell_volume   172.96335785
_cell_formula_units_Z   1
loop_
 _symmetry_equiv_pos_site_id
 _symmetry_equiv_pos_as_xyz
  1  'x, y, z'
loop_
 _atom_site_type_symbol
 _atom_site_label
 _atom_site_symmetry_multiplicity
 _atom_site_fract_x
 _atom_site_fract_y
 _atom_site_fract_z
 _atom_site_occupancy
  Dy  Dy0  1  0.000000  0.000000  0.000000  1
  Sc  Sc1  1  0.374582  0.874582  0.500000  1
  Sc  Sc2  1  0.625418  0.125418  0.500000  1
  Cu  Cu3  1  0.634667  0.328208  0.306460  1
  Cu  Cu4  1  0.365333  0.671792  0.693540  1
  Cu  Cu5  1  0.021749  0.328208  0.693540  1
  Cu  Cu6  1  0.978251  0.671792  0.306460  1
  Si  Si7  1  0.220223  0.220223  0.000000  1
  Si  Si8  1  0.779777  0.779777  0.000000  1
  Si  Si9  1  0.680908  0.500000  0.180908  1
  Si  Si10  1  0.319092  0.500000  0.819092  1
