# generated using pymatgen
data_LiDy4Ho12In3Ir4
_symmetry_space_group_name_H-M   'P 1'
_cell_length_a   9.63812744
_cell_length_b   9.63380515
_cell_length_c   9.63380560
_cell_angle_alpha   59.86177544
_cell_angle_beta   59.84292374
_cell_angle_gamma   59.84292629
_symmetry_Int_Tables_number   1
_chemical_formula_structural   LiDy4Ho12In3Ir4
_chemical_formula_sum   'Li1 Dy4 Ho12 In3 Ir4'
_cell_volume   630.35419265
_cell_formula_units_Z   1
loop_
 _symmetry_equiv_pos_site_id
 _symmetry_equiv_pos_as_xyz
  1  'x, y, z'
loop_
 _atom_site_type_symbol
 _atom_site_label
 _atom_site_symmetry_multiplicity
 _atom_site_fract_x
 _atom_site_fract_y
 _atom_site_fract_z
 _atom_site_occupancy
  Li  Li0  1  0.821372  0.821265  0.821265  1
  Dy  Dy1  1  0.811066  0.189260  0.811076  1
  Dy  Dy2  1  0.189846  0.810076  0.189960  1
  Dy  Dy3  1  0.811066  0.811076  0.189260  1
  Dy  Dy4  1  0.189846  0.189960  0.810076  1
  Ho  Ho5  1  0.599462  0.599489  0.599489  1
  Ho  Ho6  1  0.598813  0.598724  0.204835  1
  Ho  Ho7  1  0.598813  0.204835  0.598724  1
  Ho  Ho8  1  0.204605  0.598888  0.598888  1
  Ho  Ho9  1  0.058217  0.442037  0.442037  1
  Ho  Ho10  1  0.436724  0.061901  0.061901  1
  Ho  Ho11  1  0.442063  0.058157  0.442063  1
  Ho  Ho12  1  0.061813  0.436832  0.061779  1
  Ho  Ho13  1  0.442063  0.442063  0.058157  1
  Ho  Ho14  1  0.061813  0.061779  0.436832  1
  Ho  Ho15  1  0.189868  0.810604  0.810604  1
  Ho  Ho16  1  0.809788  0.190251  0.190251  1
  In  In17  1  0.832769  0.833050  0.504089  1
  In  In18  1  0.832769  0.504089  0.833050  1
  In  In19  1  0.504208  0.832813  0.832813  1
  Ir  Ir20  1  0.392279  0.392028  0.392028  1
  Ir  Ir21  1  0.392204  0.392463  0.826233  1
  Ir  Ir22  1  0.392204  0.826233  0.392463  1
  Ir  Ir23  1  0.826330  0.392126  0.392126  1
