# generated using pymatgen
data_Ho4Co9Si5
_symmetry_space_group_name_H-M   'P 1'
_cell_length_a   11.26385168
_cell_length_b   11.26385184
_cell_length_c   11.26385218
_cell_angle_alpha   26.49393449
_cell_angle_beta   26.49393549
_cell_angle_gamma   26.49393288
_symmetry_Int_Tables_number   1
_chemical_formula_structural   Ho4Co9Si5
_chemical_formula_sum   'Ho4 Co9 Si5'
_cell_volume   250.68332886
_cell_formula_units_Z   1
loop_
 _symmetry_equiv_pos_site_id
 _symmetry_equiv_pos_as_xyz
  1  'x, y, z'
loop_
 _atom_site_type_symbol
 _atom_site_label
 _atom_site_symmetry_multiplicity
 _atom_site_fract_x
 _atom_site_fract_y
 _atom_site_fract_z
 _atom_site_occupancy
  Ho  Ho0  1  0.949268  0.949268  0.949268  1
  Ho  Ho1  1  0.851687  0.851687  0.851687  1
  Ho  Ho2  1  0.148313  0.148313  0.148313  1
  Ho  Ho3  1  0.050732  0.050732  0.050732  1
  Co  Co4  1  0.608540  0.608540  0.107972  1
  Co  Co5  1  0.892028  0.391460  0.391460  1
  Co  Co6  1  0.500000  0.000000  0.500000  1
  Co  Co7  1  0.391460  0.892028  0.391460  1
  Co  Co8  1  0.500000  0.500000  0.000000  1
  Co  Co9  1  0.107972  0.608540  0.608540  1
  Co  Co10  1  0.000000  0.500000  0.500000  1
  Co  Co11  1  0.391460  0.391460  0.892028  1
  Co  Co12  1  0.608540  0.107972  0.608540  1
  Si  Si13  1  0.278711  0.278711  0.278711  1
  Si  Si14  1  0.500000  0.500000  0.500000  1
  Si  Si15  1  0.387772  0.387772  0.387772  1
  Si  Si16  1  0.721289  0.721289  0.721289  1
  Si  Si17  1  0.612228  0.612228  0.612228  1
