# generated using pymatgen
data_Ho12Si12PdPt3
_symmetry_space_group_name_H-M   'P 1'
_cell_length_a   4.24347900
_cell_length_b   10.65069801
_cell_length_c   12.30635802
_cell_angle_alpha   90.00590979
_cell_angle_beta   90.00000000
_cell_angle_gamma   90.00000000
_symmetry_Int_Tables_number   1
_chemical_formula_structural   Ho12Si12PdPt3
_chemical_formula_sum   'Ho12 Si12 Pd1 Pt3'
_cell_volume   556.19831834
_cell_formula_units_Z   1
loop_
 _symmetry_equiv_pos_site_id
 _symmetry_equiv_pos_as_xyz
  1  'x, y, z'
loop_
 _atom_site_type_symbol
 _atom_site_label
 _atom_site_symmetry_multiplicity
 _atom_site_fract_x
 _atom_site_fract_y
 _atom_site_fract_z
 _atom_site_occupancy
  Ho  Ho0  1  0.250000  0.878619  0.020715  1
  Ho  Ho1  1  0.250000  0.621824  0.520833  1
  Ho  Ho2  1  0.750000  0.121147  0.979606  1
  Ho  Ho3  1  0.750000  0.378839  0.478479  1
  Ho  Ho4  1  0.250000  0.919390  0.601824  1
  Ho  Ho5  1  0.250000  0.580856  0.101717  1
  Ho  Ho6  1  0.750000  0.080540  0.398060  1
  Ho  Ho7  1  0.750000  0.419263  0.898965  1
  Ho  Ho8  1  0.250000  0.661145  0.801264  1
  Ho  Ho9  1  0.250000  0.839124  0.301028  1
  Ho  Ho10  1  0.750000  0.339476  0.198463  1
  Ho  Ho11  1  0.750000  0.159893  0.698686  1
  Si  Si12  1  0.250000  0.015489  0.822947  1
  Si  Si13  1  0.250000  0.484543  0.323188  1
  Si  Si14  1  0.750000  0.984407  0.177085  1
  Si  Si15  1  0.750000  0.517276  0.676831  1
  Si  Si16  1  0.250000  0.245502  0.844120  1
  Si  Si17  1  0.250000  0.254238  0.342997  1
  Si  Si18  1  0.750000  0.754312  0.156802  1
  Si  Si19  1  0.750000  0.746018  0.656851  1
  Si  Si20  1  0.250000  0.193342  0.540043  1
  Si  Si21  1  0.250000  0.305319  0.041053  1
  Si  Si22  1  0.750000  0.805786  0.458996  1
  Si  Si23  1  0.750000  0.694330  0.959131  1
  Pd  Pd24  1  0.250000  0.388985  0.681642  1
  Pt  Pt25  1  0.250000  0.110227  0.181449  1
  Pt  Pt26  1  0.750000  0.610468  0.318644  1
  Pt  Pt27  1  0.750000  0.889640  0.818580  1
