# generated using pymatgen
data_Yb2TcN3
_symmetry_space_group_name_H-M   'P 1'
_cell_length_a   5.94078739
_cell_length_b   5.94078723
_cell_length_c   11.80199041
_cell_angle_alpha   87.19093121
_cell_angle_beta   87.19093657
_cell_angle_gamma   127.47977699
_symmetry_Int_Tables_number   1
_chemical_formula_structural   Yb2TcN3
_chemical_formula_sum   'Yb8 Tc4 N12'
_cell_volume   328.50867913
_cell_formula_units_Z   4
loop_
 _symmetry_equiv_pos_site_id
 _symmetry_equiv_pos_as_xyz
  1  'x, y, z'
loop_
 _atom_site_type_symbol
 _atom_site_label
 _atom_site_symmetry_multiplicity
 _atom_site_fract_x
 _atom_site_fract_y
 _atom_site_fract_z
 _atom_site_occupancy
  Yb  Yb0  1  0.984906  0.577401  0.358355  1
  Yb  Yb1  1  0.422599  0.015094  0.141645  1
  Yb  Yb2  1  0.015094  0.422599  0.641645  1
  Yb  Yb3  1  0.577401  0.984906  0.858355  1
  Yb  Yb4  1  0.128747  0.349979  0.079300  1
  Yb  Yb5  1  0.650021  0.871253  0.420700  1
  Yb  Yb6  1  0.871253  0.650021  0.920700  1
  Yb  Yb7  1  0.349979  0.128747  0.579300  1
  Tc  Tc8  1  0.719053  0.706425  0.166850  1
  Tc  Tc9  1  0.293575  0.280947  0.333150  1
  Tc  Tc10  1  0.280947  0.293575  0.833150  1
  Tc  Tc11  1  0.706425  0.719053  0.666850  1
  N  N12  1  0.368659  0.631341  0.250000  1
  N  N13  1  0.631341  0.368659  0.750000  1
  N  N14  1  0.856166  0.510968  0.123500  1
  N  N15  1  0.489032  0.143834  0.376500  1
  N  N16  1  0.143834  0.489032  0.876500  1
  N  N17  1  0.510968  0.856166  0.623500  1
  N  N18  1  0.840185  0.652727  0.537004  1
  N  N19  1  0.347273  0.159815  0.962996  1
  N  N20  1  0.159815  0.347273  0.462996  1
  N  N21  1  0.652727  0.840185  0.037004  1
  N  N22  1  0.006817  0.993183  0.250000  1
  N  N23  1  0.993183  0.006817  0.750000  1
