# generated using pymatgen
data_ErBi3(Ir2O7)2
_symmetry_space_group_name_H-M   'P 1'
_cell_length_a   7.32105469
_cell_length_b   7.32105537
_cell_length_c   7.32105480
_cell_angle_alpha   60.25777264
_cell_angle_beta   60.25776868
_cell_angle_gamma   60.25777665
_symmetry_Int_Tables_number   1
_chemical_formula_structural   ErBi3(Ir2O7)2
_chemical_formula_sum   'Er1 Bi3 Ir4 O14'
_cell_volume   279.08252934
_cell_formula_units_Z   1
loop_
 _symmetry_equiv_pos_site_id
 _symmetry_equiv_pos_as_xyz
  1  'x, y, z'
loop_
 _atom_site_type_symbol
 _atom_site_label
 _atom_site_symmetry_multiplicity
 _atom_site_fract_x
 _atom_site_fract_y
 _atom_site_fract_z
 _atom_site_occupancy
  Er  Er0  1  0.125000  0.125000  0.125000  1
  Bi  Bi1  1  0.625000  0.125000  0.125000  1
  Bi  Bi2  1  0.125000  0.625000  0.125000  1
  Bi  Bi3  1  0.125000  0.125000  0.625000  1
  Ir  Ir4  1  0.125000  0.625000  0.625000  1
  Ir  Ir5  1  0.625000  0.125000  0.625000  1
  Ir  Ir6  1  0.625000  0.625000  0.125000  1
  Ir  Ir7  1  0.625000  0.625000  0.625000  1
  O  O8  1  0.706394  0.706394  0.293543  1
  O  O9  1  0.289142  0.289142  0.717986  1
  O  O10  1  0.706394  0.293543  0.706394  1
  O  O11  1  0.289142  0.717986  0.289142  1
  O  O12  1  0.293543  0.706394  0.706394  1
  O  O13  1  0.717986  0.289142  0.289142  1
  O  O14  1  0.543606  0.543606  0.956457  1
  O  O15  1  0.960858  0.960858  0.532014  1
  O  O16  1  0.543606  0.956457  0.543606  1
  O  O17  1  0.960858  0.532014  0.960858  1
  O  O18  1  0.956457  0.543606  0.543606  1
  O  O19  1  0.532014  0.960858  0.960858  1
  O  O20  1  0.246343  0.246343  0.246343  1
  O  O21  1  0.003657  0.003657  0.003657  1
