# generated using pymatgen
data_Tb15Pa(InOs)4
_symmetry_space_group_name_H-M   'P 1'
_cell_length_a   9.70846038
_cell_length_b   9.77382403
_cell_length_c   9.70847100
_cell_angle_alpha   60.21771155
_cell_angle_beta   59.99608961
_cell_angle_gamma   60.21789026
_symmetry_Int_Tables_number   1
_chemical_formula_structural   Tb15Pa(InOs)4
_chemical_formula_sum   'Tb15 Pa1 In4 Os4'
_cell_volume   653.52123506
_cell_formula_units_Z   1
loop_
 _symmetry_equiv_pos_site_id
 _symmetry_equiv_pos_as_xyz
  1  'x, y, z'
loop_
 _atom_site_type_symbol
 _atom_site_label
 _atom_site_symmetry_multiplicity
 _atom_site_fract_x
 _atom_site_fract_y
 _atom_site_fract_z
 _atom_site_occupancy
  Tb  Tb0  1  0.941904  0.939947  0.559107  1
  Tb  Tb1  1  0.942206  0.555548  0.942303  1
  Tb  Tb2  1  0.307397  0.691298  0.307228  1
  Tb  Tb3  1  0.941973  0.555670  0.560040  1
  Tb  Tb4  1  0.307026  0.308888  0.692003  1
  Tb  Tb5  1  0.098369  0.099629  0.098397  1
  Tb  Tb6  1  0.560048  0.555606  0.942009  1
  Tb  Tb7  1  0.098408  0.099718  0.703644  1
  Tb  Tb8  1  0.692052  0.308516  0.692093  1
  Tb  Tb9  1  0.693790  0.691250  0.307594  1
  Tb  Tb10  1  0.692064  0.308715  0.307210  1
  Tb  Tb11  1  0.307713  0.691218  0.693690  1
  Tb  Tb12  1  0.559109  0.940050  0.559186  1
  Tb  Tb13  1  0.703660  0.099725  0.098413  1
  Tb  Tb14  1  0.559107  0.939990  0.941888  1
  Pa  Pa15  1  0.089274  0.732050  0.089304  1
  In  In16  1  0.330530  0.336180  0.330479  1
  In  In17  1  0.002821  0.335675  0.330664  1
  In  In18  1  0.332210  0.003532  0.332032  1
  In  In19  1  0.330571  0.335890  0.002754  1
  Os  Os20  1  0.898168  0.880108  0.898170  1
  Os  Os21  1  0.898084  0.880051  0.323700  1
  Os  Os22  1  0.323673  0.879957  0.898274  1
  Os  Os23  1  0.889843  0.330786  0.889817  1
