# generated using pymatgen
data_Nd3Zn2CdPdPt2
_symmetry_space_group_name_H-M   'P 1'
_cell_length_a   7.59095470
_cell_length_b   7.59095432
_cell_length_c   3.94722900
_cell_angle_alpha   90.00000000
_cell_angle_beta   90.00000000
_cell_angle_gamma   119.28757505
_symmetry_Int_Tables_number   1
_chemical_formula_structural   Nd3Zn2CdPdPt2
_chemical_formula_sum   'Nd3 Zn2 Cd1 Pd1 Pt2'
_cell_volume   198.37590565
_cell_formula_units_Z   1
loop_
 _symmetry_equiv_pos_site_id
 _symmetry_equiv_pos_as_xyz
  1  'x, y, z'
loop_
 _atom_site_type_symbol
 _atom_site_label
 _atom_site_symmetry_multiplicity
 _atom_site_fract_x
 _atom_site_fract_y
 _atom_site_fract_z
 _atom_site_occupancy
  Nd  Nd0  1  0.589307  0.003567  0.000000  1
  Nd  Nd1  1  0.003567  0.589307  0.000000  1
  Nd  Nd2  1  0.400007  0.400007  0.000000  1
  Zn  Zn3  1  0.249791  0.998622  0.500000  1
  Zn  Zn4  1  0.998622  0.249791  0.500000  1
  Cd  Cd5  1  0.751807  0.751807  0.500000  1
  Pd  Pd6  1  0.015603  0.015603  0.000000  1
  Pt  Pt7  1  0.326310  0.664987  0.500000  1
  Pt  Pt8  1  0.664987  0.326310  0.500000  1
