# generated using pymatgen
data_Zn8Ni3AgRh4
_symmetry_space_group_name_H-M   'P 1'
_cell_length_a   5.91649230
_cell_length_b   5.90140166
_cell_length_c   6.17712999
_cell_angle_alpha   89.94726405
_cell_angle_beta   89.96451990
_cell_angle_gamma   89.98665932
_symmetry_Int_Tables_number   1
_chemical_formula_structural   Zn8Ni3AgRh4
_chemical_formula_sum   'Zn8 Ni3 Ag1 Rh4'
_cell_volume   215.67804548
_cell_formula_units_Z   1
loop_
 _symmetry_equiv_pos_site_id
 _symmetry_equiv_pos_as_xyz
  1  'x, y, z'
loop_
 _atom_site_type_symbol
 _atom_site_label
 _atom_site_symmetry_multiplicity
 _atom_site_fract_x
 _atom_site_fract_y
 _atom_site_fract_z
 _atom_site_occupancy
  Zn  Zn0  1  0.491603  0.508507  0.255937  1
  Zn  Zn1  1  0.491565  0.991510  0.255872  1
  Zn  Zn2  1  0.008336  0.508271  0.256788  1
  Zn  Zn3  1  0.008371  0.991738  0.256738  1
  Zn  Zn4  1  0.008410  0.508372  0.743143  1
  Zn  Zn5  1  0.008351  0.991604  0.743186  1
  Zn  Zn6  1  0.491477  0.508473  0.743987  1
  Zn  Zn7  1  0.491533  0.991489  0.744048  1
  Ni  Ni8  1  0.249523  0.749984  0.000046  1
  Ni  Ni9  1  0.750032  0.249936  0.500373  1
  Ni  Ni10  1  0.250129  0.750190  0.499983  1
  Ag  Ag11  1  0.750355  0.249836  0.999875  1
  Rh  Rh12  1  0.249718  0.250035  0.000019  1
  Rh  Rh13  1  0.750501  0.750029  0.000004  1
  Rh  Rh14  1  0.250541  0.250022  0.500009  1
  Rh  Rh15  1  0.749554  0.750001  0.499995  1
