# generated using pymatgen
data_Rb4Tm6SiCl18
_symmetry_space_group_name_H-M   'P 1'
_cell_length_a   10.77581161
_cell_length_b   10.77581146
_cell_length_c   10.46625400
_cell_angle_alpha   77.27071456
_cell_angle_beta   77.27070928
_cell_angle_gamma   117.63202431
_symmetry_Int_Tables_number   1
_chemical_formula_structural   Rb4Tm6SiCl18
_chemical_formula_sum   'Rb4 Tm6 Si1 Cl18'
_cell_volume   974.35007000
_cell_formula_units_Z   1
loop_
 _symmetry_equiv_pos_site_id
 _symmetry_equiv_pos_as_xyz
  1  'x, y, z'
loop_
 _atom_site_type_symbol
 _atom_site_label
 _atom_site_symmetry_multiplicity
 _atom_site_fract_x
 _atom_site_fract_y
 _atom_site_fract_z
 _atom_site_occupancy
  Rb  Rb0  1  0.768140  0.445481  0.684739  1
  Rb  Rb1  1  0.554519  0.231860  0.315261  1
  Rb  Rb2  1  0.231860  0.554519  0.315261  1
  Rb  Rb3  1  0.445481  0.768140  0.684739  1
  Tm  Tm4  1  0.141980  0.141980  0.165206  1
  Tm  Tm5  1  0.858020  0.858020  0.834794  1
  Tm  Tm6  1  0.940135  0.726884  0.172759  1
  Tm  Tm7  1  0.273116  0.059865  0.827241  1
  Tm  Tm8  1  0.059865  0.273116  0.827241  1
  Tm  Tm9  1  0.726884  0.940135  0.172759  1
  Si  Si10  1  0.000000  0.000000  0.000000  1
  Cl  Cl11  1  0.806507  0.600521  0.010696  1
  Cl  Cl12  1  0.399480  0.193493  0.989304  1
  Cl  Cl13  1  0.193493  0.399480  0.989304  1
  Cl  Cl14  1  0.600520  0.806507  0.010696  1
  Cl  Cl15  1  0.205203  0.794797  0.000000  1
  Cl  Cl16  1  0.794797  0.205203  0.000000  1
  Cl  Cl17  1  0.320586  0.320586  0.672839  1
  Cl  Cl18  1  0.679414  0.679414  0.327161  1
  Cl  Cl19  1  0.883177  0.475251  0.341509  1
  Cl  Cl20  1  0.524749  0.116823  0.658491  1
  Cl  Cl21  1  0.116823  0.524749  0.658491  1
  Cl  Cl22  1  0.475251  0.883177  0.341509  1
  Cl  Cl23  1  0.279030  0.279030  0.308853  1
  Cl  Cl24  1  0.720970  0.720970  0.691147  1
  Cl  Cl25  1  0.080138  0.874743  0.318111  1
  Cl  Cl26  1  0.125257  0.919862  0.681889  1
  Cl  Cl27  1  0.919862  0.125257  0.681889  1
  Cl  Cl28  1  0.874743  0.080138  0.318111  1
