# generated using pymatgen
data_TbHo2Sn3HgRh2
_symmetry_space_group_name_H-M   'P 1'
_cell_length_a   7.71543777
_cell_length_b   7.70749650
_cell_length_c   3.90564600
_cell_angle_alpha   90.00000000
_cell_angle_beta   90.00000000
_cell_angle_gamma   119.88223772
_symmetry_Int_Tables_number   1
_chemical_formula_structural   TbHo2Sn3HgRh2
_chemical_formula_sum   'Tb1 Ho2 Sn3 Hg1 Rh2'
_cell_volume   201.37778105
_cell_formula_units_Z   1
loop_
 _symmetry_equiv_pos_site_id
 _symmetry_equiv_pos_as_xyz
  1  'x, y, z'
loop_
 _atom_site_type_symbol
 _atom_site_label
 _atom_site_symmetry_multiplicity
 _atom_site_fract_x
 _atom_site_fract_y
 _atom_site_fract_z
 _atom_site_occupancy
  Tb  Tb0  1  0.020458  0.410797  0.000000  1
  Ho  Ho1  1  0.589387  0.610917  0.000000  1
  Ho  Ho2  1  0.389481  0.978666  0.000000  1
  Sn  Sn3  1  0.250904  0.257827  0.500000  1
  Sn  Sn4  1  0.007731  0.749731  0.500000  1
  Sn  Sn5  1  0.741353  0.991803  0.500000  1
  Hg  Hg6  1  0.665710  0.333140  0.500000  1
  Rh  Rh7  1  0.334893  0.667762  0.500000  1
  Rh  Rh8  1  0.000081  0.999358  0.000000  1
