# generated using pymatgen
data_HoEr6Cd(Co3Sn11)2
_symmetry_space_group_name_H-M   'P 1'
_cell_length_a   9.64855900
_cell_length_b   9.64855907
_cell_length_c   9.99367600
_cell_angle_alpha   90.00000000
_cell_angle_beta   90.00000000
_cell_angle_gamma   120.00000318
_symmetry_Int_Tables_number   1
_chemical_formula_structural   HoEr6Cd(Co3Sn11)2
_chemical_formula_sum   'Ho1 Er6 Cd1 Co6 Sn22'
_cell_volume   805.71379619
_cell_formula_units_Z   1
loop_
 _symmetry_equiv_pos_site_id
 _symmetry_equiv_pos_as_xyz
  1  'x, y, z'
loop_
 _atom_site_type_symbol
 _atom_site_label
 _atom_site_symmetry_multiplicity
 _atom_site_fract_x
 _atom_site_fract_y
 _atom_site_fract_z
 _atom_site_occupancy
  Ho  Ho0  1  0.000000  0.000000  0.000000  1
  Er  Er1  1  0.479529  0.520471  0.305981  1
  Er  Er2  1  0.520471  0.479529  0.694019  1
  Er  Er3  1  0.479529  0.959060  0.305981  1
  Er  Er4  1  0.520471  0.040940  0.694019  1
  Er  Er5  1  0.040940  0.520471  0.305981  1
  Er  Er6  1  0.959060  0.479529  0.694019  1
  Cd  Cd7  1  0.000000  0.000000  0.500000  1
  Co  Co8  1  0.831821  0.168179  0.197198  1
  Co  Co9  1  0.168179  0.831821  0.802802  1
  Co  Co10  1  0.831821  0.663644  0.197198  1
  Co  Co11  1  0.168179  0.336356  0.802802  1
  Co  Co12  1  0.336356  0.168179  0.197198  1
  Co  Co13  1  0.663644  0.831821  0.802802  1
  Sn  Sn14  1  0.116848  0.883152  0.271573  1
  Sn  Sn15  1  0.883152  0.116848  0.728427  1
  Sn  Sn16  1  0.116848  0.233697  0.271573  1
  Sn  Sn17  1  0.883152  0.766303  0.728427  1
  Sn  Sn18  1  0.766303  0.883152  0.271573  1
  Sn  Sn19  1  0.233697  0.116848  0.728427  1
  Sn  Sn20  1  0.781953  0.218047  0.453722  1
  Sn  Sn21  1  0.218047  0.781953  0.546278  1
  Sn  Sn22  1  0.781953  0.563905  0.453722  1
  Sn  Sn23  1  0.218047  0.436095  0.546278  1
  Sn  Sn24  1  0.436095  0.218047  0.453722  1
  Sn  Sn25  1  0.563905  0.781953  0.546278  1
  Sn  Sn26  1  0.346178  0.000000  0.000000  1
  Sn  Sn27  1  0.653822  0.000000  0.000000  1
  Sn  Sn28  1  0.000000  0.346178  0.000000  1
  Sn  Sn29  1  0.000000  0.653822  0.000000  1
  Sn  Sn30  1  0.653822  0.653822  0.000000  1
  Sn  Sn31  1  0.346178  0.346178  0.000000  1
  Sn  Sn32  1  0.333333  0.666667  0.120918  1
  Sn  Sn33  1  0.666667  0.333333  0.879082  1
  Sn  Sn34  1  0.333333  0.666667  0.818634  1
  Sn  Sn35  1  0.666667  0.333333  0.181366  1
