# generated using pymatgen
data_HoEr9Sn5Bi
_symmetry_space_group_name_H-M   'P 1'
_cell_length_a   8.92687598
_cell_length_b   8.91705109
_cell_length_c   6.47933500
_cell_angle_alpha   90.00000000
_cell_angle_beta   90.00000000
_cell_angle_gamma   119.84876427
_symmetry_Int_Tables_number   1
_chemical_formula_structural   HoEr9Sn5Bi
_chemical_formula_sum   'Ho1 Er9 Sn5 Bi1'
_cell_volume   447.34403568
_cell_formula_units_Z   1
loop_
 _symmetry_equiv_pos_site_id
 _symmetry_equiv_pos_as_xyz
  1  'x, y, z'
loop_
 _atom_site_type_symbol
 _atom_site_label
 _atom_site_symmetry_multiplicity
 _atom_site_fract_x
 _atom_site_fract_y
 _atom_site_fract_z
 _atom_site_occupancy
  Ho  Ho0  1  0.993649  0.757974  0.750000  1
  Er  Er1  1  0.000630  0.238732  0.250000  1
  Er  Er2  1  0.761626  0.761119  0.250000  1
  Er  Er3  1  0.765083  0.999954  0.750000  1
  Er  Er4  1  0.235934  0.242502  0.750000  1
  Er  Er5  1  0.237598  0.000122  0.250000  1
  Er  Er6  1  0.332455  0.662236  0.498260  1
  Er  Er7  1  0.670916  0.337682  0.001823  1
  Er  Er8  1  0.670916  0.337682  0.498177  1
  Er  Er9  1  0.332455  0.662236  0.001740  1
  Sn  Sn10  1  0.395170  0.392808  0.250000  1
  Sn  Sn11  1  0.002548  0.606729  0.250000  1
  Sn  Sn12  1  0.999059  0.395755  0.750000  1
  Sn  Sn13  1  0.603516  0.604441  0.750000  1
  Sn  Sn14  1  0.605480  0.000123  0.250000  1
  Bi  Bi15  1  0.392961  0.999903  0.750000  1
