# generated using pymatgen
data_Mn3Se2(O3F)2
_symmetry_space_group_name_H-M   'P 1'
_cell_length_a   6.48590338
_cell_length_b   8.67992885
_cell_length_c   8.55240405
_cell_angle_alpha   96.00586494
_cell_angle_beta   104.79551244
_cell_angle_gamma   94.20386877
_symmetry_Int_Tables_number   1
_chemical_formula_structural   Mn3Se2(O3F)2
_chemical_formula_sum   'Mn6 Se4 O12 F4'
_cell_volume   460.44525752
_cell_formula_units_Z   2
loop_
 _symmetry_equiv_pos_site_id
 _symmetry_equiv_pos_as_xyz
  1  'x, y, z'
loop_
 _atom_site_type_symbol
 _atom_site_label
 _atom_site_symmetry_multiplicity
 _atom_site_fract_x
 _atom_site_fract_y
 _atom_site_fract_z
 _atom_site_occupancy
  Mn  Mn0  1  0.614211  0.846923  0.937838  1
  Mn  Mn1  1  0.900031  0.573502  0.141857  1
  Mn  Mn2  1  0.385789  0.153077  0.062162  1
  Mn  Mn3  1  0.676599  0.384215  0.434306  1
  Mn  Mn4  1  0.099969  0.426498  0.858143  1
  Mn  Mn5  1  0.323401  0.615785  0.565694  1
  Se  Se6  1  0.065793  0.821561  0.818104  1
  Se  Se7  1  0.934207  0.178439  0.181896  1
  Se  Se8  1  0.418120  0.691967  0.222671  1
  Se  Se9  1  0.581880  0.308033  0.777329  1
  O  O10  1  0.304620  0.913732  0.952201  1
  O  O11  1  0.479829  0.412627  0.617974  1
  O  O12  1  0.215449  0.558216  0.100569  1
  O  O13  1  0.695380  0.086268  0.047799  1
  O  O14  1  0.847579  0.355518  0.241359  1
  O  O15  1  0.075195  0.220599  0.044141  1
  O  O16  1  0.520171  0.587373  0.382026  1
  O  O17  1  0.615075  0.687741  0.117028  1
  O  O18  1  0.784551  0.441784  0.899431  1
  O  O19  1  0.152421  0.644482  0.758641  1
  O  O20  1  0.384925  0.312259  0.882972  1
  O  O21  1  0.924805  0.779401  0.955859  1
  F  F22  1  0.929186  0.333912  0.616841  1
  F  F23  1  0.070814  0.666088  0.383159  1
  F  F24  1  0.522478  0.810896  0.687572  1
  F  F25  1  0.477522  0.189104  0.312428  1
