# generated using pymatgen
data_HfScInAu2
_symmetry_space_group_name_H-M   'P 1'
_cell_length_a   7.60494331
_cell_length_b   7.60494331
_cell_length_c   7.10172000
_cell_angle_alpha   90.00000000
_cell_angle_beta   90.00000000
_cell_angle_gamma   89.93266094
_symmetry_Int_Tables_number   1
_chemical_formula_structural   HfScInAu2
_chemical_formula_sum   'Hf4 Sc4 In4 Au8'
_cell_volume   410.72884866
_cell_formula_units_Z   4
loop_
 _symmetry_equiv_pos_site_id
 _symmetry_equiv_pos_as_xyz
  1  'x, y, z'
loop_
 _atom_site_type_symbol
 _atom_site_label
 _atom_site_symmetry_multiplicity
 _atom_site_fract_x
 _atom_site_fract_y
 _atom_site_fract_z
 _atom_site_occupancy
  Hf  Hf0  1  0.142265  0.147487  0.000000  1
  Hf  Hf1  1  0.852513  0.857735  0.000000  1
  Hf  Hf2  1  0.643592  0.356408  0.500000  1
  Hf  Hf3  1  0.687230  0.312770  0.000000  1
  Sc  Sc4  1  0.351507  0.648493  0.500000  1
  Sc  Sc5  1  0.313677  0.686323  0.000000  1
  Sc  Sc6  1  0.816065  0.810643  0.500000  1
  Sc  Sc7  1  0.189357  0.183935  0.500000  1
  In  In8  1  0.499588  0.997683  0.246684  1
  In  In9  1  0.499588  0.997683  0.753316  1
  In  In10  1  0.002317  0.500412  0.246684  1
  In  In11  1  0.002317  0.500412  0.753316  1
  Au  Au12  1  0.369205  0.366335  0.211175  1
  Au  Au13  1  0.633665  0.630795  0.788825  1
  Au  Au14  1  0.633665  0.630795  0.211175  1
  Au  Au15  1  0.866554  0.133446  0.709026  1
  Au  Au16  1  0.866554  0.133446  0.290974  1
  Au  Au17  1  0.369205  0.366335  0.788825  1
  Au  Au18  1  0.130567  0.869433  0.285954  1
  Au  Au19  1  0.130567  0.869433  0.714046  1
