# generated using pymatgen
data_Hf18Re8RuSe
_symmetry_space_group_name_H-M   'P 1'
_cell_length_a   8.62189700
_cell_length_b   8.62189740
_cell_length_c   8.60016300
_cell_angle_alpha   90.00000000
_cell_angle_beta   90.00000000
_cell_angle_gamma   120.00000232
_symmetry_Int_Tables_number   1
_chemical_formula_structural   Hf18Re8RuSe
_chemical_formula_sum   'Hf18 Re8 Ru1 Se1'
_cell_volume   553.65979138
_cell_formula_units_Z   1
loop_
 _symmetry_equiv_pos_site_id
 _symmetry_equiv_pos_as_xyz
  1  'x, y, z'
loop_
 _atom_site_type_symbol
 _atom_site_label
 _atom_site_symmetry_multiplicity
 _atom_site_fract_x
 _atom_site_fract_y
 _atom_site_fract_z
 _atom_site_occupancy
  Hf  Hf0  1  0.196473  0.803527  0.445252  1
  Hf  Hf1  1  0.196473  0.392945  0.445252  1
  Hf  Hf2  1  0.607055  0.803527  0.445252  1
  Hf  Hf3  1  0.808333  0.191667  0.548062  1
  Hf  Hf4  1  0.808333  0.616666  0.548062  1
  Hf  Hf5  1  0.383334  0.191667  0.548062  1
  Hf  Hf6  1  0.808333  0.191667  0.951938  1
  Hf  Hf7  1  0.808333  0.616666  0.951938  1
  Hf  Hf8  1  0.383334  0.191667  0.951938  1
  Hf  Hf9  1  0.196473  0.803527  0.054748  1
  Hf  Hf10  1  0.196473  0.392945  0.054748  1
  Hf  Hf11  1  0.607055  0.803527  0.054748  1
  Hf  Hf12  1  0.541753  0.458247  0.250000  1
  Hf  Hf13  1  0.541753  0.083507  0.250000  1
  Hf  Hf14  1  0.916493  0.458247  0.250000  1
  Hf  Hf15  1  0.455818  0.544182  0.750000  1
  Hf  Hf16  1  0.455818  0.911635  0.750000  1
  Hf  Hf17  1  0.088365  0.544182  0.750000  1
  Re  Re18  1  0.889378  0.110622  0.250000  1
  Re  Re19  1  0.889378  0.778756  0.250000  1
  Re  Re20  1  0.221244  0.110622  0.250000  1
  Re  Re21  1  0.110338  0.889662  0.750000  1
  Re  Re22  1  0.110338  0.220676  0.750000  1
  Re  Re23  1  0.779324  0.889662  0.750000  1
  Re  Re24  1  0.000000  0.000000  0.499292  1
  Re  Re25  1  0.000000  0.000000  0.000708  1
  Ru  Ru26  1  0.333333  0.666667  0.250000  1
  Se  Se27  1  0.666667  0.333333  0.750000  1
