# generated using pymatgen
data_Sm2Al3Tc
_symmetry_space_group_name_H-M   'P 1'
_cell_length_a   5.63135600
_cell_length_b   5.63135519
_cell_length_c   8.95812000
_cell_angle_alpha   90.00000000
_cell_angle_beta   90.00000000
_cell_angle_gamma   119.99999299
_symmetry_Int_Tables_number   1
_chemical_formula_structural   Sm2Al3Tc
_chemical_formula_sum   'Sm4 Al6 Tc2'
_cell_volume   246.02171545
_cell_formula_units_Z   2
loop_
 _symmetry_equiv_pos_site_id
 _symmetry_equiv_pos_as_xyz
  1  'x, y, z'
loop_
 _atom_site_type_symbol
 _atom_site_label
 _atom_site_symmetry_multiplicity
 _atom_site_fract_x
 _atom_site_fract_y
 _atom_site_fract_z
 _atom_site_occupancy
  Sm  Sm0  1  0.666667  0.333333  0.051483  1
  Sm  Sm1  1  0.666667  0.333333  0.448518  1
  Sm  Sm2  1  0.333333  0.666666  0.551483  1
  Sm  Sm3  1  0.333333  0.666666  0.948517  1
  Al  Al4  1  0.160444  0.320891  0.250000  1
  Al  Al5  1  0.160445  0.839556  0.250000  1
  Al  Al6  1  0.679109  0.839556  0.250000  1
  Al  Al7  1  0.320890  0.160443  0.750000  1
  Al  Al8  1  0.839555  0.160443  0.750000  1
  Al  Al9  1  0.839556  0.679108  0.750000  1
  Tc  Tc10  1  0.000000  0.000000  0.000000  1
  Tc  Tc11  1  0.000000  0.000000  0.500000  1
