# generated using pymatgen
data_Cd3Co(BrO3)8
_symmetry_space_group_name_H-M   'P 1'
_cell_length_a   5.78784102
_cell_length_b   10.93961756
_cell_length_c   11.02873134
_cell_angle_alpha   119.32229617
_cell_angle_beta   89.87687054
_cell_angle_gamma   90.50917897
_symmetry_Int_Tables_number   1
_chemical_formula_structural   Cd3Co(BrO3)8
_chemical_formula_sum   'Cd3 Co1 Br8 O24'
_cell_volume   608.81011023
_cell_formula_units_Z   1
loop_
 _symmetry_equiv_pos_site_id
 _symmetry_equiv_pos_as_xyz
  1  'x, y, z'
loop_
 _atom_site_type_symbol
 _atom_site_label
 _atom_site_symmetry_multiplicity
 _atom_site_fract_x
 _atom_site_fract_y
 _atom_site_fract_z
 _atom_site_occupancy
  Cd  Cd0  1  0.643116  0.236363  0.491974  1
  Cd  Cd1  1  0.142761  0.267285  0.008573  1
  Cd  Cd2  1  0.636626  0.730613  0.994400  1
  Co  Co3  1  0.148204  0.763251  0.509462  1
  Br  Br4  1  0.262853  0.426619  0.356765  1
  Br  Br5  1  0.777553  0.590104  0.648748  1
  Br  Br6  1  0.262185  0.915160  0.842437  1
  Br  Br7  1  0.759495  0.081647  0.146627  1
  Br  Br8  1  0.792366  0.072086  0.678850  1
  Br  Br9  1  0.274853  0.905612  0.315270  1
  Br  Br10  1  0.280311  0.412251  0.804459  1
  Br  Br11  1  0.789675  0.592518  0.205685  1
  O  O12  1  0.420602  0.885101  0.953001  1
  O  O13  1  0.913886  0.104768  0.029753  1
  O  O14  1  0.362667  0.801481  0.680629  1
  O  O15  1  0.869386  0.200078  0.303760  1
  O  O16  1  0.376572  0.314772  0.198868  1
  O  O17  1  0.882321  0.701256  0.809529  1
  O  O18  1  0.915926  0.215319  0.812346  1
  O  O19  1  0.415460  0.768139  0.186376  1
  O  O20  1  0.942764  0.930550  0.658144  1
  O  O21  1  0.413320  0.050492  0.334031  1
  O  O22  1  0.367806  0.072786  0.872057  1
  O  O23  1  0.859160  0.927343  0.126141  1
  O  O24  1  0.410541  0.269960  0.676545  1
  O  O25  1  0.934959  0.728555  0.336579  1
  O  O26  1  0.353511  0.409705  0.951939  1
  O  O27  1  0.863118  0.602424  0.061634  1
  O  O28  1  0.426754  0.553072  0.818179  1
  O  O29  1  0.918005  0.443737  0.180557  1
  O  O30  1  0.349760  0.586810  0.382426  1
  O  O31  1  0.876745  0.432190  0.619607  1
  O  O32  1  0.426795  0.403214  0.469745  1
  O  O33  1  0.935291  0.620485  0.536409  1
  O  O34  1  0.861308  0.088282  0.537806  1
  O  O35  1  0.342947  0.895978  0.460686  1
