# generated using pymatgen
data_Tm8Ti9Si16W3
_symmetry_space_group_name_H-M   'P 1'
_cell_length_a   6.95624719
_cell_length_b   6.95624787
_cell_length_c   12.79201811
_cell_angle_alpha   90.01850883
_cell_angle_beta   89.98149205
_cell_angle_gamma   89.95941313
_symmetry_Int_Tables_number   1
_chemical_formula_structural   Tm8Ti9Si16W3
_chemical_formula_sum   'Tm8 Ti9 Si16 W3'
_cell_volume   618.99760090
_cell_formula_units_Z   1
loop_
 _symmetry_equiv_pos_site_id
 _symmetry_equiv_pos_as_xyz
  1  'x, y, z'
loop_
 _atom_site_type_symbol
 _atom_site_label
 _atom_site_symmetry_multiplicity
 _atom_site_fract_x
 _atom_site_fract_y
 _atom_site_fract_z
 _atom_site_occupancy
  Tm  Tm0  1  0.340800  0.001887  0.466690  1
  Tm  Tm1  1  0.498754  0.842123  0.718143  1
  Tm  Tm2  1  0.500181  0.158115  0.216727  1
  Tm  Tm3  1  0.842123  0.498754  0.281857  1
  Tm  Tm4  1  0.158115  0.500181  0.783273  1
  Tm  Tm5  1  0.658979  0.999750  0.967103  1
  Tm  Tm6  1  0.001887  0.340800  0.533310  1
  Tm  Tm7  1  0.999750  0.658979  0.032897  1
  Ti  Ti8  1  0.672519  0.672519  0.500000  1
  Ti  Ti9  1  0.151961  0.008127  0.875716  1
  Ti  Ti10  1  0.491813  0.652413  0.124777  1
  Ti  Ti11  1  0.507004  0.347155  0.626765  1
  Ti  Ti12  1  0.652413  0.491813  0.875223  1
  Ti  Ti13  1  0.347155  0.507004  0.373235  1
  Ti  Ti14  1  0.849095  0.992496  0.374397  1
  Ti  Ti15  1  0.008127  0.151961  0.124284  1
  Ti  Ti16  1  0.992496  0.849095  0.625603  1
  Si  Si17  1  0.202277  0.131298  0.683418  1
  Si  Si18  1  0.368224  0.701366  0.933396  1
  Si  Si19  1  0.631887  0.297032  0.433412  1
  Si  Si20  1  0.701366  0.368224  0.066604  1
  Si  Si21  1  0.297032  0.631887  0.566588  1
  Si  Si22  1  0.798258  0.868436  0.183764  1
  Si  Si23  1  0.131298  0.202277  0.316582  1
  Si  Si24  1  0.868436  0.798258  0.816236  1
  Si  Si25  1  0.292629  0.953581  0.064977  1
  Si  Si26  1  0.545900  0.791872  0.314975  1
  Si  Si27  1  0.453118  0.207744  0.815416  1
  Si  Si28  1  0.791872  0.545900  0.685025  1
  Si  Si29  1  0.207744  0.453118  0.184584  1
  Si  Si30  1  0.707186  0.047729  0.565874  1
  Si  Si31  1  0.953581  0.292629  0.935023  1
  Si  Si32  1  0.047729  0.707186  0.434126  1
  W  W33  1  0.327241  0.327241  0.000000  1
  W  W34  1  0.173438  0.827616  0.249252  1
  W  W35  1  0.827616  0.173438  0.750748  1
