# generated using pymatgen
data_Sr2GaNiI
_symmetry_space_group_name_H-M   'P 1'
_cell_length_a   4.32874400
_cell_length_b   4.32874463
_cell_length_c   18.48762500
_cell_angle_alpha   90.00000000
_cell_angle_beta   90.00000000
_cell_angle_gamma   119.99999517
_symmetry_Int_Tables_number   1
_chemical_formula_structural   Sr2GaNiI
_chemical_formula_sum   'Sr4 Ga2 Ni2 I2'
_cell_volume   300.00994047
_cell_formula_units_Z   2
loop_
 _symmetry_equiv_pos_site_id
 _symmetry_equiv_pos_as_xyz
  1  'x, y, z'
loop_
 _atom_site_type_symbol
 _atom_site_label
 _atom_site_symmetry_multiplicity
 _atom_site_fract_x
 _atom_site_fract_y
 _atom_site_fract_z
 _atom_site_occupancy
  Sr  Sr0  1  0.000000  0.000000  0.611749  1
  Sr  Sr1  1  0.000000  0.000000  0.389275  1
  Sr  Sr2  1  0.000000  0.000000  0.111749  1
  Sr  Sr3  1  0.000000  0.000000  0.889275  1
  Ga  Ga4  1  0.666667  0.333333  0.501124  1
  Ga  Ga5  1  0.333333  0.666667  0.001124  1
  Ni  Ni6  1  0.666667  0.333333  0.998618  1
  Ni  Ni7  1  0.333333  0.666667  0.498618  1
  I  I8  1  0.666667  0.333333  0.249234  1
  I  I9  1  0.333333  0.666667  0.749234  1
