# generated using pymatgen
data_Tb3Ce4Er3Ru4
_symmetry_space_group_name_H-M   'P 1'
_cell_length_a   6.40517000
_cell_length_b   7.03097980
_cell_length_c   8.85432653
_cell_angle_alpha   95.43194240
_cell_angle_beta   111.07079817
_cell_angle_gamma   89.83933261
_symmetry_Int_Tables_number   1
_chemical_formula_structural   Tb3Ce4Er3Ru4
_chemical_formula_sum   'Tb3 Ce4 Er3 Ru4'
_cell_volume   370.20918943
_cell_formula_units_Z   1
loop_
 _symmetry_equiv_pos_site_id
 _symmetry_equiv_pos_as_xyz
  1  'x, y, z'
loop_
 _atom_site_type_symbol
 _atom_site_label
 _atom_site_symmetry_multiplicity
 _atom_site_fract_x
 _atom_site_fract_y
 _atom_site_fract_z
 _atom_site_occupancy
  Tb  Tb0  1  0.209500  0.683664  0.567416  1
  Tb  Tb1  1  0.641389  0.816120  0.432252  1
  Tb  Tb2  1  0.791040  0.316198  0.432714  1
  Ce  Ce3  1  0.793497  0.595762  0.811264  1
  Ce  Ce4  1  0.982122  0.904711  0.188068  1
  Ce  Ce5  1  0.205458  0.404710  0.189116  1
  Ce  Ce6  1  0.018459  0.095521  0.811287  1
  Er  Er7  1  0.359820  0.183949  0.569255  1
  Er  Er8  1  0.421105  0.749413  0.999825  1
  Er  Er9  1  0.577961  0.250594  0.999744  1
  Ru  Ru10  1  0.630689  0.907845  0.783781  1
  Ru  Ru11  1  0.847380  0.593712  0.217464  1
  Ru  Ru12  1  0.368692  0.093200  0.218524  1
  Ru  Ru13  1  0.152888  0.404601  0.779291  1
