# generated using pymatgen
data_V5Te7Se
_symmetry_space_group_name_H-M   'P 1'
_cell_length_a   7.39357983
_cell_length_b   7.39358003
_cell_length_c   8.96368714
_cell_angle_alpha   54.55725612
_cell_angle_beta   54.55725396
_cell_angle_gamma   63.85256690
_symmetry_Int_Tables_number   1
_chemical_formula_structural   V5Te7Se
_chemical_formula_sum   'V5 Te7 Se1'
_cell_volume   321.17782074
_cell_formula_units_Z   1
loop_
 _symmetry_equiv_pos_site_id
 _symmetry_equiv_pos_as_xyz
  1  'x, y, z'
loop_
 _atom_site_type_symbol
 _atom_site_label
 _atom_site_symmetry_multiplicity
 _atom_site_fract_x
 _atom_site_fract_y
 _atom_site_fract_z
 _atom_site_occupancy
  V  V0  1  0.999180  0.999180  0.002692  1
  V  V1  1  0.718792  0.718792  0.048971  1
  V  V2  1  0.288239  0.288239  0.942213  1
  V  V3  1  0.707494  0.293545  0.504423  1
  V  V4  1  0.293545  0.707494  0.504423  1
  Te  Te5  1  0.539363  0.047116  0.167499  1
  Te  Te6  1  0.462241  0.952324  0.831911  1
  Te  Te7  1  0.952324  0.462241  0.831911  1
  Te  Te8  1  0.047116  0.539363  0.167499  1
  Te  Te9  1  0.990503  0.990503  0.318631  1
  Te  Te10  1  0.014998  0.014998  0.680211  1
  Te  Te11  1  0.430616  0.430616  0.345161  1
  Se  Se12  1  0.555588  0.555588  0.654454  1
