# generated using pymatgen
data_Te12OsPtBr6
_symmetry_space_group_name_H-M   'P 1'
_cell_length_a   9.80528901
_cell_length_b   9.80528856
_cell_length_c   9.80528877
_cell_angle_alpha   109.02795342
_cell_angle_beta   109.02795594
_cell_angle_gamma   109.02796193
_symmetry_Int_Tables_number   1
_chemical_formula_structural   Te12OsPtBr6
_chemical_formula_sum   'Te12 Os1 Pt1 Br6'
_cell_volume   737.37291116
_cell_formula_units_Z   1
loop_
 _symmetry_equiv_pos_site_id
 _symmetry_equiv_pos_as_xyz
  1  'x, y, z'
loop_
 _atom_site_type_symbol
 _atom_site_label
 _atom_site_symmetry_multiplicity
 _atom_site_fract_x
 _atom_site_fract_y
 _atom_site_fract_z
 _atom_site_occupancy
  Te  Te0  1  0.938928  0.169319  0.182490  1
  Te  Te1  1  0.182490  0.938928  0.169319  1
  Te  Te2  1  0.169319  0.182490  0.938928  1
  Te  Te3  1  0.685057  0.667531  0.433229  1
  Te  Te4  1  0.433229  0.685057  0.667531  1
  Te  Te5  1  0.667531  0.433229  0.685057  1
  Te  Te6  1  0.066771  0.832469  0.814943  1
  Te  Te7  1  0.814943  0.066771  0.832469  1
  Te  Te8  1  0.832469  0.814943  0.066771  1
  Te  Te9  1  0.317510  0.330681  0.561072  1
  Te  Te10  1  0.561072  0.317510  0.330681  1
  Te  Te11  1  0.330681  0.561072  0.317510  1
  Os  Os12  1  0.250000  0.250000  0.250000  1
  Pt  Pt13  1  0.750000  0.750000  0.750000  1
  Br  Br14  1  0.996192  0.503808  0.250000  1
  Br  Br15  1  0.250000  0.996192  0.503808  1
  Br  Br16  1  0.503808  0.250000  0.996192  1
  Br  Br17  1  0.750000  0.001775  0.498225  1
  Br  Br18  1  0.498225  0.750000  0.001775  1
  Br  Br19  1  0.001775  0.498225  0.750000  1
