# generated using pymatgen
data_Ba6TbPd4O15
_symmetry_space_group_name_H-M   'P 1'
_cell_length_a   7.47376678
_cell_length_b   7.60750698
_cell_length_c   7.54509343
_cell_angle_alpha   85.13546609
_cell_angle_beta   86.01626132
_cell_angle_gamma   86.29446088
_symmetry_Int_Tables_number   1
_chemical_formula_structural   Ba6TbPd4O15
_chemical_formula_sum   'Ba6 Tb1 Pd4 O15'
_cell_volume   425.66619601
_cell_formula_units_Z   1
loop_
 _symmetry_equiv_pos_site_id
 _symmetry_equiv_pos_as_xyz
  1  'x, y, z'
loop_
 _atom_site_type_symbol
 _atom_site_label
 _atom_site_symmetry_multiplicity
 _atom_site_fract_x
 _atom_site_fract_y
 _atom_site_fract_z
 _atom_site_occupancy
  Ba  Ba0  1  0.328836  0.668041  0.995380  1
  Ba  Ba1  1  0.998342  0.324442  0.669345  1
  Ba  Ba2  1  0.670089  0.003478  0.331846  1
  Ba  Ba3  1  0.135124  0.852393  0.501277  1
  Ba  Ba4  1  0.503754  0.138077  0.859936  1
  Ba  Ba5  1  0.859305  0.502362  0.135695  1
  Tb  Tb6  1  0.498661  0.502408  0.499196  1
  Pd  Pd7  1  0.295453  0.293917  0.295065  1
  Pd  Pd8  1  0.707996  0.701441  0.704729  1
  Pd  Pd9  1  0.096229  0.101834  0.098683  1
  Pd  Pd10  1  0.901286  0.902793  0.905057  1
  O  O11  1  0.151641  0.005281  0.854277  1
  O  O12  1  0.851241  0.177044  0.010233  1
  O  O13  1  0.997157  0.858942  0.156558  1
  O  O14  1  0.037178  0.200011  0.343068  1
  O  O15  1  0.344436  0.038874  0.204255  1
  O  O16  1  0.205822  0.342146  0.037214  1
  O  O17  1  0.798699  0.958391  0.655791  1
  O  O18  1  0.656454  0.791084  0.962015  1
  O  O19  1  0.968233  0.636402  0.786141  1
  O  O20  1  0.374524  0.233094  0.547886  1
  O  O21  1  0.546770  0.375689  0.232919  1
  O  O22  1  0.229954  0.544296  0.367409  1
  O  O23  1  0.767606  0.629416  0.451073  1
  O  O24  1  0.451208  0.766341  0.627770  1
  O  O25  1  0.624004  0.451801  0.767183  1
