# generated using pymatgen
data_Hf8TaNi2Rh
_symmetry_space_group_name_H-M   'P 1'
_cell_length_a   8.70797776
_cell_length_b   8.70797633
_cell_length_c   8.61186500
_cell_angle_alpha   60.36445097
_cell_angle_beta   60.36445631
_cell_angle_gamma   60.44950246
_symmetry_Int_Tables_number   1
_chemical_formula_structural   Hf8TaNi2Rh
_chemical_formula_sum   'Hf16 Ta2 Ni4 Rh2'
_cell_volume   465.86186056
_cell_formula_units_Z   2
loop_
 _symmetry_equiv_pos_site_id
 _symmetry_equiv_pos_as_xyz
  1  'x, y, z'
loop_
 _atom_site_type_symbol
 _atom_site_label
 _atom_site_symmetry_multiplicity
 _atom_site_fract_x
 _atom_site_fract_y
 _atom_site_fract_z
 _atom_site_occupancy
  Hf  Hf0  1  0.690755  0.103885  0.102679  1
  Hf  Hf1  1  0.103885  0.690755  0.102679  1
  Hf  Hf2  1  0.100843  0.100843  0.695757  1
  Hf  Hf3  1  0.100843  0.100843  0.102556  1
  Hf  Hf4  1  0.315549  0.315549  0.684451  1
  Hf  Hf5  1  0.685789  0.685789  0.314211  1
  Hf  Hf6  1  0.316706  0.687416  0.314803  1
  Hf  Hf7  1  0.687416  0.316706  0.681074  1
  Hf  Hf8  1  0.687416  0.316706  0.314803  1
  Hf  Hf9  1  0.316706  0.687416  0.681074  1
  Hf  Hf10  1  0.953997  0.953997  0.546003  1
  Hf  Hf11  1  0.547254  0.547254  0.952746  1
  Hf  Hf12  1  0.946697  0.551434  0.948699  1
  Hf  Hf13  1  0.551434  0.946697  0.553172  1
  Hf  Hf14  1  0.551434  0.946697  0.948699  1
  Hf  Hf15  1  0.946697  0.551434  0.553172  1
  Ta  Ta16  1  0.003930  0.333256  0.331406  1
  Ta  Ta17  1  0.333256  0.003930  0.331406  1
  Ni  Ni18  1  0.324598  0.887239  0.894081  1
  Ni  Ni19  1  0.887239  0.324598  0.894081  1
  Ni  Ni20  1  0.890271  0.890271  0.323650  1
  Ni  Ni21  1  0.890271  0.890271  0.895808  1
  Rh  Rh22  1  0.333506  0.333506  0.993225  1
  Rh  Rh23  1  0.333506  0.333506  0.339762  1
