# generated using pymatgen
data_La2SmBe2(PPd5)4
_symmetry_space_group_name_H-M   'P 1'
_cell_length_a   8.76603246
_cell_length_b   8.67462198
_cell_length_c   8.67462245
_cell_angle_alpha   60.69840341
_cell_angle_beta   59.65079899
_cell_angle_gamma   59.65080363
_symmetry_Int_Tables_number   1
_chemical_formula_structural   La2SmBe2(PPd5)4
_chemical_formula_sum   'La2 Sm1 Be2 P4 Pd20'
_cell_volume   466.32827068
_cell_formula_units_Z   1
loop_
 _symmetry_equiv_pos_site_id
 _symmetry_equiv_pos_as_xyz
  1  'x, y, z'
loop_
 _atom_site_type_symbol
 _atom_site_label
 _atom_site_symmetry_multiplicity
 _atom_site_fract_x
 _atom_site_fract_y
 _atom_site_fract_z
 _atom_site_occupancy
  La  La0  1  0.250000  0.250000  0.250000  1
  La  La1  1  0.750000  0.750000  0.750000  1
  Sm  Sm2  1  0.000000  0.000000  0.000000  1
  Be  Be3  1  0.733055  0.266945  0.266945  1
  Be  Be4  1  0.266945  0.733055  0.733055  1
  P  P5  1  0.266114  0.733886  0.266114  1
  P  P6  1  0.733886  0.266114  0.733886  1
  P  P7  1  0.266114  0.266114  0.733886  1
  P  P8  1  0.733886  0.733886  0.266114  1
  Pd  Pd9  1  0.389203  0.383744  0.383744  1
  Pd  Pd10  1  0.610797  0.616256  0.616256  1
  Pd  Pd11  1  0.383744  0.389203  0.843307  1
  Pd  Pd12  1  0.383744  0.843307  0.389203  1
  Pd  Pd13  1  0.616256  0.610797  0.156693  1
  Pd  Pd14  1  0.616256  0.156693  0.610797  1
  Pd  Pd15  1  0.843307  0.383744  0.383744  1
  Pd  Pd16  1  0.156693  0.616256  0.616256  1
  Pd  Pd17  1  0.344977  0.000000  0.000000  1
  Pd  Pd18  1  0.655023  0.000000  0.000000  1
  Pd  Pd19  1  0.000000  0.344977  0.655023  1
  Pd  Pd20  1  0.000000  0.655023  0.344977  1
  Pd  Pd21  1  0.997028  0.344188  0.002972  1
  Pd  Pd22  1  0.655812  0.002972  0.344188  1
  Pd  Pd23  1  0.002972  0.655812  0.997028  1
  Pd  Pd24  1  0.344188  0.997028  0.655812  1
  Pd  Pd25  1  0.997028  0.002972  0.344188  1
  Pd  Pd26  1  0.002972  0.997028  0.655812  1
  Pd  Pd27  1  0.655812  0.344188  0.002972  1
  Pd  Pd28  1  0.344188  0.655812  0.997028  1
