# generated using pymatgen
data_Ac2LaCo2Sn7
_symmetry_space_group_name_H-M   'P 1'
_cell_length_a   14.10903514
_cell_length_b   14.10903573
_cell_length_c   4.68113600
_cell_angle_alpha   90.00000000
_cell_angle_beta   90.00000000
_cell_angle_gamma   160.49546298
_symmetry_Int_Tables_number   1
_chemical_formula_structural   Ac2LaCo2Sn7
_chemical_formula_sum   'Ac2 La1 Co2 Sn7'
_cell_volume   311.12740444
_cell_formula_units_Z   1
loop_
 _symmetry_equiv_pos_site_id
 _symmetry_equiv_pos_as_xyz
  1  'x, y, z'
loop_
 _atom_site_type_symbol
 _atom_site_label
 _atom_site_symmetry_multiplicity
 _atom_site_fract_x
 _atom_site_fract_y
 _atom_site_fract_z
 _atom_site_occupancy
  Ac  Ac0  1  0.184157  0.815843  0.000000  1
  Ac  Ac1  1  0.815843  0.184157  0.000000  1
  La  La2  1  0.500000  0.500000  0.500000  1
  Co  Co3  1  0.626886  0.373114  0.500000  1
  Co  Co4  1  0.373114  0.626886  0.500000  1
  Sn  Sn5  1  0.718239  0.281761  0.500000  1
  Sn  Sn6  1  0.281761  0.718239  0.500000  1
  Sn  Sn7  1  0.587783  0.412217  0.000000  1
  Sn  Sn8  1  0.000000  0.000000  0.000000  1
  Sn  Sn9  1  0.412217  0.587783  0.000000  1
  Sn  Sn10  1  0.912068  0.087932  0.500000  1
  Sn  Sn11  1  0.087932  0.912068  0.500000  1
