# generated using pymatgen
data_KBa3IrO6
_symmetry_space_group_name_H-M   'P 1'
_cell_length_a   7.27982572
_cell_length_b   7.27982509
_cell_length_c   7.27982540
_cell_angle_alpha   89.10549249
_cell_angle_beta   89.10549512
_cell_angle_gamma   89.10549005
_symmetry_Int_Tables_number   1
_chemical_formula_structural   KBa3IrO6
_chemical_formula_sum   'K2 Ba6 Ir2 O12'
_cell_volume   385.66099561
_cell_formula_units_Z   2
loop_
 _symmetry_equiv_pos_site_id
 _symmetry_equiv_pos_as_xyz
  1  'x, y, z'
loop_
 _atom_site_type_symbol
 _atom_site_label
 _atom_site_symmetry_multiplicity
 _atom_site_fract_x
 _atom_site_fract_y
 _atom_site_fract_z
 _atom_site_occupancy
  K  K0  1  0.250000  0.250000  0.250000  1
  K  K1  1  0.750000  0.750000  0.750000  1
  Ba  Ba2  1  0.108399  0.750000  0.391601  1
  Ba  Ba3  1  0.391601  0.108399  0.750000  1
  Ba  Ba4  1  0.891601  0.250000  0.608399  1
  Ba  Ba5  1  0.608399  0.891601  0.250000  1
  Ba  Ba6  1  0.750000  0.391601  0.108399  1
  Ba  Ba7  1  0.250000  0.608399  0.891601  1
  Ir  Ir8  1  0.000000  0.000000  0.000000  1
  Ir  Ir9  1  0.500000  0.500000  0.500000  1
  O  O10  1  0.436414  0.762754  0.572369  1
  O  O11  1  0.572369  0.436414  0.762754  1
  O  O12  1  0.762754  0.572369  0.436414  1
  O  O13  1  0.063586  0.927631  0.737246  1
  O  O14  1  0.737246  0.063586  0.927631  1
  O  O15  1  0.927631  0.737246  0.063586  1
  O  O16  1  0.563586  0.237246  0.427631  1
  O  O17  1  0.427631  0.563586  0.237246  1
  O  O18  1  0.237246  0.427631  0.563586  1
  O  O19  1  0.936414  0.072369  0.262754  1
  O  O20  1  0.072369  0.262754  0.936414  1
  O  O21  1  0.262754  0.936414  0.072369  1
