# generated using pymatgen
data_Ho3Th2HgPb3
_symmetry_space_group_name_H-M   'P 1'
_cell_length_a   9.51986300
_cell_length_b   9.51986358
_cell_length_c   6.58634700
_cell_angle_alpha   90.00000000
_cell_angle_beta   90.00000000
_cell_angle_gamma   120.00000842
_symmetry_Int_Tables_number   1
_chemical_formula_structural   Ho3Th2HgPb3
_chemical_formula_sum   'Ho6 Th4 Hg2 Pb6'
_cell_volume   516.93581903
_cell_formula_units_Z   2
loop_
 _symmetry_equiv_pos_site_id
 _symmetry_equiv_pos_as_xyz
  1  'x, y, z'
loop_
 _atom_site_type_symbol
 _atom_site_label
 _atom_site_symmetry_multiplicity
 _atom_site_fract_x
 _atom_site_fract_y
 _atom_site_fract_z
 _atom_site_occupancy
  Ho  Ho0  1  0.719300  0.719300  0.250000  1
  Ho  Ho1  1  0.280700  0.000000  0.250000  1
  Ho  Ho2  1  0.000000  0.280700  0.250000  1
  Ho  Ho3  1  0.280700  0.280700  0.750000  1
  Ho  Ho4  1  0.719300  0.000000  0.750000  1
  Ho  Ho5  1  0.000000  0.719300  0.750000  1
  Th  Th6  1  0.666667  0.333333  0.500000  1
  Th  Th7  1  0.333333  0.666667  0.500000  1
  Th  Th8  1  0.333333  0.666667  0.000000  1
  Th  Th9  1  0.666667  0.333333  0.000000  1
  Hg  Hg10  1  0.000000  0.000000  0.500000  1
  Hg  Hg11  1  0.000000  0.000000  0.000000  1
  Pb  Pb12  1  0.372229  0.372229  0.250000  1
  Pb  Pb13  1  0.627771  0.000000  0.250000  1
  Pb  Pb14  1  0.000000  0.627771  0.250000  1
  Pb  Pb15  1  0.627771  0.627771  0.750000  1
  Pb  Pb16  1  0.372229  0.000000  0.750000  1
  Pb  Pb17  1  0.000000  0.372229  0.750000  1
