# generated using pymatgen
data_HfHg3(TeBr3)2
_symmetry_space_group_name_H-M   'P 1'
_cell_length_a   8.18034000
_cell_length_b   7.19470620
_cell_length_c   14.28465057
_cell_angle_alpha   87.99529330
_cell_angle_beta   90.00000000
_cell_angle_gamma   90.00000000
_symmetry_Int_Tables_number   1
_chemical_formula_structural   HfHg3(TeBr3)2
_chemical_formula_sum   'Hf2 Hg6 Te4 Br12'
_cell_volume   840.21058998
_cell_formula_units_Z   2
loop_
 _symmetry_equiv_pos_site_id
 _symmetry_equiv_pos_as_xyz
  1  'x, y, z'
loop_
 _atom_site_type_symbol
 _atom_site_label
 _atom_site_symmetry_multiplicity
 _atom_site_fract_x
 _atom_site_fract_y
 _atom_site_fract_z
 _atom_site_occupancy
  Hf  Hf0  1  0.000000  0.500000  0.000000  1
  Hf  Hf1  1  0.500000  0.500000  0.500000  1
  Hg  Hg2  1  0.294766  0.006128  0.738617  1
  Hg  Hg3  1  0.000000  0.000000  0.500000  1
  Hg  Hg4  1  0.794766  0.993872  0.761383  1
  Hg  Hg5  1  0.705234  0.993872  0.261383  1
  Hg  Hg6  1  0.205234  0.006128  0.238617  1
  Hg  Hg7  1  0.500000  0.000000  0.000000  1
  Te  Te8  1  0.963468  0.189350  0.330756  1
  Te  Te9  1  0.036532  0.810650  0.669244  1
  Te  Te10  1  0.536532  0.189350  0.830756  1
  Te  Te11  1  0.463468  0.810650  0.169244  1
  Br  Br12  1  0.150582  0.805468  0.941556  1
  Br  Br13  1  0.650582  0.194532  0.558444  1
  Br  Br14  1  0.275593  0.362452  0.065775  1
  Br  Br15  1  0.224407  0.362452  0.565775  1
  Br  Br16  1  0.550194  0.648830  0.662857  1
  Br  Br17  1  0.949806  0.648830  0.162857  1
  Br  Br18  1  0.449806  0.351170  0.337143  1
  Br  Br19  1  0.724407  0.637548  0.934225  1
  Br  Br20  1  0.349418  0.805468  0.441556  1
  Br  Br21  1  0.050194  0.351170  0.837143  1
  Br  Br22  1  0.849418  0.194532  0.058444  1
  Br  Br23  1  0.775593  0.637548  0.434225  1
