# generated using pymatgen
data_Li6LuAs5Rh12
_symmetry_space_group_name_H-M   'P 1'
_cell_length_a   4.23760800
_cell_length_b   5.98491600
_cell_length_c   12.79390901
_cell_angle_alpha   90.00005558
_cell_angle_beta   90.00507658
_cell_angle_gamma   90.00039428
_symmetry_Int_Tables_number   1
_chemical_formula_structural   Li6LuAs5Rh12
_chemical_formula_sum   'Li6 Lu1 As5 Rh12'
_cell_volume   324.47563846
_cell_formula_units_Z   1
loop_
 _symmetry_equiv_pos_site_id
 _symmetry_equiv_pos_as_xyz
  1  'x, y, z'
loop_
 _atom_site_type_symbol
 _atom_site_label
 _atom_site_symmetry_multiplicity
 _atom_site_fract_x
 _atom_site_fract_y
 _atom_site_fract_z
 _atom_site_occupancy
  Li  Li0  1  0.000015  0.000030  0.000000  1
  Li  Li1  1  0.499700  0.499990  0.169088  1
  Li  Li2  1  0.999724  0.000030  0.339530  1
  Li  Li3  1  0.499989  0.499983  0.499999  1
  Li  Li4  1  0.000264  0.000023  0.660474  1
  Li  Li5  1  0.500288  0.499977  0.830905  1
  Lu  Lu6  1  0.999989  0.499855  0.999996  1
  As  As7  1  0.499705  0.000011  0.167107  1
  As  As8  1  0.999778  0.500008  0.334128  1
  As  As9  1  0.500003  0.000006  0.500002  1
  As  As10  1  0.000228  0.500006  0.665874  1
  As  As11  1  0.500310  0.000007  0.832891  1
  Rh  Rh12  1  0.499989  0.231219  0.999997  1
  Rh  Rh13  1  0.499997  0.768740  0.000001  1
  Rh  Rh14  1  0.999753  0.242077  0.179165  1
  Rh  Rh15  1  0.999738  0.757909  0.179172  1
  Rh  Rh16  1  0.499829  0.249024  0.337848  1
  Rh  Rh17  1  0.499819  0.751028  0.337855  1
  Rh  Rh18  1  0.000002  0.251774  0.500002  1
  Rh  Rh19  1  0.000003  0.748280  0.500005  1
  Rh  Rh20  1  0.500182  0.249016  0.662151  1
  Rh  Rh21  1  0.500179  0.751022  0.662150  1
  Rh  Rh22  1  0.000260  0.242068  0.820829  1
  Rh  Rh23  1  0.000255  0.757923  0.820826  1
