# generated using pymatgen
data_Eu2GaAu3
_symmetry_space_group_name_H-M   'P 1'
_cell_length_a   5.93234310
_cell_length_b   6.07976343
_cell_length_c   6.07976353
_cell_angle_alpha   135.43012205
_cell_angle_beta   103.97147688
_cell_angle_gamma   93.05606827
_symmetry_Int_Tables_number   1
_chemical_formula_structural   Eu2GaAu3
_chemical_formula_sum   'Eu2 Ga1 Au3'
_cell_volume   140.92381556
_cell_formula_units_Z   1
loop_
 _symmetry_equiv_pos_site_id
 _symmetry_equiv_pos_as_xyz
  1  'x, y, z'
loop_
 _atom_site_type_symbol
 _atom_site_label
 _atom_site_symmetry_multiplicity
 _atom_site_fract_x
 _atom_site_fract_y
 _atom_site_fract_z
 _atom_site_occupancy
  Eu  Eu0  1  0.718439  0.959145  0.759294  1
  Eu  Eu1  1  0.298352  0.047665  0.250687  1
  Ga  Ga2  1  0.268530  0.329693  0.938838  1
  Au  Au3  1  0.138796  0.678860  0.459936  1
  Au  Au4  1  0.900573  0.342893  0.557680  1
  Au  Au5  1  0.675310  0.641744  0.033566  1
