# generated using pymatgen
data_Eu2Mn2As2N
_symmetry_space_group_name_H-M   'P 1'
_cell_length_a   5.79900676
_cell_length_b   5.79900671
_cell_length_c   7.00997232
_cell_angle_alpha   120.46590204
_cell_angle_beta   120.46590350
_cell_angle_gamma   38.26582881
_symmetry_Int_Tables_number   1
_chemical_formula_structural   Eu2Mn2As2N
_chemical_formula_sum   'Eu2 Mn2 As2 N1'
_cell_volume   123.18774336
_cell_formula_units_Z   1
loop_
 _symmetry_equiv_pos_site_id
 _symmetry_equiv_pos_as_xyz
  1  'x, y, z'
loop_
 _atom_site_type_symbol
 _atom_site_label
 _atom_site_symmetry_multiplicity
 _atom_site_fract_x
 _atom_site_fract_y
 _atom_site_fract_z
 _atom_site_occupancy
  Eu  Eu0  1  0.056674  0.056674  0.298099  1
  Eu  Eu1  1  0.943326  0.943326  0.701901  1
  Mn  Mn2  1  0.682835  0.682835  0.063575  1
  Mn  Mn3  1  0.317165  0.317165  0.936425  1
  As  As4  1  0.319476  0.319476  0.278828  1
  As  As5  1  0.680524  0.680524  0.721172  1
  N  N6  1  0.500000  0.500000  0.000000  1
