# generated using pymatgen
data_Er3In3CuNiIr
_symmetry_space_group_name_H-M   'P 1'
_cell_length_a   7.59595300
_cell_length_b   7.59595252
_cell_length_c   3.72429700
_cell_angle_alpha   90.00000000
_cell_angle_beta   90.00000000
_cell_angle_gamma   119.99999773
_symmetry_Int_Tables_number   1
_chemical_formula_structural   Er3In3CuNiIr
_chemical_formula_sum   'Er3 In3 Cu1 Ni1 Ir1'
_cell_volume   186.09703733
_cell_formula_units_Z   1
loop_
 _symmetry_equiv_pos_site_id
 _symmetry_equiv_pos_as_xyz
  1  'x, y, z'
loop_
 _atom_site_type_symbol
 _atom_site_label
 _atom_site_symmetry_multiplicity
 _atom_site_fract_x
 _atom_site_fract_y
 _atom_site_fract_z
 _atom_site_occupancy
  Er  Er0  1  0.015754  0.600515  0.500000  1
  Er  Er1  1  0.399485  0.415239  0.500000  1
  Er  Er2  1  0.584761  0.984246  0.500000  1
  In  In3  1  0.257569  0.007590  0.000000  1
  In  In4  1  0.750020  0.742431  0.000000  1
  In  In5  1  0.992410  0.249980  0.000000  1
  Cu  Cu6  1  0.666667  0.333333  0.000000  1
  Ni  Ni7  1  0.000000  0.000000  0.500000  1
  Ir  Ir8  1  0.333333  0.666667  0.000000  1
