# generated using pymatgen
data_YHo5(MoO6)2
_symmetry_space_group_name_H-M   'P 1'
_cell_length_a   6.61980552
_cell_length_b   6.61790924
_cell_length_c   6.61869308
_cell_angle_alpha   92.11749658
_cell_angle_beta   92.10362126
_cell_angle_gamma   92.15814900
_symmetry_Int_Tables_number   1
_chemical_formula_structural   YHo5(MoO6)2
_chemical_formula_sum   'Y1 Ho5 Mo2 O12'
_cell_volume   289.34579228
_cell_formula_units_Z   1
loop_
 _symmetry_equiv_pos_site_id
 _symmetry_equiv_pos_as_xyz
  1  'x, y, z'
loop_
 _atom_site_type_symbol
 _atom_site_label
 _atom_site_symmetry_multiplicity
 _atom_site_fract_x
 _atom_site_fract_y
 _atom_site_fract_z
 _atom_site_occupancy
  Y  Y0  1  0.746749  0.931059  0.439546  1
  Ho  Ho1  1  0.931070  0.439579  0.746983  1
  Ho  Ho2  1  0.439176  0.746644  0.930820  1
  Ho  Ho3  1  0.253188  0.069285  0.560708  1
  Ho  Ho4  1  0.069390  0.560278  0.253152  1
  Ho  Ho5  1  0.560345  0.253442  0.068817  1
  Mo  Mo6  1  0.499647  0.500090  0.500158  1
  Mo  Mo7  1  0.000361  0.000074  0.999962  1
  O  O8  1  0.596827  0.466037  0.811717  1
  O  O9  1  0.464532  0.811146  0.597485  1
  O  O10  1  0.811996  0.595019  0.466081  1
  O  O11  1  0.403207  0.533942  0.188321  1
  O  O12  1  0.532832  0.189158  0.402896  1
  O  O13  1  0.188313  0.403227  0.533873  1
  O  O14  1  0.071145  0.909317  0.310510  1
  O  O15  1  0.909416  0.310889  0.069925  1
  O  O16  1  0.688897  0.930356  0.088829  1
  O  O17  1  0.090444  0.689098  0.930216  1
  O  O18  1  0.931451  0.091550  0.690415  1
  O  O19  1  0.311015  0.069811  0.909585  1
