# generated using pymatgen
data_YMg2ScIn4
_symmetry_space_group_name_H-M   'P 1'
_cell_length_a   6.40142220
_cell_length_b   6.40142280
_cell_length_c   4.57532000
_cell_angle_alpha   90.00000000
_cell_angle_beta   90.00000000
_cell_angle_gamma   91.60648618
_symmetry_Int_Tables_number   1
_chemical_formula_structural   YMg2ScIn4
_chemical_formula_sum   'Y1 Mg2 Sc1 In4'
_cell_volume   187.41473125
_cell_formula_units_Z   1
loop_
 _symmetry_equiv_pos_site_id
 _symmetry_equiv_pos_as_xyz
  1  'x, y, z'
loop_
 _atom_site_type_symbol
 _atom_site_label
 _atom_site_symmetry_multiplicity
 _atom_site_fract_x
 _atom_site_fract_y
 _atom_site_fract_z
 _atom_site_occupancy
  Y  Y0  1  0.500000  0.500000  0.500000  1
  Mg  Mg1  1  0.755254  0.244746  0.000000  1
  Mg  Mg2  1  0.244746  0.755254  0.000000  1
  Sc  Sc3  1  0.000000  0.000000  0.500000  1
  In  In4  1  0.500000  0.000000  0.500000  1
  In  In5  1  0.000000  0.500000  0.500000  1
  In  In6  1  0.754866  0.754866  0.000000  1
  In  In7  1  0.245134  0.245134  0.000000  1
