# generated using pymatgen
data_Ca3PrY2(Si3Os)8
_symmetry_space_group_name_H-M   'P 1'
_cell_length_a   10.18751892
_cell_length_b   10.18678242
_cell_length_c   8.20375706
_cell_angle_alpha   90.08951301
_cell_angle_beta   89.94093278
_cell_angle_gamma   132.51033534
_symmetry_Int_Tables_number   1
_chemical_formula_structural   Ca3PrY2(Si3Os)8
_chemical_formula_sum   'Ca3 Pr1 Y2 Si24 Os8'
_cell_volume   627.59114151
_cell_formula_units_Z   1
loop_
 _symmetry_equiv_pos_site_id
 _symmetry_equiv_pos_as_xyz
  1  'x, y, z'
loop_
 _atom_site_type_symbol
 _atom_site_label
 _atom_site_symmetry_multiplicity
 _atom_site_fract_x
 _atom_site_fract_y
 _atom_site_fract_z
 _atom_site_occupancy
  Ca  Ca0  1  0.499513  0.999717  0.750182  1
  Ca  Ca1  1  0.000089  0.500287  0.249809  1
  Ca  Ca2  1  0.999918  0.000127  0.999764  1
  Pr  Pr3  1  0.498593  0.998515  0.249973  1
  Y  Y4  1  0.000365  0.500361  0.750093  1
  Y  Y5  1  0.500046  0.500002  0.500266  1
  Si  Si6  1  0.797380  0.206724  0.502061  1
  Si  Si7  1  0.706437  0.297752  0.997962  1
  Si  Si8  1  0.203037  0.792443  0.502504  1
  Si  Si9  1  0.292664  0.702683  0.997508  1
  Si  Si10  1  0.664365  0.672162  0.166175  1
  Si  Si11  1  0.169809  0.161374  0.331005  1
  Si  Si12  1  0.839093  0.829920  0.668819  1
  Si  Si13  1  0.327652  0.336020  0.834036  1
  Si  Si14  1  0.845970  0.614015  0.992223  1
  Si  Si15  1  0.111396  0.344312  0.506828  1
  Si  Si16  1  0.655259  0.888136  0.494813  1
  Si  Si17  1  0.385445  0.153575  0.006075  1
  Si  Si18  1  0.153884  0.386837  0.005699  1
  Si  Si19  1  0.889259  0.655685  0.496059  1
  Si  Si20  1  0.121985  0.889288  0.729429  1
  Si  Si21  1  0.389316  0.622691  0.772019  1
  Si  Si22  1  0.375890  0.609598  0.228642  1
  Si  Si23  1  0.109518  0.876516  0.269805  1
  Si  Si24  1  0.878047  0.110340  0.270240  1
  Si  Si25  1  0.610511  0.377303  0.228312  1
  Si  Si26  1  0.624136  0.390918  0.772065  1
  Si  Si27  1  0.891144  0.123481  0.729335  1
  Si  Si28  1  0.613471  0.846894  0.992879  1
  Si  Si29  1  0.345072  0.111034  0.505434  1
  Os  Os30  1  0.625588  0.624843  0.872575  1
  Os  Os31  1  0.127886  0.129021  0.624442  1
  Os  Os32  1  0.375597  0.374625  0.127891  1
  Os  Os33  1  0.871235  0.872540  0.375147  1
  Os  Os34  1  0.168018  0.829104  0.998336  1
  Os  Os35  1  0.330137  0.666929  0.501632  1
  Os  Os36  1  0.831151  0.172097  0.998745  1
  Os  Os37  1  0.671128  0.332126  0.501213  1
