# generated using pymatgen
data_SmNbCo4P3
_symmetry_space_group_name_H-M   'P 1'
_cell_length_a   3.72242900
_cell_length_b   10.62835400
_cell_length_c   12.06707000
_cell_angle_alpha   90.00000000
_cell_angle_beta   90.00000000
_cell_angle_gamma   90.00000000
_symmetry_Int_Tables_number   1
_chemical_formula_structural   SmNbCo4P3
_chemical_formula_sum   'Sm4 Nb4 Co16 P12'
_cell_volume   477.41302789
_cell_formula_units_Z   4
loop_
 _symmetry_equiv_pos_site_id
 _symmetry_equiv_pos_as_xyz
  1  'x, y, z'
loop_
 _atom_site_type_symbol
 _atom_site_label
 _atom_site_symmetry_multiplicity
 _atom_site_fract_x
 _atom_site_fract_y
 _atom_site_fract_z
 _atom_site_occupancy
  Sm  Sm0  1  0.250000  0.582858  0.704597  1
  Sm  Sm1  1  0.250000  0.917142  0.204597  1
  Sm  Sm2  1  0.750000  0.417142  0.295403  1
  Sm  Sm3  1  0.750000  0.082858  0.795403  1
  Nb  Nb4  1  0.250000  0.705911  0.989422  1
  Nb  Nb5  1  0.250000  0.794089  0.489422  1
  Nb  Nb6  1  0.750000  0.294089  0.010578  1
  Nb  Nb7  1  0.750000  0.205911  0.510578  1
  Co  Co8  1  0.250000  0.407269  0.491269  1
  Co  Co9  1  0.250000  0.092731  0.991269  1
  Co  Co10  1  0.750000  0.592731  0.508731  1
  Co  Co11  1  0.750000  0.907269  0.008731  1
  Co  Co12  1  0.250000  0.222132  0.176219  1
  Co  Co13  1  0.250000  0.277868  0.676219  1
  Co  Co14  1  0.750000  0.777868  0.823781  1
  Co  Co15  1  0.750000  0.722132  0.323781  1
  Co  Co16  1  0.250000  0.887676  0.701291  1
  Co  Co17  1  0.250000  0.612324  0.201291  1
  Co  Co18  1  0.750000  0.112324  0.298709  1
  Co  Co19  1  0.750000  0.387676  0.798709  1
  Co  Co20  1  0.250000  0.465932  0.933036  1
  Co  Co21  1  0.250000  0.034068  0.433036  1
  Co  Co22  1  0.750000  0.534068  0.066964  1
  Co  Co23  1  0.750000  0.965932  0.566964  1
  P  P24  1  0.250000  0.422818  0.114747  1
  P  P25  1  0.250000  0.077182  0.614747  1
  P  P26  1  0.750000  0.577182  0.885253  1
  P  P27  1  0.750000  0.922818  0.385253  1
  P  P28  1  0.250000  0.273234  0.860508  1
  P  P29  1  0.250000  0.226766  0.360508  1
  P  P30  1  0.750000  0.726766  0.139492  1
  P  P31  1  0.750000  0.773234  0.639492  1
  P  P32  1  0.250000  0.593634  0.391796  1
  P  P33  1  0.250000  0.906366  0.891796  1
  P  P34  1  0.750000  0.406366  0.608204  1
  P  P35  1  0.750000  0.093634  0.108204  1
