# generated using pymatgen
data_LuTe19
_symmetry_space_group_name_H-M   'P 1'
_cell_length_a   8.01800484
_cell_length_b   9.02478963
_cell_length_c   10.16484400
_cell_angle_alpha   104.08862850
_cell_angle_beta   97.23290686
_cell_angle_gamma   106.97193268
_symmetry_Int_Tables_number   1
_chemical_formula_structural   LuTe19
_chemical_formula_sum   'Lu1 Te19'
_cell_volume   666.78472118
_cell_formula_units_Z   1
loop_
 _symmetry_equiv_pos_site_id
 _symmetry_equiv_pos_as_xyz
  1  'x, y, z'
loop_
 _atom_site_type_symbol
 _atom_site_label
 _atom_site_symmetry_multiplicity
 _atom_site_fract_x
 _atom_site_fract_y
 _atom_site_fract_z
 _atom_site_occupancy
  Lu  Lu0  1  0.000000  0.500000  0.000000  1
  Te  Te1  1  0.781452  0.588069  0.620392  1
  Te  Te2  1  0.651685  0.211624  0.211392  1
  Te  Te3  1  0.348315  0.788376  0.788608  1
  Te  Te4  1  0.601964  0.692935  0.198889  1
  Te  Te5  1  0.218548  0.411931  0.379608  1
  Te  Te6  1  0.398036  0.307065  0.801111  1
  Te  Te7  1  0.000000  0.000000  0.000000  1
  Te  Te8  1  0.192486  0.901347  0.393059  1
  Te  Te9  1  0.807514  0.098653  0.606941  1
  Te  Te10  1  0.699361  0.636323  0.910354  1
  Te  Te11  1  0.517676  0.260369  0.497581  1
  Te  Te12  1  0.724777  0.157955  0.909354  1
  Te  Te13  1  0.275223  0.842045  0.090646  1
  Te  Te14  1  0.482324  0.739631  0.502419  1
  Te  Te15  1  0.089094  0.457520  0.707608  1
  Te  Te16  1  0.300639  0.363677  0.089646  1
  Te  Te17  1  0.913185  0.046046  0.303483  1
  Te  Te18  1  0.086815  0.953954  0.696517  1
  Te  Te19  1  0.910906  0.542480  0.292392  1
