# generated using pymatgen
data_Tb4InPt
_symmetry_space_group_name_H-M   'P 1'
_cell_length_a   9.77473850
_cell_length_b   9.77473793
_cell_length_c   9.77473900
_cell_angle_alpha   59.99999976
_cell_angle_beta   60.00000169
_cell_angle_gamma   59.99999919
_symmetry_Int_Tables_number   1
_chemical_formula_structural   Tb4InPt
_chemical_formula_sum   'Tb16 In4 Pt4'
_cell_volume   660.38993282
_cell_formula_units_Z   4
loop_
 _symmetry_equiv_pos_site_id
 _symmetry_equiv_pos_as_xyz
  1  'x, y, z'
loop_
 _atom_site_type_symbol
 _atom_site_label
 _atom_site_symmetry_multiplicity
 _atom_site_fract_x
 _atom_site_fract_y
 _atom_site_fract_z
 _atom_site_occupancy
  Tb  Tb0  1  0.100738  0.697787  0.100738  1
  Tb  Tb1  1  0.940042  0.940042  0.559958  1
  Tb  Tb2  1  0.940042  0.559958  0.940042  1
  Tb  Tb3  1  0.311649  0.688351  0.311649  1
  Tb  Tb4  1  0.940042  0.559958  0.559958  1
  Tb  Tb5  1  0.311649  0.311649  0.688351  1
  Tb  Tb6  1  0.100738  0.100738  0.100738  1
  Tb  Tb7  1  0.559958  0.559958  0.940042  1
  Tb  Tb8  1  0.100738  0.100738  0.697787  1
  Tb  Tb9  1  0.688351  0.311649  0.688351  1
  Tb  Tb10  1  0.688351  0.688351  0.311649  1
  Tb  Tb11  1  0.688351  0.311649  0.311649  1
  Tb  Tb12  1  0.311649  0.688351  0.688351  1
  Tb  Tb13  1  0.559958  0.940042  0.559958  1
  Tb  Tb14  1  0.697787  0.100738  0.100738  1
  Tb  Tb15  1  0.559958  0.940042  0.940042  1
  In  In16  1  0.332903  0.332903  0.332903  1
  In  In17  1  0.001289  0.332903  0.332903  1
  In  In18  1  0.332903  0.001289  0.332903  1
  In  In19  1  0.332903  0.332903  0.001289  1
  Pt  Pt20  1  0.893087  0.893087  0.893087  1
  Pt  Pt21  1  0.893087  0.893087  0.320739  1
  Pt  Pt22  1  0.320739  0.893087  0.893087  1
  Pt  Pt23  1  0.893087  0.320739  0.893087  1
