# generated using pymatgen
data_Y5Ho7TcOs3
_symmetry_space_group_name_H-M   'P 1'
_cell_length_a   6.29628279
_cell_length_b   7.44094847
_cell_length_c   9.03772006
_cell_angle_alpha   89.99660269
_cell_angle_beta   90.10869326
_cell_angle_gamma   90.15812666
_symmetry_Int_Tables_number   1
_chemical_formula_structural   Y5Ho7TcOs3
_chemical_formula_sum   'Y5 Ho7 Tc1 Os3'
_cell_volume   423.41766416
_cell_formula_units_Z   1
loop_
 _symmetry_equiv_pos_site_id
 _symmetry_equiv_pos_as_xyz
  1  'x, y, z'
loop_
 _atom_site_type_symbol
 _atom_site_label
 _atom_site_symmetry_multiplicity
 _atom_site_fract_x
 _atom_site_fract_y
 _atom_site_fract_z
 _atom_site_occupancy
  Y  Y0  1  0.335375  0.675259  0.062543  1
  Y  Y1  1  0.872149  0.539467  0.250377  1
  Y  Y2  1  0.625820  0.039646  0.250169  1
  Y  Y3  1  0.129548  0.459633  0.749584  1
  Y  Y4  1  0.370365  0.960640  0.749549  1
  Ho  Ho5  1  0.165279  0.175398  0.436695  1
  Ho  Ho6  1  0.666682  0.324768  0.562783  1
  Ho  Ho7  1  0.834504  0.825601  0.936402  1
  Ho  Ho8  1  0.667170  0.324654  0.937081  1
  Ho  Ho9  1  0.834919  0.825251  0.563332  1
  Ho  Ho10  1  0.335756  0.674204  0.437385  1
  Ho  Ho11  1  0.165219  0.175170  0.063192  1
  Tc  Tc12  1  0.039827  0.885172  0.250743  1
  Os  Os13  1  0.457896  0.382380  0.251079  1
  Os  Os14  1  0.956642  0.116991  0.750077  1
  Os  Os15  1  0.542849  0.615763  0.749009  1
