# generated using pymatgen
data_Sm4DyHo3(ReB6)4
_symmetry_space_group_name_H-M   'P 1'
_cell_length_a   3.71038000
_cell_length_b   9.21812401
_cell_length_c   11.64271800
_cell_angle_alpha   90.00315990
_cell_angle_beta   90.00000000
_cell_angle_gamma   90.00000000
_symmetry_Int_Tables_number   1
_chemical_formula_structural   Sm4DyHo3(ReB6)4
_chemical_formula_sum   'Sm4 Dy1 Ho3 Re4 B24'
_cell_volume   398.21289054
_cell_formula_units_Z   1
loop_
 _symmetry_equiv_pos_site_id
 _symmetry_equiv_pos_as_xyz
  1  'x, y, z'
loop_
 _atom_site_type_symbol
 _atom_site_label
 _atom_site_symmetry_multiplicity
 _atom_site_fract_x
 _atom_site_fract_y
 _atom_site_fract_z
 _atom_site_occupancy
  Sm  Sm0  1  0.000000  0.322849  0.413999  1
  Sm  Sm1  1  0.000000  0.677053  0.586048  1
  Sm  Sm2  1  0.000000  0.822842  0.085938  1
  Sm  Sm3  1  0.000000  0.177227  0.913984  1
  Dy  Dy4  1  0.000000  0.942642  0.369813  1
  Ho  Ho5  1  0.000000  0.057488  0.630553  1
  Ho  Ho6  1  0.000000  0.442595  0.130179  1
  Ho  Ho7  1  0.000000  0.557445  0.869686  1
  Re  Re8  1  0.000000  0.638259  0.319868  1
  Re  Re9  1  0.000000  0.361421  0.680155  1
  Re  Re10  1  0.000000  0.138844  0.179817  1
  Re  Re11  1  0.000000  0.861371  0.820016  1
  B  B12  1  0.500000  0.553666  0.431584  1
  B  B13  1  0.500000  0.445979  0.568479  1
  B  B14  1  0.500000  0.054059  0.068275  1
  B  B15  1  0.500000  0.946062  0.931593  1
  B  B16  1  0.500000  0.748630  0.416932  1
  B  B17  1  0.500000  0.250841  0.583134  1
  B  B18  1  0.500000  0.249294  0.082926  1
  B  B19  1  0.500000  0.750827  0.916977  1
  B  B20  1  0.500000  0.790839  0.265945  1
  B  B21  1  0.500000  0.208849  0.734030  1
  B  B22  1  0.500000  0.291370  0.233810  1
  B  B23  1  0.500000  0.708781  0.766097  1
  B  B24  1  0.500000  0.629414  0.186009  1
  B  B25  1  0.500000  0.370483  0.813906  1
  B  B26  1  0.500000  0.129939  0.313619  1
  B  B27  1  0.500000  0.870398  0.686210  1
  B  B28  1  0.500000  0.983001  0.212423  1
  B  B29  1  0.500000  0.017268  0.787379  1
  B  B30  1  0.500000  0.482553  0.287211  1
  B  B31  1  0.500000  0.517293  0.712721  1
  B  B32  1  0.500000  0.597463  0.027240  1
  B  B33  1  0.500000  0.402604  0.972662  1
  B  B34  1  0.500000  0.097985  0.473029  1
  B  B35  1  0.500000  0.902364  0.527753  1
