# generated using pymatgen
data_Lu8MgCo2Au
_symmetry_space_group_name_H-M   'P 1'
_cell_length_a   9.24962288
_cell_length_b   9.24962287
_cell_length_c   9.24991600
_cell_angle_alpha   59.99895165
_cell_angle_beta   59.99895171
_cell_angle_gamma   60.49153925
_symmetry_Int_Tables_number   1
_chemical_formula_structural   Lu8MgCo2Au
_chemical_formula_sum   'Lu16 Mg2 Co4 Au2'
_cell_volume   561.63129345
_cell_formula_units_Z   2
loop_
 _symmetry_equiv_pos_site_id
 _symmetry_equiv_pos_as_xyz
  1  'x, y, z'
loop_
 _atom_site_type_symbol
 _atom_site_label
 _atom_site_symmetry_multiplicity
 _atom_site_fract_x
 _atom_site_fract_y
 _atom_site_fract_z
 _atom_site_occupancy
  Lu  Lu0  1  0.810916  0.186905  0.188186  1
  Lu  Lu1  1  0.186905  0.810916  0.813992  1
  Lu  Lu2  1  0.186905  0.810916  0.188186  1
  Lu  Lu3  1  0.810916  0.186905  0.813992  1
  Lu  Lu4  1  0.186704  0.186704  0.813296  1
  Lu  Lu5  1  0.804781  0.804781  0.195219  1
  Lu  Lu6  1  0.930956  0.562273  0.564426  1
  Lu  Lu7  1  0.562273  0.930956  0.942346  1
  Lu  Lu8  1  0.562273  0.930956  0.564426  1
  Lu  Lu9  1  0.930956  0.562273  0.942346  1
  Lu  Lu10  1  0.561691  0.561691  0.938309  1
  Lu  Lu11  1  0.937839  0.937839  0.562161  1
  Lu  Lu12  1  0.345424  0.345424  0.344896  1
  Lu  Lu13  1  0.345424  0.345424  0.964255  1
  Lu  Lu14  1  0.348703  0.958840  0.346228  1
  Lu  Lu15  1  0.958840  0.348703  0.346228  1
  Mg  Mg16  1  0.584182  0.280536  0.567642  1
  Mg  Mg17  1  0.280536  0.584182  0.567642  1
  Co  Co18  1  0.139394  0.139394  0.143380  1
  Co  Co19  1  0.139394  0.139394  0.577831  1
  Co  Co20  1  0.138269  0.576653  0.142539  1
  Co  Co21  1  0.576653  0.138269  0.142539  1
  Au  Au22  1  0.585032  0.585032  0.590988  1
  Au  Au23  1  0.585032  0.585032  0.238947  1
