# generated using pymatgen
data_TaCoRuF12
_symmetry_space_group_name_H-M   'P 1'
_cell_length_a   5.34969688
_cell_length_b   5.65122506
_cell_length_c   9.33017700
_cell_angle_alpha   73.87228205
_cell_angle_beta   88.64910653
_cell_angle_gamma   62.35440487
_symmetry_Int_Tables_number   1
_chemical_formula_structural   TaCoRuF12
_chemical_formula_sum   'Ta1 Co1 Ru1 F12'
_cell_volume   238.19114784
_cell_formula_units_Z   1
loop_
 _symmetry_equiv_pos_site_id
 _symmetry_equiv_pos_as_xyz
  1  'x, y, z'
loop_
 _atom_site_type_symbol
 _atom_site_label
 _atom_site_symmetry_multiplicity
 _atom_site_fract_x
 _atom_site_fract_y
 _atom_site_fract_z
 _atom_site_occupancy
  Ta  Ta0  1  0.224291  0.999663  0.754177  1
  Co  Co1  1  0.503040  0.502631  0.497324  1
  Ru  Ru2  1  0.777648  0.995364  0.253173  1
  F  F3  1  0.950789  0.219819  0.199810  1
  F  F4  1  0.052462  0.769317  0.796413  1
  F  F5  1  0.002013  0.763116  0.143393  1
  F  F6  1  0.447419  0.770087  0.621527  1
  F  F7  1  0.549421  0.230995  0.376395  1
  F  F8  1  0.924632  0.250312  0.574915  1
  F  F9  1  0.073508  0.754454  0.427122  1
  F  F10  1  0.399271  0.243058  0.665522  1
  F  F11  1  0.599047  0.755806  0.324861  1
  F  F12  1  0.516202  0.787951  0.913550  1
  F  F13  1  0.491735  0.216145  0.093061  1
  F  F14  1  0.988521  0.241283  0.858756  1
