# generated using pymatgen
data_Ta6Pd11Rh7
_symmetry_space_group_name_H-M   'P 1'
_cell_length_a   5.59827333
_cell_length_b   5.59827327
_cell_length_c   13.65068948
_cell_angle_alpha   90.28904664
_cell_angle_beta   89.71095340
_cell_angle_gamma   120.22674700
_symmetry_Int_Tables_number   1
_chemical_formula_structural   Ta6Pd11Rh7
_chemical_formula_sum   'Ta6 Pd11 Rh7'
_cell_volume   369.64873150
_cell_formula_units_Z   1
loop_
 _symmetry_equiv_pos_site_id
 _symmetry_equiv_pos_as_xyz
  1  'x, y, z'
loop_
 _atom_site_type_symbol
 _atom_site_label
 _atom_site_symmetry_multiplicity
 _atom_site_fract_x
 _atom_site_fract_y
 _atom_site_fract_z
 _atom_site_occupancy
  Ta  Ta0  1  0.999499  0.000501  0.250459  1
  Ta  Ta1  1  0.004817  0.995183  0.745323  1
  Ta  Ta2  1  0.330434  0.669566  0.404418  1
  Ta  Ta3  1  0.666722  0.333278  0.597949  1
  Ta  Ta4  1  0.666867  0.333133  0.900283  1
  Ta  Ta5  1  0.333876  0.666124  0.098927  1
  Pd  Pd6  1  0.166382  0.333056  0.917797  1
  Pd  Pd7  1  0.666944  0.833618  0.917797  1
  Pd  Pd8  1  0.167021  0.832979  0.917842  1
  Pd  Pd9  1  0.833408  0.666285  0.082271  1
  Pd  Pd10  1  0.333715  0.166592  0.082271  1
  Pd  Pd11  1  0.833692  0.166308  0.082579  1
  Pd  Pd12  1  0.833679  0.668567  0.417799  1
  Pd  Pd13  1  0.331433  0.166321  0.417799  1
  Pd  Pd14  1  0.832628  0.167372  0.416947  1
  Pd  Pd15  1  0.166353  0.335192  0.581799  1
  Pd  Pd16  1  0.664808  0.833647  0.581799  1
  Rh  Rh17  1  0.500597  0.499403  0.250274  1
  Rh  Rh18  1  0.500744  0.003525  0.250109  1
  Rh  Rh19  1  0.996475  0.499256  0.250109  1
  Rh  Rh20  1  0.500510  0.499490  0.750502  1
  Rh  Rh21  1  0.500122  0.995456  0.750436  1
  Rh  Rh22  1  0.004544  0.499878  0.750436  1
  Rh  Rh23  1  0.164727  0.835273  0.584080  1
