# generated using pymatgen
data_Hf14Ni16Pd3Au
_symmetry_space_group_name_H-M   'P 1'
_cell_length_a   7.72162982
_cell_length_b   7.72163032
_cell_length_c   9.26008123
_cell_angle_alpha   89.98446452
_cell_angle_beta   89.98445948
_cell_angle_gamma   106.74559266
_symmetry_Int_Tables_number   1
_chemical_formula_structural   Hf14Ni16Pd3Au
_chemical_formula_sum   'Hf14 Ni16 Pd3 Au1'
_cell_volume   528.70563134
_cell_formula_units_Z   1
loop_
 _symmetry_equiv_pos_site_id
 _symmetry_equiv_pos_as_xyz
  1  'x, y, z'
loop_
 _atom_site_type_symbol
 _atom_site_label
 _atom_site_symmetry_multiplicity
 _atom_site_fract_x
 _atom_site_fract_y
 _atom_site_fract_z
 _atom_site_occupancy
  Hf  Hf0  1  0.701845  0.295615  0.998649  1
  Hf  Hf1  1  0.295615  0.701845  0.998649  1
  Hf  Hf2  1  0.798065  0.202191  0.499972  1
  Hf  Hf3  1  0.202191  0.798065  0.499972  1
  Hf  Hf4  1  0.000078  0.000078  0.999694  1
  Hf  Hf5  1  0.499975  0.499975  0.500316  1
  Hf  Hf6  1  0.999876  0.499942  0.250178  1
  Hf  Hf7  1  0.000161  0.499589  0.749754  1
  Hf  Hf8  1  0.499589  0.000161  0.749754  1
  Hf  Hf9  1  0.499942  0.999876  0.250178  1
  Hf  Hf10  1  0.312720  0.312720  0.182771  1
  Hf  Hf11  1  0.683337  0.683337  0.813543  1
  Hf  Hf12  1  0.184640  0.184640  0.683719  1
  Hf  Hf13  1  0.820355  0.820355  0.321415  1
  Ni  Ni14  1  0.853041  0.148361  0.206441  1
  Ni  Ni15  1  0.146801  0.851910  0.793400  1
  Ni  Ni16  1  0.647826  0.351835  0.705130  1
  Ni  Ni17  1  0.647471  0.351648  0.295108  1
  Ni  Ni18  1  0.351648  0.647471  0.295108  1
  Ni  Ni19  1  0.351835  0.647826  0.705130  1
  Ni  Ni20  1  0.851910  0.146801  0.793400  1
  Ni  Ni21  1  0.148361  0.853041  0.206441  1
  Ni  Ni22  1  0.941634  0.645055  0.000777  1
  Ni  Ni23  1  0.058600  0.354617  0.998526  1
  Ni  Ni24  1  0.559571  0.855070  0.502167  1
  Ni  Ni25  1  0.145185  0.440570  0.498297  1
  Ni  Ni26  1  0.440570  0.145185  0.498297  1
  Ni  Ni27  1  0.855070  0.559571  0.502167  1
  Ni  Ni28  1  0.354617  0.058600  0.998526  1
  Ni  Ni29  1  0.645055  0.941634  0.000777  1
  Pd  Pd30  1  0.113302  0.113302  0.389067  1
  Pd  Pd31  1  0.888409  0.888409  0.612220  1
  Pd  Pd32  1  0.387775  0.387775  0.887812  1
  Au  Au33  1  0.612934  0.612934  0.112644  1
