# generated using pymatgen
data_Tb11DyCo4NiSn
_symmetry_space_group_name_H-M   'P 1'
_cell_length_a   8.34535310
_cell_length_b   8.34764056
_cell_length_c   8.34535314
_cell_angle_alpha   110.77046544
_cell_angle_beta   110.45106731
_cell_angle_gamma   107.20488224
_symmetry_Int_Tables_number   1
_chemical_formula_structural   Tb11DyCo4NiSn
_chemical_formula_sum   'Tb11 Dy1 Co4 Ni1 Sn1'
_cell_volume   447.07468130
_cell_formula_units_Z   1
loop_
 _symmetry_equiv_pos_site_id
 _symmetry_equiv_pos_as_xyz
  1  'x, y, z'
loop_
 _atom_site_type_symbol
 _atom_site_label
 _atom_site_symmetry_multiplicity
 _atom_site_fract_x
 _atom_site_fract_y
 _atom_site_fract_z
 _atom_site_occupancy
  Tb  Tb0  1  0.403841  0.208003  0.195483  1
  Tb  Tb1  1  0.596403  0.791934  0.804778  1
  Tb  Tb2  1  0.012521  0.208003  0.804160  1
  Tb  Tb3  1  0.987154  0.791934  0.195531  1
  Tb  Tb4  1  0.185415  0.294316  0.480307  1
  Tb  Tb5  1  0.814148  0.705540  0.519322  1
  Tb  Tb6  1  0.186218  0.705540  0.891393  1
  Tb  Tb7  1  0.814009  0.294316  0.108901  1
  Tb  Tb8  1  0.315061  0.621200  0.306139  1
  Tb  Tb9  1  0.685255  0.378979  0.693724  1
  Tb  Tb10  1  0.314960  0.008892  0.693932  1
  Dy  Dy11  1  0.684784  0.991355  0.306571  1
  Co  Co12  1  0.377632  0.000074  0.377264  1
  Co  Co13  1  0.622810  0.000074  0.622441  1
  Co  Co14  1  0.112057  0.612205  0.500147  1
  Co  Co15  1  0.887578  0.387281  0.499703  1
  Ni  Ni16  1  0.000008  0.999838  0.999829  1
  Sn  Sn17  1  0.500144  0.500517  0.000373  1
