# generated using pymatgen
data_Pr5Gd14ErPb16
_symmetry_space_group_name_H-M   'P 1'
_cell_length_a   8.29611174
_cell_length_b   8.35241909
_cell_length_c   15.83190700
_cell_angle_alpha   90.03268001
_cell_angle_beta   89.50409087
_cell_angle_gamma   89.68716453
_symmetry_Int_Tables_number   1
_chemical_formula_structural   Pr5Gd14ErPb16
_chemical_formula_sum   'Pr5 Gd14 Er1 Pb16'
_cell_volume   1096.97638069
_cell_formula_units_Z   1
loop_
 _symmetry_equiv_pos_site_id
 _symmetry_equiv_pos_as_xyz
  1  'x, y, z'
loop_
 _atom_site_type_symbol
 _atom_site_label
 _atom_site_symmetry_multiplicity
 _atom_site_fract_x
 _atom_site_fract_y
 _atom_site_fract_z
 _atom_site_occupancy
  Pr  Pr0  1  0.023067  0.179986  0.402945  1
  Pr  Pr1  1  0.522490  0.323011  0.403938  1
  Pr  Pr2  1  0.026087  0.177882  0.097662  1
  Pr  Pr3  1  0.474725  0.677634  0.902641  1
  Pr  Pr4  1  0.978294  0.820503  0.596185  1
  Gd  Gd5  1  0.633072  0.159803  0.621962  1
  Gd  Gd6  1  0.129971  0.341526  0.879843  1
  Gd  Gd7  1  0.371051  0.841516  0.120539  1
  Gd  Gd8  1  0.867367  0.659039  0.378737  1
  Gd  Gd9  1  0.369278  0.841467  0.377488  1
  Gd  Gd10  1  0.872978  0.658585  0.119866  1
  Gd  Gd11  1  0.625821  0.157806  0.879669  1
  Gd  Gd12  1  0.131920  0.341787  0.621553  1
  Gd  Gd13  1  0.473675  0.677997  0.598163  1
  Gd  Gd14  1  0.968617  0.822135  0.899788  1
  Gd  Gd15  1  0.531840  0.322555  0.099286  1
  Gd  Gd16  1  0.797915  0.494899  0.750894  1
  Gd  Gd17  1  0.298048  0.004803  0.749749  1
  Gd  Gd18  1  0.201506  0.504835  0.250255  1
  Er  Er19  1  0.702555  0.994645  0.248686  1
  Pb  Pb20  1  0.706310  0.962811  0.455647  1
  Pb  Pb21  1  0.216202  0.532537  0.045004  1
  Pb  Pb22  1  0.283902  0.030991  0.955128  1
  Pb  Pb23  1  0.789362  0.464159  0.544221  1
  Pb  Pb24  1  0.296324  0.038857  0.542921  1
  Pb  Pb25  1  0.790419  0.459559  0.958114  1
  Pb  Pb26  1  0.710459  0.962829  0.042878  1
  Pb  Pb27  1  0.207046  0.543928  0.458741  1
  Pb  Pb28  1  0.433348  0.377836  0.749866  1
  Pb  Pb29  1  0.934108  0.122623  0.750905  1
  Pb  Pb30  1  0.566963  0.625170  0.248969  1
  Pb  Pb31  1  0.064109  0.877646  0.249481  1
  Pb  Pb32  1  0.664457  0.849784  0.748320  1
  Pb  Pb33  1  0.164692  0.649896  0.751099  1
  Pb  Pb34  1  0.340429  0.149848  0.248762  1
  Pb  Pb35  1  0.831593  0.349110  0.250094  1
