# generated using pymatgen
data_Fe6ReSi2Mo3
_symmetry_space_group_name_H-M   'P 1'
_cell_length_a   4.75039200
_cell_length_b   4.75039224
_cell_length_c   7.64515600
_cell_angle_alpha   90.00000000
_cell_angle_beta   90.00000000
_cell_angle_gamma   119.99998443
_symmetry_Int_Tables_number   1
_chemical_formula_structural   Fe6ReSi2Mo3
_chemical_formula_sum   'Fe6 Re1 Si2 Mo3'
_cell_volume   149.40872884
_cell_formula_units_Z   1
loop_
 _symmetry_equiv_pos_site_id
 _symmetry_equiv_pos_as_xyz
  1  'x, y, z'
loop_
 _atom_site_type_symbol
 _atom_site_label
 _atom_site_symmetry_multiplicity
 _atom_site_fract_x
 _atom_site_fract_y
 _atom_site_fract_z
 _atom_site_occupancy
  Fe  Fe0  1  0.828941  0.171059  0.250941  1
  Fe  Fe1  1  0.828941  0.657883  0.250941  1
  Fe  Fe2  1  0.342117  0.171059  0.250941  1
  Fe  Fe3  1  0.170944  0.829056  0.748871  1
  Fe  Fe4  1  0.170944  0.341888  0.748871  1
  Fe  Fe5  1  0.658112  0.829056  0.748871  1
  Re  Re6  1  0.333333  0.666667  0.435187  1
  Si  Si7  1  0.000000  0.000000  0.499488  1
  Si  Si8  1  0.000000  0.000000  0.999872  1
  Mo  Mo9  1  0.666667  0.333333  0.561805  1
  Mo  Mo10  1  0.666667  0.333333  0.934023  1
  Mo  Mo11  1  0.333333  0.666667  0.070189  1
