# generated using pymatgen
data_Pa2Fe3Co9P7
_symmetry_space_group_name_H-M   'P 1'
_cell_length_a   3.67687400
_cell_length_b   8.98578273
_cell_length_c   8.98980709
_cell_angle_alpha   120.00696460
_cell_angle_beta   90.00000000
_cell_angle_gamma   90.00000000
_symmetry_Int_Tables_number   1
_chemical_formula_structural   Pa2Fe3Co9P7
_chemical_formula_sum   'Pa2 Fe3 Co9 P7'
_cell_volume   257.20842027
_cell_formula_units_Z   1
loop_
 _symmetry_equiv_pos_site_id
 _symmetry_equiv_pos_as_xyz
  1  'x, y, z'
loop_
 _atom_site_type_symbol
 _atom_site_label
 _atom_site_symmetry_multiplicity
 _atom_site_fract_x
 _atom_site_fract_y
 _atom_site_fract_z
 _atom_site_occupancy
  Pa  Pa0  1  0.000000  0.666794  0.333618  1
  Pa  Pa1  1  0.500000  0.333143  0.666436  1
  Fe  Fe2  1  0.500000  0.120293  0.902255  1
  Fe  Fe3  1  0.500000  0.097820  0.218102  1
  Fe  Fe4  1  0.500000  0.781947  0.879557  1
  Co  Co5  1  0.000000  0.371929  0.933825  1
  Co  Co6  1  0.000000  0.065957  0.438114  1
  Co  Co7  1  0.000000  0.562009  0.627912  1
  Co  Co8  1  0.000000  0.876267  0.724297  1
  Co  Co9  1  0.000000  0.275602  0.151936  1
  Co  Co10  1  0.000000  0.848272  0.123840  1
  Co  Co11  1  0.500000  0.945649  0.563446  1
  Co  Co12  1  0.500000  0.436656  0.382222  1
  Co  Co13  1  0.500000  0.617813  0.054576  1
  P  P14  1  0.000000  0.106788  0.704479  1
  P  P15  1  0.000000  0.295442  0.402314  1
  P  P16  1  0.000000  0.597637  0.892994  1
  P  P17  1  0.500000  0.708083  0.602002  1
  P  P18  1  0.500000  0.397909  0.106102  1
  P  P19  1  0.500000  0.893987  0.292007  1
  P  P20  1  0.000000  0.000004  0.999963  1
