# generated using pymatgen
data_Sm2ErTm(B6Os)2
_symmetry_space_group_name_H-M   'P 1'
_cell_length_a   3.66698800
_cell_length_b   9.16671500
_cell_length_c   11.58159925
_cell_angle_alpha   89.98676608
_cell_angle_beta   90.00000000
_cell_angle_gamma   90.00000000
_symmetry_Int_Tables_number   1
_chemical_formula_structural   Sm2ErTm(B6Os)2
_chemical_formula_sum   'Sm4 Er2 Tm2 B24 Os4'
_cell_volume   389.30657578
_cell_formula_units_Z   2
loop_
 _symmetry_equiv_pos_site_id
 _symmetry_equiv_pos_as_xyz
  1  'x, y, z'
loop_
 _atom_site_type_symbol
 _atom_site_label
 _atom_site_symmetry_multiplicity
 _atom_site_fract_x
 _atom_site_fract_y
 _atom_site_fract_z
 _atom_site_occupancy
  Sm  Sm0  1  0.000000  0.321796  0.414337  1
  Sm  Sm1  1  0.000000  0.678204  0.585663  1
  Sm  Sm2  1  0.000000  0.822280  0.085835  1
  Sm  Sm3  1  0.000000  0.177720  0.914165  1
  Er  Er4  1  0.000000  0.444158  0.127424  1
  Er  Er5  1  0.000000  0.555842  0.872576  1
  Tm  Tm6  1  0.000000  0.944250  0.372859  1
  Tm  Tm7  1  0.000000  0.055750  0.627141  1
  B  B8  1  0.500000  0.555425  0.431529  1
  B  B9  1  0.500000  0.444575  0.568471  1
  B  B10  1  0.500000  0.055278  0.068571  1
  B  B11  1  0.500000  0.944722  0.931429  1
  B  B12  1  0.500000  0.749826  0.418224  1
  B  B13  1  0.500000  0.250174  0.581776  1
  B  B14  1  0.500000  0.249201  0.081869  1
  B  B15  1  0.500000  0.750799  0.918131  1
  B  B16  1  0.500000  0.791483  0.266653  1
  B  B17  1  0.500000  0.208517  0.733347  1
  B  B18  1  0.500000  0.290828  0.233548  1
  B  B19  1  0.500000  0.709172  0.766452  1
  B  B20  1  0.500000  0.631017  0.185194  1
  B  B21  1  0.500000  0.368983  0.814806  1
  B  B22  1  0.500000  0.130505  0.315184  1
  B  B23  1  0.500000  0.869495  0.684816  1
  B  B24  1  0.500000  0.984058  0.214222  1
  B  B25  1  0.500000  0.015942  0.785778  1
  B  B26  1  0.500000  0.484487  0.286184  1
  B  B27  1  0.500000  0.515513  0.713816  1
  B  B28  1  0.500000  0.603758  0.028449  1
  B  B29  1  0.500000  0.396242  0.971551  1
  B  B30  1  0.500000  0.102876  0.471776  1
  B  B31  1  0.500000  0.897124  0.528224  1
  Os  Os32  1  0.000000  0.639293  0.319982  1
  Os  Os33  1  0.000000  0.360707  0.680018  1
  Os  Os34  1  0.000000  0.138222  0.180399  1
  Os  Os35  1  0.000000  0.861778  0.819601  1
