# generated using pymatgen
data_Ce2Al2FeCo
_symmetry_space_group_name_H-M   'P 1'
_cell_length_a   6.05399419
_cell_length_b   6.05399344
_cell_length_c   4.69297445
_cell_angle_alpha   73.08888380
_cell_angle_beta   73.08888716
_cell_angle_gamma   43.44134747
_symmetry_Int_Tables_number   1
_chemical_formula_structural   Ce2Al2FeCo
_chemical_formula_sum   'Ce2 Al2 Fe1 Co1'
_cell_volume   112.32284112
_cell_formula_units_Z   1
loop_
 _symmetry_equiv_pos_site_id
 _symmetry_equiv_pos_as_xyz
  1  'x, y, z'
loop_
 _atom_site_type_symbol
 _atom_site_label
 _atom_site_symmetry_multiplicity
 _atom_site_fract_x
 _atom_site_fract_y
 _atom_site_fract_z
 _atom_site_occupancy
  Ce  Ce0  1  0.868351  0.868351  0.335751  1
  Ce  Ce1  1  0.132329  0.132329  0.648830  1
  Al  Al2  1  0.584235  0.584235  0.177970  1
  Al  Al3  1  0.414681  0.414681  0.815354  1
  Fe  Fe4  1  0.189732  0.189732  0.169898  1
  Co  Co5  1  0.810672  0.810672  0.852197  1
