# generated using pymatgen
data_Zr2Ta3Ga3Ge
_symmetry_space_group_name_H-M   'P 1'
_cell_length_a   6.90073400
_cell_length_b   7.00126500
_cell_length_c   13.35808800
_cell_angle_alpha   90.00000000
_cell_angle_beta   90.00000000
_cell_angle_gamma   90.00000000
_symmetry_Int_Tables_number   1
_chemical_formula_structural   Zr2Ta3Ga3Ge
_chemical_formula_sum   'Zr8 Ta12 Ga12 Ge4'
_cell_volume   645.38089273
_cell_formula_units_Z   4
loop_
 _symmetry_equiv_pos_site_id
 _symmetry_equiv_pos_as_xyz
  1  'x, y, z'
loop_
 _atom_site_type_symbol
 _atom_site_label
 _atom_site_symmetry_multiplicity
 _atom_site_fract_x
 _atom_site_fract_y
 _atom_site_fract_z
 _atom_site_occupancy
  Zr  Zr0  1  0.491814  0.674427  0.593445  1
  Zr  Zr1  1  0.991814  0.825573  0.906555  1
  Zr  Zr2  1  0.508186  0.325573  0.093445  1
  Zr  Zr3  1  0.008186  0.174427  0.406555  1
  Zr  Zr4  1  0.503160  0.325552  0.406158  1
  Zr  Zr5  1  0.003160  0.174448  0.093842  1
  Zr  Zr6  1  0.496840  0.674448  0.906158  1
  Zr  Zr7  1  0.996840  0.825552  0.593842  1
  Ta  Ta8  1  0.655071  0.174882  0.628132  1
  Ta  Ta9  1  0.155071  0.325118  0.871868  1
  Ta  Ta10  1  0.344929  0.825118  0.128132  1
  Ta  Ta11  1  0.844929  0.674882  0.371868  1
  Ta  Ta12  1  0.343416  0.824828  0.372516  1
  Ta  Ta13  1  0.843416  0.675172  0.127484  1
  Ta  Ta14  1  0.656584  0.175172  0.872516  1
  Ta  Ta15  1  0.156584  0.324828  0.627484  1
  Ta  Ta16  1  0.836205  0.485080  0.750754  1
  Ta  Ta17  1  0.336205  0.014920  0.749246  1
  Ta  Ta18  1  0.163795  0.514920  0.250754  1
  Ta  Ta19  1  0.663795  0.985080  0.249246  1
  Ga  Ga20  1  0.680982  0.965403  0.460702  1
  Ga  Ga21  1  0.180982  0.534597  0.039298  1
  Ga  Ga22  1  0.319018  0.034597  0.960702  1
  Ga  Ga23  1  0.819018  0.465403  0.539298  1
  Ga  Ga24  1  0.457404  0.395519  0.750067  1
  Ga  Ga25  1  0.957404  0.104481  0.749933  1
  Ga  Ga26  1  0.542596  0.604481  0.250067  1
  Ga  Ga27  1  0.042596  0.895519  0.249933  1
  Ga  Ga28  1  0.697524  0.851442  0.749212  1
  Ga  Ga29  1  0.197524  0.648558  0.750788  1
  Ga  Ga30  1  0.302476  0.148558  0.249212  1
  Ga  Ga31  1  0.802476  0.351442  0.250788  1
  Ge  Ge32  1  0.324373  0.035846  0.538604  1
  Ge  Ge33  1  0.824373  0.464154  0.961396  1
  Ge  Ge34  1  0.675627  0.964154  0.038604  1
  Ge  Ge35  1  0.175627  0.535846  0.461396  1
