# generated using pymatgen
data_La4Dy5LuSi8
_symmetry_space_group_name_H-M   'P 1'
_cell_length_a   7.82409010
_cell_length_b   7.82487700
_cell_length_c   14.48494217
_cell_angle_alpha   90.00000000
_cell_angle_beta   89.98227673
_cell_angle_gamma   90.00000000
_symmetry_Int_Tables_number   1
_chemical_formula_structural   La4Dy5LuSi8
_chemical_formula_sum   'La8 Dy10 Lu2 Si16'
_cell_volume   886.80494711
_cell_formula_units_Z   2
loop_
 _symmetry_equiv_pos_site_id
 _symmetry_equiv_pos_as_xyz
  1  'x, y, z'
loop_
 _atom_site_type_symbol
 _atom_site_label
 _atom_site_symmetry_multiplicity
 _atom_site_fract_x
 _atom_site_fract_y
 _atom_site_fract_z
 _atom_site_occupancy
  La  La0  1  0.991628  0.642788  0.041980  1
  La  La1  1  0.008346  0.357552  0.541133  1
  La  La2  1  0.642641  0.991327  0.958649  1
  La  La3  1  0.142730  0.507935  0.791906  1
  La  La4  1  0.857359  0.491327  0.291351  1
  La  La5  1  0.508372  0.142788  0.208020  1
  La  La6  1  0.491654  0.857552  0.708867  1
  La  La7  1  0.357270  0.007935  0.458094  1
  Dy  Dy8  1  0.360858  0.492362  0.374274  1
  Dy  Dy9  1  0.861005  0.007272  0.374425  1
  Dy  Dy10  1  0.992797  0.139005  0.125033  1
  Dy  Dy11  1  0.007958  0.860751  0.624840  1
  Dy  Dy12  1  0.638995  0.507272  0.875575  1
  Dy  Dy13  1  0.492042  0.360751  0.625160  1
  Dy  Dy14  1  0.507203  0.639005  0.124967  1
  Dy  Dy15  1  0.139142  0.992362  0.875726  1
  Dy  Dy16  1  0.681887  0.683173  0.499988  1
  Dy  Dy17  1  0.818113  0.183173  0.750012  1
  Lu  Lu18  1  0.182716  0.817971  0.249798  1
  Lu  Lu19  1  0.317284  0.317971  0.000202  1
  Si  Si20  1  0.065438  0.711152  0.436521  1
  Si  Si21  1  0.936707  0.289437  0.938430  1
  Si  Si22  1  0.710995  0.064811  0.561580  1
  Si  Si23  1  0.210805  0.435995  0.186649  1
  Si  Si24  1  0.789005  0.564811  0.688420  1
  Si  Si25  1  0.434562  0.211153  0.813479  1
  Si  Si26  1  0.563293  0.789437  0.311570  1
  Si  Si27  1  0.289196  0.935995  0.063351  1
  Si  Si28  1  0.848000  0.795510  0.809110  1
  Si  Si29  1  0.152997  0.202715  0.308202  1
  Si  Si30  1  0.796545  0.847610  0.191002  1
  Si  Si31  1  0.296226  0.652634  0.558286  1
  Si  Si32  1  0.703455  0.347610  0.058998  1
  Si  Si33  1  0.652000  0.295510  0.440890  1
  Si  Si34  1  0.347003  0.702715  0.941798  1
  Si  Si35  1  0.203774  0.152634  0.691714  1
