# generated using pymatgen
data_Ho4Sn5GeIr7
_symmetry_space_group_name_H-M   'P 1'
_cell_length_a   7.53935292
_cell_length_b   7.53935307
_cell_length_c   7.53935368
_cell_angle_alpha   109.34358227
_cell_angle_beta   109.53507996
_cell_angle_gamma   109.53508158
_symmetry_Int_Tables_number   1
_chemical_formula_structural   Ho4Sn5GeIr7
_chemical_formula_sum   'Ho4 Sn5 Ge1 Ir7'
_cell_volume   329.89727631
_cell_formula_units_Z   1
loop_
 _symmetry_equiv_pos_site_id
 _symmetry_equiv_pos_as_xyz
  1  'x, y, z'
loop_
 _atom_site_type_symbol
 _atom_site_label
 _atom_site_symmetry_multiplicity
 _atom_site_fract_x
 _atom_site_fract_y
 _atom_site_fract_z
 _atom_site_occupancy
  Ho  Ho0  1  0.000000  0.990676  0.526106  1
  Ho  Ho1  1  0.000000  0.526106  0.990676  1
  Ho  Ho2  1  0.464571  0.990676  0.990676  1
  Ho  Ho3  1  0.535429  0.526106  0.526106  1
  Sn  Sn4  1  0.686950  0.700016  0.013067  1
  Sn  Sn5  1  0.313050  0.013067  0.326117  1
  Sn  Sn6  1  0.000000  0.293474  0.293474  1
  Sn  Sn7  1  0.313050  0.326117  0.013067  1
  Sn  Sn8  1  0.686950  0.013067  0.700016  1
  Ge  Ge9  1  0.000000  0.658786  0.658786  1
  Ir  Ir10  1  0.753940  0.248575  0.494635  1
  Ir  Ir11  1  0.753940  0.494635  0.248575  1
  Ir  Ir12  1  0.500000  0.259252  0.759252  1
  Ir  Ir13  1  0.246060  0.494635  0.740695  1
  Ir  Ir14  1  0.246060  0.740695  0.494635  1
  Ir  Ir15  1  0.500000  0.759252  0.259252  1
  Ir  Ir16  1  0.000000  0.964864  0.964864  1
