# generated using pymatgen
data_Tb3Dy7(PPb3)2
_symmetry_space_group_name_H-M   'P 1'
_cell_length_a   9.18148000
_cell_length_b   9.18147970
_cell_length_c   6.81293300
_cell_angle_alpha   90.00000000
_cell_angle_beta   90.00000000
_cell_angle_gamma   120.00000829
_symmetry_Int_Tables_number   1
_chemical_formula_structural   Tb3Dy7(PPb3)2
_chemical_formula_sum   'Tb3 Dy7 P2 Pb6'
_cell_volume   497.38202286
_cell_formula_units_Z   1
loop_
 _symmetry_equiv_pos_site_id
 _symmetry_equiv_pos_as_xyz
  1  'x, y, z'
loop_
 _atom_site_type_symbol
 _atom_site_label
 _atom_site_symmetry_multiplicity
 _atom_site_fract_x
 _atom_site_fract_y
 _atom_site_fract_z
 _atom_site_occupancy
  Tb  Tb0  1  0.761628  0.761628  0.750000  1
  Tb  Tb1  1  0.238372  0.000000  0.750000  1
  Tb  Tb2  1  0.000000  0.238372  0.750000  1
  Dy  Dy3  1  0.237912  0.237912  0.250000  1
  Dy  Dy4  1  0.762088  0.000000  0.250000  1
  Dy  Dy5  1  0.000000  0.762088  0.250000  1
  Dy  Dy6  1  0.666667  0.333333  0.000040  1
  Dy  Dy7  1  0.333333  0.666667  0.000040  1
  Dy  Dy8  1  0.333333  0.666667  0.499960  1
  Dy  Dy9  1  0.666667  0.333333  0.499960  1
  P  P10  1  0.000000  0.000000  0.000718  1
  P  P11  1  0.000000  0.000000  0.499282  1
  Pb  Pb12  1  0.400074  0.400074  0.750000  1
  Pb  Pb13  1  0.599926  0.000000  0.750000  1
  Pb  Pb14  1  0.000000  0.599926  0.750000  1
  Pb  Pb15  1  0.600080  0.600080  0.250000  1
  Pb  Pb16  1  0.399920  0.000000  0.250000  1
  Pb  Pb17  1  0.000000  0.399920  0.250000  1
