# generated using pymatgen
data_Hf3Ti2AlSn2
_symmetry_space_group_name_H-M   'P 1'
_cell_length_a   8.20406043
_cell_length_b   8.20406088
_cell_length_c   5.51513700
_cell_angle_alpha   90.00000000
_cell_angle_beta   90.00000000
_cell_angle_gamma   120.27130042
_symmetry_Int_Tables_number   1
_chemical_formula_structural   Hf3Ti2AlSn2
_chemical_formula_sum   'Hf6 Ti4 Al2 Sn4'
_cell_volume   320.59067276
_cell_formula_units_Z   2
loop_
 _symmetry_equiv_pos_site_id
 _symmetry_equiv_pos_as_xyz
  1  'x, y, z'
loop_
 _atom_site_type_symbol
 _atom_site_label
 _atom_site_symmetry_multiplicity
 _atom_site_fract_x
 _atom_site_fract_y
 _atom_site_fract_z
 _atom_site_occupancy
  Hf  Hf0  1  0.239603  0.010785  0.250000  1
  Hf  Hf1  1  0.760397  0.989215  0.750000  1
  Hf  Hf2  1  0.010785  0.239603  0.250000  1
  Hf  Hf3  1  0.989215  0.760397  0.750000  1
  Hf  Hf4  1  0.750669  0.750669  0.250000  1
  Hf  Hf5  1  0.249331  0.249331  0.750000  1
  Ti  Ti6  1  0.340977  0.659023  0.000000  1
  Ti  Ti7  1  0.659023  0.340977  0.000000  1
  Ti  Ti8  1  0.659023  0.340977  0.500000  1
  Ti  Ti9  1  0.340977  0.659023  0.500000  1
  Al  Al10  1  0.401881  0.401881  0.250000  1
  Al  Al11  1  0.598119  0.598119  0.750000  1
  Sn  Sn12  1  0.603413  0.005481  0.250000  1
  Sn  Sn13  1  0.396587  0.994519  0.750000  1
  Sn  Sn14  1  0.005481  0.603413  0.250000  1
  Sn  Sn15  1  0.994519  0.396587  0.750000  1
