# generated using pymatgen
data_Hf3Ga3CuRuRh
_symmetry_space_group_name_H-M   'P 1'
_cell_length_a   7.24836000
_cell_length_b   7.24836009
_cell_length_c   3.29085500
_cell_angle_alpha   90.00000000
_cell_angle_beta   90.00000000
_cell_angle_gamma   119.99999959
_symmetry_Int_Tables_number   1
_chemical_formula_structural   Hf3Ga3CuRuRh
_chemical_formula_sum   'Hf3 Ga3 Cu1 Ru1 Rh1'
_cell_volume   149.73347234
_cell_formula_units_Z   1
loop_
 _symmetry_equiv_pos_site_id
 _symmetry_equiv_pos_as_xyz
  1  'x, y, z'
loop_
 _atom_site_type_symbol
 _atom_site_label
 _atom_site_symmetry_multiplicity
 _atom_site_fract_x
 _atom_site_fract_y
 _atom_site_fract_z
 _atom_site_occupancy
  Hf  Hf0  1  0.392974  0.996739  0.500000  1
  Hf  Hf1  1  0.003261  0.396235  0.500000  1
  Hf  Hf2  1  0.603765  0.607026  0.500000  1
  Ga  Ga3  1  0.732898  0.999857  0.000000  1
  Ga  Ga4  1  0.000143  0.733040  0.000000  1
  Ga  Ga5  1  0.266960  0.267102  0.000000  1
  Cu  Cu6  1  0.000000  0.000000  0.500000  1
  Ru  Ru7  1  0.333333  0.666667  0.000000  1
  Rh  Rh8  1  0.666667  0.333333  0.000000  1
