# generated using pymatgen
data_LaPrY4CoI10
_symmetry_space_group_name_H-M   'P 1'
_cell_length_a   7.81913205
_cell_length_b   9.84563607
_cell_length_c   9.78705179
_cell_angle_alpha   106.89876621
_cell_angle_beta   96.02045569
_cell_angle_gamma   105.47928723
_symmetry_Int_Tables_number   1
_chemical_formula_structural   LaPrY4CoI10
_chemical_formula_sum   'La1 Pr1 Y4 Co1 I10'
_cell_volume   681.02828593
_cell_formula_units_Z   1
loop_
 _symmetry_equiv_pos_site_id
 _symmetry_equiv_pos_as_xyz
  1  'x, y, z'
loop_
 _atom_site_type_symbol
 _atom_site_label
 _atom_site_symmetry_multiplicity
 _atom_site_fract_x
 _atom_site_fract_y
 _atom_site_fract_z
 _atom_site_occupancy
  La  La0  1  0.113362  0.041986  0.768852  1
  Pr  Pr1  1  0.887177  0.958536  0.230696  1
  Y  Y2  1  0.028578  0.716908  0.915196  1
  Y  Y3  1  0.971030  0.282977  0.086126  1
  Y  Y4  1  0.654463  0.875526  0.837618  1
  Y  Y5  1  0.344776  0.123961  0.163162  1
  Co  Co6  1  0.001607  0.000755  0.996646  1
  I  I7  1  0.650439  0.551977  0.729973  1
  I  I8  1  0.349677  0.447925  0.270023  1
  I  I9  1  0.729084  0.909264  0.540680  1
  I  I10  1  0.268121  0.089713  0.458224  1
  I  I11  1  0.082412  0.379192  0.823811  1
  I  I12  1  0.916980  0.622617  0.177300  1
  I  I13  1  0.446951  0.817008  0.090211  1
  I  I14  1  0.555109  0.183739  0.911207  1
  I  I15  1  0.225710  0.736219  0.657117  1
  I  I16  1  0.774525  0.261696  0.343156  1
