# generated using pymatgen
data_TmLu2In4CoPt
_symmetry_space_group_name_H-M   'P 1'
_cell_length_a   7.86467802
_cell_length_b   7.87295833
_cell_length_c   3.65174200
_cell_angle_alpha   90.00000000
_cell_angle_beta   90.00000000
_cell_angle_gamma   119.95666257
_symmetry_Int_Tables_number   1
_chemical_formula_structural   TmLu2In4CoPt
_chemical_formula_sum   'Tm1 Lu2 In4 Co1 Pt1'
_cell_volume   195.90210734
_cell_formula_units_Z   1
loop_
 _symmetry_equiv_pos_site_id
 _symmetry_equiv_pos_as_xyz
  1  'x, y, z'
loop_
 _atom_site_type_symbol
 _atom_site_label
 _atom_site_symmetry_multiplicity
 _atom_site_fract_x
 _atom_site_fract_y
 _atom_site_fract_z
 _atom_site_occupancy
  Tm  Tm0  1  0.958257  0.699989  0.500000  1
  Lu  Lu1  1  0.298770  0.257825  0.500000  1
  Lu  Lu2  1  0.742269  0.041118  0.500000  1
  In  In3  1  0.080796  0.420113  0.000000  1
  In  In4  1  0.579642  0.660547  0.000000  1
  In  In5  1  0.340350  0.919735  0.000000  1
  In  In6  1  0.666230  0.332670  0.000000  1
  Co  Co7  1  0.333417  0.666498  0.500000  1
  Pt  Pt8  1  0.000269  0.001504  0.000000  1
