# generated using pymatgen
data_Dy2In3Bi(TeO6)3
_symmetry_space_group_name_H-M   'P 1'
_cell_length_a   9.11568400
_cell_length_b   9.12714339
_cell_length_c   5.13829827
_cell_angle_alpha   89.87296195
_cell_angle_beta   90.00000000
_cell_angle_gamma   119.95848336
_symmetry_Int_Tables_number   1
_chemical_formula_structural   Dy2In3Bi(TeO6)3
_chemical_formula_sum   'Dy2 In3 Bi1 Te3 O18'
_cell_volume   370.38568263
_cell_formula_units_Z   1
loop_
 _symmetry_equiv_pos_site_id
 _symmetry_equiv_pos_as_xyz
  1  'x, y, z'
loop_
 _atom_site_type_symbol
 _atom_site_label
 _atom_site_symmetry_multiplicity
 _atom_site_fract_x
 _atom_site_fract_y
 _atom_site_fract_z
 _atom_site_occupancy
  Dy  Dy0  1  0.001330  0.623351  0.999751  1
  Dy  Dy1  1  0.377979  0.376649  0.000249  1
  In  In2  1  0.289091  0.000000  0.500000  1
  In  In3  1  0.000905  0.289729  0.499348  1
  In  In4  1  0.711175  0.710271  0.500652  1
  Bi  Bi5  1  0.623513  0.000000  0.000000  1
  Te  Te6  1  0.003134  0.000000  0.000000  1
  Te  Te7  1  0.329958  0.663130  0.504632  1
  Te  Te8  1  0.666829  0.336870  0.495368  1
  O  O9  1  0.090723  0.884566  0.787597  1
  O  O10  1  0.116758  0.205075  0.788988  1
  O  O11  1  0.799988  0.911254  0.783385  1
  O  O12  1  0.206156  0.115434  0.212403  1
  O  O13  1  0.911684  0.794925  0.211012  1
  O  O14  1  0.888733  0.088746  0.216615  1
  O  O15  1  0.458565  0.592783  0.724275  1
  O  O16  1  0.397010  0.863504  0.716350  1
  O  O17  1  0.128774  0.535874  0.718692  1
  O  O18  1  0.865781  0.407217  0.275725  1
  O  O19  1  0.533505  0.136496  0.283650  1
  O  O20  1  0.592898  0.464126  0.281308  1
  O  O21  1  0.224271  0.761075  0.286012  1
  O  O22  1  0.235796  0.459232  0.289511  1
  O  O23  1  0.538026  0.770364  0.294884  1
  O  O24  1  0.463196  0.238925  0.713988  1
  O  O25  1  0.776564  0.540768  0.710489  1
  O  O26  1  0.767662  0.229636  0.705116  1
