# generated using pymatgen
data_Sr2Ni2Te(ClO3)2
_symmetry_space_group_name_H-M   'P 1'
_cell_length_a   8.79591266
_cell_length_b   5.30177200
_cell_length_c   9.61839414
_cell_angle_alpha   90.00000000
_cell_angle_beta   95.01075579
_cell_angle_gamma   90.00000000
_symmetry_Int_Tables_number   1
_chemical_formula_structural   Sr2Ni2Te(ClO3)2
_chemical_formula_sum   'Sr4 Ni4 Te2 Cl4 O12'
_cell_volume   446.82926637
_cell_formula_units_Z   2
loop_
 _symmetry_equiv_pos_site_id
 _symmetry_equiv_pos_as_xyz
  1  'x, y, z'
loop_
 _atom_site_type_symbol
 _atom_site_label
 _atom_site_symmetry_multiplicity
 _atom_site_fract_x
 _atom_site_fract_y
 _atom_site_fract_z
 _atom_site_occupancy
  Sr  Sr0  1  0.286164  0.900912  0.195076  1
  Sr  Sr1  1  0.713837  0.400911  0.304925  1
  Sr  Sr2  1  0.286164  0.599088  0.695076  1
  Sr  Sr3  1  0.713837  0.099089  0.804924  1
  Ni  Ni4  1  0.916807  0.003475  0.129949  1
  Ni  Ni5  1  0.083192  0.503474  0.370051  1
  Ni  Ni6  1  0.916807  0.496525  0.629949  1
  Ni  Ni7  1  0.083192  0.996526  0.870050  1
  Te  Te8  1  0.000000  0.500000  0.000000  1
  Te  Te9  1  0.000000  0.000000  0.500001  1
  Cl  Cl10  1  0.625834  0.893030  0.173868  1
  Cl  Cl11  1  0.374166  0.393029  0.326133  1
  Cl  Cl12  1  0.625834  0.606970  0.673868  1
  Cl  Cl13  1  0.374166  0.106971  0.826132  1
  O  O14  1  0.108168  0.185800  0.058131  1
  O  O15  1  0.815296  0.333817  0.053639  1
  O  O16  1  0.034617  0.668127  0.182066  1
  O  O17  1  0.965383  0.168127  0.317933  1
  O  O18  1  0.184704  0.833817  0.446361  1
  O  O19  1  0.891831  0.685801  0.441868  1
  O  O20  1  0.108168  0.314200  0.558131  1
  O  O21  1  0.815296  0.166182  0.553638  1
  O  O22  1  0.034617  0.831872  0.682067  1
  O  O23  1  0.965383  0.331874  0.817933  1
  O  O24  1  0.184704  0.666182  0.946362  1
  O  O25  1  0.891831  0.814199  0.941869  1
