# generated using pymatgen
data_YTmSc2(Al3Rh)6
_symmetry_space_group_name_H-M   'P 1'
_cell_length_a   7.50816103
_cell_length_b   7.50981449
_cell_length_c   9.36799000
_cell_angle_alpha   90.00000000
_cell_angle_beta   90.00000000
_cell_angle_gamma   119.45072592
_symmetry_Int_Tables_number   1
_chemical_formula_structural   YTmSc2(Al3Rh)6
_chemical_formula_sum   'Y1 Tm1 Sc2 Al18 Rh6'
_cell_volume   459.95683951
_cell_formula_units_Z   1
loop_
 _symmetry_equiv_pos_site_id
 _symmetry_equiv_pos_as_xyz
  1  'x, y, z'
loop_
 _atom_site_type_symbol
 _atom_site_label
 _atom_site_symmetry_multiplicity
 _atom_site_fract_x
 _atom_site_fract_y
 _atom_site_fract_z
 _atom_site_occupancy
  Y  Y0  1  0.993486  0.671629  0.250000  1
  Tm  Tm1  1  0.672093  0.993737  0.250000  1
  Sc  Sc2  1  0.004379  0.326527  0.750000  1
  Sc  Sc3  1  0.326721  0.004711  0.750000  1
  Al  Al4  1  0.129787  0.130476  0.250000  1
  Al  Al5  1  0.878410  0.878769  0.750000  1
  Al  Al6  1  0.001261  0.334895  0.070452  1
  Al  Al7  1  0.003419  0.664082  0.916434  1
  Al  Al8  1  0.003419  0.664082  0.583566  1
  Al  Al9  1  0.336060  0.001788  0.429519  1
  Al  Al10  1  0.001261  0.334895  0.429548  1
  Al  Al11  1  0.664083  0.003465  0.582614  1
  Al  Al12  1  0.664083  0.003465  0.917386  1
  Al  Al13  1  0.336060  0.001788  0.070481  1
  Al  Al14  1  0.329936  0.329954  0.559972  1
  Al  Al15  1  0.666551  0.667107  0.455511  1
  Al  Al16  1  0.666551  0.667107  0.044489  1
  Al  Al17  1  0.329936  0.329954  0.940028  1
  Al  Al18  1  0.340411  0.549404  0.250000  1
  Al  Al19  1  0.658499  0.442037  0.750000  1
  Al  Al20  1  0.548467  0.338276  0.250000  1
  Al  Al21  1  0.442141  0.658878  0.750000  1
  Rh  Rh22  1  0.672871  0.327606  0.998825  1
  Rh  Rh23  1  0.328098  0.673049  0.998784  1
  Rh  Rh24  1  0.328098  0.673049  0.501216  1
  Rh  Rh25  1  0.672871  0.327606  0.501175  1
  Rh  Rh26  1  0.000524  0.000833  0.998540  1
  Rh  Rh27  1  0.000524  0.000833  0.501460  1
