# generated using pymatgen
data_Pr16AlCd(HgIr2)2
_symmetry_space_group_name_H-M   'P 1'
_cell_length_a   9.99257112
_cell_length_b   10.00491095
_cell_length_c   10.00464512
_cell_angle_alpha   60.02330542
_cell_angle_beta   60.03583294
_cell_angle_gamma   59.96741207
_symmetry_Int_Tables_number   1
_chemical_formula_structural   Pr16AlCd(HgIr2)2
_chemical_formula_sum   'Pr16 Al1 Cd1 Hg2 Ir4'
_cell_volume   707.39819009
_cell_formula_units_Z   1
loop_
 _symmetry_equiv_pos_site_id
 _symmetry_equiv_pos_as_xyz
  1  'x, y, z'
loop_
 _atom_site_type_symbol
 _atom_site_label
 _atom_site_symmetry_multiplicity
 _atom_site_fract_x
 _atom_site_fract_y
 _atom_site_fract_z
 _atom_site_occupancy
  Pr  Pr0  1  0.348840  0.348509  0.348313  1
  Pr  Pr1  1  0.350433  0.350424  0.952503  1
  Pr  Pr2  1  0.350288  0.952708  0.350346  1
  Pr  Pr3  1  0.951474  0.350518  0.350613  1
  Pr  Pr4  1  0.808795  0.190577  0.190798  1
  Pr  Pr5  1  0.190736  0.806527  0.806541  1
  Pr  Pr6  1  0.189407  0.809607  0.190432  1
  Pr  Pr7  1  0.805506  0.191934  0.805752  1
  Pr  Pr8  1  0.189567  0.190413  0.809490  1
  Pr  Pr9  1  0.805506  0.805705  0.192125  1
  Pr  Pr10  1  0.937349  0.562124  0.562063  1
  Pr  Pr11  1  0.559648  0.939579  0.939691  1
  Pr  Pr12  1  0.561388  0.939337  0.561929  1
  Pr  Pr13  1  0.938232  0.560431  0.939704  1
  Pr  Pr14  1  0.561372  0.561971  0.939512  1
  Pr  Pr15  1  0.938298  0.939683  0.560360  1
  Al  Al16  1  0.579779  0.579208  0.579225  1
  Cd  Cd17  1  0.264649  0.579500  0.579512  1
  Hg  Hg18  1  0.582819  0.585150  0.252919  1
  Hg  Hg19  1  0.582788  0.252929  0.585135  1
  Ir  Ir20  1  0.141856  0.141978  0.141921  1
  Ir  Ir21  1  0.142573  0.142567  0.576139  1
  Ir  Ir22  1  0.142497  0.576115  0.142515  1
  Ir  Ir23  1  0.576196  0.142505  0.142461  1
