# generated using pymatgen
data_Tb12Ga8Pd3Ru5
_symmetry_space_group_name_H-M   'P 1'
_cell_length_a   5.58174550
_cell_length_b   7.83179281
_cell_length_c   13.68044700
_cell_angle_alpha   90.13441320
_cell_angle_beta   90.05427027
_cell_angle_gamma   90.16175671
_symmetry_Int_Tables_number   1
_chemical_formula_structural   Tb12Ga8Pd3Ru5
_chemical_formula_sum   'Tb12 Ga8 Pd3 Ru5'
_cell_volume   598.03745624
_cell_formula_units_Z   1
loop_
 _symmetry_equiv_pos_site_id
 _symmetry_equiv_pos_as_xyz
  1  'x, y, z'
loop_
 _atom_site_type_symbol
 _atom_site_label
 _atom_site_symmetry_multiplicity
 _atom_site_fract_x
 _atom_site_fract_y
 _atom_site_fract_z
 _atom_site_occupancy
  Tb  Tb0  1  0.620061  0.256837  0.256540  1
  Tb  Tb1  1  0.378284  0.751429  0.748983  1
  Tb  Tb2  1  0.371673  0.771400  0.251902  1
  Tb  Tb3  1  0.631333  0.224784  0.750116  1
  Tb  Tb4  1  0.147475  0.389552  0.097982  1
  Tb  Tb5  1  0.852260  0.610258  0.902303  1
  Tb  Tb6  1  0.848896  0.606496  0.594659  1
  Tb  Tb7  1  0.849095  0.899825  0.403237  1
  Tb  Tb8  1  0.145911  0.400923  0.400364  1
  Tb  Tb9  1  0.151181  0.092674  0.595956  1
  Tb  Tb10  1  0.149151  0.093304  0.903394  1
  Tb  Tb11  1  0.851418  0.907304  0.097732  1
  Ga  Ga12  1  0.117965  0.109609  0.250666  1
  Ga  Ga13  1  0.880951  0.888372  0.748664  1
  Ga  Ga14  1  0.874433  0.608616  0.250336  1
  Ga  Ga15  1  0.121371  0.392041  0.750124  1
  Ga  Ga16  1  0.648483  0.245366  0.996640  1
  Ga  Ga17  1  0.350061  0.754329  0.003324  1
  Ga  Ga18  1  0.365432  0.751253  0.495080  1
  Ga  Ga19  1  0.644334  0.248210  0.501267  1
  Pd  Pd20  1  0.358454  0.465119  0.595371  1
  Pd  Pd21  1  0.362331  0.466230  0.905051  1
  Pd  Pd22  1  0.638427  0.534035  0.093835  1
  Ru  Ru23  1  0.355862  0.044752  0.092555  1
  Ru  Ru24  1  0.645168  0.953875  0.906546  1
  Ru  Ru25  1  0.643735  0.962716  0.593034  1
  Ru  Ru26  1  0.645097  0.528234  0.406951  1
  Ru  Ru27  1  0.351160  0.042455  0.407389  1
