# generated using pymatgen
data_Pr2SmIrO8
_symmetry_space_group_name_H-M   'P 1'
_cell_length_a   6.16521400
_cell_length_b   7.35990928
_cell_length_c   7.37809100
_cell_angle_alpha   69.95245016
_cell_angle_beta   90.00000000
_cell_angle_gamma   90.00000000
_symmetry_Int_Tables_number   1
_chemical_formula_structural   Pr2SmIrO8
_chemical_formula_sum   'Pr4 Sm2 Ir2 O16'
_cell_volume   314.49886962
_cell_formula_units_Z   2
loop_
 _symmetry_equiv_pos_site_id
 _symmetry_equiv_pos_as_xyz
  1  'x, y, z'
loop_
 _atom_site_type_symbol
 _atom_site_label
 _atom_site_symmetry_multiplicity
 _atom_site_fract_x
 _atom_site_fract_y
 _atom_site_fract_z
 _atom_site_occupancy
  Pr  Pr0  1  0.250000  0.394910  0.394485  1
  Pr  Pr1  1  0.750000  0.605090  0.605515  1
  Pr  Pr2  1  0.250000  0.331436  0.894247  1
  Pr  Pr3  1  0.750000  0.668564  0.105753  1
  Sm  Sm4  1  0.750000  0.107985  0.661082  1
  Sm  Sm5  1  0.250000  0.892015  0.338918  1
  Ir  Ir6  1  0.250000  0.818962  0.817725  1
  Ir  Ir7  1  0.750000  0.181038  0.182275  1
  O  O8  1  0.997576  0.330880  0.664269  1
  O  O9  1  0.497576  0.669120  0.335731  1
  O  O10  1  0.002424  0.669120  0.335731  1
  O  O11  1  0.502424  0.330880  0.664269  1
  O  O12  1  0.943227  0.808925  0.800576  1
  O  O13  1  0.443227  0.191075  0.199424  1
  O  O14  1  0.056773  0.191075  0.199424  1
  O  O15  1  0.556773  0.808925  0.800576  1
  O  O16  1  0.750000  0.961367  0.416428  1
  O  O17  1  0.250000  0.038633  0.583572  1
  O  O18  1  0.750000  0.341980  0.342533  1
  O  O19  1  0.250000  0.658020  0.657467  1
  O  O20  1  0.750000  0.415754  0.961598  1
  O  O21  1  0.250000  0.584246  0.038402  1
  O  O22  1  0.750000  0.030623  0.020577  1
  O  O23  1  0.250000  0.969377  0.979423  1
