# generated using pymatgen
data_Y6Tm14Cd6IrRu
_symmetry_space_group_name_H-M   'P 1'
_cell_length_a   9.54806200
_cell_length_b   9.54806178
_cell_length_c   9.72420100
_cell_angle_alpha   90.00000000
_cell_angle_beta   90.00000000
_cell_angle_gamma   120.00000075
_symmetry_Int_Tables_number   1
_chemical_formula_structural   Y6Tm14Cd6IrRu
_chemical_formula_sum   'Y6 Tm14 Cd6 Ir1 Ru1'
_cell_volume   767.74148188
_cell_formula_units_Z   1
loop_
 _symmetry_equiv_pos_site_id
 _symmetry_equiv_pos_as_xyz
  1  'x, y, z'
loop_
 _atom_site_type_symbol
 _atom_site_label
 _atom_site_symmetry_multiplicity
 _atom_site_fract_x
 _atom_site_fract_y
 _atom_site_fract_z
 _atom_site_occupancy
  Y  Y0  1  0.540570  0.459430  0.250000  1
  Y  Y1  1  0.540570  0.081141  0.250000  1
  Y  Y2  1  0.918859  0.459430  0.250000  1
  Y  Y3  1  0.459520  0.540480  0.750000  1
  Y  Y4  1  0.459520  0.919040  0.750000  1
  Y  Y5  1  0.080960  0.540480  0.750000  1
  Tm  Tm6  1  0.000000  0.000000  0.499684  1
  Tm  Tm7  1  0.000000  0.000000  0.000316  1
  Tm  Tm8  1  0.209580  0.790420  0.440333  1
  Tm  Tm9  1  0.209580  0.419162  0.440333  1
  Tm  Tm10  1  0.580838  0.790420  0.440333  1
  Tm  Tm11  1  0.790114  0.209886  0.559947  1
  Tm  Tm12  1  0.790114  0.580228  0.559947  1
  Tm  Tm13  1  0.419772  0.209886  0.559947  1
  Tm  Tm14  1  0.790114  0.209886  0.940053  1
  Tm  Tm15  1  0.790114  0.580228  0.940053  1
  Tm  Tm16  1  0.419772  0.209886  0.940053  1
  Tm  Tm17  1  0.209580  0.790420  0.059667  1
  Tm  Tm18  1  0.209580  0.419162  0.059667  1
  Tm  Tm19  1  0.580838  0.790420  0.059667  1
  Cd  Cd20  1  0.886057  0.113943  0.250000  1
  Cd  Cd21  1  0.886057  0.772115  0.250000  1
  Cd  Cd22  1  0.227885  0.113943  0.250000  1
  Cd  Cd23  1  0.113994  0.886006  0.750000  1
  Cd  Cd24  1  0.113994  0.227986  0.750000  1
  Cd  Cd25  1  0.772014  0.886006  0.750000  1
  Ir  Ir26  1  0.333333  0.666667  0.250000  1
  Ru  Ru27  1  0.666667  0.333333  0.750000  1
