# generated using pymatgen
data_Sm4Dy3FeBr12
_symmetry_space_group_name_H-M   'P 1'
_cell_length_a   9.22401555
_cell_length_b   9.32604709
_cell_length_c   9.33766611
_cell_angle_alpha   106.90418136
_cell_angle_beta   107.07487713
_cell_angle_gamma   106.63735347
_symmetry_Int_Tables_number   1
_chemical_formula_structural   Sm4Dy3FeBr12
_chemical_formula_sum   'Sm4 Dy3 Fe1 Br12'
_cell_volume   671.27428956
_cell_formula_units_Z   1
loop_
 _symmetry_equiv_pos_site_id
 _symmetry_equiv_pos_as_xyz
  1  'x, y, z'
loop_
 _atom_site_type_symbol
 _atom_site_label
 _atom_site_symmetry_multiplicity
 _atom_site_fract_x
 _atom_site_fract_y
 _atom_site_fract_z
 _atom_site_occupancy
  Sm  Sm0  1  0.296542  0.022321  0.096192  1
  Sm  Sm1  1  0.900580  0.690302  0.977803  1
  Sm  Sm2  1  0.978702  0.902043  0.690137  1
  Sm  Sm3  1  0.704464  0.978737  0.906429  1
  Dy  Dy4  1  0.499603  0.500577  0.500254  1
  Dy  Dy5  1  0.097873  0.304253  0.022536  1
  Dy  Dy6  1  0.022046  0.099040  0.304680  1
  Fe  Fe7  1  0.000891  0.000724  0.000750  1
  Br  Br8  1  0.460031  0.388386  0.170234  1
  Br  Br9  1  0.166466  0.460088  0.384564  1
  Br  Br10  1  0.384609  0.171191  0.463014  1
  Br  Br11  1  0.534298  0.611505  0.827776  1
  Br  Br12  1  0.830104  0.534674  0.610549  1
  Br  Br13  1  0.610309  0.828837  0.536856  1
  Br  Br14  1  0.779122  0.318536  0.928785  1
  Br  Br15  1  0.929362  0.780907  0.319663  1
  Br  Br16  1  0.320218  0.928730  0.776662  1
  Br  Br17  1  0.225911  0.678264  0.072388  1
  Br  Br18  1  0.072631  0.227936  0.682700  1
  Br  Br19  1  0.686236  0.072949  0.228028  1
