# generated using pymatgen
data_Ho4Co7Ni7P8
_symmetry_space_group_name_H-M   'P 1'
_cell_length_a   3.65346100
_cell_length_b   9.08938866
_cell_length_c   10.26386108
_cell_angle_alpha   90.10253681
_cell_angle_beta   90.00000000
_cell_angle_gamma   90.00000000
_symmetry_Int_Tables_number   1
_chemical_formula_structural   Ho4Co7Ni7P8
_chemical_formula_sum   'Ho4 Co7 Ni7 P8'
_cell_volume   340.83895091
_cell_formula_units_Z   1
loop_
 _symmetry_equiv_pos_site_id
 _symmetry_equiv_pos_as_xyz
  1  'x, y, z'
loop_
 _atom_site_type_symbol
 _atom_site_label
 _atom_site_symmetry_multiplicity
 _atom_site_fract_x
 _atom_site_fract_y
 _atom_site_fract_z
 _atom_site_occupancy
  Ho  Ho0  1  0.000000  0.057755  0.395617  1
  Ho  Ho1  1  0.500000  0.940565  0.895651  1
  Ho  Ho2  1  0.000000  0.439509  0.178033  1
  Ho  Ho3  1  0.500000  0.563501  0.676839  1
  Co  Co4  1  0.000000  0.064168  0.703161  1
  Co  Co5  1  0.500000  0.936370  0.202146  1
  Co  Co6  1  0.000000  0.728478  0.509802  1
  Co  Co7  1  0.500000  0.271159  0.008934  1
  Co  Co8  1  0.000000  0.096254  0.100138  1
  Co  Co9  1  0.500000  0.904482  0.598407  1
  Co  Co10  1  0.000000  0.750615  0.272669  1
  Ni  Ni11  1  0.500000  0.252283  0.771483  1
  Ni  Ni12  1  0.000000  0.309582  0.599773  1
  Ni  Ni13  1  0.500000  0.689598  0.102083  1
  Ni  Ni14  1  0.000000  0.687035  0.910492  1
  Ni  Ni15  1  0.500000  0.311644  0.408429  1
  Ni  Ni16  1  0.000000  0.415798  0.866981  1
  Ni  Ni17  1  0.500000  0.582919  0.366376  1
  P  P18  1  0.000000  0.179243  0.897865  1
  P  P19  1  0.500000  0.818930  0.394394  1
  P  P20  1  0.000000  0.849534  0.085840  1
  P  P21  1  0.500000  0.150440  0.584587  1
  P  P22  1  0.000000  0.816872  0.709993  1
  P  P23  1  0.500000  0.183720  0.210025  1
  P  P24  1  0.000000  0.483734  0.458812  1
  P  P25  1  0.500000  0.515814  0.959666  1
