# generated using pymatgen
data_ZrBe8ReTc2
_symmetry_space_group_name_H-M   'P 1'
_cell_length_a   4.44939700
_cell_length_b   4.44939739
_cell_length_c   7.43209300
_cell_angle_alpha   90.00000000
_cell_angle_beta   90.00000000
_cell_angle_gamma   120.00000450
_symmetry_Int_Tables_number   1
_chemical_formula_structural   ZrBe8ReTc2
_chemical_formula_sum   'Zr1 Be8 Re1 Tc2'
_cell_volume   127.42190723
_cell_formula_units_Z   1
loop_
 _symmetry_equiv_pos_site_id
 _symmetry_equiv_pos_as_xyz
  1  'x, y, z'
loop_
 _atom_site_type_symbol
 _atom_site_label
 _atom_site_symmetry_multiplicity
 _atom_site_fract_x
 _atom_site_fract_y
 _atom_site_fract_z
 _atom_site_occupancy
  Zr  Zr0  1  0.333333  0.666667  0.062265  1
  Be  Be1  1  0.000000  0.000000  0.991974  1
  Be  Be2  1  0.000000  0.000000  0.503890  1
  Be  Be3  1  0.831439  0.662879  0.264792  1
  Be  Be4  1  0.168417  0.831583  0.740862  1
  Be  Be5  1  0.663167  0.831583  0.740862  1
  Be  Be6  1  0.337121  0.168561  0.264792  1
  Be  Be7  1  0.831439  0.168561  0.264792  1
  Be  Be8  1  0.168417  0.336833  0.740862  1
  Re  Re9  1  0.333333  0.666667  0.442723  1
  Tc  Tc10  1  0.666667  0.333333  0.563820  1
  Tc  Tc11  1  0.666667  0.333333  0.918368  1
