# generated using pymatgen
data_Dy10Er10Co3Bi8Ru
_symmetry_space_group_name_H-M   'P 1'
_cell_length_a   7.97020197
_cell_length_b   8.91342400
_cell_length_c   12.44051315
_cell_angle_alpha   90.00000000
_cell_angle_beta   90.20546391
_cell_angle_gamma   90.00000000
_symmetry_Int_Tables_number   1
_chemical_formula_structural   Dy10Er10Co3Bi8Ru
_chemical_formula_sum   'Dy10 Er10 Co3 Bi8 Ru1'
_cell_volume   883.79063431
_cell_formula_units_Z   1
loop_
 _symmetry_equiv_pos_site_id
 _symmetry_equiv_pos_as_xyz
  1  'x, y, z'
loop_
 _atom_site_type_symbol
 _atom_site_label
 _atom_site_symmetry_multiplicity
 _atom_site_fract_x
 _atom_site_fract_y
 _atom_site_fract_z
 _atom_site_occupancy
  Dy  Dy0  1  0.151212  0.250000  0.198829  1
  Dy  Dy1  1  0.348312  0.250000  0.699549  1
  Dy  Dy2  1  0.381003  0.750000  0.691953  1
  Dy  Dy3  1  0.616391  0.250000  0.312072  1
  Dy  Dy4  1  0.882916  0.250000  0.812680  1
  Dy  Dy5  1  0.116370  0.750000  0.185785  1
  Dy  Dy6  1  0.946359  0.750000  0.503816  1
  Dy  Dy7  1  0.053663  0.250000  0.496767  1
  Dy  Dy8  1  0.447326  0.250000  0.997392  1
  Dy  Dy9  1  0.553510  0.750000  0.002350  1
  Er  Er10  1  0.847810  0.750000  0.800464  1
  Er  Er11  1  0.653196  0.750000  0.295936  1
  Er  Er12  1  0.674789  0.043053  0.564542  1
  Er  Er13  1  0.326297  0.963878  0.436058  1
  Er  Er14  1  0.172574  0.963736  0.936569  1
  Er  Er15  1  0.326297  0.536122  0.436058  1
  Er  Er16  1  0.825808  0.036930  0.062822  1
  Er  Er17  1  0.674789  0.456947  0.564542  1
  Er  Er18  1  0.825808  0.463070  0.062822  1
  Er  Er19  1  0.172574  0.536264  0.936569  1
  Co  Co20  1  0.433153  0.250000  0.491706  1
  Co  Co21  1  0.061449  0.250000  0.992922  1
  Co  Co22  1  0.936541  0.750000  0.006080  1
  Bi  Bi23  1  0.570897  0.491978  0.827395  1
  Bi  Bi24  1  0.429624  0.508431  0.173155  1
  Bi  Bi25  1  0.070252  0.508158  0.674211  1
  Bi  Bi26  1  0.429624  0.991569  0.173155  1
  Bi  Bi27  1  0.930194  0.492785  0.326481  1
  Bi  Bi28  1  0.570897  0.008022  0.827395  1
  Bi  Bi29  1  0.930194  0.007215  0.326481  1
  Bi  Bi30  1  0.070252  0.991842  0.674211  1
  Ru  Ru31  1  0.569918  0.750000  0.509233  1
