# generated using pymatgen
data_YbMgB6Os
_symmetry_space_group_name_H-M   'P 1'
_cell_length_a   3.53984900
_cell_length_b   8.91828800
_cell_length_c   11.25432400
_cell_angle_alpha   90.00000000
_cell_angle_beta   90.00000000
_cell_angle_gamma   90.00000000
_symmetry_Int_Tables_number   1
_chemical_formula_structural   YbMgB6Os
_chemical_formula_sum   'Yb4 Mg4 B24 Os4'
_cell_volume   355.29217571
_cell_formula_units_Z   4
loop_
 _symmetry_equiv_pos_site_id
 _symmetry_equiv_pos_as_xyz
  1  'x, y, z'
loop_
 _atom_site_type_symbol
 _atom_site_label
 _atom_site_symmetry_multiplicity
 _atom_site_fract_x
 _atom_site_fract_y
 _atom_site_fract_z
 _atom_site_occupancy
  Yb  Yb0  1  0.000000  0.323553  0.414610  1
  Yb  Yb1  1  0.000000  0.676447  0.585390  1
  Yb  Yb2  1  0.000000  0.823553  0.085390  1
  Yb  Yb3  1  0.000000  0.176447  0.914610  1
  Mg  Mg4  1  0.000000  0.943827  0.370709  1
  Mg  Mg5  1  0.000000  0.056173  0.629292  1
  Mg  Mg6  1  0.000000  0.443827  0.129291  1
  Mg  Mg7  1  0.000000  0.556173  0.870708  1
  B  B8  1  0.500000  0.554370  0.432801  1
  B  B9  1  0.500000  0.445630  0.567199  1
  B  B10  1  0.500000  0.054370  0.067199  1
  B  B11  1  0.500000  0.945630  0.932801  1
  B  B12  1  0.500000  0.755101  0.417320  1
  B  B13  1  0.500000  0.244899  0.582680  1
  B  B14  1  0.500000  0.255101  0.082680  1
  B  B15  1  0.500000  0.744899  0.917320  1
  B  B16  1  0.500000  0.795652  0.261703  1
  B  B17  1  0.500000  0.204348  0.738297  1
  B  B18  1  0.500000  0.295651  0.238297  1
  B  B19  1  0.500000  0.704348  0.761703  1
  B  B20  1  0.500000  0.629585  0.181848  1
  B  B21  1  0.500000  0.370415  0.818152  1
  B  B22  1  0.500000  0.129585  0.318152  1
  B  B23  1  0.500000  0.870415  0.681848  1
  B  B24  1  0.500000  0.980347  0.212216  1
  B  B25  1  0.500000  0.019653  0.787784  1
  B  B26  1  0.500000  0.480347  0.287784  1
  B  B27  1  0.500000  0.519653  0.712216  1
  B  B28  1  0.500000  0.592173  0.024603  1
  B  B29  1  0.500000  0.407827  0.975397  1
  B  B30  1  0.500000  0.092173  0.475397  1
  B  B31  1  0.500000  0.907827  0.524603  1
  Os  Os32  1  0.000000  0.642210  0.317470  1
  Os  Os33  1  0.000000  0.357790  0.682530  1
  Os  Os34  1  0.000000  0.142210  0.182530  1
  Os  Os35  1  0.000000  0.857790  0.817470  1
