# generated using pymatgen
data_Na12Li8Hf(SnAs4)3
_symmetry_space_group_name_H-M   'P 1'
_cell_length_a   9.80381056
_cell_length_b   9.80381018
_cell_length_c   14.28323320
_cell_angle_alpha   90.01740836
_cell_angle_beta   90.01740970
_cell_angle_gamma   143.46441105
_symmetry_Int_Tables_number   1
_chemical_formula_structural   Na12Li8Hf(SnAs4)3
_chemical_formula_sum   'Na12 Li8 Hf1 Sn3 As12'
_cell_volume   817.27468617
_cell_formula_units_Z   1
loop_
 _symmetry_equiv_pos_site_id
 _symmetry_equiv_pos_as_xyz
  1  'x, y, z'
loop_
 _atom_site_type_symbol
 _atom_site_label
 _atom_site_symmetry_multiplicity
 _atom_site_fract_x
 _atom_site_fract_y
 _atom_site_fract_z
 _atom_site_occupancy
  Na  Na0  1  0.593337  0.934376  0.821702  1
  Na  Na1  1  0.269273  0.272181  0.320165  1
  Na  Na2  1  0.236072  0.236902  0.820857  1
  Na  Na3  1  0.727819  0.730727  0.679835  1
  Na  Na4  1  0.445487  0.102351  0.674700  1
  Na  Na5  1  0.897649  0.554513  0.325300  1
  Na  Na6  1  0.065624  0.406663  0.178298  1
  Na  Na7  1  0.410487  0.067932  0.181770  1
  Na  Na8  1  0.568521  0.908543  0.323588  1
  Na  Na9  1  0.091457  0.431479  0.676412  1
  Na  Na10  1  0.932068  0.589513  0.818230  1
  Na  Na11  1  0.763098  0.763928  0.179143  1
  Li  Li12  1  0.083859  0.916141  0.000000  1
  Li  Li13  1  0.584021  0.415979  0.500000  1
  Li  Li14  1  0.916583  0.083417  0.000000  1
  Li  Li15  1  0.755375  0.244625  0.000000  1
  Li  Li16  1  0.745403  0.254597  0.500000  1
  Li  Li17  1  0.244084  0.755916  0.000000  1
  Li  Li18  1  0.254382  0.745618  0.500000  1
  Li  Li19  1  0.415836  0.584164  0.500000  1
  Hf  Hf20  1  0.085617  0.914383  0.500000  1
  Sn  Sn21  1  0.407380  0.592620  0.000000  1
  Sn  Sn22  1  0.910365  0.089635  0.500000  1
  Sn  Sn23  1  0.593218  0.406782  0.000000  1
  As  As24  1  0.082430  0.412621  0.387918  1
  As  As25  1  0.916030  0.582233  0.114415  1
  As  As26  1  0.417767  0.083970  0.885585  1
  As  As27  1  0.587379  0.917570  0.612082  1
  As  As28  1  0.928084  0.600018  0.607492  1
  As  As29  1  0.084076  0.418345  0.886566  1
  As  As30  1  0.581655  0.915924  0.113434  1
  As  As31  1  0.399982  0.071916  0.392508  1
  As  As32  1  0.244110  0.239036  0.606143  1
  As  As33  1  0.737557  0.737053  0.894453  1
  As  As34  1  0.262947  0.262443  0.105547  1
  As  As35  1  0.760964  0.755890  0.393857  1
