# generated using pymatgen
data_Ho4BeB7Ru10
_symmetry_space_group_name_H-M   'P 1'
_cell_length_a   3.07868100
_cell_length_b   8.77244760
_cell_length_c   10.27262707
_cell_angle_alpha   90.11152237
_cell_angle_beta   90.00000000
_cell_angle_gamma   90.00000000
_symmetry_Int_Tables_number   1
_chemical_formula_structural   Ho4BeB7Ru10
_chemical_formula_sum   'Ho4 Be1 B7 Ru10'
_cell_volume   277.43814576
_cell_formula_units_Z   1
loop_
 _symmetry_equiv_pos_site_id
 _symmetry_equiv_pos_as_xyz
  1  'x, y, z'
loop_
 _atom_site_type_symbol
 _atom_site_label
 _atom_site_symmetry_multiplicity
 _atom_site_fract_x
 _atom_site_fract_y
 _atom_site_fract_z
 _atom_site_occupancy
  Ho  Ho0  1  0.500000  0.839727  0.182680  1
  Ho  Ho1  1  0.500000  0.158888  0.818281  1
  Ho  Ho2  1  0.500000  0.658536  0.682781  1
  Ho  Ho3  1  0.500000  0.341042  0.319340  1
  Be  Be4  1  0.500000  0.965416  0.589504  1
  B  B5  1  0.500000  0.036078  0.407635  1
  B  B6  1  0.500000  0.852769  0.899074  1
  B  B7  1  0.500000  0.147154  0.099920  1
  B  B8  1  0.500000  0.650604  0.400831  1
  B  B9  1  0.500000  0.350433  0.597707  1
  B  B10  1  0.500000  0.466580  0.911518  1
  B  B11  1  0.500000  0.533031  0.088540  1
  Ru  Ru12  1  0.000000  0.655267  0.956680  1
  Ru  Ru13  1  0.000000  0.341591  0.045653  1
  Ru  Ru14  1  0.000000  0.839736  0.446257  1
  Ru  Ru15  1  0.000000  0.166063  0.542735  1
  Ru  Ru16  1  0.000000  0.000679  0.002628  1
  Ru  Ru17  1  0.000000  0.406398  0.760627  1
  Ru  Ru18  1  0.000000  0.591826  0.238855  1
  Ru  Ru19  1  0.000000  0.502202  0.499878  1
  Ru  Ru20  1  0.000000  0.901145  0.749013  1
  Ru  Ru21  1  0.000000  0.094832  0.259864  1
