# generated using pymatgen
data_Nd8GaSi11Pt4
_symmetry_space_group_name_H-M   'P 1'
_cell_length_a   8.28727472
_cell_length_b   8.28727576
_cell_length_c   8.54974000
_cell_angle_alpha   90.00165293
_cell_angle_beta   89.99835279
_cell_angle_gamma   120.04778353
_symmetry_Int_Tables_number   1
_chemical_formula_structural   Nd8GaSi11Pt4
_chemical_formula_sum   'Nd8 Ga1 Si11 Pt4'
_cell_volume   508.27383297
_cell_formula_units_Z   1
loop_
 _symmetry_equiv_pos_site_id
 _symmetry_equiv_pos_as_xyz
  1  'x, y, z'
loop_
 _atom_site_type_symbol
 _atom_site_label
 _atom_site_symmetry_multiplicity
 _atom_site_fract_x
 _atom_site_fract_y
 _atom_site_fract_z
 _atom_site_occupancy
  Nd  Nd0  1  0.499485  0.500515  0.750107  1
  Nd  Nd1  1  0.499907  0.500092  0.249869  1
  Nd  Nd2  1  0.000298  0.500872  0.750703  1
  Nd  Nd3  1  0.999431  0.500397  0.249315  1
  Nd  Nd4  1  0.499127  0.999702  0.750703  1
  Nd  Nd5  1  0.499603  0.000570  0.249316  1
  Nd  Nd6  1  0.001692  0.998308  0.748396  1
  Nd  Nd7  1  0.001652  0.998347  0.251600  1
  Ga  Ga8  1  0.835163  0.164837  0.999121  1
  Si  Si9  1  0.166034  0.833966  0.000790  1
  Si  Si10  1  0.331572  0.165917  0.999219  1
  Si  Si11  1  0.165793  0.834207  0.499222  1
  Si  Si12  1  0.666698  0.830054  0.000760  1
  Si  Si13  1  0.834314  0.165686  0.500844  1
  Si  Si14  1  0.834083  0.668428  0.999219  1
  Si  Si15  1  0.668477  0.834292  0.499200  1
  Si  Si16  1  0.169947  0.333302  0.000760  1
  Si  Si17  1  0.331837  0.166294  0.500803  1
  Si  Si18  1  0.165708  0.331522  0.499200  1
  Si  Si19  1  0.833706  0.668163  0.500803  1
  Pt  Pt20  1  0.662661  0.337339  0.999998  1
  Pt  Pt21  1  0.333016  0.666984  0.000132  1
  Pt  Pt22  1  0.333087  0.666912  0.499915  1
  Pt  Pt23  1  0.666708  0.333292  0.500003  1
