# generated using pymatgen
data_HoEr5UO12
_symmetry_space_group_name_H-M   'P 1'
_cell_length_a   6.52577466
_cell_length_b   6.52575581
_cell_length_c   6.53021543
_cell_angle_alpha   99.11393251
_cell_angle_beta   99.05033845
_cell_angle_gamma   99.09233294
_symmetry_Int_Tables_number   1
_chemical_formula_structural   HoEr5UO12
_chemical_formula_sum   'Ho1 Er5 U1 O12'
_cell_volume   266.34870639
_cell_formula_units_Z   1
loop_
 _symmetry_equiv_pos_site_id
 _symmetry_equiv_pos_as_xyz
  1  'x, y, z'
loop_
 _atom_site_type_symbol
 _atom_site_label
 _atom_site_symmetry_multiplicity
 _atom_site_fract_x
 _atom_site_fract_y
 _atom_site_fract_z
 _atom_site_occupancy
  Ho  Ho0  1  0.389866  0.677220  0.854667  1
  Er  Er1  1  0.854326  0.389724  0.676164  1
  Er  Er2  1  0.676752  0.854570  0.390152  1
  Er  Er3  1  0.610142  0.323448  0.145781  1
  Er  Er4  1  0.145357  0.609934  0.323522  1
  Er  Er5  1  0.323484  0.145531  0.609758  1
  U  U6  1  0.000191  0.000524  0.000179  1
  O  O7  1  0.177216  0.426109  0.586389  1
  O  O8  1  0.587293  0.177808  0.426754  1
  O  O9  1  0.427079  0.586796  0.178878  1
  O  O10  1  0.822284  0.573208  0.412800  1
  O  O11  1  0.412701  0.822798  0.571953  1
  O  O12  1  0.573558  0.411725  0.822280  1
  O  O13  1  0.918742  0.048051  0.689568  1
  O  O14  1  0.951949  0.310580  0.081269  1
  O  O15  1  0.310480  0.081243  0.951855  1
  O  O16  1  0.081222  0.951860  0.310365  1
  O  O17  1  0.047146  0.689413  0.918874  1
  O  O18  1  0.690211  0.919457  0.048791  1
