# generated using pymatgen
data_CeNd2TmCdIr
_symmetry_space_group_name_H-M   'P 1'
_cell_length_a   9.79934176
_cell_length_b   9.79934266
_cell_length_c   9.79976500
_cell_angle_alpha   59.99857766
_cell_angle_beta   59.99857462
_cell_angle_gamma   60.00285284
_symmetry_Int_Tables_number   1
_chemical_formula_structural   CeNd2TmCdIr
_chemical_formula_sum   'Ce4 Nd8 Tm4 Cd4 Ir4'
_cell_volume   665.41797291
_cell_formula_units_Z   4
loop_
 _symmetry_equiv_pos_site_id
 _symmetry_equiv_pos_as_xyz
  1  'x, y, z'
loop_
 _atom_site_type_symbol
 _atom_site_label
 _atom_site_symmetry_multiplicity
 _atom_site_fract_x
 _atom_site_fract_y
 _atom_site_fract_z
 _atom_site_occupancy
  Ce  Ce0  1  0.349525  0.349525  0.344261  1
  Ce  Ce1  1  0.349525  0.349525  0.956689  1
  Ce  Ce2  1  0.344261  0.956689  0.349525  1
  Ce  Ce3  1  0.956689  0.344261  0.349525  1
  Nd  Nd4  1  0.185382  0.185382  0.814618  1
  Nd  Nd5  1  0.814618  0.814618  0.185382  1
  Nd  Nd6  1  0.940718  0.559282  0.559282  1
  Nd  Nd7  1  0.559282  0.940718  0.940718  1
  Nd  Nd8  1  0.559282  0.940718  0.559282  1
  Nd  Nd9  1  0.940718  0.559282  0.940718  1
  Nd  Nd10  1  0.559848  0.559848  0.940152  1
  Nd  Nd11  1  0.940152  0.940152  0.559848  1
  Tm  Tm12  1  0.811945  0.188055  0.188055  1
  Tm  Tm13  1  0.188055  0.811945  0.811945  1
  Tm  Tm14  1  0.188055  0.811945  0.188055  1
  Tm  Tm15  1  0.811945  0.188055  0.811945  1
  Cd  Cd16  1  0.578729  0.578729  0.581289  1
  Cd  Cd17  1  0.578729  0.578729  0.261251  1
  Cd  Cd18  1  0.581289  0.261251  0.578729  1
  Cd  Cd19  1  0.261251  0.581289  0.578729  1
  Ir  Ir20  1  0.140256  0.140256  0.148797  1
  Ir  Ir21  1  0.140256  0.140256  0.570688  1
  Ir  Ir22  1  0.148797  0.570688  0.140256  1
  Ir  Ir23  1  0.570688  0.148797  0.140256  1
