# generated using pymatgen
data_Dy3Lu7(SiBi)4
_symmetry_space_group_name_H-M   'P 1'
_cell_length_a   8.41451178
_cell_length_b   8.64908612
_cell_length_c   7.80401007
_cell_angle_alpha   89.93537383
_cell_angle_beta   89.76233553
_cell_angle_gamma   125.69106846
_symmetry_Int_Tables_number   1
_chemical_formula_structural   Dy3Lu7(SiBi)4
_chemical_formula_sum   'Dy3 Lu7 Si4 Bi4'
_cell_volume   461.27341514
_cell_formula_units_Z   1
loop_
 _symmetry_equiv_pos_site_id
 _symmetry_equiv_pos_as_xyz
  1  'x, y, z'
loop_
 _atom_site_type_symbol
 _atom_site_label
 _atom_site_symmetry_multiplicity
 _atom_site_fract_x
 _atom_site_fract_y
 _atom_site_fract_z
 _atom_site_occupancy
  Dy  Dy0  1  0.197961  0.450036  0.831207  1
  Dy  Dy1  1  0.699510  0.951315  0.669573  1
  Dy  Dy2  1  0.304912  0.050159  0.329955  1
  Lu  Lu3  1  0.040233  0.275434  0.337404  1
  Lu  Lu4  1  0.962477  0.726359  0.661890  1
  Lu  Lu5  1  0.460443  0.223872  0.837029  1
  Lu  Lu6  1  0.794508  0.549596  0.166423  1
  Lu  Lu7  1  0.538786  0.774153  0.162479  1
  Lu  Lu8  1  0.999000  0.999110  0.000658  1
  Lu  Lu9  1  0.501255  0.500329  0.499898  1
  Si  Si10  1  0.367308  0.366988  0.131812  1
  Si  Si11  1  0.633491  0.632472  0.868028  1
  Si  Si12  1  0.134692  0.133843  0.632607  1
  Si  Si13  1  0.867199  0.865227  0.365511  1
  Bi  Bi14  1  0.777476  0.197035  0.018724  1
  Bi  Bi15  1  0.215070  0.799564  0.987303  1
  Bi  Bi16  1  0.723437  0.307653  0.513683  1
  Bi  Bi17  1  0.282244  0.696853  0.485817  1
