# generated using pymatgen
data_Tb2Er6Hf7Si16Mo5
_symmetry_space_group_name_H-M   'P 1'
_cell_length_a   7.11638258
_cell_length_b   7.11319201
_cell_length_c   13.03034957
_cell_angle_alpha   89.75251475
_cell_angle_beta   89.99593140
_cell_angle_gamma   90.11821007
_symmetry_Int_Tables_number   1
_chemical_formula_structural   Tb2Er6Hf7Si16Mo5
_chemical_formula_sum   'Tb2 Er6 Hf7 Si16 Mo5'
_cell_volume   659.59128543
_cell_formula_units_Z   1
loop_
 _symmetry_equiv_pos_site_id
 _symmetry_equiv_pos_as_xyz
  1  'x, y, z'
loop_
 _atom_site_type_symbol
 _atom_site_label
 _atom_site_symmetry_multiplicity
 _atom_site_fract_x
 _atom_site_fract_y
 _atom_site_fract_z
 _atom_site_occupancy
  Tb  Tb0  1  0.345424  0.998569  0.783965  1
  Tb  Tb1  1  0.655539  0.001874  0.284148  1
  Er  Er2  1  0.999532  0.345819  0.218850  1
  Er  Er3  1  0.001298  0.656244  0.713785  1
  Er  Er4  1  0.154626  0.500720  0.465785  1
  Er  Er5  1  0.498938  0.845310  0.036230  1
  Er  Er6  1  0.844717  0.501510  0.965646  1
  Er  Er7  1  0.499596  0.154585  0.532068  1
  Hf  Hf8  1  0.853191  0.005620  0.874599  1
  Hf  Hf9  1  0.504408  0.647493  0.620776  1
  Hf  Hf10  1  0.354155  0.493647  0.875844  1
  Hf  Hf11  1  0.491778  0.350191  0.126001  1
  Hf  Hf12  1  0.646689  0.509848  0.377042  1
  Hf  Hf13  1  0.995308  0.147062  0.625560  1
  Hf  Hf14  1  0.003138  0.852190  0.124343  1
  Si  Si15  1  0.358951  0.289813  0.321599  1
  Si  Si16  1  0.641454  0.701108  0.815752  1
  Si  Si17  1  0.198881  0.862203  0.561420  1
  Si  Si18  1  0.139974  0.795549  0.932797  1
  Si  Si19  1  0.798242  0.142182  0.067514  1
  Si  Si20  1  0.870188  0.198641  0.430178  1
  Si  Si21  1  0.299396  0.359767  0.681815  1
  Si  Si22  1  0.703167  0.638633  0.182693  1
  Si  Si23  1  0.293365  0.045900  0.189021  1
  Si  Si24  1  0.705427  0.948735  0.682988  1
  Si  Si25  1  0.437673  0.798121  0.430512  1
  Si  Si26  1  0.202706  0.549600  0.066621  1
  Si  Si27  1  0.551148  0.203266  0.934912  1
  Si  Si28  1  0.796142  0.446567  0.566606  1
  Si  Si29  1  0.049637  0.298198  0.816674  1
  Si  Si30  1  0.957755  0.712937  0.318033  1
  Mo  Mo31  1  0.173594  0.174709  0.002390  1
  Mo  Mo32  1  0.826943  0.826589  0.499416  1
  Mo  Mo33  1  0.322507  0.673328  0.249947  1
  Mo  Mo34  1  0.677474  0.325571  0.750118  1
  Mo  Mo35  1  0.147042  0.997901  0.374352  1
