# generated using pymatgen
data_Tm6Fe3Co13(P6Ru)2
_symmetry_space_group_name_H-M   'P 1'
_cell_length_a   3.69713000
_cell_length_b   10.54828355
_cell_length_c   12.08396893
_cell_angle_alpha   90.24680371
_cell_angle_beta   90.00000000
_cell_angle_gamma   90.00000000
_symmetry_Int_Tables_number   1
_chemical_formula_structural   Tm6Fe3Co13(P6Ru)2
_chemical_formula_sum   'Tm6 Fe3 Co13 P12 Ru2'
_cell_volume   471.25078657
_cell_formula_units_Z   1
loop_
 _symmetry_equiv_pos_site_id
 _symmetry_equiv_pos_as_xyz
  1  'x, y, z'
loop_
 _atom_site_type_symbol
 _atom_site_label
 _atom_site_symmetry_multiplicity
 _atom_site_fract_x
 _atom_site_fract_y
 _atom_site_fract_z
 _atom_site_occupancy
  Tm  Tm0  1  0.000000  0.499318  0.525832  1
  Tm  Tm1  1  0.500000  0.000707  0.473484  1
  Tm  Tm2  1  0.500000  0.819042  0.204783  1
  Tm  Tm3  1  0.500000  0.181987  0.204018  1
  Tm  Tm4  1  0.000000  0.680077  0.795785  1
  Tm  Tm5  1  0.000000  0.318121  0.796642  1
  Fe  Fe6  1  0.000000  0.502313  0.988012  1
  Fe  Fe7  1  0.500000  0.999084  0.012640  1
  Fe  Fe8  1  0.500000  0.331664  0.992581  1
  Co  Co9  1  0.500000  0.500432  0.701176  1
  Co  Co10  1  0.000000  0.999765  0.299366  1
  Co  Co11  1  0.500000  0.669888  0.989966  1
  Co  Co12  1  0.000000  0.165598  0.008940  1
  Co  Co13  1  0.000000  0.831315  0.009661  1
  Co  Co14  1  0.500000  0.297189  0.430721  1
  Co  Co15  1  0.500000  0.703275  0.431013  1
  Co  Co16  1  0.000000  0.203266  0.569163  1
  Co  Co17  1  0.000000  0.796537  0.569187  1
  Co  Co18  1  0.500000  0.878320  0.707375  1
  Co  Co19  1  0.500000  0.121453  0.707743  1
  Co  Co20  1  0.000000  0.621636  0.292826  1
  Co  Co21  1  0.000000  0.378247  0.290766  1
  P  P22  1  0.500000  0.498491  0.882811  1
  P  P23  1  0.000000  0.999595  0.118671  1
  P  P24  1  0.500000  0.499597  0.350095  1
  P  P25  1  0.000000  0.000123  0.649235  1
  P  P26  1  0.500000  0.311989  0.617853  1
  P  P27  1  0.500000  0.687786  0.617530  1
  P  P28  1  0.000000  0.188608  0.382311  1
  P  P29  1  0.000000  0.812116  0.382866  1
  P  P30  1  0.500000  0.846240  0.893324  1
  P  P31  1  0.500000  0.154742  0.895034  1
  P  P32  1  0.000000  0.654699  0.106600  1
  P  P33  1  0.000000  0.344975  0.102964  1
  Ru  Ru34  1  0.500000  0.503596  0.157346  1
  Ru  Ru35  1  0.000000  0.998210  0.841678  1
