# generated using pymatgen
data_BaMn2S2O
_symmetry_space_group_name_H-M   'P 1'
_cell_length_a   4.13899001
_cell_length_b   6.71124600
_cell_length_c   10.29012202
_cell_angle_alpha   90.00052128
_cell_angle_beta   90.00071804
_cell_angle_gamma   89.99992521
_symmetry_Int_Tables_number   1
_chemical_formula_structural   BaMn2S2O
_chemical_formula_sum   'Ba2 Mn4 S4 O2'
_cell_volume   285.83674742
_cell_formula_units_Z   2
loop_
 _symmetry_equiv_pos_site_id
 _symmetry_equiv_pos_as_xyz
  1  'x, y, z'
loop_
 _atom_site_type_symbol
 _atom_site_label
 _atom_site_symmetry_multiplicity
 _atom_site_fract_x
 _atom_site_fract_y
 _atom_site_fract_z
 _atom_site_occupancy
  Ba  Ba0  1  0.499988  0.026335  0.499723  1
  Ba  Ba1  1  0.999993  0.973656  0.999715  1
  Mn  Mn2  1  0.500048  0.362343  0.169652  1
  Mn  Mn3  1  0.999940  0.637640  0.669635  1
  Mn  Mn4  1  0.499938  0.361799  0.830393  1
  Mn  Mn5  1  0.000094  0.638215  0.330383  1
  S  S6  1  0.499946  0.733356  0.796039  1
  S  S7  1  0.500085  0.734119  0.204082  1
  S  S8  1  0.000052  0.266652  0.296054  1
  S  S9  1  0.999942  0.265883  0.704093  1
  O  O10  1  0.499988  0.217777  0.000120  1
  O  O11  1  0.999985  0.782227  0.500109  1
