# generated using pymatgen
data_HfCrCo4P3
_symmetry_space_group_name_H-M   'P 1'
_cell_length_a   3.60074000
_cell_length_b   10.17539800
_cell_length_c   11.63025300
_cell_angle_alpha   90.00000000
_cell_angle_beta   90.00000000
_cell_angle_gamma   90.00000000
_symmetry_Int_Tables_number   1
_chemical_formula_structural   HfCrCo4P3
_chemical_formula_sum   'Hf4 Cr4 Co16 P12'
_cell_volume   426.12040463
_cell_formula_units_Z   4
loop_
 _symmetry_equiv_pos_site_id
 _symmetry_equiv_pos_as_xyz
  1  'x, y, z'
loop_
 _atom_site_type_symbol
 _atom_site_label
 _atom_site_symmetry_multiplicity
 _atom_site_fract_x
 _atom_site_fract_y
 _atom_site_fract_z
 _atom_site_occupancy
  Hf  Hf0  1  0.250000  0.582751  0.704951  1
  Hf  Hf1  1  0.250000  0.917249  0.204951  1
  Hf  Hf2  1  0.750000  0.417249  0.295049  1
  Hf  Hf3  1  0.750000  0.082751  0.795049  1
  Cr  Cr4  1  0.250000  0.713623  0.989098  1
  Cr  Cr5  1  0.250000  0.786377  0.489098  1
  Cr  Cr6  1  0.750000  0.286377  0.010902  1
  Cr  Cr7  1  0.750000  0.213623  0.510902  1
  Co  Co8  1  0.250000  0.408536  0.486352  1
  Co  Co9  1  0.250000  0.091464  0.986352  1
  Co  Co10  1  0.750000  0.591464  0.513648  1
  Co  Co11  1  0.750000  0.908536  0.013648  1
  Co  Co12  1  0.250000  0.222786  0.179332  1
  Co  Co13  1  0.250000  0.277214  0.679332  1
  Co  Co14  1  0.750000  0.777214  0.820668  1
  Co  Co15  1  0.750000  0.722786  0.320668  1
  Co  Co16  1  0.250000  0.886912  0.701745  1
  Co  Co17  1  0.250000  0.613088  0.201745  1
  Co  Co18  1  0.750000  0.113088  0.298255  1
  Co  Co19  1  0.750000  0.386912  0.798255  1
  Co  Co20  1  0.250000  0.465771  0.930318  1
  Co  Co21  1  0.250000  0.034229  0.430318  1
  Co  Co22  1  0.750000  0.534229  0.069682  1
  Co  Co23  1  0.750000  0.965771  0.569682  1
  P  P24  1  0.250000  0.418360  0.114250  1
  P  P25  1  0.250000  0.081640  0.614250  1
  P  P26  1  0.750000  0.581640  0.885750  1
  P  P27  1  0.750000  0.918360  0.385750  1
  P  P28  1  0.250000  0.264780  0.869005  1
  P  P29  1  0.250000  0.235220  0.369005  1
  P  P30  1  0.750000  0.735220  0.130995  1
  P  P31  1  0.750000  0.764780  0.630995  1
  P  P32  1  0.250000  0.597502  0.389946  1
  P  P33  1  0.250000  0.902498  0.889946  1
  P  P34  1  0.750000  0.402498  0.610054  1
  P  P35  1  0.750000  0.097502  0.110054  1
