# generated using pymatgen
data_Sr2Tb3CeSe8
_symmetry_space_group_name_H-M   'P 1'
_cell_length_a   4.20317400
_cell_length_b   12.83341600
_cell_length_c   15.12964300
_cell_angle_alpha   90.00000000
_cell_angle_beta   90.00000000
_cell_angle_gamma   90.00000000
_symmetry_Int_Tables_number   1
_chemical_formula_structural   Sr2Tb3CeSe8
_chemical_formula_sum   'Sr4 Tb6 Ce2 Se16'
_cell_volume   816.10929043
_cell_formula_units_Z   2
loop_
 _symmetry_equiv_pos_site_id
 _symmetry_equiv_pos_as_xyz
  1  'x, y, z'
loop_
 _atom_site_type_symbol
 _atom_site_label
 _atom_site_symmetry_multiplicity
 _atom_site_fract_x
 _atom_site_fract_y
 _atom_site_fract_z
 _atom_site_occupancy
  Sr  Sr0  1  0.750000  0.740390  0.163298  1
  Sr  Sr1  1  0.750000  0.240390  0.336702  1
  Sr  Sr2  1  0.250000  0.259531  0.833133  1
  Sr  Sr3  1  0.250000  0.759531  0.666867  1
  Tb  Tb4  1  0.250000  0.939283  0.885913  1
  Tb  Tb5  1  0.250000  0.439283  0.614087  1
  Tb  Tb6  1  0.750000  0.085327  0.597217  1
  Tb  Tb7  1  0.750000  0.585327  0.902783  1
  Tb  Tb8  1  0.250000  0.914660  0.403798  1
  Tb  Tb9  1  0.250000  0.414660  0.096202  1
  Ce  Ce10  1  0.750000  0.063049  0.110909  1
  Ce  Ce11  1  0.750000  0.563049  0.389091  1
  Se  Se12  1  0.750000  0.296393  0.674198  1
  Se  Se13  1  0.750000  0.796393  0.825802  1
  Se  Se14  1  0.250000  0.708233  0.320966  1
  Se  Se15  1  0.250000  0.208233  0.179034  1
  Se  Se16  1  0.750000  0.370850  0.967459  1
  Se  Se17  1  0.750000  0.870850  0.532541  1
  Se  Se18  1  0.250000  0.627264  0.031576  1
  Se  Se19  1  0.250000  0.127264  0.468424  1
  Se  Se20  1  0.750000  0.467972  0.213480  1
  Se  Se21  1  0.750000  0.967972  0.286520  1
  Se  Se22  1  0.250000  0.531520  0.786061  1
  Se  Se23  1  0.250000  0.031520  0.713939  1
  Se  Se24  1  0.750000  0.089737  0.917504  1
  Se  Se25  1  0.750000  0.589737  0.582496  1
  Se  Se26  1  0.250000  0.905790  0.073438  1
  Se  Se27  1  0.250000  0.405790  0.426562  1
