# generated using pymatgen
data_Mg4PaNb7N12
_symmetry_space_group_name_H-M   'P 1'
_cell_length_a   5.33210000
_cell_length_b   5.33209995
_cell_length_c   10.70293900
_cell_angle_alpha   90.00000000
_cell_angle_beta   90.00000000
_cell_angle_gamma   120.00000030
_symmetry_Int_Tables_number   1
_chemical_formula_structural   Mg4PaNb7N12
_chemical_formula_sum   'Mg4 Pa1 Nb7 N12'
_cell_volume   263.53011294
_cell_formula_units_Z   1
loop_
 _symmetry_equiv_pos_site_id
 _symmetry_equiv_pos_as_xyz
  1  'x, y, z'
loop_
 _atom_site_type_symbol
 _atom_site_label
 _atom_site_symmetry_multiplicity
 _atom_site_fract_x
 _atom_site_fract_y
 _atom_site_fract_z
 _atom_site_occupancy
  Mg  Mg0  1  0.333333  0.666667  0.000000  1
  Mg  Mg1  1  0.333333  0.666667  0.500000  1
  Mg  Mg2  1  0.666667  0.333333  0.500000  1
  Mg  Mg3  1  0.666667  0.333333  0.000000  1
  Pa  Pa4  1  0.000000  0.000000  0.000000  1
  Nb  Nb5  1  0.000000  0.335037  0.255774  1
  Nb  Nb6  1  0.664963  0.000000  0.744226  1
  Nb  Nb7  1  0.335037  0.335037  0.744226  1
  Nb  Nb8  1  0.000000  0.000000  0.500000  1
  Nb  Nb9  1  0.664963  0.664963  0.255774  1
  Nb  Nb10  1  0.335037  0.000000  0.255774  1
  Nb  Nb11  1  0.000000  0.664963  0.744226  1
  N  N12  1  0.670531  0.670531  0.618147  1
  N  N13  1  0.659132  0.659132  0.871792  1
  N  N14  1  0.340868  0.340868  0.128208  1
  N  N15  1  0.329469  0.329469  0.381853  1
  N  N16  1  0.340868  0.000000  0.871792  1
  N  N17  1  0.329469  0.000000  0.618147  1
  N  N18  1  0.000000  0.670531  0.381853  1
  N  N19  1  0.000000  0.659132  0.128208  1
  N  N20  1  0.659132  0.000000  0.128208  1
  N  N21  1  0.670531  0.000000  0.381853  1
  N  N22  1  0.000000  0.340868  0.871792  1
  N  N23  1  0.000000  0.329469  0.618147  1
