# generated using pymatgen
data_Er16Tl2CdInPd4
_symmetry_space_group_name_H-M   'P 1'
_cell_length_a   9.64600848
_cell_length_b   9.64883091
_cell_length_c   9.66617100
_cell_angle_alpha   59.94053055
_cell_angle_beta   59.93082771
_cell_angle_gamma   59.88556670
_symmetry_Int_Tables_number   1
_chemical_formula_structural   Er16Tl2CdInPd4
_chemical_formula_sum   'Er16 Tl2 Cd1 In1 Pd4'
_cell_volume   634.98377243
_cell_formula_units_Z   1
loop_
 _symmetry_equiv_pos_site_id
 _symmetry_equiv_pos_as_xyz
  1  'x, y, z'
loop_
 _atom_site_type_symbol
 _atom_site_label
 _atom_site_symmetry_multiplicity
 _atom_site_fract_x
 _atom_site_fract_y
 _atom_site_fract_z
 _atom_site_occupancy
  Er  Er0  1  0.352051  0.352644  0.353243  1
  Er  Er1  1  0.352051  0.352644  0.942061  1
  Er  Er2  1  0.352164  0.941029  0.353403  1
  Er  Er3  1  0.941234  0.352232  0.353266  1
  Er  Er4  1  0.810770  0.188755  0.189905  1
  Er  Er5  1  0.188110  0.811607  0.811315  1
  Er  Er6  1  0.188110  0.811607  0.188967  1
  Er  Er7  1  0.810770  0.188755  0.810570  1
  Er  Er8  1  0.189028  0.188475  0.811248  1
  Er  Er9  1  0.810851  0.810844  0.189152  1
  Er  Er10  1  0.937993  0.564182  0.564621  1
  Er  Er11  1  0.564682  0.936035  0.935092  1
  Er  Er12  1  0.564682  0.936035  0.564190  1
  Er  Er13  1  0.937993  0.564182  0.933203  1
  Er  Er14  1  0.565003  0.564029  0.935484  1
  Er  Er15  1  0.937037  0.934379  0.564292  1
  Tl  Tl16  1  0.583622  0.585334  0.586765  1
  Tl  Tl17  1  0.583622  0.585334  0.244279  1
  Cd  Cd18  1  0.248513  0.582851  0.584317  1
  In  In19  1  0.582010  0.249177  0.584407  1
  Pd  Pd20  1  0.144178  0.144150  0.144401  1
  Pd  Pd21  1  0.144178  0.144150  0.567273  1
  Pd  Pd22  1  0.143748  0.567774  0.144239  1
  Pd  Pd23  1  0.567598  0.143792  0.144304  1
