# generated using pymatgen
data_Cs2SrTa3(NbBr6)3
_symmetry_space_group_name_H-M   'P 1'
_cell_length_a   11.08581618
_cell_length_b   11.08627452
_cell_length_c   11.08637073
_cell_angle_alpha   55.03703555
_cell_angle_beta   55.02764866
_cell_angle_gamma   55.02574073
_symmetry_Int_Tables_number   1
_chemical_formula_structural   Cs2SrTa3(NbBr6)3
_chemical_formula_sum   'Cs2 Sr1 Ta3 Nb3 Br18'
_cell_volume   852.05359911
_cell_formula_units_Z   1
loop_
 _symmetry_equiv_pos_site_id
 _symmetry_equiv_pos_as_xyz
  1  'x, y, z'
loop_
 _atom_site_type_symbol
 _atom_site_label
 _atom_site_symmetry_multiplicity
 _atom_site_fract_x
 _atom_site_fract_y
 _atom_site_fract_z
 _atom_site_occupancy
  Cs  Cs0  1  0.276617  0.276825  0.276570  1
  Cs  Cs1  1  0.723202  0.723411  0.723173  1
  Sr  Sr2  1  0.000442  0.999895  0.999392  1
  Ta  Ta3  1  0.637855  0.423963  0.310367  1
  Ta  Ta4  1  0.576062  0.689588  0.362159  1
  Ta  Ta5  1  0.310453  0.637823  0.423931  1
  Nb  Nb6  1  0.423366  0.309051  0.638800  1
  Nb  Nb7  1  0.361221  0.576652  0.690939  1
  Nb  Nb8  1  0.690987  0.361193  0.576653  1
  Br  Br9  1  0.638606  0.096228  0.767288  1
  Br  Br10  1  0.766756  0.638253  0.097280  1
  Br  Br11  1  0.096492  0.767239  0.637249  1
  Br  Br12  1  0.824521  0.323381  0.044442  1
  Br  Br13  1  0.170321  0.436659  0.575816  1
  Br  Br14  1  0.676830  0.955485  0.175207  1
  Br  Br15  1  0.902937  0.233286  0.360402  1
  Br  Br16  1  0.564829  0.423145  0.829734  1
  Br  Br17  1  0.424216  0.829684  0.563350  1
  Br  Br18  1  0.957098  0.174380  0.677301  1
  Br  Br19  1  0.174097  0.677801  0.956921  1
  Br  Br20  1  0.044626  0.824797  0.322876  1
  Br  Br21  1  0.322415  0.043040  0.825622  1
  Br  Br22  1  0.232745  0.361323  0.903818  1
  Br  Br23  1  0.577664  0.171297  0.433838  1
  Br  Br24  1  0.435250  0.576676  0.171222  1
  Br  Br25  1  0.361722  0.902728  0.233299  1
  Br  Br26  1  0.828668  0.566195  0.422350  1
