# generated using pymatgen
data_Lu10Al2SnSb3
_symmetry_space_group_name_H-M   'P 1'
_cell_length_a   8.69691900
_cell_length_b   8.70712487
_cell_length_c   6.30661300
_cell_angle_alpha   90.00000000
_cell_angle_beta   90.00000000
_cell_angle_gamma   120.03882772
_symmetry_Int_Tables_number   1
_chemical_formula_structural   Lu10Al2SnSb3
_chemical_formula_sum   'Lu10 Al2 Sn1 Sb3'
_cell_volume   413.42521280
_cell_formula_units_Z   1
loop_
 _symmetry_equiv_pos_site_id
 _symmetry_equiv_pos_as_xyz
  1  'x, y, z'
loop_
 _atom_site_type_symbol
 _atom_site_label
 _atom_site_symmetry_multiplicity
 _atom_site_fract_x
 _atom_site_fract_y
 _atom_site_fract_z
 _atom_site_occupancy
  Lu  Lu0  1  0.660930  0.332390  0.005090  1
  Lu  Lu1  1  0.339070  0.671461  0.005090  1
  Lu  Lu2  1  0.339070  0.671461  0.494910  1
  Lu  Lu3  1  0.660930  0.332390  0.494910  1
  Lu  Lu4  1  0.762104  0.762613  0.750000  1
  Lu  Lu5  1  0.237896  0.000508  0.750000  1
  Lu  Lu6  1  0.000000  0.237347  0.750000  1
  Lu  Lu7  1  0.243342  0.234928  0.250000  1
  Lu  Lu8  1  0.756658  0.991586  0.250000  1
  Lu  Lu9  1  0.000000  0.764875  0.250000  1
  Al  Al10  1  0.605077  0.604147  0.250000  1
  Al  Al11  1  0.394923  0.999071  0.250000  1
  Sn  Sn12  1  0.000000  0.391922  0.250000  1
  Sb  Sb13  1  0.395036  0.397809  0.750000  1
  Sb  Sb14  1  0.604964  0.002773  0.750000  1
  Sb  Sb15  1  0.000000  0.604720  0.750000  1
