# generated using pymatgen
data_U5Ga5Tc7
_symmetry_space_group_name_H-M   'P 1'
_cell_length_a   7.30379097
_cell_length_b   7.30379119
_cell_length_c   7.30379178
_cell_angle_alpha   108.52953589
_cell_angle_beta   111.37145402
_cell_angle_gamma   108.52954644
_symmetry_Int_Tables_number   1
_chemical_formula_structural   U5Ga5Tc7
_chemical_formula_sum   'U5 Ga5 Tc7'
_cell_volume   299.68391102
_cell_formula_units_Z   1
loop_
 _symmetry_equiv_pos_site_id
 _symmetry_equiv_pos_as_xyz
  1  'x, y, z'
loop_
 _atom_site_type_symbol
 _atom_site_label
 _atom_site_symmetry_multiplicity
 _atom_site_fract_x
 _atom_site_fract_y
 _atom_site_fract_z
 _atom_site_occupancy
  U  U0  1  0.501124  0.512876  0.501124  1
  U  U1  1  0.988248  0.487124  0.988248  1
  U  U2  1  0.501124  0.000000  0.988248  1
  U  U3  1  0.988248  0.000000  0.501124  1
  U  U4  1  0.306089  0.000000  0.306089  1
  Ga  Ga5  1  0.692963  0.000000  0.692963  1
  Ga  Ga6  1  0.692543  0.694181  0.998362  1
  Ga  Ga7  1  0.304183  0.305819  0.998362  1
  Ga  Ga8  1  0.998362  0.694181  0.692543  1
  Ga  Ga9  1  0.998362  0.305819  0.304183  1
  Tc  Tc10  1  0.501080  0.747554  0.248634  1
  Tc  Tc11  1  0.753527  0.252446  0.501080  1
  Tc  Tc12  1  0.248634  0.747554  0.501080  1
  Tc  Tc13  1  0.251136  0.500000  0.751136  1
  Tc  Tc14  1  0.022159  0.000000  0.022159  1
  Tc  Tc15  1  0.501080  0.252446  0.753527  1
  Tc  Tc16  1  0.751136  0.500000  0.251136  1
