# generated using pymatgen
data_Hf3Ga3OsPt2
_symmetry_space_group_name_H-M   'P 1'
_cell_length_a   7.34908500
_cell_length_b   7.34908412
_cell_length_c   6.68862100
_cell_angle_alpha   90.00000000
_cell_angle_beta   90.00000000
_cell_angle_gamma   120.00000846
_symmetry_Int_Tables_number   1
_chemical_formula_structural   Hf3Ga3OsPt2
_chemical_formula_sum   'Hf6 Ga6 Os2 Pt4'
_cell_volume   312.84820802
_cell_formula_units_Z   2
loop_
 _symmetry_equiv_pos_site_id
 _symmetry_equiv_pos_as_xyz
  1  'x, y, z'
loop_
 _atom_site_type_symbol
 _atom_site_label
 _atom_site_symmetry_multiplicity
 _atom_site_fract_x
 _atom_site_fract_y
 _atom_site_fract_z
 _atom_site_occupancy
  Hf  Hf0  1  0.395803  0.385026  0.250000  1
  Hf  Hf1  1  0.613409  0.010283  0.750000  1
  Hf  Hf2  1  0.396873  0.386591  0.750000  1
  Hf  Hf3  1  0.989717  0.603127  0.750000  1
  Hf  Hf4  1  0.989223  0.604197  0.250000  1
  Hf  Hf5  1  0.614974  0.010777  0.250000  1
  Ga  Ga6  1  0.273965  0.998478  0.000006  1
  Ga  Ga7  1  0.273965  0.998478  0.499994  1
  Ga  Ga8  1  0.001522  0.275486  0.499994  1
  Ga  Ga9  1  0.001522  0.275486  0.000006  1
  Ga  Ga10  1  0.724514  0.726035  0.000006  1
  Ga  Ga11  1  0.724514  0.726035  0.499994  1
  Os  Os12  1  0.666667  0.333333  0.499909  1
  Os  Os13  1  0.666667  0.333333  0.000091  1
  Pt  Pt14  1  0.000000  0.000000  0.750000  1
  Pt  Pt15  1  0.333333  0.666667  0.000520  1
  Pt  Pt16  1  0.333333  0.666667  0.499480  1
  Pt  Pt17  1  0.000000  0.000000  0.250000  1
