# generated using pymatgen
data_Ca4TbYb3(Si3Pd)4
_symmetry_space_group_name_H-M   'P 1'
_cell_length_a   8.26602500
_cell_length_b   8.26602470
_cell_length_c   8.27991200
_cell_angle_alpha   90.00000000
_cell_angle_beta   90.00000000
_cell_angle_gamma   120.00000521
_symmetry_Int_Tables_number   1
_chemical_formula_structural   Ca4TbYb3(Si3Pd)4
_chemical_formula_sum   'Ca4 Tb1 Yb3 Si12 Pd4'
_cell_volume   489.94772217
_cell_formula_units_Z   1
loop_
 _symmetry_equiv_pos_site_id
 _symmetry_equiv_pos_as_xyz
  1  'x, y, z'
loop_
 _atom_site_type_symbol
 _atom_site_label
 _atom_site_symmetry_multiplicity
 _atom_site_fract_x
 _atom_site_fract_y
 _atom_site_fract_z
 _atom_site_occupancy
  Ca  Ca0  1  0.501087  0.002173  0.250000  1
  Ca  Ca1  1  0.997827  0.498913  0.250000  1
  Ca  Ca2  1  0.501087  0.498913  0.250000  1
  Ca  Ca3  1  0.000000  0.000000  0.250000  1
  Tb  Tb4  1  0.000000  0.000000  0.750000  1
  Yb  Yb5  1  0.498755  0.997510  0.750000  1
  Yb  Yb6  1  0.002490  0.501245  0.750000  1
  Yb  Yb7  1  0.498755  0.501245  0.750000  1
  Si  Si8  1  0.164500  0.329000  0.995566  1
  Si  Si9  1  0.835471  0.670941  0.993781  1
  Si  Si10  1  0.671000  0.835500  0.995566  1
  Si  Si11  1  0.835471  0.670941  0.506219  1
  Si  Si12  1  0.329059  0.164529  0.993781  1
  Si  Si13  1  0.164500  0.329000  0.504434  1
  Si  Si14  1  0.164500  0.835500  0.995566  1
  Si  Si15  1  0.329059  0.164529  0.506219  1
  Si  Si16  1  0.835471  0.164529  0.993781  1
  Si  Si17  1  0.671000  0.835500  0.504434  1
  Si  Si18  1  0.835471  0.164529  0.506219  1
  Si  Si19  1  0.164500  0.835500  0.504434  1
  Pd  Pd20  1  0.333333  0.666667  0.998141  1
  Pd  Pd21  1  0.666667  0.333333  0.993634  1
  Pd  Pd22  1  0.666667  0.333333  0.506366  1
  Pd  Pd23  1  0.333333  0.666667  0.501859  1
