# generated using pymatgen
data_La5Th(TiBi5)2
_symmetry_space_group_name_H-M   'P 1'
_cell_length_a   9.77622083
_cell_length_b   9.76521960
_cell_length_c   6.52567200
_cell_angle_alpha   90.00000000
_cell_angle_beta   90.00000000
_cell_angle_gamma   119.96277674
_symmetry_Int_Tables_number   1
_chemical_formula_structural   La5Th(TiBi5)2
_chemical_formula_sum   'La5 Th1 Ti2 Bi10'
_cell_volume   539.72391953
_cell_formula_units_Z   1
loop_
 _symmetry_equiv_pos_site_id
 _symmetry_equiv_pos_as_xyz
  1  'x, y, z'
loop_
 _atom_site_type_symbol
 _atom_site_label
 _atom_site_symmetry_multiplicity
 _atom_site_fract_x
 _atom_site_fract_y
 _atom_site_fract_z
 _atom_site_occupancy
  La  La0  1  0.380049  0.380237  0.250000  1
  La  La1  1  0.383839  0.000874  0.750000  1
  La  La2  1  0.616161  0.617034  0.750000  1
  La  La3  1  0.619951  0.000187  0.250000  1
  La  La4  1  0.000000  0.381359  0.750000  1
  Th  Th5  1  0.000000  0.617922  0.250000  1
  Ti  Ti6  1  0.000000  0.000912  0.996074  1
  Ti  Ti7  1  0.000000  0.000912  0.503926  1
  Bi  Bi8  1  0.000000  0.254946  0.250000  1
  Bi  Bi9  1  0.330099  0.666641  0.498544  1
  Bi  Bi10  1  0.669901  0.336541  0.001456  1
  Bi  Bi11  1  0.330099  0.666641  0.001456  1
  Bi  Bi12  1  0.253917  0.253192  0.750000  1
  Bi  Bi13  1  0.746083  0.999276  0.750000  1
  Bi  Bi14  1  0.000000  0.744036  0.750000  1
  Bi  Bi15  1  0.748215  0.745482  0.250000  1
  Bi  Bi16  1  0.251785  0.997266  0.250000  1
  Bi  Bi17  1  0.669901  0.336541  0.498544  1
