# generated using pymatgen
data_Ac2Zn21Pt
_symmetry_space_group_name_H-M   'P 1'
_cell_length_a   8.40517390
_cell_length_b   8.40544901
_cell_length_c   8.40517433
_cell_angle_alpha   100.30580427
_cell_angle_beta   99.50719410
_cell_angle_gamma   130.98788253
_symmetry_Int_Tables_number   1
_chemical_formula_structural   Ac2Zn21Pt
_chemical_formula_sum   'Ac2 Zn21 Pt1'
_cell_volume   407.85729484
_cell_formula_units_Z   1
loop_
 _symmetry_equiv_pos_site_id
 _symmetry_equiv_pos_as_xyz
  1  'x, y, z'
loop_
 _atom_site_type_symbol
 _atom_site_label
 _atom_site_symmetry_multiplicity
 _atom_site_fract_x
 _atom_site_fract_y
 _atom_site_fract_z
 _atom_site_occupancy
  Ac  Ac0  1  0.251053  0.747696  0.496643  1
  Ac  Ac1  1  0.998947  0.002304  0.003357  1
  Zn  Zn2  1  0.427563  0.097228  0.914535  1
  Zn  Zn3  1  0.183831  0.512784  0.082911  1
  Zn  Zn4  1  0.503915  0.498048  0.994133  1
  Zn  Zn5  1  0.746085  0.251952  0.505867  1
  Zn  Zn6  1  0.125000  0.375000  0.750000  1
  Zn  Zn7  1  0.625000  0.375000  0.250000  1
  Zn  Zn8  1  0.625000  0.875000  0.250000  1
  Zn  Zn9  1  0.182694  0.097228  0.669666  1
  Zn  Zn10  1  0.764636  0.933804  0.583858  1
  Zn  Zn11  1  0.350103  0.178870  0.417762  1
  Zn  Zn12  1  0.429874  0.512784  0.328952  1
  Zn  Zn13  1  0.900055  0.816196  0.330831  1
  Zn  Zn14  1  0.488891  0.571130  0.671235  1
  Zn  Zn15  1  0.066169  0.237216  0.417089  1
  Zn  Zn16  1  0.822437  0.652772  0.585465  1
  Zn  Zn17  1  0.067306  0.652772  0.830334  1
  Zn  Zn18  1  0.485364  0.816196  0.916142  1
  Zn  Zn19  1  0.899897  0.571130  0.082238  1
  Zn  Zn20  1  0.820126  0.237216  0.171048  1
  Zn  Zn21  1  0.349945  0.933804  0.169169  1
  Zn  Zn22  1  0.761109  0.178870  0.828765  1
  Pt  Pt23  1  0.625000  0.375000  0.750000  1
