# generated using pymatgen
data_CsGePIr2
_symmetry_space_group_name_H-M   'P 1'
_cell_length_a   8.00175745
_cell_length_b   8.00175723
_cell_length_c   8.00175709
_cell_angle_alpha   150.77333658
_cell_angle_beta   150.77333726
_cell_angle_gamma   41.80739870
_symmetry_Int_Tables_number   1
_chemical_formula_structural   CsGePIr2
_chemical_formula_sum   'Cs1 Ge1 P1 Ir2'
_cell_volume   121.86050355
_cell_formula_units_Z   1
loop_
 _symmetry_equiv_pos_site_id
 _symmetry_equiv_pos_as_xyz
  1  'x, y, z'
loop_
 _atom_site_type_symbol
 _atom_site_label
 _atom_site_symmetry_multiplicity
 _atom_site_fract_x
 _atom_site_fract_y
 _atom_site_fract_z
 _atom_site_occupancy
  Cs  Cs0  1  0.005620  0.005620  0.000000  1
  Ge  Ge1  1  0.342717  0.342717  0.000000  1
  P  P2  1  0.665270  0.665270  0.000000  1
  Ir  Ir3  1  0.743197  0.243197  0.500000  1
  Ir  Ir4  1  0.243197  0.743197  0.500000  1
