# generated using pymatgen
data_HoSc(IrO4)2
_symmetry_space_group_name_H-M   'P 1'
_cell_length_a   5.26305365
_cell_length_b   7.30053516
_cell_length_c   7.51135858
_cell_angle_alpha   80.55337665
_cell_angle_beta   86.67214317
_cell_angle_gamma   90.65483946
_symmetry_Int_Tables_number   1
_chemical_formula_structural   HoSc(IrO4)2
_chemical_formula_sum   'Ho2 Sc2 Ir4 O16'
_cell_volume   284.15144603
_cell_formula_units_Z   2
loop_
 _symmetry_equiv_pos_site_id
 _symmetry_equiv_pos_as_xyz
  1  'x, y, z'
loop_
 _atom_site_type_symbol
 _atom_site_label
 _atom_site_symmetry_multiplicity
 _atom_site_fract_x
 _atom_site_fract_y
 _atom_site_fract_z
 _atom_site_occupancy
  Ho  Ho0  1  0.752431  0.378877  0.374935  1
  Ho  Ho1  1  0.247569  0.621123  0.625065  1
  Sc  Sc2  1  0.711703  0.873392  0.330627  1
  Sc  Sc3  1  0.288297  0.126608  0.669373  1
  Ir  Ir4  1  0.780374  0.299760  0.840865  1
  Ir  Ir5  1  0.219626  0.700240  0.159135  1
  Ir  Ir6  1  0.250614  0.198178  0.168325  1
  Ir  Ir7  1  0.749386  0.801822  0.831675  1
  O  O8  1  0.895862  0.809283  0.064459  1
  O  O9  1  0.104138  0.190717  0.935541  1
  O  O10  1  0.375609  0.944064  0.176506  1
  O  O11  1  0.624391  0.055936  0.823494  1
  O  O12  1  0.098660  0.443395  0.171439  1
  O  O13  1  0.901340  0.556605  0.828561  1
  O  O14  1  0.580351  0.309428  0.063108  1
  O  O15  1  0.419649  0.690572  0.936892  1
  O  O16  1  0.004000  0.318032  0.608389  1
  O  O17  1  0.996000  0.681968  0.391611  1
  O  O18  1  0.418352  0.178275  0.403405  1
  O  O19  1  0.581648  0.821725  0.596595  1
  O  O20  1  0.487228  0.616180  0.328243  1
  O  O21  1  0.512772  0.383820  0.671757  1
  O  O22  1  0.926768  0.110472  0.295189  1
  O  O23  1  0.073232  0.889528  0.704811  1
