# generated using pymatgen
data_TmSn5BiRu4
_symmetry_space_group_name_H-M   'P 1'
_cell_length_a   6.98220784
_cell_length_b   7.00033386
_cell_length_c   6.98129719
_cell_angle_alpha   120.63965789
_cell_angle_beta   120.55467424
_cell_angle_gamma   89.05198760
_symmetry_Int_Tables_number   1
_chemical_formula_structural   TmSn5BiRu4
_chemical_formula_sum   'Tm1 Sn5 Bi1 Ru4'
_cell_volume   238.89514958
_cell_formula_units_Z   1
loop_
 _symmetry_equiv_pos_site_id
 _symmetry_equiv_pos_as_xyz
  1  'x, y, z'
loop_
 _atom_site_type_symbol
 _atom_site_label
 _atom_site_symmetry_multiplicity
 _atom_site_fract_x
 _atom_site_fract_y
 _atom_site_fract_z
 _atom_site_occupancy
  Tm  Tm0  1  0.992801  0.998918  0.000000  1
  Sn  Sn1  1  0.118856  0.469006  0.000000  1
  Sn  Sn2  1  0.882634  0.878391  0.348817  1
  Sn  Sn3  1  0.533817  0.529573  0.651183  1
  Sn  Sn4  1  0.003191  0.503189  0.502508  1
  Sn  Sn5  1  0.500684  0.000681  0.497492  1
  Bi  Bi6  1  0.463404  0.120570  0.000000  1
  Ru  Ru7  1  0.404597  0.747574  0.000000  1
  Ru  Ru8  1  0.752541  0.403520  0.000000  1
  Ru  Ru9  1  0.245350  0.245902  0.643225  1
  Ru  Ru10  1  0.602125  0.602677  0.356775  1
