# generated using pymatgen
data_Sm6In(P3Rh5)4
_symmetry_space_group_name_H-M   'P 1'
_cell_length_a   13.58298800
_cell_length_b   13.58298692
_cell_length_c   3.92524400
_cell_angle_alpha   90.00000000
_cell_angle_beta   90.00000000
_cell_angle_gamma   119.99999775
_symmetry_Int_Tables_number   1
_chemical_formula_structural   Sm6In(P3Rh5)4
_chemical_formula_sum   'Sm6 In1 P12 Rh20'
_cell_volume   627.17378841
_cell_formula_units_Z   1
loop_
 _symmetry_equiv_pos_site_id
 _symmetry_equiv_pos_as_xyz
  1  'x, y, z'
loop_
 _atom_site_type_symbol
 _atom_site_label
 _atom_site_symmetry_multiplicity
 _atom_site_fract_x
 _atom_site_fract_y
 _atom_site_fract_z
 _atom_site_occupancy
  Sm  Sm0  1  0.529959  0.717001  0.250577  1
  Sm  Sm1  1  0.282999  0.812957  0.250577  1
  Sm  Sm2  1  0.187043  0.470041  0.250577  1
  Sm  Sm3  1  0.470041  0.282999  0.749423  1
  Sm  Sm4  1  0.717001  0.187043  0.749423  1
  Sm  Sm5  1  0.812957  0.529959  0.749423  1
  In  In6  1  0.000000  0.000000  0.000000  1
  P  P7  1  0.524861  0.136545  0.250013  1
  P  P8  1  0.863455  0.388317  0.250013  1
  P  P9  1  0.611683  0.475139  0.250013  1
  P  P10  1  0.948634  0.719168  0.245041  1
  P  P11  1  0.280832  0.229466  0.245041  1
  P  P12  1  0.770534  0.051366  0.245041  1
  P  P13  1  0.388317  0.524861  0.749987  1
  P  P14  1  0.475139  0.863455  0.749987  1
  P  P15  1  0.136545  0.611683  0.749987  1
  P  P16  1  0.719168  0.770534  0.754959  1
  P  P17  1  0.229466  0.948634  0.754959  1
  P  P18  1  0.051366  0.280832  0.754959  1
  Rh  Rh19  1  0.333333  0.666667  0.751646  1
  Rh  Rh20  1  0.921722  0.254174  0.243752  1
  Rh  Rh21  1  0.745826  0.667548  0.243752  1
  Rh  Rh22  1  0.332452  0.078278  0.243752  1
  Rh  Rh23  1  0.443264  0.026754  0.748717  1
  Rh  Rh24  1  0.973246  0.416510  0.748717  1
  Rh  Rh25  1  0.583490  0.556736  0.748717  1
  Rh  Rh26  1  0.666667  0.333333  0.248354  1
  Rh  Rh27  1  0.099281  0.208038  0.264226  1
  Rh  Rh28  1  0.791962  0.891243  0.264226  1
  Rh  Rh29  1  0.108757  0.900719  0.264226  1
  Rh  Rh30  1  0.026754  0.583490  0.251283  1
  Rh  Rh31  1  0.416510  0.443264  0.251283  1
  Rh  Rh32  1  0.556736  0.973246  0.251283  1
  Rh  Rh33  1  0.667548  0.921722  0.756248  1
  Rh  Rh34  1  0.078278  0.745826  0.756248  1
  Rh  Rh35  1  0.254174  0.332452  0.756248  1
  Rh  Rh36  1  0.900719  0.791962  0.735774  1
  Rh  Rh37  1  0.208038  0.108757  0.735774  1
  Rh  Rh38  1  0.891243  0.099281  0.735774  1
