# generated using pymatgen
data_Y3Al5Pt
_symmetry_space_group_name_H-M   'P 1'
_cell_length_a   7.08064000
_cell_length_b   7.08063940
_cell_length_c   4.28996300
_cell_angle_alpha   90.00000000
_cell_angle_beta   90.00000000
_cell_angle_gamma   119.99999346
_symmetry_Int_Tables_number   1
_chemical_formula_structural   Y3Al5Pt
_chemical_formula_sum   'Y3 Al5 Pt1'
_cell_volume   186.26411719
_cell_formula_units_Z   1
loop_
 _symmetry_equiv_pos_site_id
 _symmetry_equiv_pos_as_xyz
  1  'x, y, z'
loop_
 _atom_site_type_symbol
 _atom_site_label
 _atom_site_symmetry_multiplicity
 _atom_site_fract_x
 _atom_site_fract_y
 _atom_site_fract_z
 _atom_site_occupancy
  Y  Y0  1  0.000000  0.587080  0.000000  1
  Y  Y1  1  0.412920  0.412920  0.000000  1
  Y  Y2  1  0.587080  0.000000  0.000000  1
  Al  Al3  1  0.232973  0.000000  0.500000  1
  Al  Al4  1  0.767027  0.767027  0.500000  1
  Al  Al5  1  0.000000  0.232973  0.500000  1
  Al  Al6  1  0.666667  0.333333  0.500000  1
  Al  Al7  1  0.333333  0.666667  0.500000  1
  Pt  Pt8  1  0.000000  0.000000  0.000000  1
