# generated using pymatgen
data_Y3Ho17Cd3Fe2Hg3
_symmetry_space_group_name_H-M   'P 1'
_cell_length_a   9.52142900
_cell_length_b   9.52142754
_cell_length_c   9.74654200
_cell_angle_alpha   90.00000000
_cell_angle_beta   90.00000000
_cell_angle_gamma   120.00000159
_symmetry_Int_Tables_number   1
_chemical_formula_structural   Y3Ho17Cd3Fe2Hg3
_chemical_formula_sum   'Y3 Ho17 Cd3 Fe2 Hg3'
_cell_volume   765.21836327
_cell_formula_units_Z   1
loop_
 _symmetry_equiv_pos_site_id
 _symmetry_equiv_pos_as_xyz
  1  'x, y, z'
loop_
 _atom_site_type_symbol
 _atom_site_label
 _atom_site_symmetry_multiplicity
 _atom_site_fract_x
 _atom_site_fract_y
 _atom_site_fract_z
 _atom_site_occupancy
  Y  Y0  1  0.459323  0.540677  0.750000  1
  Y  Y1  1  0.459323  0.918645  0.750000  1
  Y  Y2  1  0.081355  0.540677  0.750000  1
  Ho  Ho3  1  0.000000  0.000000  0.490622  1
  Ho  Ho4  1  0.000000  0.000000  0.009378  1
  Ho  Ho5  1  0.211764  0.788236  0.435904  1
  Ho  Ho6  1  0.211764  0.423529  0.435904  1
  Ho  Ho7  1  0.576471  0.788236  0.435904  1
  Ho  Ho8  1  0.788028  0.211972  0.562674  1
  Ho  Ho9  1  0.788028  0.576055  0.562674  1
  Ho  Ho10  1  0.423945  0.211972  0.562674  1
  Ho  Ho11  1  0.788028  0.211972  0.937326  1
  Ho  Ho12  1  0.788028  0.576055  0.937326  1
  Ho  Ho13  1  0.423945  0.211972  0.937326  1
  Ho  Ho14  1  0.211764  0.788236  0.064096  1
  Ho  Ho15  1  0.211764  0.423529  0.064096  1
  Ho  Ho16  1  0.576471  0.788236  0.064096  1
  Ho  Ho17  1  0.540881  0.459119  0.250000  1
  Ho  Ho18  1  0.540881  0.081761  0.250000  1
  Ho  Ho19  1  0.918239  0.459119  0.250000  1
  Cd  Cd20  1  0.111925  0.888075  0.750000  1
  Cd  Cd21  1  0.111925  0.223851  0.750000  1
  Cd  Cd22  1  0.776149  0.888075  0.750000  1
  Fe  Fe23  1  0.333333  0.666667  0.250000  1
  Fe  Fe24  1  0.666667  0.333333  0.750000  1
  Hg  Hg25  1  0.880112  0.119888  0.250000  1
  Hg  Hg26  1  0.880112  0.760227  0.250000  1
  Hg  Hg27  1  0.239773  0.119888  0.250000  1
