# generated using pymatgen
data_NaPr4Y2RuI12
_symmetry_space_group_name_H-M   'P 1'
_cell_length_a   9.93358453
_cell_length_b   9.94488130
_cell_length_c   10.01636800
_cell_angle_alpha   106.37048868
_cell_angle_beta   107.27362337
_cell_angle_gamma   107.11963754
_symmetry_Int_Tables_number   1
_chemical_formula_structural   NaPr4Y2RuI12
_chemical_formula_sum   'Na1 Pr4 Y2 Ru1 I12'
_cell_volume   825.78368806
_cell_formula_units_Z   1
loop_
 _symmetry_equiv_pos_site_id
 _symmetry_equiv_pos_as_xyz
  1  'x, y, z'
loop_
 _atom_site_type_symbol
 _atom_site_label
 _atom_site_symmetry_multiplicity
 _atom_site_fract_x
 _atom_site_fract_y
 _atom_site_fract_z
 _atom_site_occupancy
  Na  Na0  1  0.500000  0.500000  0.500000  1
  Pr  Pr1  1  0.102134  0.307813  0.028070  1
  Pr  Pr2  1  0.293045  0.027222  0.097004  1
  Pr  Pr3  1  0.897866  0.692187  0.971930  1
  Pr  Pr4  1  0.706955  0.972778  0.902996  1
  Y  Y5  1  0.969536  0.894259  0.682978  1
  Y  Y6  1  0.030464  0.105741  0.317022  1
  Ru  Ru7  1  0.000000  0.000000  0.000000  1
  I  I8  1  0.542820  0.622710  0.852072  1
  I  I9  1  0.457180  0.377290  0.147928  1
  I  I10  1  0.309013  0.923266  0.768726  1
  I  I11  1  0.368778  0.146256  0.456148  1
  I  I12  1  0.927808  0.781166  0.325650  1
  I  I13  1  0.690987  0.076734  0.231274  1
  I  I14  1  0.072192  0.218834  0.674350  1
  I  I15  1  0.768928  0.317344  0.921637  1
  I  I16  1  0.231072  0.682656  0.078363  1
  I  I17  1  0.856861  0.550789  0.623172  1
  I  I18  1  0.143139  0.449211  0.376828  1
  I  I19  1  0.631222  0.853744  0.543852  1
