# generated using pymatgen
data_Tb5Tm3Pd4
_symmetry_space_group_name_H-M   'P 1'
_cell_length_a   4.87534600
_cell_length_b   7.10133734
_cell_length_c   8.78089900
_cell_angle_alpha   89.95351847
_cell_angle_beta   90.00000000
_cell_angle_gamma   90.00000000
_symmetry_Int_Tables_number   1
_chemical_formula_structural   Tb5Tm3Pd4
_chemical_formula_sum   'Tb5 Tm3 Pd4'
_cell_volume   304.00758904
_cell_formula_units_Z   1
loop_
 _symmetry_equiv_pos_site_id
 _symmetry_equiv_pos_as_xyz
  1  'x, y, z'
loop_
 _atom_site_type_symbol
 _atom_site_label
 _atom_site_symmetry_multiplicity
 _atom_site_fract_x
 _atom_site_fract_y
 _atom_site_fract_z
 _atom_site_occupancy
  Tb  Tb0  1  0.250000  0.484411  0.172435  1
  Tb  Tb1  1  0.750000  0.514552  0.826823  1
  Tb  Tb2  1  0.250000  0.987069  0.326702  1
  Tb  Tb3  1  0.750000  0.015587  0.674509  1
  Tb  Tb4  1  0.750000  0.644831  0.419843  1
  Tm  Tm5  1  0.250000  0.354683  0.579956  1
  Tm  Tm6  1  0.750000  0.144398  0.078905  1
  Tm  Tm7  1  0.250000  0.855983  0.920985  1
  Pd  Pd8  1  0.250000  0.255854  0.907759  1
  Pd  Pd9  1  0.750000  0.744358  0.089325  1
  Pd  Pd10  1  0.250000  0.757350  0.594698  1
  Pd  Pd11  1  0.750000  0.240925  0.408060  1
