# generated using pymatgen
data_Tb7YSc12Si15Os
_symmetry_space_group_name_H-M   'P 1'
_cell_length_a   7.10756010
_cell_length_b   7.45747467
_cell_length_c   14.00168205
_cell_angle_alpha   89.99044280
_cell_angle_beta   89.99724579
_cell_angle_gamma   90.20769700
_symmetry_Int_Tables_number   1
_chemical_formula_structural   Tb7YSc12Si15Os
_chemical_formula_sum   'Tb7 Y1 Sc12 Si15 Os1'
_cell_volume   742.14656055
_cell_formula_units_Z   1
loop_
 _symmetry_equiv_pos_site_id
 _symmetry_equiv_pos_as_xyz
  1  'x, y, z'
loop_
 _atom_site_type_symbol
 _atom_site_label
 _atom_site_symmetry_multiplicity
 _atom_site_fract_x
 _atom_site_fract_y
 _atom_site_fract_z
 _atom_site_occupancy
  Tb  Tb0  1  0.990840  0.827999  0.903048  1
  Tb  Tb1  1  0.488060  0.676079  0.903709  1
  Tb  Tb2  1  0.990835  0.828007  0.596950  1
  Tb  Tb3  1  0.511054  0.323448  0.096516  1
  Tb  Tb4  1  0.011444  0.178084  0.403601  1
  Tb  Tb5  1  0.511012  0.323444  0.403496  1
  Tb  Tb6  1  0.488067  0.676102  0.596307  1
  Y  Y7  1  0.011408  0.178136  0.096460  1
  Sc  Sc8  1  0.155112  0.494912  0.749988  1
  Sc  Sc9  1  0.838377  0.495794  0.249994  1
  Sc  Sc10  1  0.338868  0.004737  0.249997  1
  Sc  Sc11  1  0.669249  0.999533  0.749981  1
  Sc  Sc12  1  0.318767  0.172444  0.627262  1
  Sc  Sc13  1  0.671686  0.825179  0.373922  1
  Sc  Sc14  1  0.171173  0.677922  0.374230  1
  Sc  Sc15  1  0.671656  0.825192  0.126076  1
  Sc  Sc16  1  0.837082  0.318877  0.627361  1
  Sc  Sc17  1  0.318719  0.172465  0.872748  1
  Sc  Sc18  1  0.837107  0.318836  0.872623  1
  Sc  Sc19  1  0.171177  0.677911  0.125753  1
  Si  Si20  1  0.968135  0.883019  0.250004  1
  Si  Si21  1  0.468540  0.615692  0.249992  1
  Si  Si22  1  0.529786  0.388799  0.750003  1
  Si  Si23  1  0.286700  0.869629  0.750007  1
  Si  Si24  1  0.713206  0.128236  0.249947  1
  Si  Si25  1  0.213522  0.372014  0.249982  1
  Si  Si26  1  0.778807  0.626024  0.750002  1
  Si  Si27  1  0.158875  0.468856  0.536892  1
  Si  Si28  1  0.845099  0.535997  0.461436  1
  Si  Si29  1  0.345760  0.965405  0.460072  1
  Si  Si30  1  0.845098  0.535972  0.038585  1
  Si  Si31  1  0.654941  0.034067  0.538222  1
  Si  Si32  1  0.158876  0.468796  0.963120  1
  Si  Si33  1  0.654978  0.034074  0.961772  1
  Si  Si34  1  0.345682  0.965409  0.039949  1
  Os  Os35  1  0.030299  0.112908  0.749995  1
