# generated using pymatgen
data_PrPa2(AlPt)3
_symmetry_space_group_name_H-M   'P 1'
_cell_length_a   7.17482108
_cell_length_b   7.17482041
_cell_length_c   4.14757200
_cell_angle_alpha   90.00000000
_cell_angle_beta   90.00000000
_cell_angle_gamma   120.05988467
_symmetry_Int_Tables_number   1
_chemical_formula_structural   PrPa2(AlPt)3
_chemical_formula_sum   'Pr1 Pa2 Al3 Pt3'
_cell_volume   184.79247820
_cell_formula_units_Z   1
loop_
 _symmetry_equiv_pos_site_id
 _symmetry_equiv_pos_as_xyz
  1  'x, y, z'
loop_
 _atom_site_type_symbol
 _atom_site_label
 _atom_site_symmetry_multiplicity
 _atom_site_fract_x
 _atom_site_fract_y
 _atom_site_fract_z
 _atom_site_occupancy
  Pr  Pr0  1  0.580609  0.580609  0.500000  1
  Pa  Pa1  1  0.419814  0.997386  0.500000  1
  Pa  Pa2  1  0.997386  0.419814  0.500000  1
  Al  Al3  1  0.763711  0.997671  0.000000  1
  Al  Al4  1  0.997671  0.763711  0.000000  1
  Al  Al5  1  0.239379  0.239379  0.000000  1
  Pt  Pt6  1  0.313847  0.670228  0.000000  1
  Pt  Pt7  1  0.670228  0.313847  0.000000  1
  Pt  Pt8  1  0.017356  0.017356  0.500000  1
