# generated using pymatgen
data_DyU4Re3C8
_symmetry_space_group_name_H-M   'P 1'
_cell_length_a   11.36818300
_cell_length_b   11.36818300
_cell_length_c   3.27329500
_cell_angle_alpha   90.00000000
_cell_angle_beta   90.00000000
_cell_angle_gamma   90.00000000
_symmetry_Int_Tables_number   1
_chemical_formula_structural   DyU4Re3C8
_chemical_formula_sum   'Dy2 U8 Re6 C16'
_cell_volume   423.02619329
_cell_formula_units_Z   2
loop_
 _symmetry_equiv_pos_site_id
 _symmetry_equiv_pos_as_xyz
  1  'x, y, z'
loop_
 _atom_site_type_symbol
 _atom_site_label
 _atom_site_symmetry_multiplicity
 _atom_site_fract_x
 _atom_site_fract_y
 _atom_site_fract_z
 _atom_site_occupancy
  Dy  Dy0  1  0.000000  0.500000  0.000000  1
  Dy  Dy1  1  0.500000  0.000000  0.000000  1
  U  U2  1  0.271168  0.542315  0.500000  1
  U  U3  1  0.728832  0.457685  0.500000  1
  U  U4  1  0.542315  0.728832  0.500000  1
  U  U5  1  0.771168  0.957685  0.500000  1
  U  U6  1  0.228832  0.042315  0.500000  1
  U  U7  1  0.957685  0.228832  0.500000  1
  U  U8  1  0.457685  0.271168  0.500000  1
  U  U9  1  0.042315  0.771168  0.500000  1
  Re  Re10  1  0.203177  0.296823  0.000000  1
  Re  Re11  1  0.703177  0.203177  0.000000  1
  Re  Re12  1  0.296823  0.796823  0.000000  1
  Re  Re13  1  0.500000  0.500000  0.000000  1
  Re  Re14  1  0.796823  0.703177  0.000000  1
  Re  Re15  1  0.000000  0.000000  0.000000  1
  C  C16  1  0.347229  0.402820  0.000000  1
  C  C17  1  0.619017  0.119017  0.500000  1
  C  C18  1  0.902820  0.847229  0.000000  1
  C  C19  1  0.655617  0.844383  0.000000  1
  C  C20  1  0.344383  0.155617  0.000000  1
  C  C21  1  0.119017  0.380983  0.500000  1
  C  C22  1  0.152771  0.902820  0.000000  1
  C  C23  1  0.844383  0.344383  0.000000  1
  C  C24  1  0.652771  0.597180  0.000000  1
  C  C25  1  0.597180  0.347229  0.000000  1
  C  C26  1  0.880983  0.619017  0.500000  1
  C  C27  1  0.847229  0.097180  0.000000  1
  C  C28  1  0.380983  0.880983  0.500000  1
  C  C29  1  0.155617  0.655617  0.000000  1
  C  C30  1  0.097180  0.152771  0.000000  1
  C  C31  1  0.402820  0.652771  0.000000  1
