# generated using pymatgen
data_La2Th5P12Pd17
_symmetry_space_group_name_H-M   'P 1'
_cell_length_a   12.39777705
_cell_length_b   12.39777704
_cell_length_c   13.72744251
_cell_angle_alpha   68.69246340
_cell_angle_beta   68.69246388
_cell_angle_gamma   19.08522636
_symmetry_Int_Tables_number   1
_chemical_formula_structural   La2Th5P12Pd17
_chemical_formula_sum   'La2 Th5 P12 Pd17'
_cell_volume   641.36459506
_cell_formula_units_Z   1
loop_
 _symmetry_equiv_pos_site_id
 _symmetry_equiv_pos_as_xyz
  1  'x, y, z'
loop_
 _atom_site_type_symbol
 _atom_site_label
 _atom_site_symmetry_multiplicity
 _atom_site_fract_x
 _atom_site_fract_y
 _atom_site_fract_z
 _atom_site_occupancy
  La  La0  1  0.416992  0.416992  0.263576  1
  La  La1  1  0.583008  0.583008  0.736424  1
  Th  Th2  1  0.500000  0.500000  0.500000  1
  Th  Th3  1  0.363678  0.363678  0.000822  1
  Th  Th4  1  0.636322  0.636322  0.999178  1
  Th  Th5  1  0.234125  0.234125  0.312430  1
  Th  Th6  1  0.765875  0.765875  0.687570  1
  P  P7  1  0.061500  0.061500  0.925856  1
  P  P8  1  0.938500  0.938500  0.074144  1
  P  P9  1  0.885787  0.885787  0.829640  1
  P  P10  1  0.114213  0.114213  0.170360  1
  P  P11  1  0.189865  0.189865  0.619232  1
  P  P12  1  0.810135  0.810135  0.380768  1
  P  P13  1  0.365742  0.365742  0.578060  1
  P  P14  1  0.634258  0.634258  0.421940  1
  P  P15  1  0.009936  0.009936  0.665367  1
  P  P16  1  0.990064  0.990064  0.334633  1
  P  P17  1  0.233321  0.233321  0.885300  1
  P  P18  1  0.766679  0.766679  0.114700  1
  Pd  Pd19  1  0.838208  0.838208  0.193924  1
  Pd  Pd20  1  0.161792  0.161792  0.806076  1
  Pd  Pd21  1  0.026755  0.026755  0.123945  1
  Pd  Pd22  1  0.973245  0.973245  0.876055  1
  Pd  Pd23  1  0.890392  0.890392  0.458726  1
  Pd  Pd24  1  0.109608  0.109608  0.541274  1
  Pd  Pd25  1  0.500000  0.500000  0.000000  1
  Pd  Pd26  1  0.545955  0.545955  0.253354  1
  Pd  Pd27  1  0.454045  0.454045  0.746646  1
  Pd  Pd28  1  0.295817  0.295817  0.488168  1
  Pd  Pd29  1  0.704183  0.704183  0.511832  1
  Pd  Pd30  1  0.665315  0.665315  0.226948  1
  Pd  Pd31  1  0.334685  0.334685  0.773052  1
  Pd  Pd32  1  0.907712  0.907712  0.644134  1
  Pd  Pd33  1  0.092288  0.092288  0.355866  1
  Pd  Pd34  1  0.218616  0.218616  0.074926  1
  Pd  Pd35  1  0.781384  0.781384  0.925074  1
