# generated using pymatgen
data_Hf16Zr4Co3NiAs12
_symmetry_space_group_name_H-M   'P 1'
_cell_length_a   3.69638800
_cell_length_b   10.45960202
_cell_length_c   17.45678736
_cell_angle_alpha   89.92884740
_cell_angle_beta   90.00000000
_cell_angle_gamma   90.00000000
_symmetry_Int_Tables_number   1
_chemical_formula_structural   Hf16Zr4Co3NiAs12
_chemical_formula_sum   'Hf16 Zr4 Co3 Ni1 As12'
_cell_volume   674.92683950
_cell_formula_units_Z   1
loop_
 _symmetry_equiv_pos_site_id
 _symmetry_equiv_pos_as_xyz
  1  'x, y, z'
loop_
 _atom_site_type_symbol
 _atom_site_label
 _atom_site_symmetry_multiplicity
 _atom_site_fract_x
 _atom_site_fract_y
 _atom_site_fract_z
 _atom_site_occupancy
  Hf  Hf0  1  0.250000  0.880476  0.478086  1
  Hf  Hf1  1  0.750000  0.121726  0.522670  1
  Hf  Hf2  1  0.750000  0.378602  0.022499  1
  Hf  Hf3  1  0.250000  0.621131  0.977351  1
  Hf  Hf4  1  0.250000  0.943234  0.077424  1
  Hf  Hf5  1  0.750000  0.056835  0.923117  1
  Hf  Hf6  1  0.750000  0.440816  0.422219  1
  Hf  Hf7  1  0.250000  0.556776  0.577399  1
  Hf  Hf8  1  0.250000  0.241878  0.166882  1
  Hf  Hf9  1  0.750000  0.758108  0.833099  1
  Hf  Hf10  1  0.750000  0.742743  0.331876  1
  Hf  Hf11  1  0.250000  0.257898  0.666771  1
  Hf  Hf12  1  0.250000  0.514031  0.274959  1
  Hf  Hf13  1  0.750000  0.484319  0.723623  1
  Hf  Hf14  1  0.750000  0.015300  0.223724  1
  Hf  Hf15  1  0.250000  0.984485  0.776392  1
  Zr  Zr16  1  0.250000  0.185347  0.367939  1
  Zr  Zr17  1  0.750000  0.815480  0.632432  1
  Zr  Zr18  1  0.750000  0.684828  0.131467  1
  Zr  Zr19  1  0.250000  0.315400  0.867926  1
  Co  Co20  1  0.750000  0.369394  0.592532  1
  Co  Co21  1  0.750000  0.130863  0.091828  1
  Co  Co22  1  0.250000  0.869266  0.907428  1
  Ni  Ni23  1  0.250000  0.631282  0.410389  1
  As  As24  1  0.250000  0.490368  0.118119  1
  As  As25  1  0.750000  0.509540  0.881715  1
  As  As26  1  0.750000  0.989257  0.381800  1
  As  As27  1  0.250000  0.009747  0.618422  1
  As  As28  1  0.250000  0.815237  0.219881  1
  As  As29  1  0.750000  0.183966  0.780382  1
  As  As30  1  0.750000  0.316176  0.279747  1
  As  As31  1  0.250000  0.683750  0.719705  1
  As  As32  1  0.250000  0.188373  0.008171  1
  As  As33  1  0.750000  0.811937  0.991755  1
  As  As34  1  0.750000  0.688959  0.491911  1
  As  As35  1  0.250000  0.312474  0.508362  1
