# generated using pymatgen
data_Sr9Ca(Si2Sn)2
_symmetry_space_group_name_H-M   'P 1'
_cell_length_a   9.95679162
_cell_length_b   9.95679198
_cell_length_c   9.95679166
_cell_angle_alpha   131.59736298
_cell_angle_beta   131.59736273
_cell_angle_gamma   70.86569658
_symmetry_Int_Tables_number   1
_chemical_formula_structural   Sr9Ca(Si2Sn)2
_chemical_formula_sum   'Sr9 Ca1 Si4 Sn2'
_cell_volume   540.64978495
_cell_formula_units_Z   1
loop_
 _symmetry_equiv_pos_site_id
 _symmetry_equiv_pos_as_xyz
  1  'x, y, z'
loop_
 _atom_site_type_symbol
 _atom_site_label
 _atom_site_symmetry_multiplicity
 _atom_site_fract_x
 _atom_site_fract_y
 _atom_site_fract_z
 _atom_site_occupancy
  Sr  Sr0  1  0.541350  0.045475  0.857091  1
  Sr  Sr1  1  0.188384  0.684259  0.142909  1
  Sr  Sr2  1  0.045475  0.188384  0.504125  1
  Sr  Sr3  1  0.684259  0.541350  0.495875  1
  Sr  Sr4  1  0.458650  0.954525  0.142909  1
  Sr  Sr5  1  0.811616  0.315741  0.857091  1
  Sr  Sr6  1  0.954525  0.811616  0.495875  1
  Sr  Sr7  1  0.315741  0.458650  0.504125  1
  Sr  Sr8  1  0.000000  0.000000  0.000000  1
  Ca  Ca9  1  0.500000  0.500000  0.000000  1
  Si  Si10  1  0.888377  0.394114  0.282491  1
  Si  Si11  1  0.111623  0.605886  0.717509  1
  Si  Si12  1  0.394114  0.111623  0.505737  1
  Si  Si13  1  0.605886  0.888377  0.494263  1
  Sn  Sn14  1  0.249518  0.249518  0.000000  1
  Sn  Sn15  1  0.750482  0.750482  0.000000  1
