# generated using pymatgen
data_Er16Sc4IrPt11
_symmetry_space_group_name_H-M   'P 1'
_cell_length_a   10.85855600
_cell_length_b   10.85855600
_cell_length_c   6.26130700
_cell_angle_alpha   90.00000000
_cell_angle_beta   90.00000000
_cell_angle_gamma   90.00000000
_symmetry_Int_Tables_number   1
_chemical_formula_structural   Er16Sc4IrPt11
_chemical_formula_sum   'Er16 Sc4 Ir1 Pt11'
_cell_volume   738.25967848
_cell_formula_units_Z   1
loop_
 _symmetry_equiv_pos_site_id
 _symmetry_equiv_pos_as_xyz
  1  'x, y, z'
loop_
 _atom_site_type_symbol
 _atom_site_label
 _atom_site_symmetry_multiplicity
 _atom_site_fract_x
 _atom_site_fract_y
 _atom_site_fract_z
 _atom_site_occupancy
  Er  Er0  1  0.288285  0.086947  0.377355  1
  Er  Er1  1  0.288235  0.912918  0.877128  1
  Er  Er2  1  0.711765  0.087082  0.877128  1
  Er  Er3  1  0.711715  0.913053  0.377355  1
  Er  Er4  1  0.587082  0.788235  0.877128  1
  Er  Er5  1  0.586947  0.211715  0.377355  1
  Er  Er6  1  0.413053  0.788285  0.377355  1
  Er  Er7  1  0.412918  0.211765  0.877128  1
  Er  Er8  1  0.210429  0.413551  0.620686  1
  Er  Er9  1  0.210640  0.586563  0.125348  1
  Er  Er10  1  0.789360  0.413437  0.125348  1
  Er  Er11  1  0.789571  0.586449  0.620686  1
  Er  Er12  1  0.913437  0.710640  0.125348  1
  Er  Er13  1  0.913551  0.289571  0.620686  1
  Er  Er14  1  0.086449  0.710429  0.620686  1
  Er  Er15  1  0.086563  0.289360  0.125348  1
  Sc  Sc16  1  0.000000  0.000000  0.500046  1
  Sc  Sc17  1  0.000000  0.000000  0.000020  1
  Sc  Sc18  1  0.500000  0.500000  0.000020  1
  Sc  Sc19  1  0.500000  0.500000  0.500046  1
  Ir  Ir20  1  0.000000  0.500000  0.379557  1
  Pt  Pt21  1  0.850776  0.148454  0.249880  1
  Pt  Pt22  1  0.850989  0.851351  0.750080  1
  Pt  Pt23  1  0.149011  0.148649  0.750080  1
  Pt  Pt24  1  0.149224  0.851546  0.249880  1
  Pt  Pt25  1  0.648649  0.350989  0.750080  1
  Pt  Pt26  1  0.648454  0.649224  0.249880  1
  Pt  Pt27  1  0.351546  0.350776  0.249880  1
  Pt  Pt28  1  0.351351  0.649011  0.750080  1
  Pt  Pt29  1  0.500000  0.000000  0.119480  1
  Pt  Pt30  1  0.500000  0.000000  0.619659  1
  Pt  Pt31  1  0.000000  0.500000  0.879263  1
