# generated using pymatgen
data_Cs14MgMn7S16
_symmetry_space_group_name_H-M   'P 1'
_cell_length_a   10.66082010
_cell_length_b   10.72605745
_cell_length_c   17.29193000
_cell_angle_alpha   65.17537208
_cell_angle_beta   64.73703109
_cell_angle_gamma   48.77018315
_symmetry_Int_Tables_number   1
_chemical_formula_structural   Cs14MgMn7S16
_chemical_formula_sum   'Cs14 Mg1 Mn7 S16'
_cell_volume   1316.64657836
_cell_formula_units_Z   1
loop_
 _symmetry_equiv_pos_site_id
 _symmetry_equiv_pos_as_xyz
  1  'x, y, z'
loop_
 _atom_site_type_symbol
 _atom_site_label
 _atom_site_symmetry_multiplicity
 _atom_site_fract_x
 _atom_site_fract_y
 _atom_site_fract_z
 _atom_site_occupancy
  Cs  Cs0  1  0.229861  0.768556  0.752068  1
  Cs  Cs1  1  0.769093  0.231787  0.247048  1
  Cs  Cs2  1  0.249012  0.742504  0.984194  1
  Cs  Cs3  1  0.252306  0.757624  0.517818  1
  Cs  Cs4  1  0.759983  0.257547  0.001638  1
  Cs  Cs5  1  0.747468  0.232291  0.497989  1
  Cs  Cs6  1  0.994228  0.527725  0.615804  1
  Cs  Cs7  1  0.481928  0.995104  0.886909  1
  Cs  Cs8  1  0.996083  0.471186  0.392777  1
  Cs  Cs9  1  0.536292  0.999569  0.102790  1
  Cs  Cs10  1  0.007832  0.512096  0.860461  1
  Cs  Cs11  1  0.481484  0.000650  0.639222  1
  Cs  Cs12  1  0.992945  0.490847  0.137019  1
  Cs  Cs13  1  0.505813  0.011497  0.361144  1
  Mg  Mg14  1  0.672828  0.458673  0.653594  1
  Mn  Mn15  1  0.545924  0.319048  0.843826  1
  Mn  Mn16  1  0.315454  0.575049  0.331297  1
  Mn  Mn17  1  0.435502  0.679020  0.166394  1
  Mn  Mn18  1  0.921724  0.200216  0.777640  1
  Mn  Mn19  1  0.789886  0.090369  0.724399  1
  Mn  Mn20  1  0.099716  0.786416  0.224041  1
  Mn  Mn21  1  0.215714  0.891014  0.276265  1
  S  S22  1  0.656674  0.493461  0.792003  1
  S  S23  1  0.501261  0.342125  0.711219  1
  S  S24  1  0.337924  0.515707  0.216935  1
  S  S25  1  0.475842  0.664780  0.287502  1
  S  S26  1  0.968392  0.190586  0.630274  1
  S  S27  1  0.805605  0.035365  0.868934  1
  S  S28  1  0.054097  0.801127  0.360442  1
  S  S29  1  0.199983  0.948877  0.141626  1
  S  S30  1  0.663778  0.605611  0.055639  1
  S  S31  1  0.384987  0.357800  0.440682  1
  S  S32  1  0.317688  0.388290  0.963114  1
  S  S33  1  0.608798  0.691840  0.533644  1
  S  S34  1  0.866181  0.867422  0.680136  1
  S  S35  1  0.142250  0.125962  0.822903  1
  S  S36  1  0.140031  0.108572  0.313771  1
  S  S37  1  0.875438  0.863686  0.186838  1
