# generated using pymatgen
data_Ho6Th2MgCdIr2
_symmetry_space_group_name_H-M   'P 1'
_cell_length_a   9.75586453
_cell_length_b   9.75586469
_cell_length_c   9.77213100
_cell_angle_alpha   59.94482621
_cell_angle_beta   59.94482567
_cell_angle_gamma   59.88077603
_symmetry_Int_Tables_number   1
_chemical_formula_structural   Ho6Th2MgCdIr2
_chemical_formula_sum   'Ho12 Th4 Mg2 Cd2 Ir4'
_cell_volume   656.52449612
_cell_formula_units_Z   2
loop_
 _symmetry_equiv_pos_site_id
 _symmetry_equiv_pos_as_xyz
  1  'x, y, z'
loop_
 _atom_site_type_symbol
 _atom_site_label
 _atom_site_symmetry_multiplicity
 _atom_site_fract_x
 _atom_site_fract_y
 _atom_site_fract_z
 _atom_site_occupancy
  Ho  Ho0  1  0.062879  0.437523  0.436826  1
  Ho  Ho1  1  0.437523  0.062879  0.062772  1
  Ho  Ho2  1  0.437523  0.062879  0.436826  1
  Ho  Ho3  1  0.062879  0.437523  0.062772  1
  Ho  Ho4  1  0.438675  0.438675  0.061325  1
  Ho  Ho5  1  0.063506  0.063506  0.436494  1
  Ho  Ho6  1  0.187380  0.815361  0.815104  1
  Ho  Ho7  1  0.815361  0.187380  0.182155  1
  Ho  Ho8  1  0.815361  0.187380  0.815104  1
  Ho  Ho9  1  0.187380  0.815361  0.182155  1
  Ho  Ho10  1  0.816839  0.816839  0.183161  1
  Ho  Ho11  1  0.185867  0.185867  0.814133  1
  Th  Th12  1  0.599267  0.599267  0.598435  1
  Th  Th13  1  0.599267  0.599267  0.203032  1
  Th  Th14  1  0.599663  0.201816  0.599261  1
  Th  Th15  1  0.201816  0.599663  0.599261  1
  Mg  Mg16  1  0.828177  0.828177  0.832448  1
  Mg  Mg17  1  0.828177  0.828177  0.511198  1
  Cd  Cd18  1  0.832324  0.501037  0.833320  1
  Cd  Cd19  1  0.501037  0.832324  0.833320  1
  Ir  Ir20  1  0.392873  0.392873  0.393789  1
  Ir  Ir21  1  0.392873  0.392873  0.820466  1
  Ir  Ir22  1  0.392309  0.821046  0.393322  1
  Ir  Ir23  1  0.821046  0.392309  0.393322  1
