# generated using pymatgen
data_Y2ErAl12CoRu3
_symmetry_space_group_name_H-M   'P 1'
_cell_length_a   8.76802257
_cell_length_b   8.76802320
_cell_length_c   9.52843900
_cell_angle_alpha   90.00000000
_cell_angle_beta   90.00000000
_cell_angle_gamma   120.04136206
_symmetry_Int_Tables_number   1
_chemical_formula_structural   Y2ErAl12CoRu3
_chemical_formula_sum   'Y4 Er2 Al24 Co2 Ru6'
_cell_volume   634.12456561
_cell_formula_units_Z   2
loop_
 _symmetry_equiv_pos_site_id
 _symmetry_equiv_pos_as_xyz
  1  'x, y, z'
loop_
 _atom_site_type_symbol
 _atom_site_label
 _atom_site_symmetry_multiplicity
 _atom_site_fract_x
 _atom_site_fract_y
 _atom_site_fract_z
 _atom_site_occupancy
  Y  Y0  1  0.193135  0.386503  0.250000  1
  Y  Y1  1  0.806865  0.613497  0.750000  1
  Y  Y2  1  0.613497  0.806865  0.250000  1
  Y  Y3  1  0.386503  0.193135  0.750000  1
  Er  Er4  1  0.193692  0.806308  0.250000  1
  Er  Er5  1  0.806308  0.193692  0.750000  1
  Al  Al6  1  0.333105  0.666895  0.015531  1
  Al  Al7  1  0.666895  0.333105  0.984469  1
  Al  Al8  1  0.666895  0.333105  0.515531  1
  Al  Al9  1  0.333105  0.666895  0.484469  1
  Al  Al10  1  0.159361  0.319426  0.576802  1
  Al  Al11  1  0.840639  0.680574  0.423198  1
  Al  Al12  1  0.680574  0.840639  0.576802  1
  Al  Al13  1  0.840639  0.680574  0.076802  1
  Al  Al14  1  0.319426  0.159361  0.423198  1
  Al  Al15  1  0.159361  0.319426  0.923198  1
  Al  Al16  1  0.159829  0.840171  0.576070  1
  Al  Al17  1  0.319426  0.159361  0.076802  1
  Al  Al18  1  0.840171  0.159829  0.423930  1
  Al  Al19  1  0.680574  0.840639  0.923198  1
  Al  Al20  1  0.840171  0.159829  0.076070  1
  Al  Al21  1  0.159829  0.840171  0.923930  1
  Al  Al22  1  0.560886  0.122780  0.250000  1
  Al  Al23  1  0.439114  0.877220  0.750000  1
  Al  Al24  1  0.877220  0.439114  0.250000  1
  Al  Al25  1  0.122780  0.560886  0.750000  1
  Al  Al26  1  0.561717  0.438283  0.250000  1
  Al  Al27  1  0.438283  0.561717  0.750000  1
  Al  Al28  1  0.000621  0.999379  0.250000  1
  Al  Al29  1  0.999379  0.000621  0.750000  1
  Co  Co30  1  0.000000  0.000000  0.000000  1
  Co  Co31  1  0.000000  0.000000  0.500000  1
  Ru  Ru32  1  0.500000  0.000000  0.000000  1
  Ru  Ru33  1  0.000000  0.500000  0.000000  1
  Ru  Ru34  1  0.500000  0.000000  0.500000  1
  Ru  Ru35  1  0.500000  0.500000  0.000000  1
  Ru  Ru36  1  0.000000  0.500000  0.500000  1
  Ru  Ru37  1  0.500000  0.500000  0.500000  1
