# generated using pymatgen
data_SrPrSm(Si3Pd10)2
_symmetry_space_group_name_H-M   'P 1'
_cell_length_a   8.79693372
_cell_length_b   8.79693353
_cell_length_c   8.79693300
_cell_angle_alpha   59.99999825
_cell_angle_beta   59.99999896
_cell_angle_gamma   59.99999859
_symmetry_Int_Tables_number   1
_chemical_formula_structural   SrPrSm(Si3Pd10)2
_chemical_formula_sum   'Sr1 Pr1 Sm1 Si6 Pd20'
_cell_volume   481.36986989
_cell_formula_units_Z   1
loop_
 _symmetry_equiv_pos_site_id
 _symmetry_equiv_pos_as_xyz
  1  'x, y, z'
loop_
 _atom_site_type_symbol
 _atom_site_label
 _atom_site_symmetry_multiplicity
 _atom_site_fract_x
 _atom_site_fract_y
 _atom_site_fract_z
 _atom_site_occupancy
  Sr  Sr0  1  0.750000  0.750000  0.750000  1
  Pr  Pr1  1  0.250000  0.250000  0.250000  1
  Sm  Sm2  1  0.000000  0.000000  0.000000  1
  Si  Si3  1  0.732602  0.267398  0.267398  1
  Si  Si4  1  0.267398  0.732602  0.732602  1
  Si  Si5  1  0.267398  0.732602  0.267398  1
  Si  Si6  1  0.732602  0.267398  0.732602  1
  Si  Si7  1  0.267398  0.267398  0.732602  1
  Si  Si8  1  0.732602  0.732602  0.267398  1
  Pd  Pd9  1  0.385287  0.385287  0.385287  1
  Pd  Pd10  1  0.613484  0.613484  0.613484  1
  Pd  Pd11  1  0.385287  0.385287  0.844137  1
  Pd  Pd12  1  0.385287  0.844137  0.385287  1
  Pd  Pd13  1  0.613484  0.613484  0.159550  1
  Pd  Pd14  1  0.613484  0.159550  0.613484  1
  Pd  Pd15  1  0.844137  0.385287  0.385287  1
  Pd  Pd16  1  0.159550  0.613484  0.613484  1
  Pd  Pd17  1  0.343954  0.001280  0.001280  1
  Pd  Pd18  1  0.653485  0.001280  0.001280  1
  Pd  Pd19  1  0.001280  0.343954  0.653485  1
  Pd  Pd20  1  0.001280  0.653485  0.343954  1
  Pd  Pd21  1  0.001280  0.343954  0.001280  1
  Pd  Pd22  1  0.653485  0.001280  0.343954  1
  Pd  Pd23  1  0.001280  0.653485  0.001280  1
  Pd  Pd24  1  0.343954  0.001280  0.653485  1
  Pd  Pd25  1  0.001280  0.001280  0.343954  1
  Pd  Pd26  1  0.001280  0.001280  0.653485  1
  Pd  Pd27  1  0.653485  0.343954  0.001280  1
  Pd  Pd28  1  0.343954  0.653485  0.001280  1
