# generated using pymatgen
data_Pr5Ho11Cd4Ir3Pt
_symmetry_space_group_name_H-M   'P 1'
_cell_length_a   9.72029146
_cell_length_b   9.73292458
_cell_length_c   9.73292433
_cell_angle_alpha   59.99519783
_cell_angle_beta   60.06405642
_cell_angle_gamma   60.06405585
_symmetry_Int_Tables_number   1
_chemical_formula_structural   Pr5Ho11Cd4Ir3Pt
_chemical_formula_sum   'Pr5 Ho11 Cd4 Ir3 Pt1'
_cell_volume   651.71093713
_cell_formula_units_Z   1
loop_
 _symmetry_equiv_pos_site_id
 _symmetry_equiv_pos_as_xyz
  1  'x, y, z'
loop_
 _atom_site_type_symbol
 _atom_site_label
 _atom_site_symmetry_multiplicity
 _atom_site_fract_x
 _atom_site_fract_y
 _atom_site_fract_z
 _atom_site_occupancy
  Pr  Pr0  1  0.557437  0.942661  0.942661  1
  Pr  Pr1  1  0.563420  0.938617  0.559379  1
  Pr  Pr2  1  0.941614  0.560025  0.936923  1
  Pr  Pr3  1  0.563420  0.559379  0.938617  1
  Pr  Pr4  1  0.941614  0.936923  0.560025  1
  Ho  Ho5  1  0.347634  0.346753  0.346753  1
  Ho  Ho6  1  0.349671  0.353338  0.954183  1
  Ho  Ho7  1  0.349671  0.954183  0.353338  1
  Ho  Ho8  1  0.950841  0.351508  0.351508  1
  Ho  Ho9  1  0.808293  0.187784  0.187784  1
  Ho  Ho10  1  0.184684  0.813368  0.813368  1
  Ho  Ho11  1  0.187223  0.807473  0.190359  1
  Ho  Ho12  1  0.812961  0.185954  0.811514  1
  Ho  Ho13  1  0.187223  0.190359  0.807473  1
  Ho  Ho14  1  0.812961  0.811514  0.185954  1
  Ho  Ho15  1  0.945709  0.554768  0.554768  1
  Cd  Cd16  1  0.582717  0.578798  0.578798  1
  Cd  Cd17  1  0.578579  0.579533  0.262250  1
  Cd  Cd18  1  0.578579  0.262250  0.579533  1
  Cd  Cd19  1  0.259885  0.578802  0.578802  1
  Ir  Ir20  1  0.138971  0.146543  0.575296  1
  Ir  Ir21  1  0.138971  0.575296  0.146543  1
  Ir  Ir22  1  0.575653  0.141413  0.141413  1
  Pt  Pt23  1  0.142269  0.142757  0.142757  1
