# generated using pymatgen
data_TmTh3Ge6Os7
_symmetry_space_group_name_H-M   'P 1'
_cell_length_a   7.39109598
_cell_length_b   7.35029578
_cell_length_c   7.35029616
_cell_angle_alpha   109.35850028
_cell_angle_beta   109.58370578
_cell_angle_gamma   109.58369533
_symmetry_Int_Tables_number   1
_chemical_formula_structural   TmTh3Ge6Os7
_chemical_formula_sum   'Tm1 Th3 Ge6 Os7'
_cell_volume   306.96714136
_cell_formula_units_Z   1
loop_
 _symmetry_equiv_pos_site_id
 _symmetry_equiv_pos_as_xyz
  1  'x, y, z'
loop_
 _atom_site_type_symbol
 _atom_site_label
 _atom_site_symmetry_multiplicity
 _atom_site_fract_x
 _atom_site_fract_y
 _atom_site_fract_z
 _atom_site_occupancy
  Tm  Tm0  1  0.500000  0.000000  0.000000  1
  Th  Th1  1  0.000000  0.000000  0.500000  1
  Th  Th2  1  0.000000  0.500000  0.000000  1
  Th  Th3  1  0.500000  0.500000  0.500000  1
  Ge  Ge4  1  0.682408  0.688264  0.000000  1
  Ge  Ge5  1  0.317592  0.000000  0.311736  1
  Ge  Ge6  1  0.994144  0.311736  0.311736  1
  Ge  Ge7  1  0.317592  0.311736  0.000000  1
  Ge  Ge8  1  0.682408  0.000000  0.688264  1
  Ge  Ge9  1  0.005856  0.688264  0.688264  1
  Os  Os10  1  0.748011  0.248011  0.496022  1
  Os  Os11  1  0.748011  0.496022  0.248011  1
  Os  Os12  1  0.500000  0.248011  0.751989  1
  Os  Os13  1  0.251989  0.503978  0.751989  1
  Os  Os14  1  0.251989  0.751989  0.503978  1
  Os  Os15  1  0.500000  0.751989  0.248011  1
  Os  Os16  1  0.000000  0.000000  0.000000  1
