# generated using pymatgen
data_Ho3(ZnGa)4
_symmetry_space_group_name_H-M   'P 1'
_cell_length_a   8.25430437
_cell_length_b   8.25430636
_cell_length_c   8.25430500
_cell_angle_alpha   149.35769483
_cell_angle_beta   131.20318943
_cell_angle_gamma   58.72828273
_symmetry_Int_Tables_number   1
_chemical_formula_structural   Ho3(ZnGa)4
_chemical_formula_sum   'Ho3 Zn4 Ga4'
_cell_volume   213.98989058
_cell_formula_units_Z   1
loop_
 _symmetry_equiv_pos_site_id
 _symmetry_equiv_pos_as_xyz
  1  'x, y, z'
loop_
 _atom_site_type_symbol
 _atom_site_label
 _atom_site_symmetry_multiplicity
 _atom_site_fract_x
 _atom_site_fract_y
 _atom_site_fract_z
 _atom_site_occupancy
  Ho  Ho0  1  0.500000  0.000000  0.500000  1
  Ho  Ho1  1  0.874237  0.874237  0.000000  1
  Ho  Ho2  1  0.125763  0.125763  0.000000  1
  Zn  Zn3  1  0.476393  0.665663  0.810730  1
  Zn  Zn4  1  0.854934  0.665663  0.189270  1
  Zn  Zn5  1  0.145066  0.334337  0.810730  1
  Zn  Zn6  1  0.523607  0.334337  0.189270  1
  Ga  Ga7  1  0.281653  0.781653  0.500000  1
  Ga  Ga8  1  0.718347  0.218347  0.500000  1
  Ga  Ga9  1  0.812699  0.500000  0.312699  1
  Ga  Ga10  1  0.187301  0.500000  0.687301  1
