# generated using pymatgen
data_CaSm6RuBr12
_symmetry_space_group_name_H-M   'P 1'
_cell_length_a   9.42078705
_cell_length_b   9.43315089
_cell_length_c   9.53254450
_cell_angle_alpha   106.94117303
_cell_angle_beta   107.31181034
_cell_angle_gamma   106.76632804
_symmetry_Int_Tables_number   1
_chemical_formula_structural   CaSm6RuBr12
_chemical_formula_sum   'Ca1 Sm6 Ru1 Br12'
_cell_volume   705.36560716
_cell_formula_units_Z   1
loop_
 _symmetry_equiv_pos_site_id
 _symmetry_equiv_pos_as_xyz
  1  'x, y, z'
loop_
 _atom_site_type_symbol
 _atom_site_label
 _atom_site_symmetry_multiplicity
 _atom_site_fract_x
 _atom_site_fract_y
 _atom_site_fract_z
 _atom_site_occupancy
  Ca  Ca0  1  0.500000  0.500000  0.500000  1
  Sm  Sm1  1  0.103777  0.308352  0.024828  1
  Sm  Sm2  1  0.309521  0.025035  0.103826  1
  Sm  Sm3  1  0.025704  0.108444  0.319669  1
  Sm  Sm4  1  0.974297  0.891556  0.680332  1
  Sm  Sm5  1  0.690479  0.974966  0.896174  1
  Sm  Sm6  1  0.896223  0.691648  0.975172  1
  Ru  Ru7  1  0.000000  0.000000  0.000000  1
  Br  Br8  1  0.218881  0.683386  0.073202  1
  Br  Br9  1  0.457685  0.378651  0.164301  1
  Br  Br10  1  0.682689  0.073030  0.217953  1
  Br  Br11  1  0.926849  0.780301  0.315501  1
  Br  Br12  1  0.162016  0.457324  0.376200  1
  Br  Br13  1  0.376869  0.160842  0.455396  1
  Br  Br14  1  0.623131  0.839158  0.544605  1
  Br  Br15  1  0.837985  0.542676  0.623800  1
  Br  Br16  1  0.073152  0.219699  0.684500  1
  Br  Br17  1  0.317312  0.926971  0.782047  1
  Br  Br18  1  0.542315  0.621349  0.835700  1
  Br  Br19  1  0.781119  0.316614  0.926798  1
