# generated using pymatgen
data_Ti8Al15Ir(PdRh2)2
_symmetry_space_group_name_H-M   'P 1'
_cell_length_a   8.67566759
_cell_length_b   8.65830056
_cell_length_c   8.67567418
_cell_angle_alpha   120.01039970
_cell_angle_beta   119.93997219
_cell_angle_gamma   90.10050127
_symmetry_Int_Tables_number   1
_chemical_formula_structural   Ti8Al15Ir(PdRh2)2
_chemical_formula_sum   'Ti8 Al15 Ir1 Pd2 Rh4'
_cell_volume   460.75246063
_cell_formula_units_Z   1
loop_
 _symmetry_equiv_pos_site_id
 _symmetry_equiv_pos_as_xyz
  1  'x, y, z'
loop_
 _atom_site_type_symbol
 _atom_site_label
 _atom_site_symmetry_multiplicity
 _atom_site_fract_x
 _atom_site_fract_y
 _atom_site_fract_z
 _atom_site_occupancy
  Ti  Ti0  1  0.788105  0.290549  0.073271  1
  Ti  Ti1  1  0.217279  0.290549  0.502444  1
  Ti  Ti2  1  0.210554  0.710389  0.499837  1
  Ti  Ti3  1  0.214219  0.713578  0.924035  1
  Ti  Ti4  1  0.789540  0.713577  0.499359  1
  Ti  Ti5  1  0.783930  0.284856  0.500929  1
  Ti  Ti6  1  0.383660  0.128522  0.744862  1
  Ti  Ti7  1  0.379296  0.635159  0.255863  1
  Al  Al8  1  0.997714  0.496675  0.498961  1
  Al  Al9  1  0.153191  0.345614  0.192423  1
  Al  Al10  1  0.154447  0.964793  0.810345  1
  Al  Al11  1  0.149168  0.346527  0.805289  1
  Al  Al12  1  0.541239  0.346526  0.197358  1
  Al  Al13  1  0.845202  0.653226  0.808023  1
  Al  Al14  1  0.848082  0.039674  0.191592  1
  Al  Al15  1  0.843717  0.652490  0.186359  1
  Al  Al16  1  0.466132  0.652489  0.808772  1
  Al  Al17  1  0.376168  0.123423  0.260694  1
  Al  Al18  1  0.862728  0.123422  0.747254  1
  Al  Al19  1  0.618899  0.874917  0.256020  1
  Al  Al20  1  0.622167  0.365858  0.743692  1
  Al  Al21  1  0.622695  0.876333  0.739907  1
  Al  Al22  1  0.136423  0.876330  0.253634  1
  Ir  Ir23  1  0.496922  0.497774  0.000850  1
  Pd  Pd24  1  0.998552  0.999067  0.498683  1
  Pd  Pd25  1  0.500383  0.999067  0.000521  1
  Rh  Rh26  1  0.498439  0.499537  0.498256  1
  Rh  Rh27  1  0.001276  0.499532  0.001094  1
  Rh  Rh28  1  0.000504  0.999920  0.999412  1
  Rh  Rh29  1  0.499366  0.999627  0.500259  1
