# generated using pymatgen
data_Ho6Si2Hg
_symmetry_space_group_name_H-M   'P 1'
_cell_length_a   8.44207131
_cell_length_b   8.44207195
_cell_length_c   8.44207269
_cell_angle_alpha   111.66226216
_cell_angle_beta   111.01687123
_cell_angle_gamma   105.79656339
_symmetry_Int_Tables_number   1
_chemical_formula_structural   Ho6Si2Hg
_chemical_formula_sum   'Ho12 Si4 Hg2'
_cell_volume   461.72112756
_cell_formula_units_Z   2
loop_
 _symmetry_equiv_pos_site_id
 _symmetry_equiv_pos_as_xyz
  1  'x, y, z'
loop_
 _atom_site_type_symbol
 _atom_site_label
 _atom_site_symmetry_multiplicity
 _atom_site_fract_x
 _atom_site_fract_y
 _atom_site_fract_z
 _atom_site_occupancy
  Ho  Ho0  1  0.322975  0.619459  0.296483  1
  Ho  Ho1  1  0.677025  0.380541  0.703517  1
  Ho  Ho2  1  0.322975  0.026491  0.703517  1
  Ho  Ho3  1  0.677025  0.973509  0.296483  1
  Ho  Ho4  1  0.181965  0.274110  0.456073  1
  Ho  Ho5  1  0.818035  0.725890  0.543927  1
  Ho  Ho6  1  0.181965  0.725890  0.907855  1
  Ho  Ho7  1  0.818035  0.274110  0.092145  1
  Ho  Ho8  1  0.443510  0.242998  0.200513  1
  Ho  Ho9  1  0.556490  0.757002  0.799487  1
  Ho  Ho10  1  0.042486  0.242998  0.799487  1
  Ho  Ho11  1  0.957514  0.757002  0.200513  1
  Si  Si12  1  0.118136  0.618136  0.500000  1
  Si  Si13  1  0.881864  0.381864  0.500000  1
  Si  Si14  1  0.364007  0.000000  0.364007  1
  Si  Si15  1  0.635993  0.000000  0.635993  1
  Hg  Hg16  1  0.500000  0.500000  0.000000  1
  Hg  Hg17  1  0.000000  0.000000  0.000000  1
