# generated using pymatgen
data_Ho7Pa(ReB6)4
_symmetry_space_group_name_H-M   'P 1'
_cell_length_a   3.68548400
_cell_length_b   9.15734451
_cell_length_c   11.52441814
_cell_angle_alpha   90.15192599
_cell_angle_beta   90.00000000
_cell_angle_gamma   90.00000000
_symmetry_Int_Tables_number   1
_chemical_formula_structural   Ho7Pa(ReB6)4
_chemical_formula_sum   'Ho7 Pa1 Re4 B24'
_cell_volume   388.93906312
_cell_formula_units_Z   1
loop_
 _symmetry_equiv_pos_site_id
 _symmetry_equiv_pos_as_xyz
  1  'x, y, z'
loop_
 _atom_site_type_symbol
 _atom_site_label
 _atom_site_symmetry_multiplicity
 _atom_site_fract_x
 _atom_site_fract_y
 _atom_site_fract_z
 _atom_site_occupancy
  Ho  Ho0  1  0.000000  0.679330  0.586875  1
  Ho  Ho1  1  0.000000  0.823330  0.085349  1
  Ho  Ho2  1  0.000000  0.175786  0.913545  1
  Ho  Ho3  1  0.000000  0.942441  0.371472  1
  Ho  Ho4  1  0.000000  0.055449  0.629491  1
  Ho  Ho5  1  0.000000  0.443317  0.127583  1
  Ho  Ho6  1  0.000000  0.557317  0.870247  1
  Pa  Pa7  1  0.000000  0.323371  0.414082  1
  Re  Re8  1  0.000000  0.635687  0.321983  1
  Re  Re9  1  0.000000  0.362329  0.676412  1
  Re  Re10  1  0.000000  0.140740  0.181452  1
  Re  Re11  1  0.000000  0.861751  0.821245  1
  B  B12  1  0.500000  0.552818  0.432168  1
  B  B13  1  0.500000  0.445882  0.567075  1
  B  B14  1  0.500000  0.053728  0.067227  1
  B  B15  1  0.500000  0.946961  0.933768  1
  B  B16  1  0.500000  0.748769  0.418470  1
  B  B17  1  0.500000  0.250746  0.581397  1
  B  B18  1  0.500000  0.248673  0.080525  1
  B  B19  1  0.500000  0.751099  0.919047  1
  B  B20  1  0.500000  0.791595  0.265687  1
  B  B21  1  0.500000  0.208095  0.734986  1
  B  B22  1  0.500000  0.291664  0.234346  1
  B  B23  1  0.500000  0.708253  0.765727  1
  B  B24  1  0.500000  0.631276  0.184707  1
  B  B25  1  0.500000  0.369549  0.814219  1
  B  B26  1  0.500000  0.131700  0.314752  1
  B  B27  1  0.500000  0.868798  0.686040  1
  B  B28  1  0.500000  0.982583  0.212056  1
  B  B29  1  0.500000  0.017601  0.788419  1
  B  B30  1  0.500000  0.482919  0.287311  1
  B  B31  1  0.500000  0.517761  0.712751  1
  B  B32  1  0.500000  0.601856  0.027832  1
  B  B33  1  0.500000  0.398316  0.970890  1
  B  B34  1  0.500000  0.103967  0.471325  1
  B  B35  1  0.500000  0.894542  0.529535  1
