# generated using pymatgen
data_Dy7Tm3(ReO6)4
_symmetry_space_group_name_H-M   'P 1'
_cell_length_a   5.66747900
_cell_length_b   7.51298819
_cell_length_c   12.37462374
_cell_angle_alpha   107.45761234
_cell_angle_beta   90.00000000
_cell_angle_gamma   90.00000000
_symmetry_Int_Tables_number   1
_chemical_formula_structural   Dy7Tm3(ReO6)4
_chemical_formula_sum   'Dy7 Tm3 Re4 O24'
_cell_volume   502.63798185
_cell_formula_units_Z   1
loop_
 _symmetry_equiv_pos_site_id
 _symmetry_equiv_pos_as_xyz
  1  'x, y, z'
loop_
 _atom_site_type_symbol
 _atom_site_label
 _atom_site_symmetry_multiplicity
 _atom_site_fract_x
 _atom_site_fract_y
 _atom_site_fract_z
 _atom_site_occupancy
  Dy  Dy0  1  0.750000  0.388270  0.564233  1
  Dy  Dy1  1  0.250000  0.087643  0.446575  1
  Dy  Dy2  1  0.750000  0.910379  0.553149  1
  Dy  Dy3  1  0.250000  0.889211  0.065202  1
  Dy  Dy4  1  0.750000  0.110873  0.934817  1
  Dy  Dy5  1  0.250000  0.412678  0.053181  1
  Dy  Dy6  1  0.750000  0.587576  0.947122  1
  Tm  Tm7  1  0.250000  0.612227  0.435665  1
  Tm  Tm8  1  0.250000  0.247794  0.749726  1
  Tm  Tm9  1  0.750000  0.751857  0.250396  1
  Re  Re10  1  0.463956  0.747720  0.749854  1
  Re  Re11  1  0.964125  0.252833  0.250132  1
  Re  Re12  1  0.535875  0.252833  0.250132  1
  Re  Re13  1  0.036044  0.747720  0.749854  1
  O  O14  1  0.250000  0.957775  0.752441  1
  O  O15  1  0.750000  0.042558  0.247963  1
  O  O16  1  0.500268  0.328952  0.901777  1
  O  O17  1  0.000217  0.671092  0.098263  1
  O  O18  1  0.499783  0.671092  0.098263  1
  O  O19  1  0.999732  0.328952  0.901777  1
  O  O20  1  0.250000  0.538471  0.748354  1
  O  O21  1  0.750000  0.461485  0.251257  1
  O  O22  1  0.250000  0.076088  0.251100  1
  O  O23  1  0.750000  0.924046  0.748715  1
  O  O24  1  0.503124  0.828659  0.915652  1
  O  O25  1  0.003377  0.171510  0.084298  1
  O  O26  1  0.496623  0.171510  0.084298  1
  O  O27  1  0.996876  0.828659  0.915652  1
  O  O28  1  0.500374  0.169277  0.597166  1
  O  O29  1  0.002058  0.827332  0.402708  1
  O  O30  1  0.497942  0.827332  0.402708  1
  O  O31  1  0.999626  0.169277  0.597166  1
  O  O32  1  0.500224  0.668651  0.583913  1
  O  O33  1  0.004377  0.333403  0.415638  1
  O  O34  1  0.495623  0.333403  0.415638  1
  O  O35  1  0.999776  0.668651  0.583913  1
  O  O36  1  0.250000  0.431084  0.250613  1
  O  O37  1  0.750000  0.571126  0.750688  1
