# generated using pymatgen
data_Sc3TiPt2O
_symmetry_space_group_name_H-M   'P 1'
_cell_length_a   8.61572108
_cell_length_b   8.61713838
_cell_length_c   8.61591307
_cell_angle_alpha   59.99253513
_cell_angle_beta   59.98713527
_cell_angle_gamma   59.99202289
_symmetry_Int_Tables_number   1
_chemical_formula_structural   Sc3TiPt2O
_chemical_formula_sum   'Sc12 Ti4 Pt8 O4'
_cell_volume   452.21824809
_cell_formula_units_Z   4
loop_
 _symmetry_equiv_pos_site_id
 _symmetry_equiv_pos_as_xyz
  1  'x, y, z'
loop_
 _atom_site_type_symbol
 _atom_site_label
 _atom_site_symmetry_multiplicity
 _atom_site_fract_x
 _atom_site_fract_y
 _atom_site_fract_z
 _atom_site_occupancy
  Sc  Sc0  1  0.815212  0.815201  0.184735  1
  Sc  Sc1  1  0.184758  0.184859  0.815192  1
  Sc  Sc2  1  0.815235  0.184747  0.815231  1
  Sc  Sc3  1  0.184825  0.815162  0.184848  1
  Sc  Sc4  1  0.184731  0.815200  0.815205  1
  Sc  Sc5  1  0.815195  0.184846  0.184767  1
  Sc  Sc6  1  0.434788  0.434799  0.065265  1
  Sc  Sc7  1  0.065242  0.065141  0.434808  1
  Sc  Sc8  1  0.434765  0.065253  0.434769  1
  Sc  Sc9  1  0.065175  0.434838  0.065152  1
  Sc  Sc10  1  0.065269  0.434800  0.434795  1
  Sc  Sc11  1  0.434805  0.065154  0.065233  1
  Ti  Ti12  1  0.125000  0.625000  0.625000  1
  Ti  Ti13  1  0.625000  0.125000  0.625000  1
  Ti  Ti14  1  0.625000  0.625000  0.125000  1
  Ti  Ti15  1  0.625000  0.625000  0.625000  1
  Pt  Pt16  1  0.756906  0.414391  0.414324  1
  Pt  Pt17  1  0.414348  0.756862  0.414367  1
  Pt  Pt18  1  0.414313  0.414402  0.756893  1
  Pt  Pt19  1  0.414351  0.414435  0.414368  1
  Pt  Pt20  1  0.493094  0.835609  0.835676  1
  Pt  Pt21  1  0.835652  0.493138  0.835633  1
  Pt  Pt22  1  0.835687  0.835598  0.493107  1
  Pt  Pt23  1  0.835649  0.835565  0.835632  1
  O  O24  1  0.625000  0.125000  0.125000  1
  O  O25  1  0.125000  0.625000  0.125000  1
  O  O26  1  0.125000  0.125000  0.625000  1
  O  O27  1  0.125000  0.125000  0.125000  1
