# generated using pymatgen
data_NdTm5(SiRh2)6
_symmetry_space_group_name_H-M   'P 1'
_cell_length_a   5.56762200
_cell_length_b   5.56762192
_cell_length_c   14.97055400
_cell_angle_alpha   90.00000000
_cell_angle_beta   90.00000000
_cell_angle_gamma   120.00000047
_symmetry_Int_Tables_number   1
_chemical_formula_structural   NdTm5(SiRh2)6
_chemical_formula_sum   'Nd1 Tm5 Si6 Rh12'
_cell_volume   401.89072193
_cell_formula_units_Z   1
loop_
 _symmetry_equiv_pos_site_id
 _symmetry_equiv_pos_as_xyz
  1  'x, y, z'
loop_
 _atom_site_type_symbol
 _atom_site_label
 _atom_site_symmetry_multiplicity
 _atom_site_fract_x
 _atom_site_fract_y
 _atom_site_fract_z
 _atom_site_occupancy
  Nd  Nd0  1  0.333333  0.666667  0.250000  1
  Tm  Tm1  1  0.666667  0.333333  0.962899  1
  Tm  Tm2  1  0.666667  0.333333  0.537101  1
  Tm  Tm3  1  0.333333  0.666667  0.036371  1
  Tm  Tm4  1  0.666667  0.333333  0.750000  1
  Tm  Tm5  1  0.333333  0.666667  0.463629  1
  Si  Si6  1  0.666667  0.333333  0.250000  1
  Si  Si7  1  0.000000  0.000000  0.500148  1
  Si  Si8  1  0.000000  0.000000  0.250000  1
  Si  Si9  1  0.000000  0.000000  0.750000  1
  Si  Si10  1  0.333333  0.666667  0.750000  1
  Si  Si11  1  0.000000  0.000000  0.999852  1
  Rh  Rh12  1  0.167062  0.334122  0.870194  1
  Rh  Rh13  1  0.167062  0.334122  0.629806  1
  Rh  Rh14  1  0.665878  0.832938  0.870194  1
  Rh  Rh15  1  0.334164  0.167082  0.371238  1
  Rh  Rh16  1  0.832918  0.665836  0.371238  1
  Rh  Rh17  1  0.832918  0.167082  0.371238  1
  Rh  Rh18  1  0.832918  0.167082  0.128762  1
  Rh  Rh19  1  0.334164  0.167082  0.128762  1
  Rh  Rh20  1  0.665878  0.832938  0.629806  1
  Rh  Rh21  1  0.167062  0.832938  0.629806  1
  Rh  Rh22  1  0.832918  0.665836  0.128762  1
  Rh  Rh23  1  0.167062  0.832938  0.870194  1
