# generated using pymatgen
data_Tb4Lu2AlSi3
_symmetry_space_group_name_H-M   'P 1'
_cell_length_a   7.52232953
_cell_length_b   7.52232953
_cell_length_c   4.23976300
_cell_angle_alpha   90.00000000
_cell_angle_beta   90.00000000
_cell_angle_gamma   89.79938967
_symmetry_Int_Tables_number   1
_chemical_formula_structural   Tb4Lu2AlSi3
_chemical_formula_sum   'Tb4 Lu2 Al1 Si3'
_cell_volume   239.90739074
_cell_formula_units_Z   1
loop_
 _symmetry_equiv_pos_site_id
 _symmetry_equiv_pos_as_xyz
  1  'x, y, z'
loop_
 _atom_site_type_symbol
 _atom_site_label
 _atom_site_symmetry_multiplicity
 _atom_site_fract_x
 _atom_site_fract_y
 _atom_site_fract_z
 _atom_site_occupancy
  Tb  Tb0  1  0.317971  0.822148  0.500000  1
  Tb  Tb1  1  0.677852  0.182029  0.500000  1
  Tb  Tb2  1  0.174574  0.325426  0.500000  1
  Tb  Tb3  1  0.830367  0.669633  0.500000  1
  Lu  Lu4  1  0.005467  0.001118  0.000000  1
  Lu  Lu5  1  0.498882  0.494533  0.000000  1
  Al  Al6  1  0.615618  0.884382  0.000000  1
  Si  Si7  1  0.378245  0.121755  0.000000  1
  Si  Si8  1  0.883058  0.382033  0.000000  1
  Si  Si9  1  0.117967  0.616942  0.000000  1
