# generated using pymatgen
data_Zr12Tc5NiOs6
_symmetry_space_group_name_H-M   'P 1'
_cell_length_a   4.64365200
_cell_length_b   6.58228100
_cell_length_c   13.95274200
_cell_angle_alpha   90.00000000
_cell_angle_beta   90.00022192
_cell_angle_gamma   90.00000000
_symmetry_Int_Tables_number   1
_chemical_formula_structural   Zr12Tc5NiOs6
_chemical_formula_sum   'Zr12 Tc5 Ni1 Os6'
_cell_volume   426.47703299
_cell_formula_units_Z   1
loop_
 _symmetry_equiv_pos_site_id
 _symmetry_equiv_pos_as_xyz
  1  'x, y, z'
loop_
 _atom_site_type_symbol
 _atom_site_label
 _atom_site_symmetry_multiplicity
 _atom_site_fract_x
 _atom_site_fract_y
 _atom_site_fract_z
 _atom_site_occupancy
  Zr  Zr0  1  0.499999  0.252435  0.000000  1
  Zr  Zr1  1  0.499999  0.747566  0.000000  1
  Zr  Zr2  1  0.999991  0.251536  0.167180  1
  Zr  Zr3  1  0.999991  0.748464  0.167180  1
  Zr  Zr4  1  0.499993  0.250503  0.333056  1
  Zr  Zr5  1  0.499993  0.749498  0.333056  1
  Zr  Zr6  1  0.000000  0.250538  0.500000  1
  Zr  Zr7  1  0.000000  0.749462  0.500000  1
  Zr  Zr8  1  0.500008  0.250503  0.666944  1
  Zr  Zr9  1  0.500008  0.749498  0.666944  1
  Zr  Zr10  1  0.000009  0.251536  0.832820  1
  Zr  Zr11  1  0.000009  0.748464  0.832820  1
  Tc  Tc12  1  0.499989  0.499999  0.165334  1
  Tc  Tc13  1  0.999990  0.000000  0.331852  1
  Tc  Tc14  1  0.499999  0.499999  0.500000  1
  Tc  Tc15  1  0.000010  0.000000  0.668148  1
  Tc  Tc16  1  0.500010  0.499999  0.834666  1
  Ni  Ni17  1  0.000000  0.000000  0.000000  1
  Os  Os18  1  0.000000  0.499999  0.000000  1
  Os  Os19  1  0.499987  0.000000  0.164118  1
  Os  Os20  1  0.999991  0.499999  0.331933  1
  Os  Os21  1  0.499999  0.000000  0.500000  1
  Os  Os22  1  0.000009  0.499999  0.668067  1
  Os  Os23  1  0.500014  0.000000  0.835882  1
