# generated using pymatgen
data_Gd4LuOs2
_symmetry_space_group_name_H-M   'P 1'
_cell_length_a   6.35318666
_cell_length_b   7.35683501
_cell_length_c   8.41293900
_cell_angle_alpha   96.80151015
_cell_angle_beta   112.18411372
_cell_angle_gamma   89.99999759
_symmetry_Int_Tables_number   1
_chemical_formula_structural   Gd4LuOs2
_chemical_formula_sum   'Gd8 Lu2 Os4'
_cell_volume   361.11734620
_cell_formula_units_Z   2
loop_
 _symmetry_equiv_pos_site_id
 _symmetry_equiv_pos_as_xyz
  1  'x, y, z'
loop_
 _atom_site_type_symbol
 _atom_site_label
 _atom_site_symmetry_multiplicity
 _atom_site_fract_x
 _atom_site_fract_y
 _atom_site_fract_z
 _atom_site_occupancy
  Gd  Gd0  1  0.527357  0.082252  0.818196  1
  Gd  Gd1  1  0.472643  0.917748  0.181804  1
  Gd  Gd2  1  0.709161  0.417748  0.181804  1
  Gd  Gd3  1  0.290839  0.582252  0.818196  1
  Gd  Gd4  1  0.294468  0.316701  0.433617  1
  Gd  Gd5  1  0.705532  0.683299  0.566383  1
  Gd  Gd6  1  0.860851  0.183299  0.566383  1
  Gd  Gd7  1  0.139149  0.816701  0.433617  1
  Lu  Lu8  1  0.077552  0.250000  0.000000  1
  Lu  Lu9  1  0.922448  0.750000  0.000000  1
  Os  Os10  1  0.316106  0.576715  0.214364  1
  Os  Os11  1  0.683894  0.423285  0.785636  1
  Os  Os12  1  0.101741  0.923285  0.785636  1
  Os  Os13  1  0.898259  0.076715  0.214364  1
