# generated using pymatgen
data_Ac3CuSn3Ir2
_symmetry_space_group_name_H-M   'P 1'
_cell_length_a   7.77318000
_cell_length_b   7.77318070
_cell_length_c   4.34328300
_cell_angle_alpha   90.00000000
_cell_angle_beta   90.00000000
_cell_angle_gamma   120.00000668
_symmetry_Int_Tables_number   1
_chemical_formula_structural   Ac3CuSn3Ir2
_chemical_formula_sum   'Ac3 Cu1 Sn3 Ir2'
_cell_volume   227.27214913
_cell_formula_units_Z   1
loop_
 _symmetry_equiv_pos_site_id
 _symmetry_equiv_pos_as_xyz
  1  'x, y, z'
loop_
 _atom_site_type_symbol
 _atom_site_label
 _atom_site_symmetry_multiplicity
 _atom_site_fract_x
 _atom_site_fract_y
 _atom_site_fract_z
 _atom_site_occupancy
  Ac  Ac0  1  0.588364  0.008398  0.000000  1
  Ac  Ac1  1  0.991602  0.579966  0.000000  1
  Ac  Ac2  1  0.420034  0.411636  0.000000  1
  Cu  Cu3  1  0.333333  0.666667  0.500000  1
  Sn  Sn4  1  0.243177  0.003631  0.500000  1
  Sn  Sn5  1  0.996369  0.239547  0.500000  1
  Sn  Sn6  1  0.760453  0.756823  0.500000  1
  Ir  Ir7  1  0.666667  0.333333  0.500000  1
  Ir  Ir8  1  0.000000  0.000000  0.000000  1
