# generated using pymatgen
data_Tb2Y3(RhO6)2
_symmetry_space_group_name_H-M   'P 1'
_cell_length_a   6.87600377
_cell_length_b   6.87600268
_cell_length_c   7.31221406
_cell_angle_alpha   74.46732681
_cell_angle_beta   74.46732779
_cell_angle_gamma   51.22451414
_symmetry_Int_Tables_number   1
_chemical_formula_structural   Tb2Y3(RhO6)2
_chemical_formula_sum   'Tb2 Y3 Rh2 O12'
_cell_volume   257.36435679
_cell_formula_units_Z   1
loop_
 _symmetry_equiv_pos_site_id
 _symmetry_equiv_pos_as_xyz
  1  'x, y, z'
loop_
 _atom_site_type_symbol
 _atom_site_label
 _atom_site_symmetry_multiplicity
 _atom_site_fract_x
 _atom_site_fract_y
 _atom_site_fract_z
 _atom_site_occupancy
  Tb  Tb0  1  0.190919  0.190919  0.170388  1
  Tb  Tb1  1  0.809081  0.809081  0.829612  1
  Y  Y2  1  0.500000  0.500000  0.500000  1
  Y  Y3  1  0.802211  0.802211  0.360286  1
  Y  Y4  1  0.197789  0.197789  0.639714  1
  Rh  Rh5  1  0.746639  0.253361  0.000000  1
  Rh  Rh6  1  0.253361  0.746639  0.000000  1
  O  O7  1  0.999572  0.999572  0.189285  1
  O  O8  1  0.000428  0.000428  0.810715  1
  O  O9  1  0.499910  0.499910  0.817962  1
  O  O10  1  0.500090  0.500090  0.182038  1
  O  O11  1  0.596883  0.098573  0.573438  1
  O  O12  1  0.901427  0.403117  0.426562  1
  O  O13  1  0.403117  0.901427  0.426562  1
  O  O14  1  0.401011  0.930837  0.915538  1
  O  O15  1  0.069163  0.598989  0.084462  1
  O  O16  1  0.598989  0.069163  0.084462  1
  O  O17  1  0.930837  0.401011  0.915538  1
  O  O18  1  0.098573  0.596883  0.573438  1
