# generated using pymatgen
data_Tm12AlZn11C4
_symmetry_space_group_name_H-M   'P 1'
_cell_length_a   9.02793914
_cell_length_b   9.02799965
_cell_length_c   9.02784716
_cell_angle_alpha   60.20272386
_cell_angle_beta   60.20325623
_cell_angle_gamma   60.20176764
_symmetry_Int_Tables_number   1
_chemical_formula_structural   Tm12AlZn11C4
_chemical_formula_sum   'Tm12 Al1 Zn11 C4'
_cell_volume   522.68131591
_cell_formula_units_Z   1
loop_
 _symmetry_equiv_pos_site_id
 _symmetry_equiv_pos_as_xyz
  1  'x, y, z'
loop_
 _atom_site_type_symbol
 _atom_site_label
 _atom_site_symmetry_multiplicity
 _atom_site_fract_x
 _atom_site_fract_y
 _atom_site_fract_z
 _atom_site_occupancy
  Tm  Tm0  1  0.446627  0.446629  0.053688  1
  Tm  Tm1  1  0.053257  0.446521  0.053240  1
  Tm  Tm2  1  0.446521  0.053259  0.053235  1
  Tm  Tm3  1  0.053238  0.053245  0.446526  1
  Tm  Tm4  1  0.446629  0.053687  0.446627  1
  Tm  Tm5  1  0.053688  0.446629  0.446625  1
  Tm  Tm6  1  0.803373  0.803371  0.196312  1
  Tm  Tm7  1  0.196743  0.803479  0.196760  1
  Tm  Tm8  1  0.803479  0.196741  0.196765  1
  Tm  Tm9  1  0.196762  0.196755  0.803474  1
  Tm  Tm10  1  0.803371  0.196313  0.803373  1
  Tm  Tm11  1  0.196312  0.803371  0.803375  1
  Al  Al12  1  0.625000  0.625000  0.625000  1
  Zn  Zn13  1  0.828232  0.828232  0.517036  1
  Zn  Zn14  1  0.828228  0.517046  0.828229  1
  Zn  Zn15  1  0.517043  0.828228  0.828231  1
  Zn  Zn16  1  0.827188  0.827185  0.827195  1
  Zn  Zn17  1  0.421768  0.421768  0.732964  1
  Zn  Zn18  1  0.421772  0.732954  0.421771  1
  Zn  Zn19  1  0.732957  0.421772  0.421769  1
  Zn  Zn20  1  0.422812  0.422815  0.422805  1
  Zn  Zn21  1  0.625000  0.625000  0.125000  1
  Zn  Zn22  1  0.625000  0.125000  0.625000  1
  Zn  Zn23  1  0.125000  0.625000  0.625000  1
  C  C24  1  0.125000  0.125000  0.625000  1
  C  C25  1  0.125000  0.625000  0.125000  1
  C  C26  1  0.625000  0.125000  0.125000  1
  C  C27  1  0.125000  0.125000  0.125000  1
