# generated using pymatgen
data_Dy6Al4Pt13
_symmetry_space_group_name_H-M   'P 1'
_cell_length_a   8.26410869
_cell_length_b   8.26410857
_cell_length_c   8.26410900
_cell_angle_alpha   109.47122905
_cell_angle_beta   109.47122876
_cell_angle_gamma   109.47121281
_symmetry_Int_Tables_number   1
_chemical_formula_structural   Dy6Al4Pt13
_chemical_formula_sum   'Dy6 Al4 Pt13'
_cell_volume   434.47634199
_cell_formula_units_Z   1
loop_
 _symmetry_equiv_pos_site_id
 _symmetry_equiv_pos_as_xyz
  1  'x, y, z'
loop_
 _atom_site_type_symbol
 _atom_site_label
 _atom_site_symmetry_multiplicity
 _atom_site_fract_x
 _atom_site_fract_y
 _atom_site_fract_z
 _atom_site_occupancy
  Dy  Dy0  1  0.699088  0.699089  0.999999  1
  Dy  Dy1  1  0.300913  0.999998  0.300908  1
  Dy  Dy2  1  0.999998  0.300914  0.300912  1
  Dy  Dy3  1  0.300912  0.300911  0.000001  1
  Dy  Dy4  1  0.699087  0.000002  0.699092  1
  Dy  Dy5  1  0.000002  0.699086  0.699088  1
  Al  Al6  1  0.000000  0.000000  0.500000  1
  Al  Al7  1  0.000000  0.500000  0.000000  1
  Al  Al8  1  0.500000  0.000000  0.000000  1
  Al  Al9  1  0.500000  0.500000  0.500000  1
  Pt  Pt10  1  0.319237  0.319227  0.638454  1
  Pt  Pt11  1  0.680761  0.999988  0.319220  1
  Pt  Pt12  1  0.999999  0.680770  0.319231  1
  Pt  Pt13  1  0.680752  0.319227  0.999990  1
  Pt  Pt14  1  0.319247  0.638471  0.319236  1
  Pt  Pt15  1  0.000001  0.319230  0.680769  1
  Pt  Pt16  1  0.319248  0.680773  0.000010  1
  Pt  Pt17  1  0.319239  0.000012  0.680780  1
  Pt  Pt18  1  0.638495  0.319248  0.319248  1
  Pt  Pt19  1  0.680763  0.680773  0.361546  1
  Pt  Pt20  1  0.680753  0.361529  0.680764  1
  Pt  Pt21  1  0.361505  0.680752  0.680752  1
  Pt  Pt22  1  0.000000  0.000000  0.000000  1
