# generated using pymatgen
data_Dy19SnIr12
_symmetry_space_group_name_H-M   'P 1'
_cell_length_a   10.87111100
_cell_length_b   10.87111100
_cell_length_c   6.34241400
_cell_angle_alpha   90.00000000
_cell_angle_beta   90.00000000
_cell_angle_gamma   90.00000000
_symmetry_Int_Tables_number   1
_chemical_formula_structural   Dy19SnIr12
_chemical_formula_sum   'Dy19 Sn1 Ir12'
_cell_volume   749.55317380
_cell_formula_units_Z   1
loop_
 _symmetry_equiv_pos_site_id
 _symmetry_equiv_pos_as_xyz
  1  'x, y, z'
loop_
 _atom_site_type_symbol
 _atom_site_label
 _atom_site_symmetry_multiplicity
 _atom_site_fract_x
 _atom_site_fract_y
 _atom_site_fract_z
 _atom_site_occupancy
  Dy  Dy0  1  0.284450  0.084947  0.380298  1
  Dy  Dy1  1  0.291879  0.911036  0.882542  1
  Dy  Dy2  1  0.708121  0.088964  0.882542  1
  Dy  Dy3  1  0.715550  0.915053  0.380298  1
  Dy  Dy4  1  0.588976  0.791344  0.882303  1
  Dy  Dy5  1  0.588215  0.207968  0.378603  1
  Dy  Dy6  1  0.411785  0.792032  0.378603  1
  Dy  Dy7  1  0.411024  0.208656  0.882303  1
  Dy  Dy8  1  0.207968  0.411785  0.621397  1
  Dy  Dy9  1  0.208656  0.588976  0.117697  1
  Dy  Dy10  1  0.791344  0.411024  0.117697  1
  Dy  Dy11  1  0.792032  0.588215  0.621397  1
  Dy  Dy12  1  0.911036  0.708121  0.117458  1
  Dy  Dy13  1  0.915053  0.284450  0.619702  1
  Dy  Dy14  1  0.084947  0.715550  0.619702  1
  Dy  Dy15  1  0.088964  0.291879  0.117458  1
  Dy  Dy16  1  0.000000  0.000000  0.000000  1
  Dy  Dy17  1  0.500000  0.500000  0.000000  1
  Dy  Dy18  1  0.500000  0.500000  0.500000  1
  Sn  Sn19  1  0.000000  0.000000  0.500000  1
  Ir  Ir20  1  0.847971  0.155172  0.247885  1
  Ir  Ir21  1  0.844828  0.847971  0.752115  1
  Ir  Ir22  1  0.155172  0.152029  0.752115  1
  Ir  Ir23  1  0.152029  0.844828  0.247885  1
  Ir  Ir24  1  0.654904  0.346824  0.746005  1
  Ir  Ir25  1  0.653176  0.654904  0.253995  1
  Ir  Ir26  1  0.346824  0.345096  0.253995  1
  Ir  Ir27  1  0.345096  0.653176  0.746005  1
  Ir  Ir28  1  0.500000  0.000000  0.126013  1
  Ir  Ir29  1  0.500000  0.000000  0.621085  1
  Ir  Ir30  1  0.000000  0.500000  0.873987  1
  Ir  Ir31  1  0.000000  0.500000  0.378915  1
