# generated using pymatgen
data_Nd3Th5Rh8
_symmetry_space_group_name_H-M   'P 1'
_cell_length_a   4.17713400
_cell_length_b   6.01451480
_cell_length_c   15.07092500
_cell_angle_alpha   89.66338797
_cell_angle_beta   90.00000000
_cell_angle_gamma   90.00000000
_symmetry_Int_Tables_number   1
_chemical_formula_structural   Nd3Th5Rh8
_chemical_formula_sum   'Nd3 Th5 Rh8'
_cell_volume   378.62685899
_cell_formula_units_Z   1
loop_
 _symmetry_equiv_pos_site_id
 _symmetry_equiv_pos_as_xyz
  1  'x, y, z'
loop_
 _atom_site_type_symbol
 _atom_site_label
 _atom_site_symmetry_multiplicity
 _atom_site_fract_x
 _atom_site_fract_y
 _atom_site_fract_z
 _atom_site_occupancy
  Nd  Nd0  1  0.250000  0.541301  0.283959  1
  Nd  Nd1  1  0.750000  0.462136  0.716703  1
  Nd  Nd2  1  0.250000  0.962269  0.783298  1
  Th  Th3  1  0.250000  0.753404  0.536244  1
  Th  Th4  1  0.250000  0.741714  0.036170  1
  Th  Th5  1  0.750000  0.247399  0.964264  1
  Th  Th6  1  0.750000  0.039962  0.215941  1
  Th  Th7  1  0.750000  0.252300  0.463790  1
  Rh  Rh8  1  0.250000  0.057242  0.350919  1
  Rh  Rh9  1  0.750000  0.559166  0.142691  1
  Rh  Rh10  1  0.750000  0.731554  0.408101  1
  Rh  Rh11  1  0.250000  0.441388  0.862685  1
  Rh  Rh12  1  0.750000  0.946495  0.637162  1
  Rh  Rh13  1  0.750000  0.774940  0.908288  1
  Rh  Rh14  1  0.250000  0.211937  0.099500  1
  Rh  Rh15  1  0.250000  0.276795  0.590281  1
