# generated using pymatgen
data_Zr6Ta2Ga15Rh7
_symmetry_space_group_name_H-M   'P 1'
_cell_length_a   8.85126478
_cell_length_b   8.85126419
_cell_length_c   8.85126407
_cell_angle_alpha   119.91707867
_cell_angle_beta   119.80209822
_cell_angle_gamma   90.24340097
_symmetry_Int_Tables_number   1
_chemical_formula_structural   Zr6Ta2Ga15Rh7
_chemical_formula_sum   'Zr6 Ta2 Ga15 Rh7'
_cell_volume   491.37933019
_cell_formula_units_Z   1
loop_
 _symmetry_equiv_pos_site_id
 _symmetry_equiv_pos_as_xyz
  1  'x, y, z'
loop_
 _atom_site_type_symbol
 _atom_site_label
 _atom_site_symmetry_multiplicity
 _atom_site_fract_x
 _atom_site_fract_y
 _atom_site_fract_z
 _atom_site_occupancy
  Zr  Zr0  1  0.796080  0.289100  0.073712  1
  Zr  Zr1  1  0.215388  0.289100  0.493020  1
  Zr  Zr2  1  0.205554  0.705554  0.500000  1
  Zr  Zr3  1  0.215388  0.722367  0.926288  1
  Zr  Zr4  1  0.796080  0.722367  0.506980  1
  Zr  Zr5  1  0.778322  0.278322  0.500000  1
  Ta  Ta6  1  0.378656  0.124973  0.746317  1
  Ta  Ta7  1  0.378656  0.632339  0.253683  1
  Ga  Ga8  1  0.991431  0.491431  0.500000  1
  Ga  Ga9  1  0.158997  0.342265  0.183266  1
  Ga  Ga10  1  0.158997  0.975731  0.816734  1
  Ga  Ga11  1  0.151372  0.345817  0.805554  1
  Ga  Ga12  1  0.540262  0.345817  0.194446  1
  Ga  Ga13  1  0.843040  0.653479  0.810441  1
  Ga  Ga14  1  0.843040  0.032598  0.189559  1
  Ga  Ga15  1  0.842690  0.656716  0.185975  1
  Ga  Ga16  1  0.470740  0.656716  0.814025  1
  Ga  Ga17  1  0.376617  0.123860  0.252757  1
  Ga  Ga18  1  0.871104  0.123860  0.747243  1
  Ga  Ga19  1  0.619304  0.870466  0.251161  1
  Ga  Ga20  1  0.619304  0.368143  0.748839  1
  Ga  Ga21  1  0.616907  0.876031  0.740877  1
  Ga  Ga22  1  0.135153  0.876031  0.259123  1
  Rh  Rh23  1  0.005448  0.000406  0.502395  1
  Rh  Rh24  1  0.498011  0.000406  0.994958  1
  Rh  Rh25  1  0.495442  0.495442  0.000000  1
  Rh  Rh26  1  0.498011  0.503053  0.497605  1
  Rh  Rh27  1  0.005448  0.503053  0.005042  1
  Rh  Rh28  1  0.999331  0.999331  0.000000  1
  Rh  Rh29  1  0.495223  0.995223  0.500000  1
