# generated using pymatgen
data_Tb13Ce3(CdRh)4
_symmetry_space_group_name_H-M   'P 1'
_cell_length_a   9.69330744
_cell_length_b   9.69330783
_cell_length_c   9.62653500
_cell_angle_alpha   59.77028091
_cell_angle_beta   59.77027956
_cell_angle_gamma   59.99999790
_symmetry_Int_Tables_number   1
_chemical_formula_structural   Tb13Ce3(CdRh)4
_chemical_formula_sum   'Tb13 Ce3 Cd4 Rh4'
_cell_volume   637.35626530
_cell_formula_units_Z   1
loop_
 _symmetry_equiv_pos_site_id
 _symmetry_equiv_pos_as_xyz
  1  'x, y, z'
loop_
 _atom_site_type_symbol
 _atom_site_label
 _atom_site_symmetry_multiplicity
 _atom_site_fract_x
 _atom_site_fract_y
 _atom_site_fract_z
 _atom_site_occupancy
  Tb  Tb0  1  0.564470  0.564470  0.935863  1
  Tb  Tb1  1  0.935194  0.564470  0.935863  1
  Tb  Tb2  1  0.564470  0.935194  0.935863  1
  Tb  Tb3  1  0.936609  0.936609  0.563244  1
  Tb  Tb4  1  0.563538  0.936609  0.563244  1
  Tb  Tb5  1  0.936609  0.563538  0.563244  1
  Tb  Tb6  1  0.188450  0.188450  0.812548  1
  Tb  Tb7  1  0.810552  0.188450  0.812548  1
  Tb  Tb8  1  0.188449  0.810553  0.812548  1
  Tb  Tb9  1  0.810846  0.810847  0.189695  1
  Tb  Tb10  1  0.188612  0.810846  0.189694  1
  Tb  Tb11  1  0.810846  0.188613  0.189695  1
  Tb  Tb12  1  0.351616  0.351616  0.945152  1
  Ce  Ce13  1  0.348828  0.957494  0.344851  1
  Ce  Ce14  1  0.957494  0.348828  0.344851  1
  Ce  Ce15  1  0.348828  0.348828  0.344851  1
  Cd  Cd16  1  0.581095  0.581095  0.256714  1
  Cd  Cd17  1  0.581487  0.257258  0.579769  1
  Cd  Cd18  1  0.257258  0.581487  0.579769  1
  Cd  Cd19  1  0.581487  0.581487  0.579769  1
  Rh  Rh20  1  0.143542  0.143542  0.569374  1
  Rh  Rh21  1  0.139874  0.569968  0.150284  1
  Rh  Rh22  1  0.569968  0.139874  0.150284  1
  Rh  Rh23  1  0.139874  0.139874  0.150284  1
