# generated using pymatgen
data_Y6Sc4InBi5
_symmetry_space_group_name_H-M   'P 1'
_cell_length_a   8.94845700
_cell_length_b   8.94845627
_cell_length_c   6.29606400
_cell_angle_alpha   90.00000000
_cell_angle_beta   90.00000000
_cell_angle_gamma   119.80953534
_symmetry_Int_Tables_number   1
_chemical_formula_structural   Y6Sc4InBi5
_chemical_formula_sum   'Y6 Sc4 In1 Bi5'
_cell_volume   437.44792927
_cell_formula_units_Z   1
loop_
 _symmetry_equiv_pos_site_id
 _symmetry_equiv_pos_as_xyz
  1  'x, y, z'
loop_
 _atom_site_type_symbol
 _atom_site_label
 _atom_site_symmetry_multiplicity
 _atom_site_fract_x
 _atom_site_fract_y
 _atom_site_fract_z
 _atom_site_occupancy
  Y  Y0  1  0.754451  0.754451  0.750000  1
  Y  Y1  1  0.244405  0.006865  0.750000  1
  Y  Y2  1  0.006865  0.244405  0.750000  1
  Y  Y3  1  0.241965  0.241965  0.250000  1
  Y  Y4  1  0.756745  0.999043  0.250000  1
  Y  Y5  1  0.999043  0.756745  0.250000  1
  Sc  Sc6  1  0.662866  0.334663  0.998142  1
  Sc  Sc7  1  0.334663  0.662866  0.998142  1
  Sc  Sc8  1  0.334663  0.662866  0.501858  1
  Sc  Sc9  1  0.662866  0.334663  0.501858  1
  In  In10  1  0.398860  0.398860  0.750000  1
  Bi  Bi11  1  0.606092  0.001927  0.750000  1
  Bi  Bi12  1  0.001927  0.606092  0.750000  1
  Bi  Bi13  1  0.602388  0.602388  0.250000  1
  Bi  Bi14  1  0.394902  0.997295  0.250000  1
  Bi  Bi15  1  0.997295  0.394902  0.250000  1
