# generated using pymatgen
data_Ca2Nd2Zn3Sb8
_symmetry_space_group_name_H-M   'P 1'
_cell_length_a   11.58716290
_cell_length_b   11.58716331
_cell_length_c   11.59565376
_cell_angle_alpha   149.16172591
_cell_angle_beta   149.16173090
_cell_angle_gamma   44.06975185
_symmetry_Int_Tables_number   1
_chemical_formula_structural   Ca2Nd2Zn3Sb8
_chemical_formula_sum   'Ca2 Nd2 Zn3 Sb8'
_cell_volume   408.06424247
_cell_formula_units_Z   1
loop_
 _symmetry_equiv_pos_site_id
 _symmetry_equiv_pos_as_xyz
  1  'x, y, z'
loop_
 _atom_site_type_symbol
 _atom_site_label
 _atom_site_symmetry_multiplicity
 _atom_site_fract_x
 _atom_site_fract_y
 _atom_site_fract_z
 _atom_site_occupancy
  Ca  Ca0  1  0.371655  0.886799  0.000000  1
  Ca  Ca1  1  0.886799  0.371655  0.000000  1
  Nd  Nd2  1  0.625709  0.625709  0.508587  1
  Nd  Nd3  1  0.117121  0.117121  0.491413  1
  Zn  Zn4  1  0.002989  0.002989  0.000000  1
  Zn  Zn5  1  0.000181  0.500181  0.500000  1
  Zn  Zn6  1  0.500181  0.000181  0.500000  1
  Sb  Sb7  1  0.332878  0.332878  0.513774  1
  Sb  Sb8  1  0.819104  0.819104  0.486226  1
  Sb  Sb9  1  0.666615  0.171034  0.000000  1
  Sb  Sb10  1  0.171034  0.666615  0.000000  1
  Sb  Sb11  1  0.252418  0.252418  0.000000  1
  Sb  Sb12  1  0.750124  0.750124  0.000000  1
  Sb  Sb13  1  0.751596  0.251596  0.500000  1
  Sb  Sb14  1  0.251596  0.751596  0.500000  1
