# generated using pymatgen
data_Ho5ErNpO12
_symmetry_space_group_name_H-M   'P 1'
_cell_length_a   6.52549773
_cell_length_b   6.52918998
_cell_length_c   6.52653517
_cell_angle_alpha   98.90750052
_cell_angle_beta   98.94594599
_cell_angle_gamma   98.90641050
_symmetry_Int_Tables_number   1
_chemical_formula_structural   Ho5ErNpO12
_chemical_formula_sum   'Ho5 Er1 Np1 O12'
_cell_volume   266.77695426
_cell_formula_units_Z   1
loop_
 _symmetry_equiv_pos_site_id
 _symmetry_equiv_pos_as_xyz
  1  'x, y, z'
loop_
 _atom_site_type_symbol
 _atom_site_label
 _atom_site_symmetry_multiplicity
 _atom_site_fract_x
 _atom_site_fract_y
 _atom_site_fract_z
 _atom_site_occupancy
  Ho  Ho0  1  0.388888  0.854565  0.678715  1
  Ho  Ho1  1  0.678555  0.389204  0.854237  1
  Ho  Ho2  1  0.320836  0.610363  0.145246  1
  Ho  Ho3  1  0.610960  0.145622  0.321800  1
  Ho  Ho4  1  0.854754  0.678552  0.389450  1
  Er  Er5  1  0.145632  0.321951  0.610669  1
  Np  Np6  1  0.000240  0.000447  0.000208  1
  O  O7  1  0.077852  0.309016  0.953480  1
  O  O8  1  0.045335  0.922121  0.691044  1
  O  O9  1  0.410621  0.570407  0.821793  1
  O  O10  1  0.177891  0.587317  0.429122  1
  O  O11  1  0.690808  0.045556  0.922264  1
  O  O12  1  0.427994  0.178191  0.588208  1
  O  O13  1  0.570866  0.822290  0.411686  1
  O  O14  1  0.309229  0.954469  0.077686  1
  O  O15  1  0.823170  0.411016  0.571294  1
  O  O16  1  0.588595  0.429069  0.177877  1
  O  O17  1  0.955375  0.078564  0.309513  1
  O  O18  1  0.922401  0.691281  0.045709  1
