# generated using pymatgen
data_Lu12Mn2In2Ir
_symmetry_space_group_name_H-M   'P 1'
_cell_length_a   8.21979696
_cell_length_b   8.21964503
_cell_length_c   8.21979787
_cell_angle_alpha   108.59878611
_cell_angle_beta   108.60579175
_cell_angle_gamma   111.22419110
_symmetry_Int_Tables_number   1
_chemical_formula_structural   Lu12Mn2In2Ir
_chemical_formula_sum   'Lu12 Mn2 In2 Ir1'
_cell_volume   427.21191353
_cell_formula_units_Z   1
loop_
 _symmetry_equiv_pos_site_id
 _symmetry_equiv_pos_as_xyz
  1  'x, y, z'
loop_
 _atom_site_type_symbol
 _atom_site_label
 _atom_site_symmetry_multiplicity
 _atom_site_fract_x
 _atom_site_fract_y
 _atom_site_fract_z
 _atom_site_occupancy
  Lu  Lu0  1  0.309078  0.309183  0.618262  1
  Lu  Lu1  1  0.690922  0.690817  0.381738  1
  Lu  Lu2  1  0.690920  0.309183  0.000104  1
  Lu  Lu3  1  0.309080  0.690817  0.999896  1
  Lu  Lu4  1  0.192766  0.431019  0.238252  1
  Lu  Lu5  1  0.807234  0.568981  0.761748  1
  Lu  Lu6  1  0.192748  0.954554  0.761807  1
  Lu  Lu7  1  0.954683  0.192698  0.762032  1
  Lu  Lu8  1  0.807252  0.045446  0.238193  1
  Lu  Lu9  1  0.045317  0.807302  0.237968  1
  Lu  Lu10  1  0.430667  0.192698  0.238013  1
  Lu  Lu11  1  0.569333  0.807302  0.761987  1
  Mn  Mn12  1  0.384954  0.385097  0.000143  1
  Mn  Mn13  1  0.615046  0.614903  0.999857  1
  In  In14  1  0.000000  0.500000  0.500000  1
  In  In15  1  0.500000  0.000000  0.500000  1
  Ir  Ir16  1  0.000000  0.000000  0.000000  1
