# generated using pymatgen
data_Dy2Er3Rh2
_symmetry_space_group_name_H-M   'P 1'
_cell_length_a   6.38122149
_cell_length_b   7.15469584
_cell_length_c   8.58935641
_cell_angle_alpha   96.88639307
_cell_angle_beta   111.80574521
_cell_angle_gamma   90.00000003
_symmetry_Int_Tables_number   1
_chemical_formula_structural   Dy2Er3Rh2
_chemical_formula_sum   'Dy4 Er6 Rh4'
_cell_volume   361.04511269
_cell_formula_units_Z   2
loop_
 _symmetry_equiv_pos_site_id
 _symmetry_equiv_pos_as_xyz
  1  'x, y, z'
loop_
 _atom_site_type_symbol
 _atom_site_label
 _atom_site_symmetry_multiplicity
 _atom_site_fract_x
 _atom_site_fract_y
 _atom_site_fract_z
 _atom_site_occupancy
  Dy  Dy0  1  0.789836  0.582506  0.811211  1
  Dy  Dy1  1  0.978625  0.917494  0.188789  1
  Dy  Dy2  1  0.210164  0.417494  0.188789  1
  Dy  Dy3  1  0.021375  0.082506  0.811211  1
  Er  Er4  1  0.207611  0.686099  0.562717  1
  Er  Er5  1  0.644894  0.813901  0.437283  1
  Er  Er6  1  0.792389  0.313901  0.437283  1
  Er  Er7  1  0.355106  0.186099  0.562717  1
  Er  Er8  1  0.422117  0.750000  0.000000  1
  Er  Er9  1  0.577883  0.250000  0.000000  1
  Rh  Rh10  1  0.595320  0.925433  0.778146  1
  Rh  Rh11  1  0.817173  0.574567  0.221854  1
  Rh  Rh12  1  0.404680  0.074567  0.221854  1
  Rh  Rh13  1  0.182827  0.425433  0.778146  1
