# generated using pymatgen
data_YPa2(GaIr)3
_symmetry_space_group_name_H-M   'P 1'
_cell_length_a   7.18632461
_cell_length_b   7.13226193
_cell_length_c   3.94263000
_cell_angle_alpha   90.00000000
_cell_angle_beta   90.00000000
_cell_angle_gamma   119.75146062
_symmetry_Int_Tables_number   1
_chemical_formula_structural   YPa2(GaIr)3
_chemical_formula_sum   'Y1 Pa2 Ga3 Ir3'
_cell_volume   175.44176898
_cell_formula_units_Z   1
loop_
 _symmetry_equiv_pos_site_id
 _symmetry_equiv_pos_as_xyz
  1  'x, y, z'
loop_
 _atom_site_type_symbol
 _atom_site_label
 _atom_site_symmetry_multiplicity
 _atom_site_fract_x
 _atom_site_fract_y
 _atom_site_fract_z
 _atom_site_occupancy
  Y  Y0  1  0.000000  0.590465  0.499999  1
  Pa  Pa1  1  0.585319  0.999339  0.499999  1
  Pa  Pa2  1  0.414680  0.414019  0.499999  1
  Ga  Ga3  1  0.232148  0.987351  0.000000  1
  Ga  Ga4  1  0.000000  0.256971  0.000000  1
  Ga  Ga5  1  0.767851  0.755201  0.000000  1
  Ir  Ir6  1  0.639161  0.309561  0.000000  1
  Ir  Ir7  1  0.360839  0.670401  0.000000  1
  Ir  Ir8  1  0.000000  0.016690  0.499999  1
