# generated using pymatgen
data_Ta3B3Os2Ru
_symmetry_space_group_name_H-M   'P 1'
_cell_length_a   3.10672400
_cell_length_b   9.08529800
_cell_length_c   15.79077300
_cell_angle_alpha   90.00000000
_cell_angle_beta   90.00000000
_cell_angle_gamma   90.00000000
_symmetry_Int_Tables_number   1
_chemical_formula_structural   Ta3B3Os2Ru
_chemical_formula_sum   'Ta12 B12 Os8 Ru4'
_cell_volume   445.70267402
_cell_formula_units_Z   4
loop_
 _symmetry_equiv_pos_site_id
 _symmetry_equiv_pos_as_xyz
  1  'x, y, z'
loop_
 _atom_site_type_symbol
 _atom_site_label
 _atom_site_symmetry_multiplicity
 _atom_site_fract_x
 _atom_site_fract_y
 _atom_site_fract_z
 _atom_site_occupancy
  Ta  Ta0  1  0.000000  0.799630  0.495177  1
  Ta  Ta1  1  0.000000  0.200370  0.504823  1
  Ta  Ta2  1  0.000000  0.299630  0.004823  1
  Ta  Ta3  1  0.000000  0.700370  0.995177  1
  Ta  Ta4  1  0.000000  0.516644  0.593690  1
  Ta  Ta5  1  0.000000  0.483356  0.406310  1
  Ta  Ta6  1  0.000000  0.016644  0.906310  1
  Ta  Ta7  1  0.000000  0.983356  0.093690  1
  Ta  Ta8  1  0.000000  0.688373  0.202304  1
  Ta  Ta9  1  0.000000  0.311627  0.797696  1
  Ta  Ta10  1  0.000000  0.188373  0.297696  1
  Ta  Ta11  1  0.000000  0.811627  0.702304  1
  B  B12  1  0.500000  0.605744  0.496657  1
  B  B13  1  0.500000  0.394256  0.503343  1
  B  B14  1  0.500000  0.105744  0.003343  1
  B  B15  1  0.500000  0.894256  0.996657  1
  B  B16  1  0.000000  0.610142  0.831962  1
  B  B17  1  0.000000  0.389858  0.168038  1
  B  B18  1  0.000000  0.110142  0.668038  1
  B  B19  1  0.000000  0.889858  0.331962  1
  B  B20  1  0.500000  0.715610  0.597338  1
  B  B21  1  0.500000  0.284390  0.402662  1
  B  B22  1  0.500000  0.215610  0.902662  1
  B  B23  1  0.500000  0.784390  0.097338  1
  Os  Os24  1  0.500000  0.719439  0.354401  1
  Os  Os25  1  0.500000  0.280561  0.645599  1
  Os  Os26  1  0.500000  0.219439  0.145599  1
  Os  Os27  1  0.500000  0.780561  0.854401  1
  Os  Os28  1  0.500000  0.516188  0.094639  1
  Os  Os29  1  0.500000  0.483812  0.905361  1
  Os  Os30  1  0.500000  0.016188  0.405361  1
  Os  Os31  1  0.500000  0.983812  0.594639  1
  Ru  Ru32  1  0.500000  0.561218  0.734092  1
  Ru  Ru33  1  0.500000  0.438782  0.265908  1
  Ru  Ru34  1  0.500000  0.061218  0.765908  1
  Ru  Ru35  1  0.500000  0.938782  0.234092  1
