# generated using pymatgen
data_Lu2Ge4Mo3
_symmetry_space_group_name_H-M   'P 1'
_cell_length_a   6.86090600
_cell_length_b   7.02514000
_cell_length_c   13.04248900
_cell_angle_alpha   90.00000000
_cell_angle_beta   90.00000000
_cell_angle_gamma   90.00000000
_symmetry_Int_Tables_number   1
_chemical_formula_structural   Lu2Ge4Mo3
_chemical_formula_sum   'Lu8 Ge16 Mo12'
_cell_volume   628.63264718
_cell_formula_units_Z   4
loop_
 _symmetry_equiv_pos_site_id
 _symmetry_equiv_pos_as_xyz
  1  'x, y, z'
loop_
 _atom_site_type_symbol
 _atom_site_label
 _atom_site_symmetry_multiplicity
 _atom_site_fract_x
 _atom_site_fract_y
 _atom_site_fract_z
 _atom_site_occupancy
  Lu  Lu0  1  0.491109  0.329043  0.091835  1
  Lu  Lu1  1  0.991109  0.170957  0.408165  1
  Lu  Lu2  1  0.508891  0.670957  0.591835  1
  Lu  Lu3  1  0.008891  0.829043  0.908165  1
  Lu  Lu4  1  0.508891  0.670957  0.908165  1
  Lu  Lu5  1  0.008891  0.829043  0.591835  1
  Lu  Lu6  1  0.491109  0.329043  0.408165  1
  Lu  Lu7  1  0.991109  0.170957  0.091835  1
  Ge  Ge8  1  0.670372  0.041667  0.547513  1
  Ge  Ge9  1  0.170372  0.458333  0.952487  1
  Ge  Ge10  1  0.329628  0.958333  0.047513  1
  Ge  Ge11  1  0.829628  0.541667  0.452487  1
  Ge  Ge12  1  0.329628  0.958333  0.452487  1
  Ge  Ge13  1  0.829628  0.541667  0.047513  1
  Ge  Ge14  1  0.670372  0.041667  0.952487  1
  Ge  Ge15  1  0.170372  0.458333  0.547513  1
  Ge  Ge16  1  0.529306  0.371440  0.750000  1
  Ge  Ge17  1  0.029306  0.128560  0.750000  1
  Ge  Ge18  1  0.470694  0.628560  0.250000  1
  Ge  Ge19  1  0.970694  0.871440  0.250000  1
  Ge  Ge20  1  0.807319  0.644557  0.750000  1
  Ge  Ge21  1  0.307319  0.855443  0.750000  1
  Ge  Ge22  1  0.192681  0.355443  0.250000  1
  Ge  Ge23  1  0.692681  0.144557  0.250000  1
  Mo  Mo24  1  0.829597  0.340517  0.626136  1
  Mo  Mo25  1  0.329597  0.159483  0.873864  1
  Mo  Mo26  1  0.170403  0.659483  0.126136  1
  Mo  Mo27  1  0.670403  0.840517  0.373864  1
  Mo  Mo28  1  0.170403  0.659483  0.373864  1
  Mo  Mo29  1  0.670403  0.840517  0.126136  1
  Mo  Mo30  1  0.829597  0.340517  0.873864  1
  Mo  Mo31  1  0.329597  0.159483  0.626136  1
  Mo  Mo32  1  0.664614  0.001484  0.750000  1
  Mo  Mo33  1  0.164614  0.498516  0.750000  1
  Mo  Mo34  1  0.335386  0.998516  0.250000  1
  Mo  Mo35  1  0.835386  0.501484  0.250000  1
