# generated using pymatgen
data_Ho3Er7In8
_symmetry_space_group_name_H-M   'P 1'
_cell_length_a   9.22990479
_cell_length_b   9.23799175
_cell_length_c   6.60661900
_cell_angle_alpha   90.00000000
_cell_angle_beta   90.00000000
_cell_angle_gamma   119.89966629
_symmetry_Int_Tables_number   1
_chemical_formula_structural   Ho3Er7In8
_chemical_formula_sum   'Ho3 Er7 In8'
_cell_volume   488.34065602
_cell_formula_units_Z   1
loop_
 _symmetry_equiv_pos_site_id
 _symmetry_equiv_pos_as_xyz
  1  'x, y, z'
loop_
 _atom_site_type_symbol
 _atom_site_label
 _atom_site_symmetry_multiplicity
 _atom_site_fract_x
 _atom_site_fract_y
 _atom_site_fract_z
 _atom_site_occupancy
  Ho  Ho0  1  0.290639  0.000700  0.750000  1
  Ho  Ho1  1  0.708790  0.999579  0.250000  1
  Ho  Ho2  1  0.000721  0.290247  0.750000  1
  Er  Er3  1  0.333140  0.665708  0.499991  1
  Er  Er4  1  0.666806  0.334276  0.499894  1
  Er  Er5  1  0.666806  0.334276  0.000106  1
  Er  Er6  1  0.333140  0.665708  0.000009  1
  Er  Er7  1  0.999564  0.709201  0.250000  1
  Er  Er8  1  0.710604  0.710439  0.750000  1
  Er  Er9  1  0.289804  0.290022  0.250000  1
  In  In10  1  0.999865  0.999719  0.499367  1
  In  In11  1  0.999865  0.999719  0.000633  1
  In  In12  1  0.629040  0.999923  0.750000  1
  In  In13  1  0.370573  0.999885  0.250000  1
  In  In14  1  0.999568  0.628863  0.750000  1
  In  In15  1  0.000223  0.371618  0.250000  1
  In  In16  1  0.372895  0.372884  0.750000  1
  In  In17  1  0.627957  0.627233  0.250000  1
