# generated using pymatgen
data_RbS4O13
_symmetry_space_group_name_H-M   'P 1'
_cell_length_a   8.01207049
_cell_length_b   8.01207111
_cell_length_c   10.15167322
_cell_angle_alpha   84.19824606
_cell_angle_beta   84.19824492
_cell_angle_gamma   103.18520526
_symmetry_Int_Tables_number   1
_chemical_formula_structural   RbS4O13
_chemical_formula_sum   'Rb2 S8 O26'
_cell_volume   626.03396021
_cell_formula_units_Z   2
loop_
 _symmetry_equiv_pos_site_id
 _symmetry_equiv_pos_as_xyz
  1  'x, y, z'
loop_
 _atom_site_type_symbol
 _atom_site_label
 _atom_site_symmetry_multiplicity
 _atom_site_fract_x
 _atom_site_fract_y
 _atom_site_fract_z
 _atom_site_occupancy
  Rb  Rb0  1  0.800841  0.199159  0.250000  1
  Rb  Rb1  1  0.199159  0.800841  0.750000  1
  S  S2  1  0.234981  0.573348  0.375193  1
  S  S3  1  0.426652  0.765019  0.124807  1
  S  S4  1  0.765019  0.426652  0.624807  1
  S  S5  1  0.573348  0.234981  0.875193  1
  S  S6  1  0.285749  0.214012  0.421618  1
  S  S7  1  0.785988  0.714251  0.078382  1
  S  S8  1  0.714251  0.785988  0.578382  1
  S  S9  1  0.214012  0.285749  0.921618  1
  O  O10  1  0.074833  0.512896  0.324905  1
  O  O11  1  0.487104  0.925167  0.175095  1
  O  O12  1  0.925167  0.487104  0.675095  1
  O  O13  1  0.512896  0.074833  0.824905  1
  O  O14  1  0.261987  0.719367  0.447138  1
  O  O15  1  0.280633  0.738013  0.052862  1
  O  O16  1  0.738013  0.280633  0.552862  1
  O  O17  1  0.719367  0.261987  0.947138  1
  O  O18  1  0.393815  0.606185  0.250000  1
  O  O19  1  0.606185  0.393815  0.750000  1
  O  O20  1  0.290901  0.426057  0.461275  1
  O  O21  1  0.573943  0.709099  0.038725  1
  O  O22  1  0.709099  0.573943  0.538725  1
  O  O23  1  0.426057  0.290901  0.961275  1
  O  O24  1  0.438797  0.239711  0.326197  1
  O  O25  1  0.760289  0.561203  0.173803  1
  O  O26  1  0.561203  0.760289  0.673803  1
  O  O27  1  0.239711  0.438797  0.826197  1
  O  O28  1  0.297359  0.133985  0.553588  1
  O  O29  1  0.866015  0.702641  0.946412  1
  O  O30  1  0.702641  0.866015  0.446412  1
  O  O31  1  0.133985  0.297359  0.053588  1
  O  O32  1  0.122810  0.156747  0.370825  1
  O  O33  1  0.843253  0.877190  0.129175  1
  O  O34  1  0.877190  0.843253  0.629175  1
  O  O35  1  0.156747  0.122810  0.870825  1
