# generated using pymatgen
data_Li3Dy4Si4AgSn2
_symmetry_space_group_name_H-M   'P 1'
_cell_length_a   9.57140947
_cell_length_b   9.57140953
_cell_length_c   6.83078186
_cell_angle_alpha   89.87947565
_cell_angle_beta   90.12052575
_cell_angle_gamma   153.48745232
_symmetry_Int_Tables_number   1
_chemical_formula_structural   Li3Dy4Si4AgSn2
_chemical_formula_sum   'Li3 Dy4 Si4 Ag1 Sn2'
_cell_volume   279.34399687
_cell_formula_units_Z   1
loop_
 _symmetry_equiv_pos_site_id
 _symmetry_equiv_pos_as_xyz
  1  'x, y, z'
loop_
 _atom_site_type_symbol
 _atom_site_label
 _atom_site_symmetry_multiplicity
 _atom_site_fract_x
 _atom_site_fract_y
 _atom_site_fract_z
 _atom_site_occupancy
  Li  Li0  1  0.185871  0.814129  0.446618  1
  Li  Li1  1  0.181201  0.818799  0.059307  1
  Li  Li2  1  0.818243  0.181757  0.944235  1
  Dy  Dy3  1  0.546876  0.453124  0.249543  1
  Dy  Dy4  1  0.451359  0.548641  0.749001  1
  Dy  Dy5  1  0.351986  0.648014  0.242481  1
  Dy  Dy6  1  0.647566  0.352434  0.749739  1
  Si  Si7  1  0.942628  0.057372  0.071271  1
  Si  Si8  1  0.057286  0.942714  0.925414  1
  Si  Si9  1  0.058497  0.941503  0.573779  1
  Si  Si10  1  0.944020  0.055980  0.421756  1
  Ag  Ag11  1  0.818126  0.181874  0.555459  1
  Sn  Sn12  1  0.718418  0.281582  0.241177  1
  Sn  Sn13  1  0.277924  0.722076  0.770220  1
