# generated using pymatgen
data_DyNbCoB6
_symmetry_space_group_name_H-M   'P 1'
_cell_length_a   3.37020200
_cell_length_b   8.93949800
_cell_length_c   11.29968400
_cell_angle_alpha   90.00000000
_cell_angle_beta   90.00000000
_cell_angle_gamma   90.00000000
_symmetry_Int_Tables_number   1
_chemical_formula_structural   DyNbCoB6
_chemical_formula_sum   'Dy4 Nb4 Co4 B24'
_cell_volume   340.43590822
_cell_formula_units_Z   4
loop_
 _symmetry_equiv_pos_site_id
 _symmetry_equiv_pos_as_xyz
  1  'x, y, z'
loop_
 _atom_site_type_symbol
 _atom_site_label
 _atom_site_symmetry_multiplicity
 _atom_site_fract_x
 _atom_site_fract_y
 _atom_site_fract_z
 _atom_site_occupancy
  Dy  Dy0  1  0.000000  0.822035  0.086887  1
  Dy  Dy1  1  0.000000  0.177965  0.913113  1
  Dy  Dy2  1  0.000000  0.322035  0.413113  1
  Dy  Dy3  1  0.000000  0.677965  0.586887  1
  Nb  Nb4  1  0.000000  0.444981  0.128130  1
  Nb  Nb5  1  0.000000  0.555019  0.871870  1
  Nb  Nb6  1  0.000000  0.944981  0.371870  1
  Nb  Nb7  1  0.000000  0.055019  0.628130  1
  Co  Co8  1  0.000000  0.142612  0.181768  1
  Co  Co9  1  0.000000  0.857388  0.818232  1
  Co  Co10  1  0.000000  0.642612  0.318232  1
  Co  Co11  1  0.000000  0.357388  0.681768  1
  B  B12  1  0.500000  0.054568  0.067202  1
  B  B13  1  0.500000  0.945432  0.932798  1
  B  B14  1  0.500000  0.554568  0.432798  1
  B  B15  1  0.500000  0.445432  0.567202  1
  B  B16  1  0.500000  0.252050  0.082595  1
  B  B17  1  0.500000  0.747950  0.917405  1
  B  B18  1  0.500000  0.752050  0.417405  1
  B  B19  1  0.500000  0.247950  0.582595  1
  B  B20  1  0.500000  0.296840  0.236012  1
  B  B21  1  0.500000  0.703160  0.763988  1
  B  B22  1  0.500000  0.796840  0.263988  1
  B  B23  1  0.500000  0.203160  0.736012  1
  B  B24  1  0.500000  0.130017  0.317425  1
  B  B25  1  0.500000  0.869983  0.682575  1
  B  B26  1  0.500000  0.630017  0.182575  1
  B  B27  1  0.500000  0.369983  0.817425  1
  B  B28  1  0.500000  0.482762  0.286515  1
  B  B29  1  0.500000  0.517238  0.713485  1
  B  B30  1  0.500000  0.982762  0.213485  1
  B  B31  1  0.500000  0.017238  0.786515  1
  B  B32  1  0.500000  0.099828  0.473674  1
  B  B33  1  0.500000  0.900172  0.526326  1
  B  B34  1  0.500000  0.599828  0.026326  1
  B  B35  1  0.500000  0.400172  0.973674  1
