# generated using pymatgen
data_NaPa3(Ga3Ir)6
_symmetry_space_group_name_H-M   'P 1'
_cell_length_a   7.64344145
_cell_length_b   7.66541809
_cell_length_c   9.33947300
_cell_angle_alpha   90.00000000
_cell_angle_beta   90.00000000
_cell_angle_gamma   119.83343255
_symmetry_Int_Tables_number   1
_chemical_formula_structural   NaPa3(Ga3Ir)6
_chemical_formula_sum   'Na1 Pa3 Ga18 Ir6'
_cell_volume   474.68366590
_cell_formula_units_Z   1
loop_
 _symmetry_equiv_pos_site_id
 _symmetry_equiv_pos_as_xyz
  1  'x, y, z'
loop_
 _atom_site_type_symbol
 _atom_site_label
 _atom_site_symmetry_multiplicity
 _atom_site_fract_x
 _atom_site_fract_y
 _atom_site_fract_z
 _atom_site_occupancy
  Na  Na0  1  0.329081  0.005088  0.750000  1
  Pa  Pa1  1  0.999601  0.670154  0.250000  1
  Pa  Pa2  1  0.997966  0.330421  0.750000  1
  Pa  Pa3  1  0.670481  0.995887  0.250000  1
  Ga  Ga4  1  0.137189  0.131122  0.250000  1
  Ga  Ga5  1  0.873045  0.873773  0.750000  1
  Ga  Ga6  1  0.004177  0.335338  0.083272  1
  Ga  Ga7  1  0.008789  0.675794  0.913712  1
  Ga  Ga8  1  0.008789  0.675794  0.586288  1
  Ga  Ga9  1  0.335667  0.002844  0.427213  1
  Ga  Ga10  1  0.004177  0.335338  0.416728  1
  Ga  Ga11  1  0.654184  0.998106  0.586863  1
  Ga  Ga12  1  0.654184  0.998106  0.913137  1
  Ga  Ga13  1  0.335667  0.002844  0.072787  1
  Ga  Ga14  1  0.331567  0.324471  0.572712  1
  Ga  Ga15  1  0.664436  0.663414  0.436647  1
  Ga  Ga16  1  0.664436  0.663414  0.063353  1
  Ga  Ga17  1  0.331567  0.324471  0.927288  1
  Ga  Ga18  1  0.343679  0.543600  0.250000  1
  Ga  Ga19  1  0.658945  0.449535  0.750000  1
  Ga  Ga20  1  0.544817  0.338109  0.250000  1
  Ga  Ga21  1  0.449627  0.657106  0.750000  1
  Ir  Ir22  1  0.681776  0.334371  0.003136  1
  Ir  Ir23  1  0.326572  0.668303  0.004125  1
  Ir  Ir24  1  0.326572  0.668303  0.495875  1
  Ir  Ir25  1  0.681776  0.334371  0.496864  1
  Ir  Ir26  1  0.990617  0.999960  0.004844  1
  Ir  Ir27  1  0.990617  0.999960  0.495156  1
