# generated using pymatgen
data_Pr17Dy3Si15Ni
_symmetry_space_group_name_H-M   'P 1'
_cell_length_a   7.90674528
_cell_length_b   7.86992854
_cell_length_c   15.20468500
_cell_angle_alpha   90.07179148
_cell_angle_beta   89.84141864
_cell_angle_gamma   90.24074830
_symmetry_Int_Tables_number   1
_chemical_formula_structural   Pr17Dy3Si15Ni
_chemical_formula_sum   'Pr17 Dy3 Si15 Ni1'
_cell_volume   946.10673104
_cell_formula_units_Z   1
loop_
 _symmetry_equiv_pos_site_id
 _symmetry_equiv_pos_as_xyz
  1  'x, y, z'
loop_
 _atom_site_type_symbol
 _atom_site_label
 _atom_site_symmetry_multiplicity
 _atom_site_fract_x
 _atom_site_fract_y
 _atom_site_fract_z
 _atom_site_occupancy
  Pr  Pr0  1  0.696189  0.687787  0.500545  1
  Pr  Pr1  1  0.375981  0.009947  0.447054  1
  Pr  Pr2  1  0.488851  0.874773  0.699472  1
  Pr  Pr3  1  0.511334  0.123751  0.196239  1
  Pr  Pr4  1  0.877123  0.486658  0.301022  1
  Pr  Pr5  1  0.122528  0.507039  0.799589  1
  Pr  Pr6  1  0.624815  0.988789  0.947924  1
  Pr  Pr7  1  0.004321  0.376009  0.552630  1
  Pr  Pr8  1  0.988626  0.625746  0.051969  1
  Pr  Pr9  1  0.134296  0.985121  0.874125  1
  Pr  Pr10  1  0.519413  0.631276  0.125733  1
  Pr  Pr11  1  0.467697  0.362700  0.629983  1
  Pr  Pr12  1  0.627589  0.518999  0.873355  1
  Pr  Pr13  1  0.371909  0.480470  0.372276  1
  Pr  Pr14  1  0.874386  0.022582  0.377445  1
  Pr  Pr15  1  0.980827  0.125611  0.122048  1
  Pr  Pr16  1  0.026708  0.884060  0.624945  1
  Dy  Dy17  1  0.308693  0.308954  0.999034  1
  Dy  Dy18  1  0.188991  0.809564  0.249849  1
  Dy  Dy19  1  0.812648  0.188511  0.750870  1
  Si  Si20  1  0.330351  0.690943  0.952499  1
  Si  Si21  1  0.662871  0.304069  0.454450  1
  Si  Si22  1  0.693240  0.331905  0.046333  1
  Si  Si23  1  0.305790  0.669563  0.546801  1
  Si  Si24  1  0.810448  0.830195  0.205193  1
  Si  Si25  1  0.170445  0.191602  0.294240  1
  Si  Si26  1  0.832607  0.808229  0.796032  1
  Si  Si27  1  0.287054  0.923225  0.061398  1
  Si  Si28  1  0.575923  0.787461  0.309529  1
  Si  Si29  1  0.427290  0.208109  0.813765  1
  Si  Si30  1  0.785849  0.576439  0.690469  1
  Si  Si31  1  0.213315  0.424048  0.186537  1
  Si  Si32  1  0.708770  0.078269  0.563159  1
  Si  Si33  1  0.921902  0.286678  0.938131  1
  Si  Si34  1  0.082681  0.716264  0.437709  1
  Ni  Ni35  1  0.188541  0.174657  0.707651  1
