# generated using pymatgen
data_V9CuS16
_symmetry_space_group_name_H-M   'P 1'
_cell_length_a   6.39681300
_cell_length_b   6.39681276
_cell_length_c   11.98587400
_cell_angle_alpha   90.00000000
_cell_angle_beta   90.00000000
_cell_angle_gamma   120.00000639
_symmetry_Int_Tables_number   1
_chemical_formula_structural   V9CuS16
_chemical_formula_sum   'V9 Cu1 S16'
_cell_volume   424.74434526
_cell_formula_units_Z   1
loop_
 _symmetry_equiv_pos_site_id
 _symmetry_equiv_pos_as_xyz
  1  'x, y, z'
loop_
 _atom_site_type_symbol
 _atom_site_label
 _atom_site_symmetry_multiplicity
 _atom_site_fract_x
 _atom_site_fract_y
 _atom_site_fract_z
 _atom_site_occupancy
  V  V0  1  0.000000  0.000000  0.249515  1
  V  V1  1  0.000000  0.000000  0.750485  1
  V  V2  1  0.507844  0.015689  0.250503  1
  V  V3  1  0.492156  0.984311  0.749497  1
  V  V4  1  0.984311  0.492156  0.250503  1
  V  V5  1  0.015689  0.507844  0.749497  1
  V  V6  1  0.507844  0.492156  0.250503  1
  V  V7  1  0.492156  0.507844  0.749497  1
  V  V8  1  0.000000  0.000000  0.500000  1
  Cu  Cu9  1  0.000000  0.000000  0.000000  1
  S  S10  1  0.333333  0.666667  0.622085  1
  S  S11  1  0.666667  0.333333  0.377915  1
  S  S12  1  0.666667  0.333333  0.124822  1
  S  S13  1  0.333333  0.666667  0.875178  1
  S  S14  1  0.169579  0.339158  0.128917  1
  S  S15  1  0.830421  0.660842  0.871083  1
  S  S16  1  0.660842  0.830421  0.128917  1
  S  S17  1  0.833959  0.667919  0.628519  1
  S  S18  1  0.339158  0.169579  0.871083  1
  S  S19  1  0.166041  0.332081  0.371481  1
  S  S20  1  0.169579  0.830421  0.128917  1
  S  S21  1  0.332081  0.166041  0.628519  1
  S  S22  1  0.830421  0.169579  0.871083  1
  S  S23  1  0.667919  0.833959  0.371481  1
  S  S24  1  0.833959  0.166041  0.628519  1
  S  S25  1  0.166041  0.833959  0.371481  1
