# generated using pymatgen
data_Li2Y3ZnInSi2
_symmetry_space_group_name_H-M   'P 1'
_cell_length_a   7.07051100
_cell_length_b   7.08594793
_cell_length_c   4.32245600
_cell_angle_alpha   90.00000000
_cell_angle_beta   90.00000000
_cell_angle_gamma   119.92795635
_symmetry_Int_Tables_number   1
_chemical_formula_structural   Li2Y3ZnInSi2
_chemical_formula_sum   'Li2 Y3 Zn1 In1 Si2'
_cell_volume   187.68293860
_cell_formula_units_Z   1
loop_
 _symmetry_equiv_pos_site_id
 _symmetry_equiv_pos_as_xyz
  1  'x, y, z'
loop_
 _atom_site_type_symbol
 _atom_site_label
 _atom_site_symmetry_multiplicity
 _atom_site_fract_x
 _atom_site_fract_y
 _atom_site_fract_z
 _atom_site_occupancy
  Li  Li0  1  0.754344  0.750672  0.500000  1
  Li  Li1  1  0.003671  0.249328  0.500000  1
  Y  Y2  1  0.998870  0.557625  0.000000  1
  Y  Y3  1  0.556984  0.000000  0.000000  1
  Y  Y4  1  0.441245  0.442375  0.000000  1
  Zn  Zn5  1  0.251634  0.000000  0.500000  1
  In  In6  1  0.000058  0.000000  0.000000  1
  Si  Si7  1  0.331885  0.670579  0.500000  1
  Si  Si8  1  0.661307  0.329421  0.500000  1
