# generated using pymatgen
data_CeEr3B4Ir9Pt
_symmetry_space_group_name_H-M   'P 1'
_cell_length_a   10.97682923
_cell_length_b   10.97682899
_cell_length_c   10.97682831
_cell_angle_alpha   29.00698120
_cell_angle_beta   29.00698274
_cell_angle_gamma   29.00698434
_symmetry_Int_Tables_number   1
_chemical_formula_structural   CeEr3B4Ir9Pt
_chemical_formula_sum   'Ce1 Er3 B4 Ir9 Pt1'
_cell_volume   275.08159661
_cell_formula_units_Z   1
loop_
 _symmetry_equiv_pos_site_id
 _symmetry_equiv_pos_as_xyz
  1  'x, y, z'
loop_
 _atom_site_type_symbol
 _atom_site_label
 _atom_site_symmetry_multiplicity
 _atom_site_fract_x
 _atom_site_fract_y
 _atom_site_fract_z
 _atom_site_occupancy
  Ce  Ce0  1  0.050726  0.050726  0.050726  1
  Er  Er1  1  0.152988  0.152988  0.152988  1
  Er  Er2  1  0.949737  0.949737  0.949737  1
  Er  Er3  1  0.848844  0.848844  0.848844  1
  B  B4  1  0.616937  0.616937  0.616937  1
  B  B5  1  0.716406  0.716406  0.716406  1
  B  B6  1  0.382493  0.382493  0.382493  1
  B  B7  1  0.282962  0.282962  0.282962  1
  Ir  Ir8  1  0.405903  0.900845  0.405903  1
  Ir  Ir9  1  0.900845  0.405903  0.405903  1
  Ir  Ir10  1  0.499351  0.499351  0.999637  1
  Ir  Ir11  1  0.499351  0.999637  0.499351  1
  Ir  Ir12  1  0.999637  0.499351  0.499351  1
  Ir  Ir13  1  0.594069  0.099659  0.594069  1
  Ir  Ir14  1  0.594069  0.594069  0.099659  1
  Ir  Ir15  1  0.099659  0.594069  0.594069  1
  Ir  Ir16  1  0.405903  0.405903  0.900845  1
  Pt  Pt17  1  0.500115  0.500115  0.500115  1
