# generated using pymatgen
data_SmHo7(SiI6)2
_symmetry_space_group_name_H-M   'P 1'
_cell_length_a   4.20069200
_cell_length_b   14.00567265
_cell_length_c   14.76555251
_cell_angle_alpha   89.83968658
_cell_angle_beta   90.00000000
_cell_angle_gamma   90.00000000
_symmetry_Int_Tables_number   1
_chemical_formula_structural   SmHo7(SiI6)2
_chemical_formula_sum   'Sm1 Ho7 Si2 I12'
_cell_volume   868.70598488
_cell_formula_units_Z   1
loop_
 _symmetry_equiv_pos_site_id
 _symmetry_equiv_pos_as_xyz
  1  'x, y, z'
loop_
 _atom_site_type_symbol
 _atom_site_label
 _atom_site_symmetry_multiplicity
 _atom_site_fract_x
 _atom_site_fract_y
 _atom_site_fract_z
 _atom_site_occupancy
  Sm  Sm0  1  0.000000  0.112064  0.575354  1
  Ho  Ho1  1  0.500000  0.113701  0.347690  1
  Ho  Ho2  1  0.500000  0.885679  0.651941  1
  Ho  Ho3  1  0.500000  0.613631  0.151617  1
  Ho  Ho4  1  0.500000  0.386529  0.848512  1
  Ho  Ho5  1  0.000000  0.887969  0.424820  1
  Ho  Ho6  1  0.000000  0.610183  0.926033  1
  Ho  Ho7  1  0.000000  0.389830  0.074014  1
  Si  Si8  1  0.500000  0.997388  0.498272  1
  Si  Si9  1  0.500000  0.500107  0.000173  1
  I  I10  1  0.500000  0.247059  0.162100  1
  I  I11  1  0.500000  0.752576  0.837699  1
  I  I12  1  0.500000  0.746224  0.337077  1
  I  I13  1  0.500000  0.258526  0.665262  1
  I  I14  1  0.000000  0.259308  0.410893  1
  I  I15  1  0.000000  0.741726  0.585586  1
  I  I16  1  0.000000  0.757799  0.085191  1
  I  I17  1  0.000000  0.242293  0.915072  1
  I  I18  1  0.000000  0.999950  0.240764  1
  I  I19  1  0.000000  0.996779  0.761672  1
  I  I20  1  0.000000  0.499847  0.258694  1
  I  I21  1  0.000000  0.500834  0.741564  1
