# generated using pymatgen
data_Na3Mn2InI8
_symmetry_space_group_name_H-M   'P 1'
_cell_length_a   7.48768300
_cell_length_b   9.66827700
_cell_length_c   16.44835600
_cell_angle_alpha   90.00000000
_cell_angle_beta   90.00000000
_cell_angle_gamma   90.00000000
_symmetry_Int_Tables_number   1
_chemical_formula_structural   Na3Mn2InI8
_chemical_formula_sum   'Na6 Mn4 In2 I16'
_cell_volume   1190.74572623
_cell_formula_units_Z   2
loop_
 _symmetry_equiv_pos_site_id
 _symmetry_equiv_pos_as_xyz
  1  'x, y, z'
loop_
 _atom_site_type_symbol
 _atom_site_label
 _atom_site_symmetry_multiplicity
 _atom_site_fract_x
 _atom_site_fract_y
 _atom_site_fract_z
 _atom_site_occupancy
  Na  Na0  1  0.999880  0.998897  0.993009  1
  Na  Na1  1  0.499880  0.001103  0.506991  1
  Na  Na2  1  0.999880  0.501103  0.993009  1
  Na  Na3  1  0.499880  0.498897  0.506991  1
  Na  Na4  1  0.993490  0.250000  0.734340  1
  Na  Na5  1  0.493490  0.750000  0.765660  1
  Mn  Mn6  1  0.602735  0.750000  0.080286  1
  Mn  Mn7  1  0.102735  0.250000  0.419714  1
  Mn  Mn8  1  0.397258  0.250000  0.906001  1
  Mn  Mn9  1  0.897258  0.750000  0.593999  1
  In  In10  1  0.008459  0.750000  0.266659  1
  In  In11  1  0.508459  0.250000  0.233341  1
  I  I12  1  0.244150  0.750000  0.080472  1
  I  I13  1  0.744150  0.250000  0.419528  1
  I  I14  1  0.756579  0.250000  0.906190  1
  I  I15  1  0.256579  0.750000  0.593810  1
  I  I16  1  0.748105  0.750000  0.442658  1
  I  I17  1  0.248105  0.250000  0.057342  1
  I  I18  1  0.244860  0.250000  0.572247  1
  I  I19  1  0.744860  0.750000  0.927753  1
  I  I20  1  0.748468  0.971701  0.155332  1
  I  I21  1  0.248468  0.028299  0.344668  1
  I  I22  1  0.253834  0.475077  0.831330  1
  I  I23  1  0.753834  0.524923  0.668670  1
  I  I24  1  0.253834  0.024923  0.831330  1
  I  I25  1  0.753834  0.975077  0.668670  1
  I  I26  1  0.748468  0.528299  0.155332  1
  I  I27  1  0.248468  0.471701  0.344668  1
