# generated using pymatgen
data_Tb3ErLu16(CoSb2)4
_symmetry_space_group_name_H-M   'P 1'
_cell_length_a   7.71868444
_cell_length_b   8.74024800
_cell_length_c   11.98482569
_cell_angle_alpha   90.00000000
_cell_angle_beta   90.03882554
_cell_angle_gamma   90.00000000
_symmetry_Int_Tables_number   1
_chemical_formula_structural   Tb3ErLu16(CoSb2)4
_chemical_formula_sum   'Tb3 Er1 Lu16 Co4 Sb8'
_cell_volume   808.53470166
_cell_formula_units_Z   1
loop_
 _symmetry_equiv_pos_site_id
 _symmetry_equiv_pos_as_xyz
  1  'x, y, z'
loop_
 _atom_site_type_symbol
 _atom_site_label
 _atom_site_symmetry_multiplicity
 _atom_site_fract_x
 _atom_site_fract_y
 _atom_site_fract_z
 _atom_site_occupancy
  Tb  Tb0  1  0.122544  0.250000  0.192867  1
  Tb  Tb1  1  0.377462  0.250000  0.692809  1
  Tb  Tb2  1  0.877409  0.750000  0.807110  1
  Er  Er3  1  0.621979  0.750000  0.307632  1
  Lu  Lu4  1  0.155372  0.750000  0.203977  1
  Lu  Lu5  1  0.655098  0.250000  0.296187  1
  Lu  Lu6  1  0.844882  0.250000  0.796113  1
  Lu  Lu7  1  0.344855  0.750000  0.703874  1
  Lu  Lu8  1  0.446376  0.750000  0.997652  1
  Lu  Lu9  1  0.945901  0.250000  0.502349  1
  Lu  Lu10  1  0.553802  0.250000  0.002447  1
  Lu  Lu11  1  0.053746  0.750000  0.497556  1
  Lu  Lu12  1  0.823924  0.962341  0.065429  1
  Lu  Lu13  1  0.324431  0.037007  0.434491  1
  Lu  Lu14  1  0.175973  0.462219  0.934653  1
  Lu  Lu15  1  0.675907  0.538088  0.565015  1
  Lu  Lu16  1  0.175973  0.037781  0.934653  1
  Lu  Lu17  1  0.675907  0.961912  0.565015  1
  Lu  Lu18  1  0.823924  0.537659  0.065429  1
  Lu  Lu19  1  0.324431  0.462993  0.434491  1
  Co  Co20  1  0.431595  0.750000  0.491259  1
  Co  Co21  1  0.931231  0.250000  0.008401  1
  Co  Co22  1  0.568747  0.250000  0.508308  1
  Co  Co23  1  0.068728  0.750000  0.991634  1
  Sb  Sb24  1  0.930354  0.990983  0.329194  1
  Sb  Sb25  1  0.431897  0.007846  0.171038  1
  Sb  Sb26  1  0.068768  0.491520  0.670799  1
  Sb  Sb27  1  0.568883  0.508434  0.829292  1
  Sb  Sb28  1  0.068768  0.008480  0.670799  1
  Sb  Sb29  1  0.568883  0.991566  0.829292  1
  Sb  Sb30  1  0.930354  0.509017  0.329194  1
  Sb  Sb31  1  0.431897  0.492154  0.171038  1
