# generated using pymatgen
data_YbHo(B4Ru)2
_symmetry_space_group_name_H-M   'P 1'
_cell_length_a   3.53987000
_cell_length_b   5.95009875
_cell_length_c   11.50436346
_cell_angle_alpha   89.94227794
_cell_angle_beta   90.00000000
_cell_angle_gamma   90.00000000
_symmetry_Int_Tables_number   1
_chemical_formula_structural   YbHo(B4Ru)2
_chemical_formula_sum   'Yb2 Ho2 B16 Ru4'
_cell_volume   242.31140765
_cell_formula_units_Z   2
loop_
 _symmetry_equiv_pos_site_id
 _symmetry_equiv_pos_as_xyz
  1  'x, y, z'
loop_
 _atom_site_type_symbol
 _atom_site_label
 _atom_site_symmetry_multiplicity
 _atom_site_fract_x
 _atom_site_fract_y
 _atom_site_fract_z
 _atom_site_occupancy
  Yb  Yb0  1  0.500000  0.128833  0.350427  1
  Yb  Yb1  1  0.500000  0.871167  0.649573  1
  Ho  Ho2  1  0.500000  0.629623  0.150670  1
  Ho  Ho3  1  0.500000  0.370377  0.849330  1
  B  B4  1  0.000000  0.975117  0.192282  1
  B  B5  1  0.000000  0.024883  0.807718  1
  B  B6  1  0.000000  0.476478  0.308384  1
  B  B7  1  0.000000  0.523522  0.691616  1
  B  B8  1  0.000000  0.788409  0.315418  1
  B  B9  1  0.000000  0.211591  0.684582  1
  B  B10  1  0.000000  0.287701  0.185966  1
  B  B11  1  0.000000  0.712299  0.814034  1
  B  B12  1  0.000000  0.864622  0.469034  1
  B  B13  1  0.000000  0.135378  0.530966  1
  B  B14  1  0.000000  0.364138  0.030544  1
  B  B15  1  0.000000  0.635862  0.969456  1
  B  B16  1  0.000000  0.888109  0.047328  1
  B  B17  1  0.000000  0.111891  0.952672  1
  B  B18  1  0.000000  0.386571  0.453282  1
  B  B19  1  0.000000  0.613429  0.546718  1
  Ru  Ru20  1  0.500000  0.636033  0.410401  1
  Ru  Ru21  1  0.500000  0.363967  0.589599  1
  Ru  Ru22  1  0.500000  0.140354  0.091029  1
  Ru  Ru23  1  0.500000  0.859646  0.908971  1
