# generated using pymatgen
data_Ba6Li2Ag21Ge
_symmetry_space_group_name_H-M   'P 1'
_cell_length_a   9.97643201
_cell_length_b   9.97707186
_cell_length_c   8.36510142
_cell_angle_alpha   89.96987643
_cell_angle_beta   89.99721923
_cell_angle_gamma   119.99462158
_symmetry_Int_Tables_number   1
_chemical_formula_structural   Ba6Li2Ag21Ge
_chemical_formula_sum   'Ba6 Li2 Ag21 Ge1'
_cell_volume   721.11351723
_cell_formula_units_Z   1
loop_
 _symmetry_equiv_pos_site_id
 _symmetry_equiv_pos_as_xyz
  1  'x, y, z'
loop_
 _atom_site_type_symbol
 _atom_site_label
 _atom_site_symmetry_multiplicity
 _atom_site_fract_x
 _atom_site_fract_y
 _atom_site_fract_z
 _atom_site_occupancy
  Ba  Ba0  1  0.523347  0.046693  0.249664  1
  Ba  Ba1  1  0.474123  0.948246  0.747077  1
  Ba  Ba2  1  0.953307  0.476655  0.249669  1
  Ba  Ba3  1  0.051756  0.525877  0.747072  1
  Ba  Ba4  1  0.523347  0.476654  0.249669  1
  Ba  Ba5  1  0.474121  0.525878  0.747072  1
  Li  Li6  1  0.000000  0.999997  0.000786  1
  Li  Li7  1  0.000001  0.000001  0.499557  1
  Ag  Ag8  1  0.164652  0.329303  0.064183  1
  Ag  Ag9  1  0.834872  0.669744  0.936970  1
  Ag  Ag10  1  0.670695  0.835347  0.064194  1
  Ag  Ag11  1  0.834598  0.669196  0.563320  1
  Ag  Ag12  1  0.330256  0.165127  0.936959  1
  Ag  Ag13  1  0.171658  0.343314  0.433979  1
  Ag  Ag14  1  0.164651  0.835346  0.064194  1
  Ag  Ag15  1  0.330804  0.165405  0.563311  1
  Ag  Ag16  1  0.834870  0.165126  0.936960  1
  Ag  Ag17  1  0.656689  0.828343  0.433988  1
  Ag  Ag18  1  0.834602  0.165406  0.563312  1
  Ag  Ag19  1  0.171655  0.828343  0.433987  1
  Ag  Ag20  1  0.899722  0.799443  0.253078  1
  Ag  Ag21  1  0.100196  0.200391  0.747493  1
  Ag  Ag22  1  0.200558  0.100277  0.253080  1
  Ag  Ag23  1  0.799608  0.899805  0.747492  1
  Ag  Ag24  1  0.899720  0.100278  0.253079  1
  Ag  Ag25  1  0.100197  0.899804  0.747492  1
  Ag  Ag26  1  0.333335  0.666666  0.087574  1
  Ag  Ag27  1  0.666666  0.333335  0.923915  1
  Ag  Ag28  1  0.666665  0.333330  0.571944  1
  Ge  Ge29  1  0.333332  0.666666  0.428932  1
