# generated using pymatgen
data_Tb2CeP4Pd7
_symmetry_space_group_name_H-M   'P 1'
_cell_length_a   7.98992578
_cell_length_b   7.98992595
_cell_length_c   9.50287654
_cell_angle_alpha   55.47192645
_cell_angle_beta   55.47192418
_cell_angle_gamma   29.11070294
_symmetry_Int_Tables_number   1
_chemical_formula_structural   Tb2CeP4Pd7
_chemical_formula_sum   'Tb2 Ce1 P4 Pd7'
_cell_volume   239.23626407
_cell_formula_units_Z   1
loop_
 _symmetry_equiv_pos_site_id
 _symmetry_equiv_pos_as_xyz
  1  'x, y, z'
loop_
 _atom_site_type_symbol
 _atom_site_label
 _atom_site_symmetry_multiplicity
 _atom_site_fract_x
 _atom_site_fract_y
 _atom_site_fract_z
 _atom_site_occupancy
  Tb  Tb0  1  0.679574  0.679574  0.323276  1
  Tb  Tb1  1  0.320426  0.320426  0.676724  1
  Ce  Ce2  1  0.000000  0.000000  0.000000  1
  P  P3  1  0.340883  0.340883  0.253208  1
  P  P4  1  0.659117  0.659117  0.746792  1
  P  P5  1  0.894396  0.894396  0.820181  1
  P  P6  1  0.105604  0.105604  0.179819  1
  Pd  Pd7  1  0.305643  0.305643  0.028579  1
  Pd  Pd8  1  0.694357  0.694357  0.971421  1
  Pd  Pd9  1  0.509709  0.509709  0.714034  1
  Pd  Pd10  1  0.831688  0.831688  0.424084  1
  Pd  Pd11  1  0.490291  0.490291  0.285966  1
  Pd  Pd12  1  0.168312  0.168312  0.575916  1
  Pd  Pd13  1  0.000000  0.000000  0.500000  1
