# generated using pymatgen
data_Ce2Th(MgIr)3
_symmetry_space_group_name_H-M   'P 1'
_cell_length_a   7.37212720
_cell_length_b   7.39421737
_cell_length_c   4.09656200
_cell_angle_alpha   90.00000000
_cell_angle_beta   90.00000000
_cell_angle_gamma   120.09918176
_symmetry_Int_Tables_number   1
_chemical_formula_structural   Ce2Th(MgIr)3
_chemical_formula_sum   'Ce2 Th1 Mg3 Ir3'
_cell_volume   193.19695891
_cell_formula_units_Z   1
loop_
 _symmetry_equiv_pos_site_id
 _symmetry_equiv_pos_as_xyz
  1  'x, y, z'
loop_
 _atom_site_type_symbol
 _atom_site_label
 _atom_site_symmetry_multiplicity
 _atom_site_fract_x
 _atom_site_fract_y
 _atom_site_fract_z
 _atom_site_occupancy
  Ce  Ce0  1  0.415481  0.415144  0.500000  1
  Ce  Ce1  1  0.584519  0.999664  0.500000  1
  Th  Th2  1  0.000000  0.585043  0.500000  1
  Mg  Mg3  1  0.758066  0.761179  0.000000  1
  Mg  Mg4  1  0.241934  0.003112  0.000000  1
  Mg  Mg5  1  0.000000  0.235906  0.000000  1
  Ir  Ir6  1  0.669212  0.336241  0.000000  1
  Ir  Ir7  1  0.330788  0.667030  0.000000  1
  Ir  Ir8  1  0.000000  0.996680  0.500000  1
