# generated using pymatgen
data_Ho12TlZn(FeCo)2
_symmetry_space_group_name_H-M   'P 1'
_cell_length_a   8.31213309
_cell_length_b   8.31213281
_cell_length_c   8.31213399
_cell_angle_alpha   111.20616523
_cell_angle_beta   109.97401102
_cell_angle_gamma   107.25838068
_symmetry_Int_Tables_number   1
_chemical_formula_structural   Ho12TlZn(FeCo)2
_chemical_formula_sum   'Ho12 Tl1 Zn1 Fe2 Co2'
_cell_volume   441.54958071
_cell_formula_units_Z   1
loop_
 _symmetry_equiv_pos_site_id
 _symmetry_equiv_pos_as_xyz
  1  'x, y, z'
loop_
 _atom_site_type_symbol
 _atom_site_label
 _atom_site_symmetry_multiplicity
 _atom_site_fract_x
 _atom_site_fract_y
 _atom_site_fract_z
 _atom_site_occupancy
  Ho  Ho0  1  0.314967  0.616678  0.301707  1
  Ho  Ho1  1  0.685033  0.383322  0.698293  1
  Ho  Ho2  1  0.314967  0.013259  0.698293  1
  Ho  Ho3  1  0.685033  0.986741  0.301707  1
  Ho  Ho4  1  0.185901  0.289558  0.475459  1
  Ho  Ho5  1  0.814099  0.710442  0.524541  1
  Ho  Ho6  1  0.185901  0.710442  0.896344  1
  Ho  Ho7  1  0.814099  0.289558  0.103656  1
  Ho  Ho8  1  0.426971  0.220897  0.206073  1
  Ho  Ho9  1  0.573029  0.779103  0.793927  1
  Ho  Ho10  1  0.014825  0.220897  0.793927  1
  Ho  Ho11  1  0.985175  0.779103  0.206073  1
  Tl  Tl12  1  0.500000  0.500000  0.000000  1
  Zn  Zn13  1  0.000000  0.000000  0.000000  1
  Fe  Fe14  1  0.109810  0.609810  0.500000  1
  Fe  Fe15  1  0.890190  0.390190  0.500000  1
  Co  Co16  1  0.379945  0.000000  0.379945  1
  Co  Co17  1  0.620055  0.000000  0.620055  1
