# generated using pymatgen
data_Dy10YTh5(MgRu)4
_symmetry_space_group_name_H-M   'P 1'
_cell_length_a   9.71969107
_cell_length_b   9.78318666
_cell_length_c   9.78318611
_cell_angle_alpha   59.90715090
_cell_angle_beta   60.21445395
_cell_angle_gamma   60.21446381
_symmetry_Int_Tables_number   1
_chemical_formula_structural   Dy10YTh5(MgRu)4
_chemical_formula_sum   'Dy10 Y1 Th5 Mg4 Ru4'
_cell_volume   659.46339685
_cell_formula_units_Z   1
loop_
 _symmetry_equiv_pos_site_id
 _symmetry_equiv_pos_as_xyz
  1  'x, y, z'
loop_
 _atom_site_type_symbol
 _atom_site_label
 _atom_site_symmetry_multiplicity
 _atom_site_fract_x
 _atom_site_fract_y
 _atom_site_fract_z
 _atom_site_occupancy
  Dy  Dy0  1  0.190935  0.809907  0.185294  1
  Dy  Dy1  1  0.813864  0.185294  0.809907  1
  Dy  Dy2  1  0.190935  0.185294  0.809907  1
  Dy  Dy3  1  0.813864  0.809907  0.185294  1
  Dy  Dy4  1  0.932963  0.567037  0.567037  1
  Dy  Dy5  1  0.565376  0.934624  0.934624  1
  Dy  Dy6  1  0.563445  0.935899  0.563919  1
  Dy  Dy7  1  0.936736  0.563919  0.935899  1
  Dy  Dy8  1  0.563445  0.563919  0.935899  1
  Dy  Dy9  1  0.936736  0.935899  0.563919  1
  Y  Y10  1  0.186829  0.813171  0.813171  1
  Th  Th11  1  0.342275  0.348809  0.348809  1
  Th  Th12  1  0.346207  0.346911  0.960675  1
  Th  Th13  1  0.346207  0.960675  0.346911  1
  Th  Th14  1  0.960107  0.348809  0.348809  1
  Th  Th15  1  0.815748  0.184252  0.184252  1
  Mg  Mg16  1  0.580542  0.579801  0.579801  1
  Mg  Mg17  1  0.579418  0.582195  0.258967  1
  Mg  Mg18  1  0.579418  0.258967  0.582195  1
  Mg  Mg19  1  0.259854  0.579801  0.579801  1
  Ru  Ru20  1  0.128278  0.147657  0.147657  1
  Ru  Ru21  1  0.145205  0.143239  0.566351  1
  Ru  Ru22  1  0.145205  0.566351  0.143239  1
  Ru  Ru23  1  0.576408  0.147657  0.147657  1
