# generated using pymatgen
data_Sr2YbB2Pt7
_symmetry_space_group_name_H-M   'P 1'
_cell_length_a   8.42531917
_cell_length_b   8.42531953
_cell_length_c   8.42532094
_cell_angle_alpha   38.66117910
_cell_angle_beta   38.66117632
_cell_angle_gamma   38.66117346
_symmetry_Int_Tables_number   1
_chemical_formula_structural   Sr2YbB2Pt7
_chemical_formula_sum   'Sr2 Yb1 B2 Pt7'
_cell_volume   209.77694148
_cell_formula_units_Z   1
loop_
 _symmetry_equiv_pos_site_id
 _symmetry_equiv_pos_as_xyz
  1  'x, y, z'
loop_
 _atom_site_type_symbol
 _atom_site_label
 _atom_site_symmetry_multiplicity
 _atom_site_fract_x
 _atom_site_fract_y
 _atom_site_fract_z
 _atom_site_occupancy
  Sr  Sr0  1  0.857409  0.857409  0.857409  1
  Sr  Sr1  1  0.142591  0.142591  0.142591  1
  Yb  Yb2  1  0.000000  0.000000  0.000000  1
  B  B3  1  0.668902  0.668902  0.668902  1
  B  B4  1  0.331098  0.331098  0.331098  1
  Pt  Pt5  1  0.437458  0.933105  0.437458  1
  Pt  Pt6  1  0.437458  0.437458  0.933105  1
  Pt  Pt7  1  0.933105  0.437458  0.437458  1
  Pt  Pt8  1  0.562542  0.066895  0.562542  1
  Pt  Pt9  1  0.562542  0.562542  0.066895  1
  Pt  Pt10  1  0.066895  0.562542  0.562542  1
  Pt  Pt11  1  0.500000  0.500000  0.500000  1
