# generated using pymatgen
data_Er11Lu9(Cd3Ir)2
_symmetry_space_group_name_H-M   'P 1'
_cell_length_a   9.44473922
_cell_length_b   9.44988117
_cell_length_c   9.72895200
_cell_angle_alpha   89.99488273
_cell_angle_beta   90.02914310
_cell_angle_gamma   120.00767512
_symmetry_Int_Tables_number   1
_chemical_formula_structural   Er11Lu9(Cd3Ir)2
_chemical_formula_sum   'Er11 Lu9 Cd6 Ir2'
_cell_volume   751.93336095
_cell_formula_units_Z   1
loop_
 _symmetry_equiv_pos_site_id
 _symmetry_equiv_pos_as_xyz
  1  'x, y, z'
loop_
 _atom_site_type_symbol
 _atom_site_label
 _atom_site_symmetry_multiplicity
 _atom_site_fract_x
 _atom_site_fract_y
 _atom_site_fract_z
 _atom_site_occupancy
  Er  Er0  1  0.209168  0.791414  0.441639  1
  Er  Er1  1  0.209308  0.417834  0.441734  1
  Er  Er2  1  0.582304  0.791167  0.441504  1
  Er  Er3  1  0.790032  0.209003  0.558930  1
  Er  Er4  1  0.790179  0.581177  0.558985  1
  Er  Er5  1  0.540591  0.458839  0.248295  1
  Er  Er6  1  0.540388  0.081781  0.248248  1
  Er  Er7  1  0.918894  0.459320  0.247577  1
  Er  Er8  1  0.459392  0.539845  0.751724  1
  Er  Er9  1  0.459198  0.919435  0.751652  1
  Er  Er10  1  0.081591  0.540752  0.752515  1
  Lu  Lu11  1  0.001301  0.000921  0.500112  1
  Lu  Lu12  1  0.999563  0.999605  0.000256  1
  Lu  Lu13  1  0.418781  0.209420  0.558387  1
  Lu  Lu14  1  0.790295  0.209678  0.942196  1
  Lu  Lu15  1  0.790340  0.580502  0.942265  1
  Lu  Lu16  1  0.419600  0.209770  0.941688  1
  Lu  Lu17  1  0.209878  0.790291  0.057541  1
  Lu  Lu18  1  0.209930  0.419408  0.057571  1
  Lu  Lu19  1  0.580372  0.790202  0.057640  1
  Cd  Cd20  1  0.887242  0.113023  0.249420  1
  Cd  Cd21  1  0.887443  0.774301  0.249738  1
  Cd  Cd22  1  0.225900  0.113153  0.249721  1
  Cd  Cd23  1  0.112685  0.887084  0.750417  1
  Cd  Cd24  1  0.112861  0.225698  0.750611  1
  Cd  Cd25  1  0.774094  0.887074  0.750280  1
  Ir  Ir26  1  0.333229  0.666530  0.247505  1
  Ir  Ir27  1  0.665439  0.332774  0.751850  1
