# generated using pymatgen
data_Tb3In3IrAu2
_symmetry_space_group_name_H-M   'P 1'
_cell_length_a   7.73480700
_cell_length_b   7.73480831
_cell_length_c   4.00300500
_cell_angle_alpha   90.00000000
_cell_angle_beta   90.00000000
_cell_angle_gamma   120.00000724
_symmetry_Int_Tables_number   1
_chemical_formula_structural   Tb3In3IrAu2
_chemical_formula_sum   'Tb3 In3 Ir1 Au2'
_cell_volume   207.40335113
_cell_formula_units_Z   1
loop_
 _symmetry_equiv_pos_site_id
 _symmetry_equiv_pos_as_xyz
  1  'x, y, z'
loop_
 _atom_site_type_symbol
 _atom_site_label
 _atom_site_symmetry_multiplicity
 _atom_site_fract_x
 _atom_site_fract_y
 _atom_site_fract_z
 _atom_site_occupancy
  Tb  Tb0  1  0.420214  0.398242  0.000000  1
  Tb  Tb1  1  0.601758  0.021972  0.000000  1
  Tb  Tb2  1  0.978028  0.579786  0.000000  1
  In  In3  1  0.997581  0.260778  0.500000  1
  In  In4  1  0.739222  0.736803  0.500000  1
  In  In5  1  0.263197  0.002419  0.500000  1
  Ir  Ir6  1  0.666667  0.333333  0.500000  1
  Au  Au7  1  0.000000  0.000000  0.000000  1
  Au  Au8  1  0.333333  0.666667  0.500000  1
