# generated using pymatgen
data_TbYbY6(ReC2)4
_symmetry_space_group_name_H-M   'P 1'
_cell_length_a   5.13342600
_cell_length_b   6.58430251
_cell_length_c   9.95849416
_cell_angle_alpha   89.36170906
_cell_angle_beta   90.00000000
_cell_angle_gamma   90.00000000
_symmetry_Int_Tables_number   1
_chemical_formula_structural   TbYbY6(ReC2)4
_chemical_formula_sum   'Tb1 Yb1 Y6 Re4 C8'
_cell_volume   336.57651196
_cell_formula_units_Z   1
loop_
 _symmetry_equiv_pos_site_id
 _symmetry_equiv_pos_as_xyz
  1  'x, y, z'
loop_
 _atom_site_type_symbol
 _atom_site_label
 _atom_site_symmetry_multiplicity
 _atom_site_fract_x
 _atom_site_fract_y
 _atom_site_fract_z
 _atom_site_occupancy
  Tb  Tb0  1  0.250000  0.685086  0.554008  1
  Yb  Yb1  1  0.250000  0.032941  0.280431  1
  Y  Y2  1  0.750000  0.314907  0.444033  1
  Y  Y3  1  0.750000  0.817379  0.056097  1
  Y  Y4  1  0.250000  0.180548  0.945744  1
  Y  Y5  1  0.250000  0.531254  0.220227  1
  Y  Y6  1  0.750000  0.467521  0.781428  1
  Y  Y7  1  0.750000  0.967119  0.718570  1
  Re  Re8  1  0.250000  0.721798  0.862667  1
  Re  Re9  1  0.750000  0.277887  0.135830  1
  Re  Re10  1  0.750000  0.776699  0.363896  1
  Re  Re11  1  0.250000  0.225654  0.636414  1
  C  C12  1  0.250000  0.456033  0.759940  1
  C  C13  1  0.750000  0.544393  0.240786  1
  C  C14  1  0.750000  0.043653  0.259180  1
  C  C15  1  0.250000  0.957420  0.739539  1
  C  C16  1  0.250000  0.812736  0.044303  1
  C  C17  1  0.750000  0.178457  0.953728  1
  C  C18  1  0.750000  0.683615  0.548315  1
  C  C19  1  0.250000  0.324899  0.454867  1
