# generated using pymatgen
data_Tb7Dy9MgIn2AgIr4
_symmetry_space_group_name_H-M   'P 1'
_cell_length_a   9.65646266
_cell_length_b   9.65872693
_cell_length_c   9.66023200
_cell_angle_alpha   59.99468767
_cell_angle_beta   60.02064313
_cell_angle_gamma   59.99916945
_symmetry_Int_Tables_number   1
_chemical_formula_structural   Tb7Dy9MgIn2AgIr4
_chemical_formula_sum   'Tb7 Dy9 Mg1 In2 Ag1 Ir4'
_cell_volume   637.17400538
_cell_formula_units_Z   1
loop_
 _symmetry_equiv_pos_site_id
 _symmetry_equiv_pos_as_xyz
  1  'x, y, z'
loop_
 _atom_site_type_symbol
 _atom_site_label
 _atom_site_symmetry_multiplicity
 _atom_site_fract_x
 _atom_site_fract_y
 _atom_site_fract_z
 _atom_site_occupancy
  Tb  Tb0  1  0.686909  0.311669  0.687826  1
  Tb  Tb1  1  0.687119  0.687751  0.311417  1
  Tb  Tb2  1  0.684827  0.310991  0.310548  1
  Tb  Tb3  1  0.310468  0.688070  0.688347  1
  Tb  Tb4  1  0.558971  0.940289  0.559485  1
  Tb  Tb5  1  0.701087  0.099374  0.099010  1
  Tb  Tb6  1  0.557765  0.942089  0.942464  1
  Dy  Dy7  1  0.099173  0.704719  0.097775  1
  Dy  Dy8  1  0.940480  0.939401  0.560360  1
  Dy  Dy9  1  0.940114  0.560461  0.939373  1
  Dy  Dy10  1  0.309835  0.685147  0.310818  1
  Dy  Dy11  1  0.938196  0.561959  0.562096  1
  Dy  Dy12  1  0.309836  0.311221  0.685079  1
  Dy  Dy13  1  0.100243  0.098534  0.098307  1
  Dy  Dy14  1  0.558935  0.559294  0.940435  1
  Dy  Dy15  1  0.098835  0.097768  0.705169  1
  Mg  Mg16  1  0.020971  0.327516  0.327577  1
  In  In17  1  0.332076  0.005174  0.333297  1
  In  In18  1  0.332032  0.333292  0.005220  1
  Ag  Ag19  1  0.329864  0.335335  0.335139  1
  Ir  Ir20  1  0.892450  0.891198  0.891123  1
  Ir  Ir21  1  0.892739  0.891935  0.324849  1
  Ir  Ir22  1  0.325080  0.891503  0.892318  1
  Ir  Ir23  1  0.891993  0.325306  0.891967  1
