# generated using pymatgen
data_Zr4Nb4GeP3
_symmetry_space_group_name_H-M   'P 1'
_cell_length_a   3.58715300
_cell_length_b   6.98603421
_cell_length_c   8.44358035
_cell_angle_alpha   89.66851105
_cell_angle_beta   90.00000000
_cell_angle_gamma   90.00000000
_symmetry_Int_Tables_number   1
_chemical_formula_structural   Zr4Nb4GeP3
_chemical_formula_sum   'Zr4 Nb4 Ge1 P3'
_cell_volume   211.59235918
_cell_formula_units_Z   1
loop_
 _symmetry_equiv_pos_site_id
 _symmetry_equiv_pos_as_xyz
  1  'x, y, z'
loop_
 _atom_site_type_symbol
 _atom_site_label
 _atom_site_symmetry_multiplicity
 _atom_site_fract_x
 _atom_site_fract_y
 _atom_site_fract_z
 _atom_site_occupancy
  Zr  Zr0  1  0.250000  0.531850  0.837234  1
  Zr  Zr1  1  0.750000  0.963332  0.329905  1
  Zr  Zr2  1  0.250000  0.044705  0.669328  1
  Zr  Zr3  1  0.750000  0.464731  0.169729  1
  Nb  Nb4  1  0.250000  0.140197  0.060836  1
  Nb  Nb5  1  0.750000  0.865119  0.944748  1
  Nb  Nb6  1  0.250000  0.631507  0.433219  1
  Nb  Nb7  1  0.750000  0.358928  0.557656  1
  Ge  Ge8  1  0.750000  0.741400  0.641218  1
  P  P9  1  0.250000  0.762293  0.141766  1
  P  P10  1  0.750000  0.238504  0.857307  1
  P  P11  1  0.250000  0.257433  0.357052  1
