# generated using pymatgen
data_Ce3(MnSi)2
_symmetry_space_group_name_H-M   'P 1'
_cell_length_a   5.68147007
_cell_length_b   7.97733301
_cell_length_c   12.28658100
_cell_angle_alpha   89.90673750
_cell_angle_beta   89.91622657
_cell_angle_gamma   89.59982699
_symmetry_Int_Tables_number   1
_chemical_formula_structural   Ce3(MnSi)2
_chemical_formula_sum   'Ce12 Mn8 Si8'
_cell_volume   556.84954356
_cell_formula_units_Z   4
loop_
 _symmetry_equiv_pos_site_id
 _symmetry_equiv_pos_as_xyz
  1  'x, y, z'
loop_
 _atom_site_type_symbol
 _atom_site_label
 _atom_site_symmetry_multiplicity
 _atom_site_fract_x
 _atom_site_fract_y
 _atom_site_fract_z
 _atom_site_occupancy
  Ce  Ce0  1  0.164251  0.405398  0.586950  1
  Ce  Ce1  1  0.837782  0.592550  0.085928  1
  Ce  Ce2  1  0.165315  0.092503  0.413287  1
  Ce  Ce3  1  0.834666  0.906632  0.913155  1
  Ce  Ce4  1  0.829494  0.592884  0.413425  1
  Ce  Ce5  1  0.175455  0.409175  0.912467  1
  Ce  Ce6  1  0.829361  0.906035  0.586485  1
  Ce  Ce7  1  0.167846  0.096874  0.086246  1
  Ce  Ce8  1  0.628050  0.271379  0.750447  1
  Ce  Ce9  1  0.370830  0.727514  0.249768  1
  Ce  Ce10  1  0.630064  0.229342  0.250258  1
  Ce  Ce11  1  0.365712  0.769868  0.749684  1
  Mn  Mn12  1  0.330698  0.034765  0.572771  1
  Mn  Mn13  1  0.668914  0.964495  0.071821  1
  Mn  Mn14  1  0.329680  0.463865  0.428053  1
  Mn  Mn15  1  0.671175  0.535164  0.927043  1
  Mn  Mn16  1  0.665405  0.963293  0.426216  1
  Mn  Mn17  1  0.334184  0.038874  0.927303  1
  Mn  Mn18  1  0.664693  0.535176  0.573323  1
  Mn  Mn19  1  0.338016  0.465173  0.074785  1
  Si  Si20  1  0.140126  0.112580  0.749949  1
  Si  Si21  1  0.859147  0.886988  0.248903  1
  Si  Si22  1  0.140418  0.387232  0.251039  1
  Si  Si23  1  0.857415  0.612216  0.749853  1
  Si  Si24  1  0.614022  0.248961  0.500214  1
  Si  Si25  1  0.386304  0.750739  0.999665  1
  Si  Si26  1  0.381237  0.749628  0.500004  1
  Si  Si27  1  0.619738  0.250695  0.000958  1
