# generated using pymatgen
data_Tb3Np3(Sb4Au3)2
_symmetry_space_group_name_H-M   'P 1'
_cell_length_a   8.67429251
_cell_length_b   8.67616529
_cell_length_c   8.67429327
_cell_angle_alpha   110.13486141
_cell_angle_beta   109.36345889
_cell_angle_gamma   108.90895867
_symmetry_Int_Tables_number   1
_chemical_formula_structural   Tb3Np3(Sb4Au3)2
_chemical_formula_sum   'Tb3 Np3 Sb8 Au6'
_cell_volume   502.53942350
_cell_formula_units_Z   1
loop_
 _symmetry_equiv_pos_site_id
 _symmetry_equiv_pos_as_xyz
  1  'x, y, z'
loop_
 _atom_site_type_symbol
 _atom_site_label
 _atom_site_symmetry_multiplicity
 _atom_site_fract_x
 _atom_site_fract_y
 _atom_site_fract_z
 _atom_site_occupancy
  Tb  Tb0  1  0.124901  0.874164  0.250491  1
  Tb  Tb1  1  0.621979  0.750000  0.371979  1
  Tb  Tb2  1  0.376327  0.625836  0.750736  1
  Np  Np3  1  0.249733  0.123126  0.873181  1
  Np  Np4  1  0.750056  0.376874  0.626607  1
  Np  Np5  1  0.876184  0.250000  0.126184  1
  Sb  Sb6  1  0.320164  0.322833  0.320720  1
  Sb  Sb7  1  0.502931  0.003392  0.179419  1
  Sb  Sb8  1  0.176027  0.496608  0.999540  1
  Sb  Sb9  1  0.997886  0.177167  0.497331  1
  Sb  Sb10  1  0.823658  0.822442  0.824571  1
  Sb  Sb11  1  0.501765  0.003964  0.680103  1
  Sb  Sb12  1  0.002129  0.677558  0.501217  1
  Sb  Sb13  1  0.676138  0.496036  0.997800  1
  Au  Au14  1  0.370765  0.250000  0.620765  1
  Au  Au15  1  0.747823  0.868292  0.124755  1
  Au  Au16  1  0.256464  0.631708  0.379531  1
  Au  Au17  1  0.624922  0.382091  0.253115  1
  Au  Au18  1  0.129123  0.750000  0.879123  1
  Au  Au19  1  0.871024  0.117909  0.742831  1
