# generated using pymatgen
data_Li2La2BiSb
_symmetry_space_group_name_H-M   'P 1'
_cell_length_a   4.82193200
_cell_length_b   7.78626095
_cell_length_c   8.48533604
_cell_angle_alpha   89.57756113
_cell_angle_beta   90.00000000
_cell_angle_gamma   90.00000000
_symmetry_Int_Tables_number   1
_chemical_formula_structural   Li2La2BiSb
_chemical_formula_sum   'Li4 La4 Bi2 Sb2'
_cell_volume   318.57176222
_cell_formula_units_Z   2
loop_
 _symmetry_equiv_pos_site_id
 _symmetry_equiv_pos_as_xyz
  1  'x, y, z'
loop_
 _atom_site_type_symbol
 _atom_site_label
 _atom_site_symmetry_multiplicity
 _atom_site_fract_x
 _atom_site_fract_y
 _atom_site_fract_z
 _atom_site_occupancy
  Li  Li0  1  0.250000  0.817768  0.925397  1
  Li  Li1  1  0.750000  0.182232  0.074603  1
  Li  Li2  1  0.750000  0.684597  0.419757  1
  Li  Li3  1  0.250000  0.315403  0.580243  1
  La  La4  1  0.250000  0.497699  0.210464  1
  La  La5  1  0.750000  0.502301  0.789536  1
  La  La6  1  0.750000  0.005357  0.727013  1
  La  La7  1  0.250000  0.994643  0.272987  1
  Bi  Bi8  1  0.250000  0.730602  0.589255  1
  Bi  Bi9  1  0.750000  0.269398  0.410745  1
  Sb  Sb10  1  0.750000  0.769992  0.088875  1
  Sb  Sb11  1  0.250000  0.230008  0.911125  1
