# generated using pymatgen
data_Dy15Er5Ir7Au5
_symmetry_space_group_name_H-M   'P 1'
_cell_length_a   11.15568619
_cell_length_b   11.15551436
_cell_length_c   6.30225294
_cell_angle_alpha   89.95224745
_cell_angle_beta   89.93195572
_cell_angle_gamma   89.60351770
_symmetry_Int_Tables_number   1
_chemical_formula_structural   Dy15Er5Ir7Au5
_chemical_formula_sum   'Dy15 Er5 Ir7 Au5'
_cell_volume   784.27950535
_cell_formula_units_Z   1
loop_
 _symmetry_equiv_pos_site_id
 _symmetry_equiv_pos_as_xyz
  1  'x, y, z'
loop_
 _atom_site_type_symbol
 _atom_site_label
 _atom_site_symmetry_multiplicity
 _atom_site_fract_x
 _atom_site_fract_y
 _atom_site_fract_z
 _atom_site_occupancy
  Dy  Dy0  1  0.299375  0.091151  0.364348  1
  Dy  Dy1  1  0.301276  0.907374  0.863144  1
  Dy  Dy2  1  0.697770  0.080548  0.860069  1
  Dy  Dy3  1  0.698439  0.905903  0.361478  1
  Dy  Dy4  1  0.581108  0.784166  0.876217  1
  Dy  Dy5  1  0.576031  0.207186  0.363399  1
  Dy  Dy6  1  0.417908  0.787782  0.376238  1
  Dy  Dy7  1  0.411129  0.208594  0.877815  1
  Dy  Dy8  1  0.215625  0.418661  0.623801  1
  Dy  Dy9  1  0.212184  0.581723  0.123863  1
  Dy  Dy10  1  0.793028  0.423831  0.136455  1
  Dy  Dy11  1  0.791390  0.588836  0.622178  1
  Dy  Dy12  1  0.909235  0.700377  0.135480  1
  Dy  Dy13  1  0.919653  0.302135  0.639954  1
  Dy  Dy14  1  0.092607  0.698760  0.636936  1
  Er  Er15  1  0.093999  0.302437  0.137899  1
  Er  Er16  1  0.998577  0.000685  0.499271  1
  Er  Er17  1  0.999410  0.001799  0.000795  1
  Er  Er18  1  0.495718  0.502306  0.001570  1
  Er  Er19  1  0.497589  0.504204  0.498531  1
  Ir  Ir20  1  0.652673  0.650599  0.250351  1
  Ir  Ir21  1  0.348722  0.347162  0.249390  1
  Ir  Ir22  1  0.346039  0.653988  0.749985  1
  Ir  Ir23  1  0.499306  0.999172  0.111791  1
  Ir  Ir24  1  0.499179  0.000341  0.612644  1
  Ir  Ir25  1  0.000024  0.500338  0.887583  1
  Ir  Ir26  1  0.001054  0.500212  0.387766  1
  Au  Au27  1  0.843030  0.157491  0.249860  1
  Au  Au28  1  0.844745  0.846728  0.750568  1
  Au  Au29  1  0.153061  0.155690  0.750621  1
  Au  Au30  1  0.154935  0.845039  0.249988  1
  Au  Au31  1  0.655181  0.344783  0.750011  1
