# generated using pymatgen
data_Hf12Zn9Ag3C4
_symmetry_space_group_name_H-M   'P 1'
_cell_length_a   8.63972922
_cell_length_b   8.63973053
_cell_length_c   8.63972672
_cell_angle_alpha   60.03814294
_cell_angle_beta   60.03819834
_cell_angle_gamma   60.03817641
_symmetry_Int_Tables_number   1
_chemical_formula_structural   Hf12Zn9Ag3C4
_chemical_formula_sum   'Hf12 Zn9 Ag3 C4'
_cell_volume   456.41609522
_cell_formula_units_Z   1
loop_
 _symmetry_equiv_pos_site_id
 _symmetry_equiv_pos_as_xyz
  1  'x, y, z'
loop_
 _atom_site_type_symbol
 _atom_site_label
 _atom_site_symmetry_multiplicity
 _atom_site_fract_x
 _atom_site_fract_y
 _atom_site_fract_z
 _atom_site_occupancy
  Hf  Hf0  1  0.436602  0.436600  0.063887  1
  Hf  Hf1  1  0.064039  0.435981  0.064036  1
  Hf  Hf2  1  0.435981  0.064038  0.064038  1
  Hf  Hf3  1  0.064039  0.064037  0.435982  1
  Hf  Hf4  1  0.436601  0.063887  0.436600  1
  Hf  Hf5  1  0.063887  0.436601  0.436602  1
  Hf  Hf6  1  0.813398  0.813400  0.186113  1
  Hf  Hf7  1  0.185961  0.814019  0.185964  1
  Hf  Hf8  1  0.814019  0.185962  0.185962  1
  Hf  Hf9  1  0.185961  0.185963  0.814018  1
  Hf  Hf10  1  0.813399  0.186113  0.813400  1
  Hf  Hf11  1  0.186113  0.813399  0.813398  1
  Zn  Zn12  1  0.831169  0.831169  0.500848  1
  Zn  Zn13  1  0.831169  0.500847  0.831169  1
  Zn  Zn14  1  0.500849  0.831170  0.831169  1
  Zn  Zn15  1  0.833519  0.833520  0.833520  1
  Zn  Zn16  1  0.418831  0.418831  0.749152  1
  Zn  Zn17  1  0.418831  0.749153  0.418831  1
  Zn  Zn18  1  0.749151  0.418830  0.418831  1
  Zn  Zn19  1  0.416481  0.416480  0.416480  1
  Zn  Zn20  1  0.625000  0.625000  0.625000  1
  Ag  Ag21  1  0.625000  0.625000  0.125000  1
  Ag  Ag22  1  0.625000  0.125000  0.625000  1
  Ag  Ag23  1  0.125000  0.625000  0.625000  1
  C  C24  1  0.125000  0.125000  0.625000  1
  C  C25  1  0.125000  0.625000  0.125000  1
  C  C26  1  0.625000  0.125000  0.125000  1
  C  C27  1  0.125000  0.125000  0.125000  1
