# generated using pymatgen
data_La3AlIn2Pd3
_symmetry_space_group_name_H-M   'P 1'
_cell_length_a   7.56644400
_cell_length_b   7.65008951
_cell_length_c   4.31651600
_cell_angle_alpha   90.00000000
_cell_angle_beta   90.00000000
_cell_angle_gamma   119.63894576
_symmetry_Int_Tables_number   1
_chemical_formula_structural   La3AlIn2Pd3
_chemical_formula_sum   'La3 Al1 In2 Pd3'
_cell_volume   217.16554178
_cell_formula_units_Z   1
loop_
 _symmetry_equiv_pos_site_id
 _symmetry_equiv_pos_as_xyz
  1  'x, y, z'
loop_
 _atom_site_type_symbol
 _atom_site_label
 _atom_site_symmetry_multiplicity
 _atom_site_fract_x
 _atom_site_fract_y
 _atom_site_fract_z
 _atom_site_occupancy
  La  La0  1  0.001527  0.587206  0.500000  1
  La  La1  1  0.414320  0.412794  0.500000  1
  La  La2  1  0.574658  0.000000  0.500000  1
  Al  Al3  1  0.239877  0.000000  0.000000  1
  In  In4  1  0.998537  0.239249  0.000000  1
  In  In5  1  0.759288  0.760751  0.000000  1
  Pd  Pd6  1  0.035611  0.000000  0.500000  1
  Pd  Pd7  1  0.327630  0.679079  0.000000  1
  Pd  Pd8  1  0.648552  0.320921  0.000000  1
