# generated using pymatgen
data_Ba3Ni2IrN3
_symmetry_space_group_name_H-M   'P 1'
_cell_length_a   5.48254900
_cell_length_b   9.86021000
_cell_length_c   14.02563400
_cell_angle_alpha   90.00000000
_cell_angle_beta   90.00000000
_cell_angle_gamma   90.00000000
_symmetry_Int_Tables_number   1
_chemical_formula_structural   Ba3Ni2IrN3
_chemical_formula_sum   'Ba12 Ni8 Ir4 N12'
_cell_volume   758.21293323
_cell_formula_units_Z   4
loop_
 _symmetry_equiv_pos_site_id
 _symmetry_equiv_pos_as_xyz
  1  'x, y, z'
loop_
 _atom_site_type_symbol
 _atom_site_label
 _atom_site_symmetry_multiplicity
 _atom_site_fract_x
 _atom_site_fract_y
 _atom_site_fract_z
 _atom_site_occupancy
  Ba  Ba0  1  0.478201  0.505965  0.745382  1
  Ba  Ba1  1  0.978201  0.994035  0.254618  1
  Ba  Ba2  1  0.021799  0.005965  0.754618  1
  Ba  Ba3  1  0.521799  0.494035  0.245382  1
  Ba  Ba4  1  0.967754  0.324521  0.410770  1
  Ba  Ba5  1  0.467754  0.175479  0.589230  1
  Ba  Ba6  1  0.532246  0.824521  0.089230  1
  Ba  Ba7  1  0.032246  0.675479  0.910770  1
  Ba  Ba8  1  0.025880  0.672086  0.587338  1
  Ba  Ba9  1  0.525880  0.827914  0.412662  1
  Ba  Ba10  1  0.474120  0.172086  0.912662  1
  Ba  Ba11  1  0.974120  0.327914  0.087338  1
  Ni  Ni12  1  0.560500  0.856950  0.840239  1
  Ni  Ni13  1  0.060500  0.643050  0.159761  1
  Ni  Ni14  1  0.939500  0.356950  0.659761  1
  Ni  Ni15  1  0.439500  0.143050  0.340239  1
  Ni  Ni16  1  0.001237  0.999980  0.999035  1
  Ni  Ni17  1  0.501237  0.500020  0.000965  1
  Ni  Ni18  1  0.498763  0.499980  0.500965  1
  Ni  Ni19  1  0.998763  0.000020  0.499035  1
  Ir  Ir20  1  0.437495  0.143192  0.165734  1
  Ir  Ir21  1  0.937495  0.356808  0.834266  1
  Ir  Ir22  1  0.062505  0.643192  0.334266  1
  Ir  Ir23  1  0.562505  0.856808  0.665734  1
  N  N24  1  0.334133  0.776843  0.754708  1
  N  N25  1  0.834133  0.723157  0.245292  1
  N  N26  1  0.165867  0.276843  0.745292  1
  N  N27  1  0.665867  0.223157  0.254708  1
  N  N28  1  0.230665  0.074015  0.427032  1
  N  N29  1  0.730665  0.425985  0.572968  1
  N  N30  1  0.269335  0.574015  0.072968  1
  N  N31  1  0.769335  0.925985  0.927032  1
  N  N32  1  0.777367  0.930105  0.575716  1
  N  N33  1  0.277367  0.569895  0.424284  1
  N  N34  1  0.722633  0.430105  0.924284  1
  N  N35  1  0.222633  0.069895  0.075716  1
