# generated using pymatgen
data_NdEu3MnMo3O14
_symmetry_space_group_name_H-M   'P 1'
_cell_length_a   7.53947065
_cell_length_b   7.53947077
_cell_length_c   7.39372854
_cell_angle_alpha   59.34576617
_cell_angle_beta   59.34576991
_cell_angle_gamma   60.00001010
_symmetry_Int_Tables_number   1
_chemical_formula_structural   NdEu3MnMo3O14
_chemical_formula_sum   'Nd1 Eu3 Mn1 Mo3 O14'
_cell_volume   294.21451833
_cell_formula_units_Z   1
loop_
 _symmetry_equiv_pos_site_id
 _symmetry_equiv_pos_as_xyz
  1  'x, y, z'
loop_
 _atom_site_type_symbol
 _atom_site_label
 _atom_site_symmetry_multiplicity
 _atom_site_fract_x
 _atom_site_fract_y
 _atom_site_fract_z
 _atom_site_occupancy
  Nd  Nd0  1  0.125000  0.125000  0.625000  1
  Eu  Eu1  1  0.125000  0.625000  0.125000  1
  Eu  Eu2  1  0.625000  0.125000  0.125000  1
  Eu  Eu3  1  0.125000  0.125000  0.125000  1
  Mn  Mn4  1  0.625000  0.625000  0.125000  1
  Mo  Mo5  1  0.625000  0.625000  0.625000  1
  Mo  Mo6  1  0.125000  0.625000  0.625000  1
  Mo  Mo7  1  0.625000  0.125000  0.625000  1
  O  O8  1  0.297178  0.712820  0.692824  1
  O  O9  1  0.545939  0.966319  0.941803  1
  O  O10  1  0.704061  0.704061  0.308197  1
  O  O11  1  0.297178  0.297178  0.692824  1
  O  O12  1  0.997140  0.997140  0.008580  1
  O  O13  1  0.283681  0.704061  0.308197  1
  O  O14  1  0.712820  0.297178  0.692824  1
  O  O15  1  0.966319  0.545939  0.941803  1
  O  O16  1  0.545939  0.545939  0.941803  1
  O  O17  1  0.952822  0.952822  0.557176  1
  O  O18  1  0.252860  0.252860  0.241420  1
  O  O19  1  0.537180  0.952822  0.557176  1
  O  O20  1  0.704061  0.283681  0.308197  1
  O  O21  1  0.952822  0.537180  0.557176  1
