# generated using pymatgen
data_Ho4Sc4Ir3Pt
_symmetry_space_group_name_H-M   'P 1'
_cell_length_a   4.26929900
_cell_length_b   7.14507221
_cell_length_c   8.70321686
_cell_angle_alpha   88.91705553
_cell_angle_beta   90.00000000
_cell_angle_gamma   90.00000000
_symmetry_Int_Tables_number   1
_chemical_formula_structural   Ho4Sc4Ir3Pt
_chemical_formula_sum   'Ho4 Sc4 Ir3 Pt1'
_cell_volume   265.43941985
_cell_formula_units_Z   1
loop_
 _symmetry_equiv_pos_site_id
 _symmetry_equiv_pos_as_xyz
  1  'x, y, z'
loop_
 _atom_site_type_symbol
 _atom_site_label
 _atom_site_symmetry_multiplicity
 _atom_site_fract_x
 _atom_site_fract_y
 _atom_site_fract_z
 _atom_site_occupancy
  Ho  Ho0  1  0.250000  0.011149  0.670075  1
  Ho  Ho1  1  0.250000  0.524539  0.823332  1
  Ho  Ho2  1  0.750000  0.985191  0.329528  1
  Ho  Ho3  1  0.750000  0.483689  0.176821  1
  Sc  Sc4  1  0.250000  0.138283  0.070556  1
  Sc  Sc5  1  0.250000  0.641443  0.432921  1
  Sc  Sc6  1  0.750000  0.859735  0.935518  1
  Sc  Sc7  1  0.750000  0.357330  0.565551  1
  Ir  Ir8  1  0.250000  0.259139  0.393215  1
  Ir  Ir9  1  0.250000  0.755131  0.100750  1
  Ir  Ir10  1  0.750000  0.739230  0.606909  1
  Pt  Pt11  1  0.750000  0.245140  0.894824  1
