# generated using pymatgen
data_Ta4Nb2PtRh17
_symmetry_space_group_name_H-M   'P 1'
_cell_length_a   5.55284800
_cell_length_b   5.54300740
_cell_length_c   13.46397316
_cell_angle_alpha   89.88556496
_cell_angle_beta   90.00000000
_cell_angle_gamma   120.05874445
_symmetry_Int_Tables_number   1
_chemical_formula_structural   Ta4Nb2PtRh17
_chemical_formula_sum   'Ta4 Nb2 Pt1 Rh17'
_cell_volume   358.67951362
_cell_formula_units_Z   1
loop_
 _symmetry_equiv_pos_site_id
 _symmetry_equiv_pos_as_xyz
  1  'x, y, z'
loop_
 _atom_site_type_symbol
 _atom_site_label
 _atom_site_symmetry_multiplicity
 _atom_site_fract_x
 _atom_site_fract_y
 _atom_site_fract_z
 _atom_site_occupancy
  Ta  Ta0  1  0.000238  0.000476  0.250701  1
  Ta  Ta1  1  0.998065  0.996128  0.747433  1
  Ta  Ta2  1  0.333157  0.666316  0.411089  1
  Ta  Ta3  1  0.666707  0.333414  0.588663  1
  Nb  Nb4  1  0.666488  0.332976  0.911014  1
  Nb  Nb5  1  0.334981  0.669963  0.091052  1
  Pt  Pt6  1  0.166074  0.332148  0.917549  1
  Rh  Rh7  1  0.504294  0.497209  0.250392  1
  Rh  Rh8  1  0.504604  0.009209  0.250065  1
  Rh  Rh9  1  0.992916  0.497209  0.250392  1
  Rh  Rh10  1  0.496279  0.503343  0.749261  1
  Rh  Rh11  1  0.495916  0.991833  0.749508  1
  Rh  Rh12  1  0.007064  0.503343  0.749261  1
  Rh  Rh13  1  0.669470  0.834643  0.917132  1
  Rh  Rh14  1  0.165174  0.834643  0.917132  1
  Rh  Rh15  1  0.834788  0.669576  0.083182  1
  Rh  Rh16  1  0.330957  0.164756  0.083724  1
  Rh  Rh17  1  0.833798  0.164756  0.083724  1
  Rh  Rh18  1  0.834389  0.668778  0.417149  1
  Rh  Rh19  1  0.331282  0.165247  0.417192  1
  Rh  Rh20  1  0.833963  0.165247  0.417192  1
  Rh  Rh21  1  0.165575  0.331151  0.582412  1
  Rh  Rh22  1  0.668422  0.833818  0.582390  1
  Rh  Rh23  1  0.165396  0.833818  0.582390  1
