# generated using pymatgen
data_Th3MgCd2C
_symmetry_space_group_name_H-M   'P 1'
_cell_length_a   9.85179770
_cell_length_b   9.85179765
_cell_length_c   9.85179700
_cell_angle_alpha   59.99999884
_cell_angle_beta   59.99999901
_cell_angle_gamma   59.99999917
_symmetry_Int_Tables_number   1
_chemical_formula_structural   Th3MgCd2C
_chemical_formula_sum   'Th12 Mg4 Cd8 C4'
_cell_volume   676.13188315
_cell_formula_units_Z   4
loop_
 _symmetry_equiv_pos_site_id
 _symmetry_equiv_pos_as_xyz
  1  'x, y, z'
loop_
 _atom_site_type_symbol
 _atom_site_label
 _atom_site_symmetry_multiplicity
 _atom_site_fract_x
 _atom_site_fract_y
 _atom_site_fract_z
 _atom_site_occupancy
  Th  Th0  1  0.436211  0.436211  0.063789  1
  Th  Th1  1  0.063789  0.436211  0.063789  1
  Th  Th2  1  0.436211  0.063789  0.063789  1
  Th  Th3  1  0.063789  0.063789  0.436211  1
  Th  Th4  1  0.436211  0.063789  0.436211  1
  Th  Th5  1  0.063789  0.436211  0.436211  1
  Th  Th6  1  0.813789  0.813789  0.186211  1
  Th  Th7  1  0.186211  0.813789  0.186211  1
  Th  Th8  1  0.813789  0.186211  0.186211  1
  Th  Th9  1  0.186211  0.186211  0.813789  1
  Th  Th10  1  0.813789  0.186211  0.813789  1
  Th  Th11  1  0.186211  0.813789  0.813789  1
  Mg  Mg12  1  0.625000  0.625000  0.125000  1
  Mg  Mg13  1  0.625000  0.125000  0.625000  1
  Mg  Mg14  1  0.125000  0.625000  0.625000  1
  Mg  Mg15  1  0.625000  0.625000  0.625000  1
  Cd  Cd16  1  0.829717  0.829717  0.510849  1
  Cd  Cd17  1  0.829717  0.510849  0.829717  1
  Cd  Cd18  1  0.510849  0.829717  0.829717  1
  Cd  Cd19  1  0.829717  0.829717  0.829717  1
  Cd  Cd20  1  0.420283  0.420283  0.739151  1
  Cd  Cd21  1  0.420283  0.739151  0.420283  1
  Cd  Cd22  1  0.739151  0.420283  0.420283  1
  Cd  Cd23  1  0.420283  0.420283  0.420283  1
  C  C24  1  0.125000  0.125000  0.625000  1
  C  C25  1  0.125000  0.625000  0.125000  1
  C  C26  1  0.625000  0.125000  0.125000  1
  C  C27  1  0.125000  0.125000  0.125000  1
