# generated using pymatgen
data_KH3Au
_symmetry_space_group_name_H-M   'P 1'
_cell_length_a   5.77444022
_cell_length_b   5.77443996
_cell_length_c   5.77443976
_cell_angle_alpha   115.47298237
_cell_angle_beta   115.47297953
_cell_angle_gamma   98.03796842
_symmetry_Int_Tables_number   1
_chemical_formula_structural   KH3Au
_chemical_formula_sum   'K2 H6 Au2'
_cell_volume   143.92846943
_cell_formula_units_Z   2
loop_
 _symmetry_equiv_pos_site_id
 _symmetry_equiv_pos_as_xyz
  1  'x, y, z'
loop_
 _atom_site_type_symbol
 _atom_site_label
 _atom_site_symmetry_multiplicity
 _atom_site_fract_x
 _atom_site_fract_y
 _atom_site_fract_z
 _atom_site_occupancy
  K  K0  1  0.750000  0.750000  0.000000  1
  K  K1  1  0.250000  0.250000  0.000000  1
  H  H2  1  0.806880  0.306880  0.113760  1
  H  H3  1  0.750000  0.250000  0.500000  1
  H  H4  1  0.693120  0.806880  0.500000  1
  H  H5  1  0.250000  0.750000  0.500000  1
  H  H6  1  0.306880  0.193120  0.500000  1
  H  H7  1  0.193120  0.693120  0.886240  1
  Au  Au8  1  0.500000  0.000000  0.500000  1
  Au  Au9  1  0.000000  0.500000  0.500000  1
