# generated using pymatgen
data_Tm3Al3ZnGePt
_symmetry_space_group_name_H-M   'P 1'
_cell_length_a   6.91343900
_cell_length_b   6.91343942
_cell_length_c   4.21425200
_cell_angle_alpha   90.00000000
_cell_angle_beta   90.00000000
_cell_angle_gamma   120.00000277
_symmetry_Int_Tables_number   1
_chemical_formula_structural   Tm3Al3ZnGePt
_chemical_formula_sum   'Tm3 Al3 Zn1 Ge1 Pt1'
_cell_volume   174.43732502
_cell_formula_units_Z   1
loop_
 _symmetry_equiv_pos_site_id
 _symmetry_equiv_pos_as_xyz
  1  'x, y, z'
loop_
 _atom_site_type_symbol
 _atom_site_label
 _atom_site_symmetry_multiplicity
 _atom_site_fract_x
 _atom_site_fract_y
 _atom_site_fract_z
 _atom_site_occupancy
  Tm  Tm0  1  0.419521  0.002091  0.000000  1
  Tm  Tm1  1  0.997909  0.417430  0.000000  1
  Tm  Tm2  1  0.582570  0.580479  0.000000  1
  Al  Al3  1  0.767707  0.008903  0.499999  1
  Al  Al4  1  0.241196  0.232292  0.499999  1
  Al  Al5  1  0.991097  0.758805  0.499999  1
  Zn  Zn6  1  0.666666  0.333333  0.499999  1
  Ge  Ge7  1  0.333333  0.666667  0.499999  1
  Pt  Pt8  1  0.000000  0.000000  0.000000  1
