# generated using pymatgen
data_Sc3Ti3Si2Se
_symmetry_space_group_name_H-M   'P 1'
_cell_length_a   6.99093700
_cell_length_b   6.99093795
_cell_length_c   3.86094200
_cell_angle_alpha   90.00000000
_cell_angle_beta   90.00000000
_cell_angle_gamma   119.99998131
_symmetry_Int_Tables_number   1
_chemical_formula_structural   Sc3Ti3Si2Se
_chemical_formula_sum   'Sc3 Ti3 Si2 Se1'
_cell_volume   163.41609444
_cell_formula_units_Z   1
loop_
 _symmetry_equiv_pos_site_id
 _symmetry_equiv_pos_as_xyz
  1  'x, y, z'
loop_
 _atom_site_type_symbol
 _atom_site_label
 _atom_site_symmetry_multiplicity
 _atom_site_fract_x
 _atom_site_fract_y
 _atom_site_fract_z
 _atom_site_occupancy
  Sc  Sc0  1  0.397118  0.406615  0.500000  1
  Sc  Sc1  1  0.593385  0.990503  0.500000  1
  Sc  Sc2  1  0.009497  0.602882  0.500000  1
  Ti  Ti3  1  0.761967  0.765825  0.000000  1
  Ti  Ti4  1  0.234175  0.996141  0.000000  1
  Ti  Ti5  1  0.003859  0.238033  0.000000  1
  Si  Si6  1  0.333333  0.666667  0.000000  1
  Si  Si7  1  0.000000  0.000000  0.500000  1
  Se  Se8  1  0.666667  0.333333  0.000000  1
