# generated using pymatgen
data_DyHo7Ti3Si16W9
_symmetry_space_group_name_H-M   'P 1'
_cell_length_a   6.89273455
_cell_length_b   6.89278075
_cell_length_c   12.79175565
_cell_angle_alpha   89.98635972
_cell_angle_beta   90.00792525
_cell_angle_gamma   89.87479943
_symmetry_Int_Tables_number   1
_chemical_formula_structural   DyHo7Ti3Si16W9
_chemical_formula_sum   'Dy1 Ho7 Ti3 Si16 W9'
_cell_volume   607.73621919
_cell_formula_units_Z   1
loop_
 _symmetry_equiv_pos_site_id
 _symmetry_equiv_pos_as_xyz
  1  'x, y, z'
loop_
 _atom_site_type_symbol
 _atom_site_label
 _atom_site_symmetry_multiplicity
 _atom_site_fract_x
 _atom_site_fract_y
 _atom_site_fract_z
 _atom_site_occupancy
  Dy  Dy0  1  0.339397  0.002244  0.468569  1
  Ho  Ho1  1  0.497004  0.838297  0.719241  1
  Ho  Ho2  1  0.499640  0.161798  0.217519  1
  Ho  Ho3  1  0.838308  0.496964  0.280793  1
  Ho  Ho4  1  0.161755  0.499608  0.782457  1
  Ho  Ho5  1  0.659848  0.999223  0.968757  1
  Ho  Ho6  1  0.001946  0.339566  0.531431  1
  Ho  Ho7  1  0.999191  0.659828  0.031224  1
  Ti  Ti8  1  0.170516  0.831285  0.248572  1
  Ti  Ti9  1  0.831321  0.170554  0.751385  1
  Ti  Ti10  1  0.669162  0.669088  0.500024  1
  Si  Si11  1  0.200288  0.129738  0.683128  1
  Si  Si12  1  0.372727  0.698472  0.933268  1
  Si  Si13  1  0.629561  0.299160  0.433271  1
  Si  Si14  1  0.698481  0.372725  0.066724  1
  Si  Si15  1  0.298953  0.629063  0.566809  1
  Si  Si16  1  0.797406  0.871340  0.183731  1
  Si  Si17  1  0.129462  0.200591  0.316836  1
  Si  Si18  1  0.871351  0.797412  0.816255  1
  Si  Si19  1  0.289052  0.962458  0.062432  1
  Si  Si20  1  0.540015  0.791553  0.313767  1
  Si  Si21  1  0.458870  0.209213  0.814214  1
  Si  Si22  1  0.791746  0.539833  0.686124  1
  Si  Si23  1  0.209199  0.458852  0.185765  1
  Si  Si24  1  0.709688  0.041061  0.564058  1
  Si  Si25  1  0.962423  0.289040  0.937553  1
  Si  Si26  1  0.040801  0.709179  0.436034  1
  W  W27  1  0.331407  0.331392  0.999984  1
  W  W28  1  0.158131  0.002572  0.873617  1
  W  W29  1  0.494977  0.664919  0.124601  1
  W  W30  1  0.505433  0.340481  0.624834  1
  W  W31  1  0.664968  0.494977  0.875355  1
  W  W32  1  0.340348  0.505316  0.375235  1
  W  W33  1  0.840015  0.994129  0.374309  1
  W  W34  1  0.002534  0.158131  0.126359  1
  W  W35  1  0.994075  0.839939  0.625765  1
