# generated using pymatgen
data_Dy3CoNi7MoP6
_symmetry_space_group_name_H-M   'P 1'
_cell_length_a   3.77015100
_cell_length_b   10.65976700
_cell_length_c   12.35271700
_cell_angle_alpha   90.00000000
_cell_angle_beta   90.00000000
_cell_angle_gamma   90.00000000
_symmetry_Int_Tables_number   1
_chemical_formula_structural   Dy3CoNi7MoP6
_chemical_formula_sum   'Dy6 Co2 Ni14 Mo2 P12'
_cell_volume   496.44249383
_cell_formula_units_Z   2
loop_
 _symmetry_equiv_pos_site_id
 _symmetry_equiv_pos_as_xyz
  1  'x, y, z'
loop_
 _atom_site_type_symbol
 _atom_site_label
 _atom_site_symmetry_multiplicity
 _atom_site_fract_x
 _atom_site_fract_y
 _atom_site_fract_z
 _atom_site_occupancy
  Dy  Dy0  1  0.000000  0.500000  0.524926  1
  Dy  Dy1  1  0.500000  0.000000  0.475074  1
  Dy  Dy2  1  0.500000  0.818993  0.206828  1
  Dy  Dy3  1  0.500000  0.181007  0.206828  1
  Dy  Dy4  1  0.000000  0.681007  0.793172  1
  Dy  Dy5  1  0.000000  0.318993  0.793172  1
  Co  Co6  1  0.000000  0.500000  0.985206  1
  Co  Co7  1  0.500000  0.000000  0.014794  1
  Ni  Ni8  1  0.500000  0.500000  0.701897  1
  Ni  Ni9  1  0.000000  0.000000  0.298103  1
  Ni  Ni10  1  0.500000  0.332233  0.988297  1
  Ni  Ni11  1  0.500000  0.667767  0.988297  1
  Ni  Ni12  1  0.000000  0.167767  0.011703  1
  Ni  Ni13  1  0.000000  0.832233  0.011703  1
  Ni  Ni14  1  0.500000  0.302765  0.427824  1
  Ni  Ni15  1  0.500000  0.697235  0.427824  1
  Ni  Ni16  1  0.000000  0.197235  0.572176  1
  Ni  Ni17  1  0.000000  0.802765  0.572176  1
  Ni  Ni18  1  0.500000  0.878924  0.709418  1
  Ni  Ni19  1  0.500000  0.121076  0.709418  1
  Ni  Ni20  1  0.000000  0.621076  0.290582  1
  Ni  Ni21  1  0.000000  0.378924  0.290582  1
  Mo  Mo22  1  0.500000  0.500000  0.153222  1
  Mo  Mo23  1  0.000000  0.000000  0.846778  1
  P  P24  1  0.500000  0.500000  0.880015  1
  P  P25  1  0.000000  0.000000  0.119985  1
  P  P26  1  0.500000  0.500000  0.348732  1
  P  P27  1  0.000000  0.000000  0.651268  1
  P  P28  1  0.500000  0.314054  0.614087  1
  P  P29  1  0.500000  0.685946  0.614087  1
  P  P30  1  0.000000  0.185946  0.385913  1
  P  P31  1  0.000000  0.814054  0.385913  1
  P  P32  1  0.500000  0.846493  0.892952  1
  P  P33  1  0.500000  0.153507  0.892952  1
  P  P34  1  0.000000  0.653507  0.107048  1
  P  P35  1  0.000000  0.346493  0.107048  1
