# generated using pymatgen
data_Dy8Ti5Si16Mo4W3
_symmetry_space_group_name_H-M   'P 1'
_cell_length_a   6.93204996
_cell_length_b   6.93912102
_cell_length_c   12.84532315
_cell_angle_alpha   90.01877685
_cell_angle_beta   90.12180639
_cell_angle_gamma   89.98130329
_symmetry_Int_Tables_number   1
_chemical_formula_structural   Dy8Ti5Si16Mo4W3
_chemical_formula_sum   'Dy8 Ti5 Si16 Mo4 W3'
_cell_volume   617.88855686
_cell_formula_units_Z   1
loop_
 _symmetry_equiv_pos_site_id
 _symmetry_equiv_pos_as_xyz
  1  'x, y, z'
loop_
 _atom_site_type_symbol
 _atom_site_label
 _atom_site_symmetry_multiplicity
 _atom_site_fract_x
 _atom_site_fract_y
 _atom_site_fract_z
 _atom_site_occupancy
  Dy  Dy0  1  0.997974  0.659687  0.032762  1
  Dy  Dy1  1  0.003459  0.340020  0.530873  1
  Dy  Dy2  1  0.659223  0.997238  0.968764  1
  Dy  Dy3  1  0.159986  0.502917  0.781902  1
  Dy  Dy4  1  0.839118  0.496121  0.281153  1
  Dy  Dy5  1  0.502944  0.159446  0.218356  1
  Dy  Dy6  1  0.496550  0.840895  0.717247  1
  Dy  Dy7  1  0.340093  0.002444  0.468507  1
  Ti  Ti8  1  0.670793  0.670038  0.499667  1
  Ti  Ti9  1  0.832029  0.170107  0.749272  1
  Ti  Ti10  1  0.169824  0.829685  0.249610  1
  Ti  Ti11  1  0.327834  0.327829  0.000590  1
  Ti  Ti12  1  0.658834  0.493983  0.875884  1
  Si  Si13  1  0.041778  0.710590  0.436768  1
  Si  Si14  1  0.957209  0.289147  0.937655  1
  Si  Si15  1  0.711411  0.041086  0.562730  1
  Si  Si16  1  0.210835  0.458399  0.187321  1
  Si  Si17  1  0.789122  0.543486  0.687155  1
  Si  Si18  1  0.457199  0.211118  0.813358  1
  Si  Si19  1  0.541096  0.789330  0.312934  1
  Si  Si20  1  0.289265  0.958026  0.062794  1
  Si  Si21  1  0.798815  0.871344  0.183820  1
  Si  Si22  1  0.299592  0.627335  0.566256  1
  Si  Si23  1  0.700289  0.372430  0.065846  1
  Si  Si24  1  0.628923  0.299045  0.433532  1
  Si  Si25  1  0.370701  0.701834  0.934067  1
  Si  Si26  1  0.129435  0.199606  0.316594  1
  Si  Si27  1  0.200628  0.130132  0.684091  1
  Si  Si28  1  0.870923  0.800504  0.815253  1
  Mo  Mo29  1  0.995637  0.842291  0.624507  1
  Mo  Mo30  1  0.508803  0.339544  0.623427  1
  Mo  Mo31  1  0.158942  0.007075  0.873639  1
  Mo  Mo32  1  0.491436  0.660235  0.125565  1
  W  W33  1  0.340504  0.506324  0.376244  1
  W  W34  1  0.840525  0.992571  0.374378  1
  W  W35  1  0.008272  0.158136  0.127476  1
