# generated using pymatgen
data_YbCe3ErIr3
_symmetry_space_group_name_H-M   'P 1'
_cell_length_a   8.22710500
_cell_length_b   8.22710444
_cell_length_c   6.45620800
_cell_angle_alpha   90.00000000
_cell_angle_beta   90.00000000
_cell_angle_gamma   120.00000625
_symmetry_Int_Tables_number   1
_chemical_formula_structural   YbCe3ErIr3
_chemical_formula_sum   'Yb2 Ce6 Er2 Ir6'
_cell_volume   378.44447467
_cell_formula_units_Z   2
loop_
 _symmetry_equiv_pos_site_id
 _symmetry_equiv_pos_as_xyz
  1  'x, y, z'
loop_
 _atom_site_type_symbol
 _atom_site_label
 _atom_site_symmetry_multiplicity
 _atom_site_fract_x
 _atom_site_fract_y
 _atom_site_fract_z
 _atom_site_occupancy
  Yb  Yb0  1  0.333333  0.666667  0.000000  1
  Yb  Yb1  1  0.666667  0.333333  0.000000  1
  Ce  Ce2  1  0.742937  0.742937  0.246108  1
  Ce  Ce3  1  0.257063  0.000000  0.246108  1
  Ce  Ce4  1  0.000000  0.257063  0.246108  1
  Ce  Ce5  1  0.257063  0.257063  0.753892  1
  Ce  Ce6  1  0.742937  0.000000  0.753892  1
  Ce  Ce7  1  0.000000  0.742937  0.753892  1
  Er  Er8  1  0.666667  0.333333  0.500000  1
  Er  Er9  1  0.333333  0.666667  0.500000  1
  Ir  Ir10  1  0.378089  0.378089  0.265911  1
  Ir  Ir11  1  0.621911  0.000000  0.265911  1
  Ir  Ir12  1  0.000000  0.621911  0.265911  1
  Ir  Ir13  1  0.621911  0.621911  0.734089  1
  Ir  Ir14  1  0.378089  0.000000  0.734089  1
  Ir  Ir15  1  0.000000  0.378089  0.734089  1
