# generated using pymatgen
data_CsTa2F11
_symmetry_space_group_name_H-M   'P 1'
_cell_length_a   7.92794500
_cell_length_b   9.79622446
_cell_length_c   14.65528500
_cell_angle_alpha   90.00000000
_cell_angle_beta   90.00000000
_cell_angle_gamma   112.93546121
_symmetry_Int_Tables_number   1
_chemical_formula_structural   CsTa2F11
_chemical_formula_sum   'Cs4 Ta8 F44'
_cell_volume   1048.20694605
_cell_formula_units_Z   4
loop_
 _symmetry_equiv_pos_site_id
 _symmetry_equiv_pos_as_xyz
  1  'x, y, z'
loop_
 _atom_site_type_symbol
 _atom_site_label
 _atom_site_symmetry_multiplicity
 _atom_site_fract_x
 _atom_site_fract_y
 _atom_site_fract_z
 _atom_site_occupancy
  Cs  Cs0  1  0.985812  0.725590  0.372431  1
  Cs  Cs1  1  0.014188  0.274410  0.627569  1
  Cs  Cs2  1  0.485812  0.225590  0.127569  1
  Cs  Cs3  1  0.514188  0.774410  0.872431  1
  Ta  Ta4  1  0.021274  0.756198  0.049617  1
  Ta  Ta5  1  0.978726  0.243802  0.950383  1
  Ta  Ta6  1  0.521274  0.256198  0.450383  1
  Ta  Ta7  1  0.414229  0.690554  0.195482  1
  Ta  Ta8  1  0.585771  0.309446  0.804518  1
  Ta  Ta9  1  0.085771  0.809446  0.695482  1
  Ta  Ta10  1  0.914229  0.190554  0.304518  1
  Ta  Ta11  1  0.478726  0.743802  0.549617  1
  F  F12  1  0.115781  0.995286  0.641565  1
  F  F13  1  0.930566  0.348663  0.049639  1
  F  F14  1  0.610429  0.659264  0.478633  1
  F  F15  1  0.632122  0.718566  0.257470  1
  F  F16  1  0.367878  0.281434  0.742530  1
  F  F17  1  0.168873  0.660050  0.126800  1
  F  F18  1  0.132122  0.218566  0.242530  1
  F  F19  1  0.758373  0.089218  0.205696  1
  F  F20  1  0.867878  0.781434  0.757470  1
  F  F21  1  0.389571  0.340736  0.521367  1
  F  F22  1  0.241627  0.910782  0.794304  1
  F  F23  1  0.486864  0.645668  0.661717  1
  F  F24  1  0.430566  0.848663  0.450361  1
  F  F25  1  0.615781  0.495286  0.858435  1
  F  F26  1  0.890680  0.368032  0.265137  1
  F  F27  1  0.609320  0.131968  0.765137  1
  F  F28  1  0.569434  0.151337  0.549639  1
  F  F29  1  0.256738  0.911083  0.028133  1
  F  F30  1  0.970153  0.713416  0.585579  1
  F  F31  1  0.741627  0.410782  0.705696  1
  F  F32  1  0.309047  0.089935  0.413801  1
  F  F33  1  0.743262  0.088917  0.971867  1
  F  F34  1  0.986864  0.145668  0.838283  1
  F  F35  1  0.384219  0.504714  0.141565  1
  F  F36  1  0.258373  0.589218  0.294304  1
  F  F37  1  0.668873  0.160050  0.373200  1
  F  F38  1  0.190953  0.410065  0.913801  1
  F  F39  1  0.110429  0.159264  0.021367  1
  F  F40  1  0.884219  0.004714  0.358435  1
  F  F41  1  0.029847  0.286584  0.414421  1
  F  F42  1  0.809047  0.589935  0.086199  1
  F  F43  1  0.390680  0.868032  0.234863  1
  F  F44  1  0.069434  0.651337  0.950361  1
  F  F45  1  0.331127  0.839950  0.626800  1
  F  F46  1  0.109320  0.631968  0.734863  1
  F  F47  1  0.243262  0.588917  0.528133  1
  F  F48  1  0.690953  0.910065  0.586199  1
  F  F49  1  0.756738  0.411083  0.471867  1
  F  F50  1  0.889571  0.840736  0.978633  1
  F  F51  1  0.513136  0.354332  0.338283  1
  F  F52  1  0.013136  0.854332  0.161717  1
  F  F53  1  0.529847  0.786584  0.085579  1
  F  F54  1  0.831127  0.339950  0.873200  1
  F  F55  1  0.470153  0.213416  0.914421  1
