# generated using pymatgen
data_CeDy7(Si4Mo3)4
_symmetry_space_group_name_H-M   'P 1'
_cell_length_a   6.78491107
_cell_length_b   6.95122561
_cell_length_c   12.95548493
_cell_angle_alpha   90.07760235
_cell_angle_beta   90.00051345
_cell_angle_gamma   89.95801050
_symmetry_Int_Tables_number   1
_chemical_formula_structural   CeDy7(Si4Mo3)4
_chemical_formula_sum   'Ce1 Dy7 Si16 Mo12'
_cell_volume   611.02460999
_cell_formula_units_Z   1
loop_
 _symmetry_equiv_pos_site_id
 _symmetry_equiv_pos_as_xyz
  1  'x, y, z'
loop_
 _atom_site_type_symbol
 _atom_site_label
 _atom_site_symmetry_multiplicity
 _atom_site_fract_x
 _atom_site_fract_y
 _atom_site_fract_z
 _atom_site_occupancy
  Ce  Ce0  1  0.998266  0.167350  0.094602  1
  Dy  Dy1  1  0.496427  0.332569  0.093852  1
  Dy  Dy2  1  0.997053  0.165894  0.406436  1
  Dy  Dy3  1  0.502954  0.666334  0.594451  1
  Dy  Dy4  1  0.003357  0.835004  0.905452  1
  Dy  Dy5  1  0.502905  0.667181  0.904755  1
  Dy  Dy6  1  0.002173  0.833357  0.594443  1
  Dy  Dy7  1  0.497183  0.333630  0.406839  1
  Si  Si8  1  0.658007  0.042367  0.547245  1
  Si  Si9  1  0.159943  0.459002  0.952539  1
  Si  Si10  1  0.343110  0.954918  0.046215  1
  Si  Si11  1  0.842478  0.541706  0.452867  1
  Si  Si12  1  0.341816  0.957433  0.452963  1
  Si  Si13  1  0.839303  0.545866  0.045939  1
  Si  Si14  1  0.657806  0.043094  0.952046  1
  Si  Si15  1  0.158403  0.457806  0.547358  1
  Si  Si16  1  0.535498  0.364435  0.749585  1
  Si  Si17  1  0.035899  0.135731  0.749507  1
  Si  Si18  1  0.464783  0.635226  0.249662  1
  Si  Si19  1  0.963928  0.863036  0.251042  1
  Si  Si20  1  0.803364  0.628960  0.749859  1
  Si  Si21  1  0.303424  0.871380  0.749568  1
  Si  Si22  1  0.198244  0.372962  0.251645  1
  Si  Si23  1  0.694259  0.127630  0.251421  1
  Mo  Mo24  1  0.831943  0.334857  0.624892  1
  Mo  Mo25  1  0.331787  0.164498  0.874343  1
  Mo  Mo26  1  0.168077  0.663045  0.125886  1
  Mo  Mo27  1  0.668318  0.833430  0.375618  1
  Mo  Mo28  1  0.168796  0.665567  0.375339  1
  Mo  Mo29  1  0.668751  0.836318  0.125946  1
  Mo  Mo30  1  0.831952  0.335266  0.874633  1
  Mo  Mo31  1  0.330897  0.165122  0.624714  1
  Mo  Mo32  1  0.665924  0.999495  0.749778  1
  Mo  Mo33  1  0.165517  0.501672  0.750451  1
  Mo  Mo34  1  0.333283  0.001147  0.249187  1
  Mo  Mo35  1  0.834174  0.496710  0.248923  1
