# generated using pymatgen
data_Y3LuRe3Os5
_symmetry_space_group_name_H-M   'P 1'
_cell_length_a   5.33602723
_cell_length_b   5.33830378
_cell_length_c   8.92375412
_cell_angle_alpha   89.99999775
_cell_angle_beta   90.01594909
_cell_angle_gamma   120.01409771
_symmetry_Int_Tables_number   1
_chemical_formula_structural   Y3LuRe3Os5
_chemical_formula_sum   'Y3 Lu1 Re3 Os5'
_cell_volume   220.10900632
_cell_formula_units_Z   1
loop_
 _symmetry_equiv_pos_site_id
 _symmetry_equiv_pos_as_xyz
  1  'x, y, z'
loop_
 _atom_site_type_symbol
 _atom_site_label
 _atom_site_symmetry_multiplicity
 _atom_site_fract_x
 _atom_site_fract_y
 _atom_site_fract_z
 _atom_site_occupancy
  Y  Y0  1  0.337874  0.668937  0.434596  1
  Y  Y1  1  0.668962  0.334481  0.563098  1
  Y  Y2  1  0.669140  0.334570  0.937554  1
  Lu  Lu3  1  0.338140  0.669071  0.064985  1
  Re  Re4  1  0.164030  0.336118  0.751143  1
  Re  Re5  1  0.164030  0.827913  0.751143  1
  Re  Re6  1  0.330007  0.165004  0.248725  1
  Os  Os7  1  0.819672  0.648633  0.248358  1
  Os  Os8  1  0.644882  0.822442  0.751582  1
  Os  Os9  1  0.021981  0.010991  0.001282  1
  Os  Os10  1  0.819672  0.171038  0.248358  1
  Os  Os11  1  0.021608  0.010804  0.499174  1
