# generated using pymatgen
data_ErTcH5
_symmetry_space_group_name_H-M   'P 1'
_cell_length_a   4.59098100
_cell_length_b   4.33699200
_cell_length_c   11.55365500
_cell_angle_alpha   90.00000000
_cell_angle_beta   90.00000000
_cell_angle_gamma   90.00000000
_symmetry_Int_Tables_number   1
_chemical_formula_structural   ErTcH5
_chemical_formula_sum   'Er4 Tc4 H20'
_cell_volume   230.04537777
_cell_formula_units_Z   4
loop_
 _symmetry_equiv_pos_site_id
 _symmetry_equiv_pos_as_xyz
  1  'x, y, z'
loop_
 _atom_site_type_symbol
 _atom_site_label
 _atom_site_symmetry_multiplicity
 _atom_site_fract_x
 _atom_site_fract_y
 _atom_site_fract_z
 _atom_site_occupancy
  Er  Er0  1  0.249818  0.246281  0.646044  1
  Er  Er1  1  0.749818  0.253719  0.353956  1
  Er  Er2  1  0.250182  0.753719  0.146044  1
  Er  Er3  1  0.750182  0.746281  0.853956  1
  Tc  Tc4  1  0.249616  0.209712  0.913070  1
  Tc  Tc5  1  0.749616  0.290288  0.086930  1
  Tc  Tc6  1  0.250384  0.790288  0.413070  1
  Tc  Tc7  1  0.750384  0.709712  0.586930  1
  H  H8  1  0.484536  0.504819  0.498099  1
  H  H9  1  0.984536  0.995181  0.501901  1
  H  H10  1  0.015464  0.495181  0.998099  1
  H  H11  1  0.515464  0.004819  0.001901  1
  H  H12  1  0.250220  0.882730  0.833507  1
  H  H13  1  0.750220  0.617270  0.166493  1
  H  H14  1  0.249780  0.117270  0.333507  1
  H  H15  1  0.749780  0.382730  0.666493  1
  H  H16  1  0.982988  0.286010  0.812922  1
  H  H17  1  0.482988  0.213990  0.187078  1
  H  H18  1  0.517012  0.713990  0.312922  1
  H  H19  1  0.017012  0.786010  0.687078  1
  H  H20  1  0.515382  0.287905  0.812784  1
  H  H21  1  0.015382  0.212095  0.187216  1
  H  H22  1  0.984618  0.712095  0.312784  1
  H  H23  1  0.484618  0.787905  0.687216  1
  H  H24  1  0.984152  0.004675  0.002025  1
  H  H25  1  0.484152  0.495325  0.997975  1
  H  H26  1  0.515848  0.995325  0.502025  1
  H  H27  1  0.015848  0.504675  0.497975  1
