# generated using pymatgen
data_DyZr(ZnRh2)2
_symmetry_space_group_name_H-M   'P 1'
_cell_length_a   6.06862400
_cell_length_b   6.06764900
_cell_length_c   7.05156600
_cell_angle_alpha   90.00000000
_cell_angle_beta   90.00160691
_cell_angle_gamma   90.00000000
_symmetry_Int_Tables_number   1
_chemical_formula_structural   DyZr(ZnRh2)2
_chemical_formula_sum   'Dy2 Zr2 Zn4 Rh8'
_cell_volume   259.65474007
_cell_formula_units_Z   2
loop_
 _symmetry_equiv_pos_site_id
 _symmetry_equiv_pos_as_xyz
  1  'x, y, z'
loop_
 _atom_site_type_symbol
 _atom_site_label
 _atom_site_symmetry_multiplicity
 _atom_site_fract_x
 _atom_site_fract_y
 _atom_site_fract_z
 _atom_site_occupancy
  Dy  Dy0  1  0.750068  0.249999  0.999998  1
  Dy  Dy1  1  0.249932  0.750000  0.000002  1
  Zr  Zr2  1  0.250069  0.750000  0.500000  1
  Zr  Zr3  1  0.749931  0.249999  0.499999  1
  Zn  Zn4  1  0.250020  0.249999  0.999993  1
  Zn  Zn5  1  0.749980  0.750000  0.000007  1
  Zn  Zn6  1  0.749994  0.750000  0.499973  1
  Zn  Zn7  1  0.250006  0.249999  0.500026  1
  Rh  Rh8  1  0.499964  0.000020  0.259269  1
  Rh  Rh9  1  0.499964  0.499977  0.259269  1
  Rh  Rh10  1  0.999989  0.000004  0.259357  1
  Rh  Rh11  1  0.999989  0.499995  0.259357  1
  Rh  Rh12  1  0.000012  0.999996  0.740643  1
  Rh  Rh13  1  0.000012  0.500006  0.740643  1
  Rh  Rh14  1  0.500036  0.999980  0.740731  1
  Rh  Rh15  1  0.500036  0.500024  0.740731  1
