# generated using pymatgen
data_Sm4Ga4Cu3Ru
_symmetry_space_group_name_H-M   'P 1'
_cell_length_a   4.40390700
_cell_length_b   7.15269729
_cell_length_c   7.61565921
_cell_angle_alpha   88.88935366
_cell_angle_beta   90.00000000
_cell_angle_gamma   90.00000000
_symmetry_Int_Tables_number   1
_chemical_formula_structural   Sm4Ga4Cu3Ru
_chemical_formula_sum   'Sm4 Ga4 Cu3 Ru1'
_cell_volume   239.84677722
_cell_formula_units_Z   1
loop_
 _symmetry_equiv_pos_site_id
 _symmetry_equiv_pos_as_xyz
  1  'x, y, z'
loop_
 _atom_site_type_symbol
 _atom_site_label
 _atom_site_symmetry_multiplicity
 _atom_site_fract_x
 _atom_site_fract_y
 _atom_site_fract_z
 _atom_site_occupancy
  Sm  Sm0  1  0.250000  0.014390  0.797148  1
  Sm  Sm1  1  0.250000  0.518056  0.696678  1
  Sm  Sm2  1  0.750000  0.986831  0.212027  1
  Sm  Sm3  1  0.750000  0.496038  0.293862  1
  Ga  Ga4  1  0.250000  0.186580  0.420651  1
  Ga  Ga5  1  0.250000  0.689780  0.077160  1
  Ga  Ga6  1  0.750000  0.813250  0.585550  1
  Ga  Ga7  1  0.750000  0.314703  0.918042  1
  Cu  Cu8  1  0.250000  0.293854  0.088829  1
  Cu  Cu9  1  0.750000  0.209458  0.589066  1
  Cu  Cu10  1  0.750000  0.696314  0.911478  1
  Ru  Ru11  1  0.250000  0.780745  0.409509  1
