# generated using pymatgen
data_Nd8Co3Si12Ge
_symmetry_space_group_name_H-M   'P 1'
_cell_length_a   8.08967400
_cell_length_b   8.08967383
_cell_length_c   8.43892400
_cell_angle_alpha   90.00000000
_cell_angle_beta   90.00000000
_cell_angle_gamma   120.00000068
_symmetry_Int_Tables_number   1
_chemical_formula_structural   Nd8Co3Si12Ge
_chemical_formula_sum   'Nd8 Co3 Si12 Ge1'
_cell_volume   478.27726462
_cell_formula_units_Z   1
loop_
 _symmetry_equiv_pos_site_id
 _symmetry_equiv_pos_as_xyz
  1  'x, y, z'
loop_
 _atom_site_type_symbol
 _atom_site_label
 _atom_site_symmetry_multiplicity
 _atom_site_fract_x
 _atom_site_fract_y
 _atom_site_fract_z
 _atom_site_occupancy
  Nd  Nd0  1  0.000000  0.000000  0.744355  1
  Nd  Nd1  1  0.000000  0.000000  0.255375  1
  Nd  Nd2  1  0.500799  0.499201  0.745591  1
  Nd  Nd3  1  0.500799  0.001599  0.745591  1
  Nd  Nd4  1  0.998401  0.499201  0.745591  1
  Nd  Nd5  1  0.501702  0.498298  0.254614  1
  Nd  Nd6  1  0.996598  0.498298  0.254614  1
  Nd  Nd7  1  0.501702  0.003402  0.254614  1
  Co  Co8  1  0.666667  0.333333  0.997495  1
  Co  Co9  1  0.666667  0.333333  0.501862  1
  Co  Co10  1  0.333333  0.666667  0.498816  1
  Si  Si11  1  0.823907  0.176093  0.999811  1
  Si  Si12  1  0.823907  0.647815  0.999811  1
  Si  Si13  1  0.352185  0.176093  0.999811  1
  Si  Si14  1  0.828052  0.171948  0.500476  1
  Si  Si15  1  0.828052  0.656105  0.500476  1
  Si  Si16  1  0.343895  0.171948  0.500476  1
  Si  Si17  1  0.171985  0.828015  0.499556  1
  Si  Si18  1  0.656030  0.828015  0.499556  1
  Si  Si19  1  0.171985  0.343970  0.499556  1
  Si  Si20  1  0.158592  0.841408  0.999895  1
  Si  Si21  1  0.682816  0.841408  0.999895  1
  Si  Si22  1  0.158592  0.317184  0.999895  1
  Ge  Ge23  1  0.333333  0.666667  0.002270  1
