# generated using pymatgen
data_Ho6Re16N
_symmetry_space_group_name_H-M   'P 1'
_cell_length_a   8.11015806
_cell_length_b   8.11015804
_cell_length_c   8.11015800
_cell_angle_alpha   109.47122803
_cell_angle_beta   109.47122798
_cell_angle_gamma   109.47121334
_symmetry_Int_Tables_number   1
_chemical_formula_structural   Ho6Re16N
_chemical_formula_sum   'Ho6 Re16 N1'
_cell_volume   410.64450886
_cell_formula_units_Z   1
loop_
 _symmetry_equiv_pos_site_id
 _symmetry_equiv_pos_as_xyz
  1  'x, y, z'
loop_
 _atom_site_type_symbol
 _atom_site_label
 _atom_site_symmetry_multiplicity
 _atom_site_fract_x
 _atom_site_fract_y
 _atom_site_fract_z
 _atom_site_occupancy
  Ho  Ho0  1  0.742854  0.742854  0.000000  1
  Ho  Ho1  1  0.257145  0.000000  0.257146  1
  Ho  Ho2  1  0.742854  0.000000  0.742854  1
  Ho  Ho3  1  0.000000  0.742854  0.742855  1
  Ho  Ho4  1  0.000000  0.257145  0.257146  1
  Ho  Ho5  1  0.257145  0.257145  0.000000  1
  Re  Re6  1  0.000000  0.500000  0.000000  1
  Re  Re7  1  0.500000  0.000000  0.000000  1
  Re  Re8  1  0.000000  0.000000  0.500000  1
  Re  Re9  1  0.500000  0.500000  0.500000  1
  Re  Re10  1  0.340329  0.340329  0.680659  1
  Re  Re11  1  0.659671  0.659671  0.319341  1
  Re  Re12  1  0.000000  0.340329  0.659671  1
  Re  Re13  1  0.319341  0.659671  0.659671  1
  Re  Re14  1  0.659671  0.319341  0.659671  1
  Re  Re15  1  0.340329  0.000000  0.659671  1
  Re  Re16  1  0.659671  0.340329  0.000000  1
  Re  Re17  1  0.340329  0.659671  0.000000  1
  Re  Re18  1  0.340329  0.680659  0.340329  1
  Re  Re19  1  0.000000  0.659671  0.340329  1
  Re  Re20  1  0.659671  0.000000  0.340329  1
  Re  Re21  1  0.680659  0.340329  0.340329  1
  N  N22  1  0.000000  0.000000  0.000000  1
