# generated using pymatgen
data_TmPa2(ZnCo)3
_symmetry_space_group_name_H-M   'P 1'
_cell_length_a   6.98729285
_cell_length_b   6.80200954
_cell_length_c   3.71813000
_cell_angle_alpha   90.00000000
_cell_angle_beta   90.00000000
_cell_angle_gamma   119.12662759
_symmetry_Int_Tables_number   1
_chemical_formula_structural   TmPa2(ZnCo)3
_chemical_formula_sum   'Tm1 Pa2 Zn3 Co3'
_cell_volume   154.36775441
_cell_formula_units_Z   1
loop_
 _symmetry_equiv_pos_site_id
 _symmetry_equiv_pos_as_xyz
  1  'x, y, z'
loop_
 _atom_site_type_symbol
 _atom_site_label
 _atom_site_symmetry_multiplicity
 _atom_site_fract_x
 _atom_site_fract_y
 _atom_site_fract_z
 _atom_site_occupancy
  Tm  Tm0  1  0.000000  0.589724  0.000000  1
  Pa  Pa1  1  0.415415  0.415630  0.000000  1
  Pa  Pa2  1  0.584585  0.000214  0.000000  1
  Zn  Zn3  1  0.774357  0.760046  0.500000  1
  Zn  Zn4  1  0.225643  0.985689  0.500000  1
  Zn  Zn5  1  0.000000  0.258778  0.500000  1
  Co  Co6  1  0.000000  0.020104  0.000000  1
  Co  Co7  1  0.630309  0.300062  0.500000  1
  Co  Co8  1  0.369691  0.669754  0.500000  1
