# generated using pymatgen
data_Ba6Er2(TeO6)3
_symmetry_space_group_name_H-M   'P 1'
_cell_length_a   10.38192331
_cell_length_b   10.38192235
_cell_length_c   10.38192267
_cell_angle_alpha   146.51328507
_cell_angle_beta   131.94116766
_cell_angle_gamma   59.84235064
_symmetry_Int_Tables_number   1
_chemical_formula_structural   Ba6Er2(TeO6)3
_chemical_formula_sum   'Ba6 Er2 Te3 O18'
_cell_volume   455.09618259
_cell_formula_units_Z   1
loop_
 _symmetry_equiv_pos_site_id
 _symmetry_equiv_pos_as_xyz
  1  'x, y, z'
loop_
 _atom_site_type_symbol
 _atom_site_label
 _atom_site_symmetry_multiplicity
 _atom_site_fract_x
 _atom_site_fract_y
 _atom_site_fract_z
 _atom_site_occupancy
  Ba  Ba0  1  0.775563  0.500000  0.275563  1
  Ba  Ba1  1  0.391223  0.155506  0.235717  1
  Ba  Ba2  1  0.080211  0.844494  0.235717  1
  Ba  Ba3  1  0.224437  0.500000  0.724437  1
  Ba  Ba4  1  0.919789  0.155506  0.764283  1
  Ba  Ba5  1  0.608777  0.844494  0.764283  1
  Er  Er6  1  0.665990  0.665990  0.000000  1
  Er  Er7  1  0.334010  0.334010  0.000000  1
  Te  Te8  1  0.500000  0.000000  0.500000  1
  Te  Te9  1  0.171412  0.671412  0.500000  1
  Te  Te10  1  0.828588  0.328588  0.500000  1
  O  O11  1  0.724858  0.000000  0.724858  1
  O  O12  1  0.407276  0.671109  0.736167  1
  O  O13  1  0.065060  0.328891  0.736167  1
  O  O14  1  0.578650  0.842265  0.263614  1
  O  O15  1  0.248357  0.516269  0.267911  1
  O  O16  1  0.904174  0.177342  0.273168  1
  O  O17  1  0.421350  0.684964  0.263614  1
  O  O18  1  0.095826  0.368994  0.273168  1
  O  O19  1  0.751643  0.019554  0.267911  1
  O  O20  1  0.275142  0.000000  0.275142  1
  O  O21  1  0.934940  0.671109  0.263833  1
  O  O22  1  0.592724  0.328891  0.263833  1
  O  O23  1  0.421350  0.157735  0.736386  1
  O  O24  1  0.095826  0.822658  0.726832  1
  O  O25  1  0.751643  0.483731  0.732089  1
  O  O26  1  0.578650  0.315036  0.736386  1
  O  O27  1  0.248357  0.980446  0.732089  1
  O  O28  1  0.904174  0.631007  0.726832  1
