# generated using pymatgen
data_SmYGa9PdRh2
_symmetry_space_group_name_H-M   'P 1'
_cell_length_a   7.63443840
_cell_length_b   7.63745550
_cell_length_c   9.55784511
_cell_angle_alpha   89.98850993
_cell_angle_beta   89.95979573
_cell_angle_gamma   119.78619206
_symmetry_Int_Tables_number   1
_chemical_formula_structural   SmYGa9PdRh2
_chemical_formula_sum   'Sm2 Y2 Ga18 Pd2 Rh4'
_cell_volume   483.66856606
_cell_formula_units_Z   2
loop_
 _symmetry_equiv_pos_site_id
 _symmetry_equiv_pos_as_xyz
  1  'x, y, z'
loop_
 _atom_site_type_symbol
 _atom_site_label
 _atom_site_symmetry_multiplicity
 _atom_site_fract_x
 _atom_site_fract_y
 _atom_site_fract_z
 _atom_site_occupancy
  Sm  Sm0  1  0.997758  0.667577  0.250179  1
  Sm  Sm1  1  0.002242  0.332423  0.749821  1
  Y  Y2  1  0.667664  0.997807  0.250314  1
  Y  Y3  1  0.332336  0.002193  0.749686  1
  Ga  Ga4  1  0.331538  0.331042  0.562384  1
  Ga  Ga5  1  0.668461  0.668959  0.437616  1
  Ga  Ga6  1  0.669946  0.670488  0.067031  1
  Ga  Ga7  1  0.330053  0.329513  0.932969  1
  Ga  Ga8  1  0.340407  0.544983  0.253339  1
  Ga  Ga9  1  0.659593  0.455017  0.746661  1
  Ga  Ga10  1  0.544543  0.339768  0.253349  1
  Ga  Ga11  1  0.455457  0.660232  0.746651  1
  Ga  Ga12  1  0.000536  0.330457  0.081791  1
  Ga  Ga13  1  0.999464  0.669543  0.918209  1
  Ga  Ga14  1  0.000535  0.666289  0.578278  1
  Ga  Ga15  1  0.334886  0.000024  0.422110  1
  Ga  Ga16  1  0.999465  0.333711  0.421722  1
  Ga  Ga17  1  0.665114  0.999976  0.577890  1
  Ga  Ga18  1  0.668319  0.998858  0.918614  1
  Ga  Ga19  1  0.331681  0.001142  0.081386  1
  Ga  Ga20  1  0.122960  0.123235  0.250645  1
  Ga  Ga21  1  0.877040  0.876765  0.749355  1
  Pd  Pd22  1  0.670680  0.329030  0.999998  1
  Pd  Pd23  1  0.329320  0.670970  0.000002  1
  Rh  Rh24  1  0.000000  0.000000  0.000000  1
  Rh  Rh25  1  0.000000  0.000000  0.500000  1
  Rh  Rh26  1  0.328481  0.671827  0.499997  1
  Rh  Rh27  1  0.671519  0.328173  0.500003  1
