# generated using pymatgen
data_Sm2Co2NiP7Ru9
_symmetry_space_group_name_H-M   'P 1'
_cell_length_a   9.36750129
_cell_length_b   9.40504754
_cell_length_c   3.84587400
_cell_angle_alpha   90.00000000
_cell_angle_beta   90.00000000
_cell_angle_gamma   120.22334540
_symmetry_Int_Tables_number   1
_chemical_formula_structural   Sm2Co2NiP7Ru9
_chemical_formula_sum   'Sm2 Co2 Ni1 P7 Ru9'
_cell_volume   292.77138100
_cell_formula_units_Z   1
loop_
 _symmetry_equiv_pos_site_id
 _symmetry_equiv_pos_as_xyz
  1  'x, y, z'
loop_
 _atom_site_type_symbol
 _atom_site_label
 _atom_site_symmetry_multiplicity
 _atom_site_fract_x
 _atom_site_fract_y
 _atom_site_fract_z
 _atom_site_occupancy
  Sm  Sm0  1  0.333265  0.666074  0.500000  1
  Sm  Sm1  1  0.001608  0.002159  0.000000  1
  Co  Co2  1  0.397208  0.221183  0.000000  1
  Co  Co3  1  0.777758  0.175392  0.000000  1
  Ni  Ni4  1  0.824899  0.602691  0.000000  1
  P  P5  1  0.778379  0.735260  0.500000  1
  P  P6  1  0.266958  0.047720  0.500000  1
  P  P7  1  0.952905  0.219878  0.500000  1
  P  P8  1  0.665480  0.330281  0.000000  1
  P  P9  1  0.078216  0.634153  0.000000  1
  P  P10  1  0.365980  0.440410  0.000000  1
  P  P11  1  0.558626  0.924220  0.000000  1
  Ru  Ru12  1  0.091436  0.394292  0.000000  1
  Ru  Ru13  1  0.606388  0.697712  0.000000  1
  Ru  Ru14  1  0.302606  0.908971  0.000000  1
  Ru  Ru15  1  0.047269  0.765735  0.500000  1
  Ru  Ru16  1  0.233312  0.281535  0.500000  1
  Ru  Ru17  1  0.717403  0.951918  0.500000  1
  Ru  Ru18  1  0.873142  0.416879  0.500000  1
  Ru  Ru19  1  0.580587  0.454909  0.500000  1
  Ru  Ru20  1  0.546575  0.128628  0.500000  1
