# generated using pymatgen
data_Y14Tm2CdIn3Rh4
_symmetry_space_group_name_H-M   'P 1'
_cell_length_a   9.65728237
_cell_length_b   9.65728188
_cell_length_c   9.68434658
_cell_angle_alpha   60.01986888
_cell_angle_beta   60.01986909
_cell_angle_gamma   59.86616646
_symmetry_Int_Tables_number   1
_chemical_formula_structural   Y14Tm2CdIn3Rh4
_chemical_formula_sum   'Y14 Tm2 Cd1 In3 Rh4'
_cell_volume   638.19598981
_cell_formula_units_Z   1
loop_
 _symmetry_equiv_pos_site_id
 _symmetry_equiv_pos_as_xyz
  1  'x, y, z'
loop_
 _atom_site_type_symbol
 _atom_site_label
 _atom_site_symmetry_multiplicity
 _atom_site_fract_x
 _atom_site_fract_y
 _atom_site_fract_z
 _atom_site_occupancy
  Y  Y0  1  0.061845  0.061845  0.437771  1
  Y  Y1  1  0.436987  0.063906  0.436603  1
  Y  Y2  1  0.060681  0.438906  0.061270  1
  Y  Y3  1  0.050947  0.648805  0.648498  1
  Y  Y4  1  0.437544  0.437544  0.063230  1
  Y  Y5  1  0.648805  0.050947  0.648498  1
  Y  Y6  1  0.189519  0.812286  0.188863  1
  Y  Y7  1  0.188700  0.188700  0.812771  1
  Y  Y8  1  0.809071  0.809071  0.191520  1
  Y  Y9  1  0.438906  0.060681  0.061270  1
  Y  Y10  1  0.812286  0.189519  0.188863  1
  Y  Y11  1  0.063906  0.436987  0.436603  1
  Y  Y12  1  0.809573  0.191390  0.809541  1
  Y  Y13  1  0.191390  0.809573  0.809541  1
  Tm  Tm14  1  0.649631  0.649631  0.048011  1
  Tm  Tm15  1  0.652291  0.652291  0.652235  1
  Cd  Cd16  1  0.418179  0.418179  0.417378  1
  In  In17  1  0.747375  0.418300  0.417348  1
  In  In18  1  0.418300  0.747375  0.417348  1
  In  In19  1  0.417674  0.417674  0.747938  1
  Rh  Rh20  1  0.856748  0.856748  0.427687  1
  Rh  Rh21  1  0.854931  0.854931  0.859502  1
  Rh  Rh22  1  0.430046  0.854668  0.858856  1
  Rh  Rh23  1  0.854668  0.430046  0.858856  1
