# generated using pymatgen
data_Tb3DyTm4(CdPt)2
_symmetry_space_group_name_H-M   'P 1'
_cell_length_a   9.64156020
_cell_length_b   9.64156024
_cell_length_c   9.62517000
_cell_angle_alpha   60.05621135
_cell_angle_beta   60.05621123
_cell_angle_gamma   60.17157535
_symmetry_Int_Tables_number   1
_chemical_formula_structural   Tb3DyTm4(CdPt)2
_chemical_formula_sum   'Tb6 Dy2 Tm8 Cd4 Pt4'
_cell_volume   634.04116122
_cell_formula_units_Z   2
loop_
 _symmetry_equiv_pos_site_id
 _symmetry_equiv_pos_as_xyz
  1  'x, y, z'
loop_
 _atom_site_type_symbol
 _atom_site_label
 _atom_site_symmetry_multiplicity
 _atom_site_fract_x
 _atom_site_fract_y
 _atom_site_fract_z
 _atom_site_occupancy
  Tb  Tb0  1  0.936687  0.563388  0.563770  1
  Tb  Tb1  1  0.563388  0.936687  0.936155  1
  Tb  Tb2  1  0.563388  0.936687  0.563770  1
  Tb  Tb3  1  0.936687  0.563388  0.936155  1
  Tb  Tb4  1  0.564594  0.564594  0.935406  1
  Tb  Tb5  1  0.937576  0.937576  0.562424  1
  Dy  Dy6  1  0.352024  0.352024  0.351070  1
  Dy  Dy7  1  0.352024  0.352024  0.944883  1
  Tm  Tm8  1  0.353116  0.943283  0.351801  1
  Tm  Tm9  1  0.943283  0.353116  0.351801  1
  Tm  Tm10  1  0.812016  0.188183  0.188734  1
  Tm  Tm11  1  0.188183  0.812016  0.811067  1
  Tm  Tm12  1  0.188183  0.812016  0.188734  1
  Tm  Tm13  1  0.812016  0.188183  0.811067  1
  Tm  Tm14  1  0.188503  0.188503  0.811497  1
  Tm  Tm15  1  0.811501  0.811501  0.188499  1
  Cd  Cd16  1  0.581386  0.581386  0.580628  1
  Cd  Cd17  1  0.581386  0.581386  0.256601  1
  Cd  Cd18  1  0.581757  0.255510  0.581366  1
  Cd  Cd19  1  0.255510  0.581757  0.581366  1
  Pt  Pt20  1  0.141789  0.141789  0.145501  1
  Pt  Pt21  1  0.141789  0.141789  0.570923  1
  Pt  Pt22  1  0.140211  0.573007  0.143392  1
  Pt  Pt23  1  0.573007  0.140211  0.143392  1
