# generated using pymatgen
data_Y3Cu4Ru
_symmetry_space_group_name_H-M   'P 1'
_cell_length_a   13.94792700
_cell_length_b   5.60957525
_cell_length_c   5.60957423
_cell_angle_alpha   43.77199373
_cell_angle_beta   90.00000000
_cell_angle_gamma   90.00000000
_symmetry_Int_Tables_number   1
_chemical_formula_structural   Y3Cu4Ru
_chemical_formula_sum   'Y6 Cu8 Ru2'
_cell_volume   303.62952975
_cell_formula_units_Z   2
loop_
 _symmetry_equiv_pos_site_id
 _symmetry_equiv_pos_as_xyz
  1  'x, y, z'
loop_
 _atom_site_type_symbol
 _atom_site_label
 _atom_site_symmetry_multiplicity
 _atom_site_fract_x
 _atom_site_fract_y
 _atom_site_fract_z
 _atom_site_occupancy
  Y  Y0  1  0.362291  0.012349  0.012349  1
  Y  Y1  1  0.637709  0.012349  0.012349  1
  Y  Y2  1  0.137698  0.192380  0.192380  1
  Y  Y3  1  0.862303  0.192380  0.192380  1
  Y  Y4  1  0.000000  0.470037  0.470037  1
  Y  Y5  1  0.500000  0.734731  0.734731  1
  Cu  Cu6  1  0.344219  0.309642  0.309642  1
  Cu  Cu7  1  0.655781  0.309642  0.309642  1
  Cu  Cu8  1  0.213114  0.492852  0.492852  1
  Cu  Cu9  1  0.786886  0.492852  0.492852  1
  Cu  Cu10  1  0.286872  0.712035  0.712035  1
  Cu  Cu11  1  0.713129  0.712035  0.712035  1
  Cu  Cu12  1  0.155852  0.895034  0.895034  1
  Cu  Cu13  1  0.844148  0.895034  0.895034  1
  Ru  Ru14  1  0.500000  0.447522  0.447522  1
  Ru  Ru15  1  0.000000  0.757130  0.757130  1
