# generated using pymatgen
data_Ho12Co4HgPt
_symmetry_space_group_name_H-M   'P 1'
_cell_length_a   8.25526173
_cell_length_b   8.25526119
_cell_length_c   8.25526108
_cell_angle_alpha   111.07269873
_cell_angle_beta   110.24446263
_cell_angle_gamma   107.12283873
_symmetry_Int_Tables_number   1
_chemical_formula_structural   Ho12Co4HgPt
_chemical_formula_sum   'Ho12 Co4 Hg1 Pt1'
_cell_volume   432.51600876
_cell_formula_units_Z   1
loop_
 _symmetry_equiv_pos_site_id
 _symmetry_equiv_pos_as_xyz
  1  'x, y, z'
loop_
 _atom_site_type_symbol
 _atom_site_label
 _atom_site_symmetry_multiplicity
 _atom_site_fract_x
 _atom_site_fract_y
 _atom_site_fract_z
 _atom_site_occupancy
  Ho  Ho0  1  0.315935  0.619428  0.303492  1
  Ho  Ho1  1  0.684065  0.380572  0.696508  1
  Ho  Ho2  1  0.315935  0.012442  0.696508  1
  Ho  Ho3  1  0.684065  0.987558  0.303492  1
  Ho  Ho4  1  0.185748  0.291349  0.477098  1
  Ho  Ho5  1  0.814252  0.708651  0.522902  1
  Ho  Ho6  1  0.185748  0.708651  0.894400  1
  Ho  Ho7  1  0.814252  0.291349  0.105600  1
  Ho  Ho8  1  0.414041  0.216103  0.197938  1
  Ho  Ho9  1  0.585959  0.783897  0.802062  1
  Ho  Ho10  1  0.018165  0.216103  0.802062  1
  Ho  Ho11  1  0.981835  0.783897  0.197938  1
  Co  Co12  1  0.112800  0.612800  0.500000  1
  Co  Co13  1  0.887200  0.387200  0.500000  1
  Co  Co14  1  0.379204  0.000000  0.379204  1
  Co  Co15  1  0.620796  0.000000  0.620796  1
  Hg  Hg16  1  0.500000  0.500000  0.000000  1
  Pt  Pt17  1  0.000000  0.000000  0.000000  1
