# generated using pymatgen
data_YHo15(In3Os)2
_symmetry_space_group_name_H-M   'P 1'
_cell_length_a   10.34407600
_cell_length_b   10.35333334
_cell_length_c   7.08516403
_cell_angle_alpha   90.04144848
_cell_angle_beta   90.00000000
_cell_angle_gamma   119.97042647
_symmetry_Int_Tables_number   1
_chemical_formula_structural   YHo15(In3Os)2
_chemical_formula_sum   'Y1 Ho15 In6 Os2'
_cell_volume   657.32724415
_cell_formula_units_Z   1
loop_
 _symmetry_equiv_pos_site_id
 _symmetry_equiv_pos_as_xyz
  1  'x, y, z'
loop_
 _atom_site_type_symbol
 _atom_site_label
 _atom_site_symmetry_multiplicity
 _atom_site_fract_x
 _atom_site_fract_y
 _atom_site_fract_z
 _atom_site_occupancy
  Y  Y0  1  0.532894  0.065788  0.507290  1
  Ho  Ho1  1  0.932525  0.466234  0.507060  1
  Ho  Ho2  1  0.533708  0.466234  0.507060  1
  Ho  Ho3  1  0.466065  0.932130  0.007207  1
  Ho  Ho4  1  0.067442  0.533780  0.007174  1
  Ho  Ho5  1  0.466339  0.533780  0.007174  1
  Ho  Ho6  1  0.177168  0.354336  0.711816  1
  Ho  Ho7  1  0.646052  0.822533  0.712314  1
  Ho  Ho8  1  0.176480  0.822533  0.712314  1
  Ho  Ho9  1  0.823216  0.646433  0.211906  1
  Ho  Ho10  1  0.354327  0.177515  0.211338  1
  Ho  Ho11  1  0.823187  0.177515  0.211338  1
  Ho  Ho12  1  0.666844  0.333686  0.885931  1
  Ho  Ho13  1  0.332991  0.665985  0.385543  1
  Ho  Ho14  1  0.000009  0.000017  0.491537  1
  Ho  Ho15  1  0.000009  0.000017  0.991636  1
  In  In16  1  0.836620  0.673241  0.754070  1
  In  In17  1  0.326161  0.163143  0.754176  1
  In  In18  1  0.836982  0.163143  0.754176  1
  In  In19  1  0.163148  0.326295  0.254229  1
  In  In20  1  0.673533  0.837125  0.254259  1
  In  In21  1  0.163593  0.837125  0.254259  1
  Os  Os22  1  0.667326  0.334650  0.281698  1
  Os  Os23  1  0.333378  0.666757  0.782538  1
