# generated using pymatgen
data_NdEu4MgAl4
_symmetry_space_group_name_H-M   'P 1'
_cell_length_a   3.84993200
_cell_length_b   3.84993200
_cell_length_c   19.48714800
_cell_angle_alpha   90.00000000
_cell_angle_beta   90.00000000
_cell_angle_gamma   90.00000000
_symmetry_Int_Tables_number   1
_chemical_formula_structural   NdEu4MgAl4
_chemical_formula_sum   'Nd1 Eu4 Mg1 Al4'
_cell_volume   288.83804785
_cell_formula_units_Z   1
loop_
 _symmetry_equiv_pos_site_id
 _symmetry_equiv_pos_as_xyz
  1  'x, y, z'
loop_
 _atom_site_type_symbol
 _atom_site_label
 _atom_site_symmetry_multiplicity
 _atom_site_fract_x
 _atom_site_fract_y
 _atom_site_fract_z
 _atom_site_occupancy
  Nd  Nd0  1  0.500000  0.500000  0.499629  1
  Eu  Eu1  1  0.500000  0.500000  0.115302  1
  Eu  Eu2  1  0.500000  0.500000  0.311071  1
  Eu  Eu3  1  0.500000  0.500000  0.688029  1
  Eu  Eu4  1  0.500000  0.500000  0.885717  1
  Mg  Mg5  1  0.000000  0.000000  0.001225  1
  Al  Al6  1  0.000000  0.000000  0.209917  1
  Al  Al7  1  0.000000  0.000000  0.410364  1
  Al  Al8  1  0.000000  0.000000  0.588830  1
  Al  Al9  1  0.000000  0.000000  0.789916  1
