# generated using pymatgen
data_Tb4Co9SiB4
_symmetry_space_group_name_H-M   'P 1'
_cell_length_a   5.13958100
_cell_length_b   5.13958100
_cell_length_c   19.52427700
_cell_angle_alpha   90.00000000
_cell_angle_beta   90.00000000
_cell_angle_gamma   119.99999356
_symmetry_Int_Tables_number   1
_chemical_formula_structural   Tb4Co9SiB4
_chemical_formula_sum   'Tb8 Co18 Si2 B8'
_cell_volume   446.64353321
_cell_formula_units_Z   2
loop_
 _symmetry_equiv_pos_site_id
 _symmetry_equiv_pos_as_xyz
  1  'x, y, z'
loop_
 _atom_site_type_symbol
 _atom_site_label
 _atom_site_symmetry_multiplicity
 _atom_site_fract_x
 _atom_site_fract_y
 _atom_site_fract_z
 _atom_site_occupancy
  Tb  Tb0  1  0.666667  0.333333  0.825787  1
  Tb  Tb1  1  0.666667  0.333333  0.976846  1
  Tb  Tb2  1  0.333333  0.666667  0.476846  1
  Tb  Tb3  1  0.333333  0.666667  0.023154  1
  Tb  Tb4  1  0.333333  0.666667  0.174213  1
  Tb  Tb5  1  0.666667  0.333333  0.523154  1
  Tb  Tb6  1  0.666667  0.333333  0.674213  1
  Tb  Tb7  1  0.333333  0.666667  0.325787  1
  Co  Co8  1  0.164344  0.328688  0.896106  1
  Co  Co9  1  0.164344  0.835656  0.603894  1
  Co  Co10  1  0.835656  0.164344  0.396106  1
  Co  Co11  1  0.334724  0.167362  0.250000  1
  Co  Co12  1  0.328688  0.164344  0.396106  1
  Co  Co13  1  0.835656  0.671312  0.103894  1
  Co  Co14  1  0.835656  0.671312  0.396106  1
  Co  Co15  1  0.832638  0.665276  0.250000  1
  Co  Co16  1  0.671312  0.835656  0.603894  1
  Co  Co17  1  0.665276  0.832638  0.750000  1
  Co  Co18  1  0.835656  0.164344  0.103894  1
  Co  Co19  1  0.671312  0.835656  0.896106  1
  Co  Co20  1  0.167362  0.334724  0.750000  1
  Co  Co21  1  0.167362  0.832638  0.750000  1
  Co  Co22  1  0.832638  0.167362  0.250000  1
  Co  Co23  1  0.328688  0.164344  0.103894  1
  Co  Co24  1  0.164344  0.835656  0.896106  1
  Co  Co25  1  0.164344  0.328688  0.603894  1
  Si  Si26  1  0.000000  0.000000  0.000000  1
  Si  Si27  1  0.000000  0.000000  0.500000  1
  B  B28  1  0.333333  0.666667  0.826446  1
  B  B29  1  0.333333  0.666667  0.673554  1
  B  B30  1  0.666667  0.333333  0.326446  1
  B  B31  1  0.000000  0.000000  0.824301  1
  B  B32  1  0.666667  0.333333  0.173554  1
  B  B33  1  0.000000  0.000000  0.675699  1
  B  B34  1  0.000000  0.000000  0.324301  1
  B  B35  1  0.000000  0.000000  0.175699  1
