# generated using pymatgen
data_Pr3Al12TcIr3
_symmetry_space_group_name_H-M   'P 1'
_cell_length_a   8.96015800
_cell_length_b   8.96015761
_cell_length_c   9.68885800
_cell_angle_alpha   90.00000000
_cell_angle_beta   90.00000000
_cell_angle_gamma   120.00000144
_symmetry_Int_Tables_number   1
_chemical_formula_structural   Pr3Al12TcIr3
_chemical_formula_sum   'Pr6 Al24 Tc2 Ir6'
_cell_volume   673.65033993
_cell_formula_units_Z   2
loop_
 _symmetry_equiv_pos_site_id
 _symmetry_equiv_pos_as_xyz
  1  'x, y, z'
loop_
 _atom_site_type_symbol
 _atom_site_label
 _atom_site_symmetry_multiplicity
 _atom_site_fract_x
 _atom_site_fract_y
 _atom_site_fract_z
 _atom_site_occupancy
  Pr  Pr0  1  0.190952  0.381903  0.250000  1
  Pr  Pr1  1  0.809048  0.618097  0.750000  1
  Pr  Pr2  1  0.618097  0.809048  0.250000  1
  Pr  Pr3  1  0.381903  0.190952  0.750000  1
  Pr  Pr4  1  0.190952  0.809048  0.250000  1
  Pr  Pr5  1  0.809048  0.190952  0.750000  1
  Al  Al6  1  0.333333  0.666667  0.011515  1
  Al  Al7  1  0.666667  0.333333  0.988485  1
  Al  Al8  1  0.666667  0.333333  0.511515  1
  Al  Al9  1  0.333333  0.666667  0.488485  1
  Al  Al10  1  0.162820  0.325639  0.574827  1
  Al  Al11  1  0.837180  0.674361  0.425173  1
  Al  Al12  1  0.674361  0.837180  0.574827  1
  Al  Al13  1  0.837180  0.674361  0.074827  1
  Al  Al14  1  0.325639  0.162820  0.425173  1
  Al  Al15  1  0.162820  0.325639  0.925173  1
  Al  Al16  1  0.162820  0.837180  0.574827  1
  Al  Al17  1  0.325639  0.162820  0.074827  1
  Al  Al18  1  0.837180  0.162820  0.425173  1
  Al  Al19  1  0.674361  0.837180  0.925173  1
  Al  Al20  1  0.837180  0.162820  0.074827  1
  Al  Al21  1  0.162820  0.837180  0.925173  1
  Al  Al22  1  0.563556  0.127111  0.250000  1
  Al  Al23  1  0.436444  0.872889  0.750000  1
  Al  Al24  1  0.872889  0.436444  0.250000  1
  Al  Al25  1  0.127111  0.563556  0.750000  1
  Al  Al26  1  0.563556  0.436444  0.250000  1
  Al  Al27  1  0.436444  0.563556  0.750000  1
  Al  Al28  1  0.000000  0.000000  0.250000  1
  Al  Al29  1  0.000000  0.000000  0.750000  1
  Tc  Tc30  1  0.000000  0.000000  0.000000  1
  Tc  Tc31  1  0.000000  0.000000  0.500000  1
  Ir  Ir32  1  0.500000  0.000000  0.000000  1
  Ir  Ir33  1  0.000000  0.500000  0.000000  1
  Ir  Ir34  1  0.500000  0.000000  0.500000  1
  Ir  Ir35  1  0.500000  0.500000  0.000000  1
  Ir  Ir36  1  0.000000  0.500000  0.500000  1
  Ir  Ir37  1  0.500000  0.500000  0.500000  1
