# generated using pymatgen
data_Dy13Tm2Sc5Bi12
_symmetry_space_group_name_H-M   'P 1'
_cell_length_a   8.09212462
_cell_length_b   9.38450023
_cell_length_c   11.94760313
_cell_angle_alpha   89.92156262
_cell_angle_beta   90.04626012
_cell_angle_gamma   89.98920525
_symmetry_Int_Tables_number   1
_chemical_formula_structural   Dy13Tm2Sc5Bi12
_chemical_formula_sum   'Dy13 Tm2 Sc5 Bi12'
_cell_volume   907.30633554
_cell_formula_units_Z   1
loop_
 _symmetry_equiv_pos_site_id
 _symmetry_equiv_pos_as_xyz
  1  'x, y, z'
loop_
 _atom_site_type_symbol
 _atom_site_label
 _atom_site_symmetry_multiplicity
 _atom_site_fract_x
 _atom_site_fract_y
 _atom_site_fract_z
 _atom_site_occupancy
  Dy  Dy0  1  0.353050  0.247216  0.282886  1
  Dy  Dy1  1  0.643424  0.749274  0.715848  1
  Dy  Dy2  1  0.145349  0.748325  0.784484  1
  Dy  Dy3  1  0.855163  0.249266  0.215092  1
  Dy  Dy4  1  0.183815  0.248952  0.780638  1
  Dy  Dy5  1  0.815277  0.749466  0.219621  1
  Dy  Dy6  1  0.315781  0.750117  0.280485  1
  Dy  Dy7  1  0.683778  0.249747  0.720401  1
  Dy  Dy8  1  0.805104  0.935917  0.940893  1
  Dy  Dy9  1  0.305052  0.935695  0.558421  1
  Dy  Dy10  1  0.807333  0.564626  0.942358  1
  Dy  Dy11  1  0.694342  0.064162  0.441249  1
  Dy  Dy12  1  0.194920  0.437248  0.058732  1
  Tm  Tm13  1  0.696302  0.433209  0.441013  1
  Tm  Tm14  1  0.303877  0.566735  0.559144  1
  Sc  Sc15  1  0.024271  0.250029  0.512017  1
  Sc  Sc16  1  0.975977  0.749374  0.486606  1
  Sc  Sc17  1  0.475426  0.750255  0.012699  1
  Sc  Sc18  1  0.522073  0.247616  0.988568  1
  Sc  Sc19  1  0.196225  0.069423  0.057502  1
  Bi  Bi20  1  0.401865  0.253660  0.542140  1
  Bi  Bi21  1  0.598250  0.746354  0.457323  1
  Bi  Bi22  1  0.101528  0.760287  0.044024  1
  Bi  Bi23  1  0.906122  0.247680  0.958970  1
  Bi  Bi24  1  0.066355  0.003811  0.330325  1
  Bi  Bi25  1  0.933932  0.995473  0.667846  1
  Bi  Bi26  1  0.432362  0.995537  0.833470  1
  Bi  Bi27  1  0.934523  0.503519  0.667460  1
  Bi  Bi28  1  0.562953  0.003791  0.166966  1
  Bi  Bi29  1  0.065587  0.495381  0.331934  1
  Bi  Bi30  1  0.565826  0.494949  0.168552  1
  Bi  Bi31  1  0.434159  0.502909  0.832333  1
