# generated using pymatgen
data_Ho4Ag3IrPb2
_symmetry_space_group_name_H-M   'P 1'
_cell_length_a   8.09656700
_cell_length_b   8.09656792
_cell_length_c   3.65828400
_cell_angle_alpha   90.00000000
_cell_angle_beta   90.00000000
_cell_angle_gamma   90.21485168
_symmetry_Int_Tables_number   1
_chemical_formula_structural   Ho4Ag3IrPb2
_chemical_formula_sum   'Ho4 Ag3 Ir1 Pb2'
_cell_volume   239.81494366
_cell_formula_units_Z   1
loop_
 _symmetry_equiv_pos_site_id
 _symmetry_equiv_pos_as_xyz
  1  'x, y, z'
loop_
 _atom_site_type_symbol
 _atom_site_label
 _atom_site_symmetry_multiplicity
 _atom_site_fract_x
 _atom_site_fract_y
 _atom_site_fract_z
 _atom_site_occupancy
  Ho  Ho0  1  0.642059  0.177094  0.500000  1
  Ho  Ho1  1  0.190006  0.309994  0.500000  1
  Ho  Ho2  1  0.833166  0.666834  0.500000  1
  Ho  Ho3  1  0.322906  0.857941  0.500000  1
  Ag  Ag4  1  0.130176  0.618657  0.000000  1
  Ag  Ag5  1  0.627364  0.872636  0.000000  1
  Ag  Ag6  1  0.881343  0.369824  0.000000  1
  Ir  Ir7  1  0.378089  0.121911  0.000000  1
  Pb  Pb8  1  0.996395  0.001505  0.000000  1
  Pb  Pb9  1  0.498495  0.503605  0.000000  1
