# generated using pymatgen
data_Dy3Y7Cd3Ir
_symmetry_space_group_name_H-M   'P 1'
_cell_length_a   9.67343500
_cell_length_b   9.67343436
_cell_length_c   9.85653200
_cell_angle_alpha   90.00000000
_cell_angle_beta   90.00000000
_cell_angle_gamma   119.99999877
_symmetry_Int_Tables_number   1
_chemical_formula_structural   Dy3Y7Cd3Ir
_chemical_formula_sum   'Dy6 Y14 Cd6 Ir2'
_cell_volume   798.75976414
_cell_formula_units_Z   2
loop_
 _symmetry_equiv_pos_site_id
 _symmetry_equiv_pos_as_xyz
  1  'x, y, z'
loop_
 _atom_site_type_symbol
 _atom_site_label
 _atom_site_symmetry_multiplicity
 _atom_site_fract_x
 _atom_site_fract_y
 _atom_site_fract_z
 _atom_site_occupancy
  Dy  Dy0  1  0.209812  0.790188  0.440969  1
  Dy  Dy1  1  0.209812  0.419626  0.440969  1
  Dy  Dy2  1  0.580374  0.790188  0.440969  1
  Dy  Dy3  1  0.790188  0.209812  0.559031  1
  Dy  Dy4  1  0.790188  0.580374  0.559031  1
  Dy  Dy5  1  0.419626  0.209812  0.559031  1
  Y  Y6  1  0.000000  0.000000  0.500000  1
  Y  Y7  1  0.000000  0.000000  0.000000  1
  Y  Y8  1  0.790400  0.209600  0.940920  1
  Y  Y9  1  0.790400  0.580800  0.940920  1
  Y  Y10  1  0.419200  0.209600  0.940920  1
  Y  Y11  1  0.209600  0.790400  0.059080  1
  Y  Y12  1  0.209600  0.419200  0.059080  1
  Y  Y13  1  0.580800  0.790400  0.059080  1
  Y  Y14  1  0.541487  0.458513  0.250802  1
  Y  Y15  1  0.541487  0.082975  0.250802  1
  Y  Y16  1  0.917025  0.458513  0.250802  1
  Y  Y17  1  0.458513  0.541487  0.749198  1
  Y  Y18  1  0.458513  0.917025  0.749198  1
  Y  Y19  1  0.082975  0.541487  0.749198  1
  Cd  Cd20  1  0.885327  0.114673  0.249665  1
  Cd  Cd21  1  0.885327  0.770654  0.249665  1
  Cd  Cd22  1  0.229346  0.114673  0.249665  1
  Cd  Cd23  1  0.114673  0.885327  0.750335  1
  Cd  Cd24  1  0.114673  0.229346  0.750335  1
  Cd  Cd25  1  0.770654  0.885327  0.750335  1
  Ir  Ir26  1  0.333333  0.666667  0.251220  1
  Ir  Ir27  1  0.666667  0.333333  0.748780  1
