# generated using pymatgen
data_Er3Cr(Co4As3)2
_symmetry_space_group_name_H-M   'P 1'
_cell_length_a   3.79352500
_cell_length_b   10.93851700
_cell_length_c   12.70964800
_cell_angle_alpha   90.00000000
_cell_angle_beta   90.00000000
_cell_angle_gamma   90.00000000
_symmetry_Int_Tables_number   1
_chemical_formula_structural   Er3Cr(Co4As3)2
_chemical_formula_sum   'Er6 Cr2 Co16 As12'
_cell_volume   527.39367777
_cell_formula_units_Z   2
loop_
 _symmetry_equiv_pos_site_id
 _symmetry_equiv_pos_as_xyz
  1  'x, y, z'
loop_
 _atom_site_type_symbol
 _atom_site_label
 _atom_site_symmetry_multiplicity
 _atom_site_fract_x
 _atom_site_fract_y
 _atom_site_fract_z
 _atom_site_occupancy
  Er  Er0  1  0.000000  0.500000  0.526763  1
  Er  Er1  1  0.500000  0.000000  0.473237  1
  Er  Er2  1  0.500000  0.820757  0.206409  1
  Er  Er3  1  0.500000  0.179243  0.206409  1
  Er  Er4  1  0.000000  0.679243  0.793591  1
  Er  Er5  1  0.000000  0.320757  0.793591  1
  Cr  Cr6  1  0.500000  0.500000  0.158030  1
  Cr  Cr7  1  0.000000  0.000000  0.841970  1
  Co  Co8  1  0.500000  0.500000  0.703375  1
  Co  Co9  1  0.000000  0.000000  0.296625  1
  Co  Co10  1  0.000000  0.500000  0.988841  1
  Co  Co11  1  0.500000  0.000000  0.011159  1
  Co  Co12  1  0.500000  0.332750  0.995934  1
  Co  Co13  1  0.500000  0.667250  0.995934  1
  Co  Co14  1  0.000000  0.167250  0.004066  1
  Co  Co15  1  0.000000  0.832750  0.004066  1
  Co  Co16  1  0.500000  0.297770  0.431304  1
  Co  Co17  1  0.500000  0.702230  0.431304  1
  Co  Co18  1  0.000000  0.202230  0.568696  1
  Co  Co19  1  0.000000  0.797770  0.568696  1
  Co  Co20  1  0.500000  0.879900  0.706190  1
  Co  Co21  1  0.500000  0.120100  0.706190  1
  Co  Co22  1  0.000000  0.620100  0.293810  1
  Co  Co23  1  0.000000  0.379900  0.293810  1
  As  As24  1  0.500000  0.500000  0.882071  1
  As  As25  1  0.000000  0.000000  0.117929  1
  As  As26  1  0.500000  0.500000  0.354363  1
  As  As27  1  0.000000  0.000000  0.645637  1
  As  As28  1  0.500000  0.313604  0.616535  1
  As  As29  1  0.500000  0.686396  0.616535  1
  As  As30  1  0.000000  0.186396  0.383465  1
  As  As31  1  0.000000  0.813604  0.383465  1
  As  As32  1  0.500000  0.843794  0.889316  1
  As  As33  1  0.500000  0.156206  0.889316  1
  As  As34  1  0.000000  0.656206  0.110684  1
  As  As35  1  0.000000  0.343794  0.110684  1
