# generated using pymatgen
data_Yb6MnCrN6
_symmetry_space_group_name_H-M   'P 1'
_cell_length_a   6.51936648
_cell_length_b   6.51936697
_cell_length_c   4.99212500
_cell_angle_alpha   90.00000000
_cell_angle_beta   90.00000000
_cell_angle_gamma   101.10622745
_symmetry_Int_Tables_number   1
_chemical_formula_structural   Yb6MnCrN6
_chemical_formula_sum   'Yb6 Mn1 Cr1 N6'
_cell_volume   208.20231907
_cell_formula_units_Z   1
loop_
 _symmetry_equiv_pos_site_id
 _symmetry_equiv_pos_as_xyz
  1  'x, y, z'
loop_
 _atom_site_type_symbol
 _atom_site_label
 _atom_site_symmetry_multiplicity
 _atom_site_fract_x
 _atom_site_fract_y
 _atom_site_fract_z
 _atom_site_occupancy
  Yb  Yb0  1  0.593399  0.831164  0.250000  1
  Yb  Yb1  1  0.891699  0.108301  0.750000  1
  Yb  Yb2  1  0.829527  0.595560  0.750000  1
  Yb  Yb3  1  0.107830  0.892170  0.250000  1
  Yb  Yb4  1  0.404440  0.170473  0.750000  1
  Yb  Yb5  1  0.168836  0.406601  0.250000  1
  Mn  Mn6  1  0.303577  0.696423  0.750000  1
  Cr  Cr7  1  0.694310  0.305690  0.250000  1
  N  N8  1  0.572665  0.820779  0.750000  1
  N  N9  1  0.875505  0.124495  0.250000  1
  N  N10  1  0.126124  0.873876  0.750000  1
  N  N11  1  0.822714  0.569846  0.250000  1
  N  N12  1  0.430154  0.177286  0.250000  1
  N  N13  1  0.179221  0.427335  0.750000  1
