# generated using pymatgen
data_NaReOF5
_symmetry_space_group_name_H-M   'P 1'
_cell_length_a   5.86091775
_cell_length_b   5.82047459
_cell_length_c   5.82047500
_cell_angle_alpha   60.46023506
_cell_angle_beta   59.76987996
_cell_angle_gamma   59.76986936
_symmetry_Int_Tables_number   1
_chemical_formula_structural   NaReOF5
_chemical_formula_sum   'Na1 Re1 O1 F5'
_cell_volume   140.38644334
_cell_formula_units_Z   1
loop_
 _symmetry_equiv_pos_site_id
 _symmetry_equiv_pos_as_xyz
  1  'x, y, z'
loop_
 _atom_site_type_symbol
 _atom_site_label
 _atom_site_symmetry_multiplicity
 _atom_site_fract_x
 _atom_site_fract_y
 _atom_site_fract_z
 _atom_site_occupancy
  Na  Na0  1  0.509777  0.490223  0.490223  1
  Re  Re1  1  0.016570  0.983430  0.983430  1
  O  O2  1  0.225129  0.774871  0.774871  1
  F  F3  1  0.762372  0.776963  0.237628  1
  F  F4  1  0.223037  0.776963  0.237628  1
  F  F5  1  0.777706  0.222294  0.222294  1
  F  F6  1  0.223037  0.237628  0.776963  1
  F  F7  1  0.762372  0.237628  0.776963  1
