# generated using pymatgen
data_BaU4O11
_symmetry_space_group_name_H-M   'P 1'
_cell_length_a   6.84822800
_cell_length_b   6.84822764
_cell_length_c   13.34260800
_cell_angle_alpha   90.00000000
_cell_angle_beta   90.00000000
_cell_angle_gamma   120.00000175
_symmetry_Int_Tables_number   1
_chemical_formula_structural   BaU4O11
_chemical_formula_sum   'Ba2 U8 O22'
_cell_volume   541.91072948
_cell_formula_units_Z   2
loop_
 _symmetry_equiv_pos_site_id
 _symmetry_equiv_pos_as_xyz
  1  'x, y, z'
loop_
 _atom_site_type_symbol
 _atom_site_label
 _atom_site_symmetry_multiplicity
 _atom_site_fract_x
 _atom_site_fract_y
 _atom_site_fract_z
 _atom_site_occupancy
  Ba  Ba0  1  0.333333  0.666667  0.750000  1
  Ba  Ba1  1  0.666667  0.333333  0.250000  1
  U  U2  1  0.000000  0.646530  0.500000  1
  U  U3  1  0.000000  0.353470  0.000000  1
  U  U4  1  0.333333  0.666667  0.250000  1
  U  U5  1  0.353470  0.353470  0.500000  1
  U  U6  1  0.646530  0.646530  0.000000  1
  U  U7  1  0.353470  0.000000  0.000000  1
  U  U8  1  0.666667  0.333333  0.750000  1
  U  U9  1  0.646530  0.000000  0.500000  1
  O  O10  1  0.000000  0.745689  0.000000  1
  O  O11  1  0.062793  0.642469  0.343551  1
  O  O12  1  0.062793  0.420324  0.156449  1
  O  O13  1  0.000000  0.254311  0.500000  1
  O  O14  1  0.357531  0.937207  0.156449  1
  O  O15  1  0.333333  0.666667  0.535549  1
  O  O16  1  0.333333  0.666667  0.964451  1
  O  O17  1  0.579676  0.937207  0.343551  1
  O  O18  1  0.254311  0.254311  0.000000  1
  O  O19  1  0.357531  0.420324  0.343551  1
  O  O20  1  0.420324  0.357531  0.656449  1
  O  O21  1  0.254311  0.000000  0.500000  1
  O  O22  1  0.579676  0.642469  0.156449  1
  O  O23  1  0.642469  0.579676  0.843551  1
  O  O24  1  0.745689  0.745689  0.500000  1
  O  O25  1  0.420324  0.062793  0.843551  1
  O  O26  1  0.666667  0.333333  0.035549  1
  O  O27  1  0.666667  0.333333  0.464451  1
  O  O28  1  0.642469  0.062793  0.656449  1
  O  O29  1  0.937207  0.579676  0.656449  1
  O  O30  1  0.745689  0.000000  0.000000  1
  O  O31  1  0.937207  0.357531  0.843551  1
