# generated using pymatgen
data_YbGaFeBr8
_symmetry_space_group_name_H-M   'P 1'
_cell_length_a   7.60307500
_cell_length_b   7.84820727
_cell_length_c   14.32686400
_cell_angle_alpha   88.10607524
_cell_angle_beta   90.00000000
_cell_angle_gamma   90.00000000
_symmetry_Int_Tables_number   1
_chemical_formula_structural   YbGaFeBr8
_chemical_formula_sum   'Yb2 Ga2 Fe2 Br16'
_cell_volume   854.42425524
_cell_formula_units_Z   2
loop_
 _symmetry_equiv_pos_site_id
 _symmetry_equiv_pos_as_xyz
  1  'x, y, z'
loop_
 _atom_site_type_symbol
 _atom_site_label
 _atom_site_symmetry_multiplicity
 _atom_site_fract_x
 _atom_site_fract_y
 _atom_site_fract_z
 _atom_site_occupancy
  Yb  Yb0  1  0.753084  0.075074  0.813394  1
  Yb  Yb1  1  0.246916  0.075074  0.313394  1
  Ga  Ga2  1  0.934244  0.222402  0.578495  1
  Ga  Ga3  1  0.065756  0.222402  0.078495  1
  Fe  Fe4  1  0.572674  0.639587  0.780148  1
  Fe  Fe5  1  0.427326  0.639587  0.280148  1
  Br  Br6  1  0.426641  0.615331  0.641578  1
  Br  Br7  1  0.573359  0.615331  0.141578  1
  Br  Br8  1  0.868755  0.735126  0.759120  1
  Br  Br9  1  0.131245  0.735126  0.259120  1
  Br  Br10  1  0.938717  0.478051  0.495837  1
  Br  Br11  1  0.061283  0.478051  0.995837  1
  Br  Br12  1  0.918557  0.998980  0.997979  1
  Br  Br13  1  0.081443  0.998980  0.497979  1
  Br  Br14  1  0.642707  0.126767  0.617261  1
  Br  Br15  1  0.357293  0.126767  0.117261  1
  Br  Br16  1  0.565171  0.378599  0.871966  1
  Br  Br17  1  0.434829  0.378599  0.371966  1
  Br  Br18  1  0.446307  0.867970  0.865686  1
  Br  Br19  1  0.553693  0.867970  0.365686  1
  Br  Br20  1  0.932579  0.229515  0.230736  1
  Br  Br21  1  0.067421  0.229515  0.730736  1
