# generated using pymatgen
data_NdHo4(RhO6)2
_symmetry_space_group_name_H-M   'P 1'
_cell_length_a   6.89402871
_cell_length_b   6.89402815
_cell_length_c   7.33559690
_cell_angle_alpha   74.57203828
_cell_angle_beta   74.57203677
_cell_angle_gamma   50.90945192
_symmetry_Int_Tables_number   1
_chemical_formula_structural   NdHo4(RhO6)2
_chemical_formula_sum   'Nd1 Ho4 Rh2 O12'
_cell_volume   258.58848366
_cell_formula_units_Z   1
loop_
 _symmetry_equiv_pos_site_id
 _symmetry_equiv_pos_as_xyz
  1  'x, y, z'
loop_
 _atom_site_type_symbol
 _atom_site_label
 _atom_site_symmetry_multiplicity
 _atom_site_fract_x
 _atom_site_fract_y
 _atom_site_fract_z
 _atom_site_occupancy
  Nd  Nd0  1  0.000000  0.000000  0.500000  1
  Ho  Ho1  1  0.302824  0.302824  0.359655  1
  Ho  Ho2  1  0.697176  0.697176  0.640345  1
  Ho  Ho3  1  0.306803  0.306803  0.831618  1
  Ho  Ho4  1  0.693197  0.693197  0.168382  1
  Rh  Rh5  1  0.751002  0.248998  0.000000  1
  Rh  Rh6  1  0.248998  0.751002  0.000000  1
  O  O7  1  0.899889  0.431627  0.916796  1
  O  O8  1  0.431627  0.899889  0.916796  1
  O  O9  1  0.100111  0.568373  0.083204  1
  O  O10  1  0.568373  0.100111  0.083204  1
  O  O11  1  0.096362  0.587646  0.578198  1
  O  O12  1  0.587646  0.096362  0.578198  1
  O  O13  1  0.903638  0.412354  0.421802  1
  O  O14  1  0.412354  0.903638  0.421802  1
  O  O15  1  0.999937  0.999937  0.822945  1
  O  O16  1  0.000063  0.000063  0.177055  1
  O  O17  1  0.499695  0.499695  0.808184  1
  O  O18  1  0.500305  0.500305  0.191816  1
