# generated using pymatgen
data_Ba6LuIn3F24
_symmetry_space_group_name_H-M   'P 1'
_cell_length_a   9.75752879
_cell_length_b   9.75752879
_cell_length_c   5.73881500
_cell_angle_alpha   90.00000000
_cell_angle_beta   90.00000000
_cell_angle_gamma   89.95398735
_symmetry_Int_Tables_number   1
_chemical_formula_structural   Ba6LuIn3F24
_chemical_formula_sum   'Ba6 Lu1 In3 F24'
_cell_volume   546.38877315
_cell_formula_units_Z   1
loop_
 _symmetry_equiv_pos_site_id
 _symmetry_equiv_pos_as_xyz
  1  'x, y, z'
loop_
 _atom_site_type_symbol
 _atom_site_label
 _atom_site_symmetry_multiplicity
 _atom_site_fract_x
 _atom_site_fract_y
 _atom_site_fract_z
 _atom_site_occupancy
  Ba  Ba0  1  0.500299  0.499819  0.000000  1
  Ba  Ba1  1  0.999819  0.000299  0.000000  1
  Ba  Ba2  1  0.321032  0.821032  0.500000  1
  Ba  Ba3  1  0.820931  0.679491  0.500000  1
  Ba  Ba4  1  0.179491  0.320931  0.500000  1
  Ba  Ba5  1  0.679526  0.179526  0.500000  1
  Lu  Lu6  1  0.132365  0.632365  0.000000  1
  In  In7  1  0.633065  0.866625  0.000000  1
  In  In8  1  0.366625  0.133065  0.000000  1
  In  In9  1  0.866226  0.366226  0.000000  1
  F  F10  1  0.289935  0.789935  0.000000  1
  F  F11  1  0.792787  0.708053  0.000000  1
  F  F12  1  0.208053  0.292787  0.000000  1
  F  F13  1  0.708440  0.208440  0.000000  1
  F  F14  1  0.555378  0.726728  0.256426  1
  F  F15  1  0.444312  0.273262  0.256491  1
  F  F16  1  0.275088  0.555916  0.257062  1
  F  F17  1  0.726525  0.444750  0.256670  1
  F  F18  1  0.226728  0.055378  0.743574  1
  F  F19  1  0.055916  0.775088  0.742938  1
  F  F20  1  0.499850  0.999850  0.778763  1
  F  F21  1  0.998895  0.498895  0.777571  1
  F  F22  1  0.998895  0.498895  0.222429  1
  F  F23  1  0.499850  0.999850  0.221237  1
  F  F24  1  0.226728  0.055378  0.256426  1
  F  F25  1  0.055916  0.775088  0.257062  1
  F  F26  1  0.944750  0.226525  0.256670  1
  F  F27  1  0.773262  0.944312  0.256491  1
  F  F28  1  0.275088  0.555916  0.742938  1
  F  F29  1  0.726525  0.444750  0.743330  1
  F  F30  1  0.555378  0.726728  0.743574  1
  F  F31  1  0.444312  0.273262  0.743509  1
  F  F32  1  0.773262  0.944312  0.743509  1
  F  F33  1  0.944750  0.226525  0.743330  1
