# generated using pymatgen
data_Er5ZrTaO12
_symmetry_space_group_name_H-M   'P 1'
_cell_length_a   6.38711278
_cell_length_b   6.34824763
_cell_length_c   6.35410600
_cell_angle_alpha   99.14484081
_cell_angle_beta   98.89756946
_cell_angle_gamma   98.78122426
_symmetry_Int_Tables_number   1
_chemical_formula_structural   Er5ZrTaO12
_chemical_formula_sum   'Er5 Zr1 Ta1 O12'
_cell_volume   247.12041011
_cell_formula_units_Z   1
loop_
 _symmetry_equiv_pos_site_id
 _symmetry_equiv_pos_as_xyz
  1  'x, y, z'
loop_
 _atom_site_type_symbol
 _atom_site_label
 _atom_site_symmetry_multiplicity
 _atom_site_fract_x
 _atom_site_fract_y
 _atom_site_fract_z
 _atom_site_occupancy
  Er  Er0  1  0.390321  0.688750  0.857107  1
  Er  Er1  1  0.861397  0.386993  0.692637  1
  Er  Er2  1  0.316307  0.144717  0.608216  1
  Er  Er3  1  0.612302  0.311193  0.138455  1
  Er  Er4  1  0.138565  0.611070  0.308018  1
  Zr  Zr5  1  0.681783  0.855728  0.387171  1
  Ta  Ta6  1  0.001466  0.997758  0.000599  1
  O  O7  1  0.437706  0.596653  0.183026  1
  O  O8  1  0.175725  0.431062  0.582441  1
  O  O9  1  0.594563  0.170574  0.427702  1
  O  O10  1  0.568803  0.414297  0.819965  1
  O  O11  1  0.817915  0.582400  0.416485  1
  O  O12  1  0.428834  0.822928  0.565827  1
  O  O13  1  0.902923  0.025057  0.690832  1
  O  O14  1  0.955823  0.306390  0.073026  1
  O  O15  1  0.301494  0.080493  0.954582  1
  O  O16  1  0.076195  0.959230  0.308508  1
  O  O17  1  0.044532  0.693102  0.925822  1
  O  O18  1  0.693345  0.921604  0.059577  1
