# generated using pymatgen
data_Tm2ThMg2AlIr3
_symmetry_space_group_name_H-M   'P 1'
_cell_length_a   7.25582093
_cell_length_b   7.25582137
_cell_length_c   4.01742200
_cell_angle_alpha   90.00000000
_cell_angle_beta   90.00000000
_cell_angle_gamma   119.09987567
_symmetry_Int_Tables_number   1
_chemical_formula_structural   Tm2ThMg2AlIr3
_chemical_formula_sum   'Tm2 Th1 Mg2 Al1 Ir3'
_cell_volume   184.80739741
_cell_formula_units_Z   1
loop_
 _symmetry_equiv_pos_site_id
 _symmetry_equiv_pos_as_xyz
  1  'x, y, z'
loop_
 _atom_site_type_symbol
 _atom_site_label
 _atom_site_symmetry_multiplicity
 _atom_site_fract_x
 _atom_site_fract_y
 _atom_site_fract_z
 _atom_site_occupancy
  Tm  Tm0  1  0.408585  0.008675  0.500000  1
  Tm  Tm1  1  0.008675  0.408585  0.500000  1
  Th  Th2  1  0.570519  0.570519  0.500000  1
  Mg  Mg3  1  0.755320  0.008156  0.000000  1
  Mg  Mg4  1  0.008156  0.755320  0.000000  1
  Al  Al5  1  0.233486  0.233486  0.000000  1
  Ir  Ir6  1  0.337150  0.655061  0.000000  1
  Ir  Ir7  1  0.655061  0.337150  0.000000  1
  Ir  Ir8  1  0.023049  0.023049  0.500000  1
