# generated using pymatgen
data_Li4Tb3CeIr4
_symmetry_space_group_name_H-M   'P 1'
_cell_length_a   6.99012021
_cell_length_b   3.93248900
_cell_length_c   8.41992788
_cell_angle_alpha   90.00000000
_cell_angle_beta   90.61044238
_cell_angle_gamma   90.00000000
_symmetry_Int_Tables_number   1
_chemical_formula_structural   Li4Tb3CeIr4
_chemical_formula_sum   'Li4 Tb3 Ce1 Ir4'
_cell_volume   231.43864749
_cell_formula_units_Z   1
loop_
 _symmetry_equiv_pos_site_id
 _symmetry_equiv_pos_as_xyz
  1  'x, y, z'
loop_
 _atom_site_type_symbol
 _atom_site_label
 _atom_site_symmetry_multiplicity
 _atom_site_fract_x
 _atom_site_fract_y
 _atom_site_fract_z
 _atom_site_occupancy
  Li  Li0  1  0.880694  0.250000  0.554733  1
  Li  Li1  1  0.370749  0.250000  0.948013  1
  Li  Li2  1  0.128202  0.750000  0.444077  1
  Li  Li3  1  0.622731  0.750000  0.055871  1
  Tb  Tb4  1  0.951281  0.250000  0.178670  1
  Tb  Tb5  1  0.453168  0.250000  0.317654  1
  Tb  Tb6  1  0.046472  0.750000  0.824798  1
  Ce  Ce7  1  0.545593  0.750000  0.680175  1
  Ir  Ir8  1  0.750516  0.250000  0.860609  1
  Ir  Ir9  1  0.269529  0.250000  0.631506  1
  Ir  Ir10  1  0.239537  0.750000  0.129580  1
  Ir  Ir11  1  0.741531  0.750000  0.374313  1
