# generated using pymatgen
data_Dy6Ho2Cd2CoNi
_symmetry_space_group_name_H-M   'P 1'
_cell_length_a   9.50108869
_cell_length_b   9.50482475
_cell_length_c   9.50560648
_cell_angle_alpha   60.11229688
_cell_angle_beta   60.01527491
_cell_angle_gamma   60.01446191
_symmetry_Int_Tables_number   1
_chemical_formula_structural   Dy6Ho2Cd2CoNi
_chemical_formula_sum   'Dy12 Ho4 Cd4 Co2 Ni2'
_cell_volume   607.64128490
_cell_formula_units_Z   2
loop_
 _symmetry_equiv_pos_site_id
 _symmetry_equiv_pos_as_xyz
  1  'x, y, z'
loop_
 _atom_site_type_symbol
 _atom_site_label
 _atom_site_symmetry_multiplicity
 _atom_site_fract_x
 _atom_site_fract_y
 _atom_site_fract_z
 _atom_site_occupancy
  Dy  Dy0  1  0.936547  0.937754  0.563491  1
  Dy  Dy1  1  0.810430  0.189664  0.189507  1
  Dy  Dy2  1  0.936651  0.563230  0.563348  1
  Dy  Dy3  1  0.936381  0.563515  0.937758  1
  Dy  Dy4  1  0.814609  0.807751  0.188195  1
  Dy  Dy5  1  0.343684  0.348202  0.347878  1
  Dy  Dy6  1  0.562430  0.937439  0.937563  1
  Dy  Dy7  1  0.562244  0.937612  0.563640  1
  Dy  Dy8  1  0.188293  0.811789  0.811858  1
  Dy  Dy9  1  0.189450  0.188143  0.807854  1
  Dy  Dy10  1  0.346323  0.351947  0.955553  1
  Dy  Dy11  1  0.346175  0.955560  0.351897  1
  Ho  Ho12  1  0.814446  0.188379  0.807658  1
  Ho  Ho13  1  0.562212  0.563492  0.937750  1
  Ho  Ho14  1  0.189680  0.807713  0.188164  1
  Ho  Ho15  1  0.960253  0.347916  0.348105  1
  Cd  Cd16  1  0.581082  0.580593  0.257165  1
  Cd  Cd17  1  0.257640  0.580839  0.580742  1
  Cd  Cd18  1  0.580850  0.580701  0.580892  1
  Cd  Cd19  1  0.581176  0.257293  0.580577  1
  Co  Co20  1  0.141452  0.575194  0.141879  1
  Co  Co21  1  0.141324  0.141883  0.575210  1
  Ni  Ni22  1  0.574580  0.141738  0.141535  1
  Ni  Ni23  1  0.142088  0.141656  0.141785  1
