# generated using pymatgen
data_Cs4TaCoBr12
_symmetry_space_group_name_H-M   'P 1'
_cell_length_a   10.99336360
_cell_length_b   11.02975016
_cell_length_c   13.32852000
_cell_angle_alpha   114.43710139
_cell_angle_beta   114.34736957
_cell_angle_gamma   90.00129428
_symmetry_Int_Tables_number   1
_chemical_formula_structural   Cs4TaCoBr12
_chemical_formula_sum   'Cs8 Ta2 Co2 Br24'
_cell_volume   1311.84630593
_cell_formula_units_Z   2
loop_
 _symmetry_equiv_pos_site_id
 _symmetry_equiv_pos_as_xyz
  1  'x, y, z'
loop_
 _atom_site_type_symbol
 _atom_site_label
 _atom_site_symmetry_multiplicity
 _atom_site_fract_x
 _atom_site_fract_y
 _atom_site_fract_z
 _atom_site_occupancy
  Cs  Cs0  1  0.218166  0.000018  0.000051  1
  Cs  Cs1  1  0.781834  0.999982  0.999949  1
  Cs  Cs2  1  0.218162  0.499969  0.000037  1
  Cs  Cs3  1  0.781838  0.500031  0.999963  1
  Cs  Cs4  1  0.000039  0.282189  0.499966  1
  Cs  Cs5  1  0.999961  0.717810  0.500032  1
  Cs  Cs6  1  0.499987  0.282270  0.499978  1
  Cs  Cs7  1  0.500013  0.717729  0.500020  1
  Ta  Ta8  1  0.624985  0.874970  0.249993  1
  Ta  Ta9  1  0.375015  0.125030  0.750008  1
  Co  Co10  1  0.124927  0.375040  0.249979  1
  Co  Co11  1  0.875073  0.624960  0.750022  1
  Br  Br12  1  0.011801  0.261862  0.023858  1
  Br  Br13  1  0.507761  0.757716  0.015651  1
  Br  Br14  1  0.345255  0.372668  0.245170  1
  Br  Br15  1  0.899800  0.372596  0.245146  1
  Br  Br16  1  0.623467  0.104329  0.246965  1
  Br  Br17  1  0.623450  0.642610  0.246930  1
  Br  Br18  1  0.394952  0.876461  0.252987  1
  Br  Br19  1  0.857999  0.876557  0.252983  1
  Br  Br20  1  0.127269  0.155394  0.254782  1
  Br  Br21  1  0.127385  0.599486  0.254913  1
  Br  Br22  1  0.742212  0.992257  0.484339  1
  Br  Br23  1  0.238093  0.488186  0.476139  1
  Br  Br24  1  0.761907  0.511814  0.523861  1
  Br  Br25  1  0.257789  0.007744  0.515661  1
  Br  Br26  1  0.872615  0.400514  0.745086  1
  Br  Br27  1  0.872731  0.844605  0.745217  1
  Br  Br28  1  0.142001  0.123443  0.747018  1
  Br  Br29  1  0.605048  0.123539  0.747014  1
  Br  Br30  1  0.376550  0.357389  0.753069  1
  Br  Br31  1  0.376533  0.895671  0.753034  1
  Br  Br32  1  0.100201  0.627404  0.754854  1
  Br  Br33  1  0.654745  0.627332  0.754830  1
  Br  Br34  1  0.492239  0.242284  0.984348  1
  Br  Br35  1  0.988199  0.738138  0.976142  1
