# generated using pymatgen
data_Li3DyTaNi9P7
_symmetry_space_group_name_H-M   'P 1'
_cell_length_a   9.18244096
_cell_length_b   9.09792001
_cell_length_c   3.67692000
_cell_angle_alpha   90.00000000
_cell_angle_beta   90.00000000
_cell_angle_gamma   119.80379555
_symmetry_Int_Tables_number   1
_chemical_formula_structural   Li3DyTaNi9P7
_chemical_formula_sum   'Li3 Dy1 Ta1 Ni9 P7'
_cell_volume   266.54486402
_cell_formula_units_Z   1
loop_
 _symmetry_equiv_pos_site_id
 _symmetry_equiv_pos_as_xyz
  1  'x, y, z'
loop_
 _atom_site_type_symbol
 _atom_site_label
 _atom_site_symmetry_multiplicity
 _atom_site_fract_x
 _atom_site_fract_y
 _atom_site_fract_z
 _atom_site_occupancy
  Li  Li0  1  0.891967  0.117739  0.500000  1
  Li  Li1  1  0.221729  0.108174  0.500000  1
  Li  Li2  1  0.663169  0.329387  0.500000  1
  Dy  Dy3  1  0.330864  0.665307  0.000000  1
  Ta  Ta4  1  0.883165  0.781506  0.500000  1
  Ni  Ni5  1  0.714879  0.882054  0.000000  1
  Ni  Ni6  1  0.166049  0.284744  0.000000  1
  Ni  Ni7  1  0.127845  0.839517  0.000000  1
  Ni  Ni8  1  0.630598  0.567811  0.000000  1
  Ni  Ni9  1  0.936413  0.363543  0.000000  1
  Ni  Ni10  1  0.430703  0.061446  0.000000  1
  Ni  Ni11  1  0.563353  0.957045  0.500000  1
  Ni  Ni12  1  0.392154  0.434073  0.500000  1
  Ni  Ni13  1  0.050175  0.609266  0.500000  1
  P  P14  1  0.588580  0.712780  0.500000  1
  P  P15  1  0.121375  0.406317  0.500000  1
  P  P16  1  0.287815  0.880840  0.500000  1
  P  P17  1  0.001688  0.002055  0.000000  1
  P  P18  1  0.882107  0.574278  0.000000  1
  P  P19  1  0.693930  0.119554  0.000000  1
  P  P20  1  0.421438  0.302563  0.000000  1
