# generated using pymatgen
data_Sm3DyRu4F28
_symmetry_space_group_name_H-M   'P 1'
_cell_length_a   5.60597654
_cell_length_b   9.04089369
_cell_length_c   12.10316131
_cell_angle_alpha   63.17826909
_cell_angle_beta   90.00349578
_cell_angle_gamma   90.07615858
_symmetry_Int_Tables_number   1
_chemical_formula_structural   Sm3DyRu4F28
_chemical_formula_sum   'Sm3 Dy1 Ru4 F28'
_cell_volume   547.42891799
_cell_formula_units_Z   1
loop_
 _symmetry_equiv_pos_site_id
 _symmetry_equiv_pos_as_xyz
  1  'x, y, z'
loop_
 _atom_site_type_symbol
 _atom_site_label
 _atom_site_symmetry_multiplicity
 _atom_site_fract_x
 _atom_site_fract_y
 _atom_site_fract_z
 _atom_site_occupancy
  Sm  Sm0  1  0.258611  0.187005  0.732583  1
  Sm  Sm1  1  0.241146  0.190803  0.231734  1
  Sm  Sm2  1  0.740881  0.808377  0.268407  1
  Dy  Dy3  1  0.759228  0.808192  0.768723  1
  Ru  Ru4  1  0.754910  0.275205  0.955108  1
  Ru  Ru5  1  0.255667  0.727521  0.546350  1
  Ru  Ru6  1  0.245226  0.727266  0.041397  1
  Ru  Ru7  1  0.745974  0.271543  0.457271  1
  F  F8  1  0.446971  0.706783  0.916194  1
  F  F9  1  0.943123  0.293348  0.583214  1
  F  F10  1  0.557794  0.295173  0.081790  1
  F  F11  1  0.055755  0.706663  0.420542  1
  F  F12  1  0.452763  0.281452  0.544436  1
  F  F13  1  0.952438  0.719108  0.952016  1
  F  F14  1  0.545723  0.717608  0.457175  1
  F  F15  1  0.047867  0.284012  0.042776  1
  F  F16  1  0.765341  0.512195  0.860589  1
  F  F17  1  0.266352  0.491301  0.640258  1
  F  F18  1  0.232295  0.491123  0.136616  1
  F  F19  1  0.734162  0.508422  0.362596  1
  F  F20  1  0.755945  0.039697  0.047049  1
  F  F21  1  0.256775  0.962732  0.453514  1
  F  F22  1  0.245007  0.963189  0.950357  1
  F  F23  1  0.744606  0.036420  0.548567  1
  F  F24  1  0.969825  0.732214  0.640227  1
  F  F25  1  0.468347  0.269578  0.863103  1
  F  F26  1  0.033616  0.269464  0.364882  1
  F  F27  1  0.530680  0.730256  0.135067  1
  F  F28  1  0.048363  0.747381  0.169256  1
  F  F29  1  0.551654  0.252037  0.328616  1
  F  F30  1  0.949323  0.253829  0.827466  1
  F  F31  1  0.456387  0.750031  0.672642  1
  F  F32  1  0.414330  0.969405  0.231360  1
  F  F33  1  0.914250  0.029983  0.268688  1
  F  F34  1  0.583631  0.022745  0.767308  1
  F  F35  1  0.075036  0.967941  0.732124  1
