# generated using pymatgen
data_La4Ga24Pt8Rh
_symmetry_space_group_name_H-M   'P 1'
_cell_length_a   7.63923660
_cell_length_b   7.68846780
_cell_length_c   13.52095589
_cell_angle_alpha   84.55992513
_cell_angle_beta   79.23879868
_cell_angle_gamma   60.07501906
_symmetry_Int_Tables_number   1
_chemical_formula_structural   La4Ga24Pt8Rh
_chemical_formula_sum   'La4 Ga24 Pt8 Rh1'
_cell_volume   676.15968709
_cell_formula_units_Z   1
loop_
 _symmetry_equiv_pos_site_id
 _symmetry_equiv_pos_as_xyz
  1  'x, y, z'
loop_
 _atom_site_type_symbol
 _atom_site_label
 _atom_site_symmetry_multiplicity
 _atom_site_fract_x
 _atom_site_fract_y
 _atom_site_fract_z
 _atom_site_occupancy
  La  La0  1  0.395299  0.166738  0.809073  1
  La  La1  1  0.604701  0.833262  0.190927  1
  La  La2  1  0.731151  0.498893  0.809497  1
  La  La3  1  0.268849  0.501107  0.190503  1
  Ga  Ga4  1  0.691625  0.830265  0.943399  1
  Ga  Ga5  1  0.308375  0.169735  0.056601  1
  Ga  Ga6  1  0.146752  0.831952  0.559724  1
  Ga  Ga7  1  0.853248  0.168048  0.440276  1
  Ga  Ga8  1  0.480319  0.166791  0.556536  1
  Ga  Ga9  1  0.519681  0.833209  0.443464  1
  Ga  Ga10  1  0.215904  0.165207  0.329610  1
  Ga  Ga11  1  0.784096  0.834793  0.670390  1
  Ga  Ga12  1  0.435834  0.507034  0.669873  1
  Ga  Ga13  1  0.564166  0.492966  0.330127  1
  Ga  Ga14  1  0.108724  0.160149  0.668068  1
  Ga  Ga15  1  0.891276  0.839851  0.331932  1
  Ga  Ga16  1  0.348991  0.500714  0.944085  1
  Ga  Ga17  1  0.651009  0.499286  0.055915  1
  Ga  Ga18  1  0.016787  0.171522  0.952697  1
  Ga  Ga19  1  0.983213  0.828478  0.047303  1
  Ga  Ga20  1  0.185427  0.498787  0.442879  1
  Ga  Ga21  1  0.814573  0.501213  0.557121  1
  Ga  Ga22  1  0.739373  0.163770  0.182543  1
  Ga  Ga23  1  0.260627  0.836230  0.817457  1
  Ga  Ga24  1  0.061029  0.631018  0.818782  1
  Ga  Ga25  1  0.938971  0.368982  0.181218  1
  Ga  Ga26  1  0.860126  0.036967  0.816843  1
  Ga  Ga27  1  0.139874  0.963033  0.183157  1
  Pt  Pt28  1  0.119147  0.497274  0.637266  1
  Pt  Pt29  1  0.880853  0.502726  0.362734  1
  Pt  Pt30  1  0.659555  0.170273  0.999959  1
  Pt  Pt31  1  0.340445  0.829727  0.000041  1
  Pt  Pt32  1  0.540646  0.166692  0.362448  1
  Pt  Pt33  1  0.459354  0.833308  0.637552  1
  Pt  Pt34  1  0.782057  0.171281  0.635302  1
  Pt  Pt35  1  0.217943  0.828719  0.364698  1
  Rh  Rh36  1  0.000000  0.500000  0.000000  1
