# generated using pymatgen
data_BaLi2Nd4O8
_symmetry_space_group_name_H-M   'P 1'
_cell_length_a   7.12412099
_cell_length_b   7.12412077
_cell_length_c   9.93735805
_cell_angle_alpha   61.66613903
_cell_angle_beta   61.66614054
_cell_angle_gamma   29.87926653
_symmetry_Int_Tables_number   1
_chemical_formula_structural   BaLi2Nd4O8
_chemical_formula_sum   'Ba1 Li2 Nd4 O8'
_cell_volume   218.85302916
_cell_formula_units_Z   1
loop_
 _symmetry_equiv_pos_site_id
 _symmetry_equiv_pos_as_xyz
  1  'x, y, z'
loop_
 _atom_site_type_symbol
 _atom_site_label
 _atom_site_symmetry_multiplicity
 _atom_site_fract_x
 _atom_site_fract_y
 _atom_site_fract_z
 _atom_site_occupancy
  Ba  Ba0  1  0.500000  0.500000  0.000000  1
  Li  Li1  1  0.188498  0.188498  0.739634  1
  Li  Li2  1  0.811502  0.811502  0.260366  1
  Nd  Nd3  1  0.610948  0.610948  0.560589  1
  Nd  Nd4  1  0.389052  0.389052  0.439411  1
  Nd  Nd5  1  0.163352  0.163352  0.187422  1
  Nd  Nd6  1  0.836648  0.836648  0.812578  1
  O  O7  1  0.044953  0.044953  0.747977  1
  O  O8  1  0.955047  0.955047  0.252023  1
  O  O9  1  0.238173  0.238173  0.377134  1
  O  O10  1  0.761827  0.761827  0.622866  1
  O  O11  1  0.813444  0.813444  0.066367  1
  O  O12  1  0.186556  0.186556  0.933633  1
  O  O13  1  0.582782  0.582782  0.342988  1
  O  O14  1  0.417218  0.417218  0.657012  1
