# generated using pymatgen
data_DyMn2PC
_symmetry_space_group_name_H-M   'P 1'
_cell_length_a   5.52585830
_cell_length_b   5.52585866
_cell_length_c   6.88767300
_cell_angle_alpha   90.00000000
_cell_angle_beta   90.00000000
_cell_angle_gamma   141.41954115
_symmetry_Int_Tables_number   1
_chemical_formula_structural   DyMn2PC
_chemical_formula_sum   'Dy2 Mn4 P2 C2'
_cell_volume   131.15571175
_cell_formula_units_Z   2
loop_
 _symmetry_equiv_pos_site_id
 _symmetry_equiv_pos_as_xyz
  1  'x, y, z'
loop_
 _atom_site_type_symbol
 _atom_site_label
 _atom_site_symmetry_multiplicity
 _atom_site_fract_x
 _atom_site_fract_y
 _atom_site_fract_z
 _atom_site_occupancy
  Dy  Dy0  1  0.543344  0.456656  0.250000  1
  Dy  Dy1  1  0.456656  0.543344  0.750000  1
  Mn  Mn2  1  0.829040  0.170960  0.057924  1
  Mn  Mn3  1  0.170960  0.829040  0.942076  1
  Mn  Mn4  1  0.170960  0.829040  0.557924  1
  Mn  Mn5  1  0.829040  0.170960  0.442076  1
  P  P6  1  0.266475  0.733525  0.250000  1
  P  P7  1  0.733525  0.266475  0.750000  1
  C  C8  1  0.000000  0.000000  0.000000  1
  C  C9  1  0.000000  0.000000  0.500000  1
