# generated using pymatgen
data_HfZr6P3S
_symmetry_space_group_name_H-M   'P 1'
_cell_length_a   8.13814879
_cell_length_b   8.13814967
_cell_length_c   14.69382113
_cell_angle_alpha   75.66838256
_cell_angle_beta   75.66838070
_cell_angle_gamma   25.60831020
_symmetry_Int_Tables_number   1
_chemical_formula_structural   HfZr6P3S
_chemical_formula_sum   'Hf2 Zr12 P6 S2'
_cell_volume   406.84011340
_cell_formula_units_Z   2
loop_
 _symmetry_equiv_pos_site_id
 _symmetry_equiv_pos_as_xyz
  1  'x, y, z'
loop_
 _atom_site_type_symbol
 _atom_site_label
 _atom_site_symmetry_multiplicity
 _atom_site_fract_x
 _atom_site_fract_y
 _atom_site_fract_z
 _atom_site_occupancy
  Hf  Hf0  1  0.500000  0.500000  0.500000  1
  Hf  Hf1  1  0.000000  0.000000  0.000000  1
  Zr  Zr2  1  0.660848  0.660848  0.029365  1
  Zr  Zr3  1  0.339152  0.339152  0.970635  1
  Zr  Zr4  1  0.996789  0.996789  0.668257  1
  Zr  Zr5  1  0.003211  0.003211  0.331743  1
  Zr  Zr6  1  0.825304  0.825304  0.541843  1
  Zr  Zr7  1  0.174696  0.174696  0.458157  1
  Zr  Zr8  1  0.206734  0.206734  0.201306  1
  Zr  Zr9  1  0.793266  0.793266  0.798694  1
  Zr  Zr10  1  0.196296  0.196296  0.689894  1
  Zr  Zr11  1  0.803704  0.803704  0.310106  1
  Zr  Zr12  1  0.431868  0.431868  0.167564  1
  Zr  Zr13  1  0.568132  0.568132  0.832436  1
  P  P14  1  0.370696  0.370696  0.660581  1
  P  P15  1  0.629304  0.629304  0.339419  1
  P  P16  1  0.374830  0.374830  0.398799  1
  P  P17  1  0.625170  0.625170  0.601201  1
  P  P18  1  0.175206  0.175206  0.889655  1
  P  P19  1  0.824794  0.824794  0.110345  1
  S  S20  1  0.062769  0.062769  0.147866  1
  S  S21  1  0.937231  0.937231  0.852134  1
