# generated using pymatgen
data_TmZr2IrF15
_symmetry_space_group_name_H-M   'P 1'
_cell_length_a   8.09066471
_cell_length_b   8.09066464
_cell_length_c   8.09586802
_cell_angle_alpha   79.85747779
_cell_angle_beta   79.85747457
_cell_angle_gamma   99.63793214
_symmetry_Int_Tables_number   1
_chemical_formula_structural   TmZr2IrF15
_chemical_formula_sum   'Tm2 Zr4 Ir2 F30'
_cell_volume   502.62989897
_cell_formula_units_Z   2
loop_
 _symmetry_equiv_pos_site_id
 _symmetry_equiv_pos_as_xyz
  1  'x, y, z'
loop_
 _atom_site_type_symbol
 _atom_site_label
 _atom_site_symmetry_multiplicity
 _atom_site_fract_x
 _atom_site_fract_y
 _atom_site_fract_z
 _atom_site_occupancy
  Tm  Tm0  1  0.176280  0.823720  0.250000  1
  Tm  Tm1  1  0.823720  0.176280  0.750000  1
  Zr  Zr2  1  0.748620  0.677293  0.673270  1
  Zr  Zr3  1  0.322707  0.251380  0.826730  1
  Zr  Zr4  1  0.251380  0.322707  0.326730  1
  Zr  Zr5  1  0.677293  0.748620  0.173270  1
  Ir  Ir6  1  0.749303  0.250697  0.250000  1
  Ir  Ir7  1  0.250697  0.749303  0.750000  1
  F  F8  1  0.314526  0.351627  0.054129  1
  F  F9  1  0.938272  0.812218  0.151970  1
  F  F10  1  0.844394  0.456083  0.685888  1
  F  F11  1  0.456083  0.844394  0.185888  1
  F  F12  1  0.812218  0.938272  0.651970  1
  F  F13  1  0.351627  0.314526  0.554128  1
  F  F14  1  0.685474  0.648373  0.945871  1
  F  F15  1  0.061728  0.187782  0.848030  1
  F  F16  1  0.155606  0.543917  0.314112  1
  F  F17  1  0.543917  0.155606  0.814112  1
  F  F18  1  0.187782  0.061728  0.348030  1
  F  F19  1  0.648373  0.685474  0.445871  1
  F  F20  1  0.773345  0.284303  0.001812  1
  F  F21  1  0.001270  0.274220  0.212971  1
  F  F22  1  0.785233  0.503672  0.224665  1
  F  F23  1  0.503672  0.785233  0.724665  1
  F  F24  1  0.274220  0.001270  0.712971  1
  F  F25  1  0.284303  0.773345  0.501812  1
  F  F26  1  0.226655  0.715697  0.998188  1
  F  F27  1  0.998730  0.725780  0.787029  1
  F  F28  1  0.214767  0.496328  0.775335  1
  F  F29  1  0.496328  0.214767  0.275335  1
  F  F30  1  0.725780  0.998730  0.287029  1
  F  F31  1  0.715697  0.226655  0.498188  1
  F  F32  1  0.469562  0.530438  0.250000  1
  F  F33  1  0.746679  0.958094  0.971005  1
  F  F34  1  0.041906  0.253321  0.528995  1
  F  F35  1  0.253321  0.041906  0.028995  1
  F  F36  1  0.958094  0.746679  0.471005  1
  F  F37  1  0.530438  0.469562  0.750000  1
