# generated using pymatgen
data_ScTa(ZnRh2)2
_symmetry_space_group_name_H-M   'P 1'
_cell_length_a   4.41729000
_cell_length_b   6.21801700
_cell_length_c   13.21613000
_cell_angle_alpha   89.99999566
_cell_angle_beta   90.00041982
_cell_angle_gamma   89.99997781
_symmetry_Int_Tables_number   1
_chemical_formula_structural   ScTa(ZnRh2)2
_chemical_formula_sum   'Sc3 Ta3 Zn6 Rh12'
_cell_volume   363.00459217
_cell_formula_units_Z   3
loop_
 _symmetry_equiv_pos_site_id
 _symmetry_equiv_pos_as_xyz
  1  'x, y, z'
loop_
 _atom_site_type_symbol
 _atom_site_label
 _atom_site_symmetry_multiplicity
 _atom_site_fract_x
 _atom_site_fract_y
 _atom_site_fract_z
 _atom_site_occupancy
  Sc  Sc0  1  0.999999  0.000001  0.001524  1
  Sc  Sc1  1  0.499940  0.500001  0.166665  1
  Sc  Sc2  1  0.999944  0.000000  0.331806  1
  Ta  Ta3  1  0.499998  0.500000  0.496823  1
  Ta  Ta4  1  0.000056  0.000000  0.666648  1
  Ta  Ta5  1  0.500057  0.500000  0.836503  1
  Zn  Zn6  1  0.000001  0.500000  0.000947  1
  Zn  Zn7  1  0.499925  0.000000  0.166672  1
  Zn  Zn8  1  0.999920  0.499999  0.332368  1
  Zn  Zn9  1  0.499998  0.000001  0.499530  1
  Zn  Zn10  1  0.000090  0.499999  0.666659  1
  Zn  Zn11  1  0.500068  0.999999  0.833829  1
  Rh  Rh12  1  0.500008  0.253081  0.995888  1
  Rh  Rh13  1  0.500002  0.746917  0.995885  1
  Rh  Rh14  1  0.999938  0.249296  0.166684  1
  Rh  Rh15  1  0.999936  0.750705  0.166684  1
  Rh  Rh16  1  0.499939  0.253086  0.337471  1
  Rh  Rh17  1  0.499937  0.746914  0.337471  1
  Rh  Rh18  1  0.000000  0.253214  0.504580  1
  Rh  Rh19  1  0.999997  0.746791  0.504580  1
  Rh  Rh20  1  0.500062  0.250685  0.666668  1
  Rh  Rh21  1  0.500059  0.749312  0.666665  1
  Rh  Rh22  1  0.000062  0.253197  0.828725  1
  Rh  Rh23  1  0.000062  0.746801  0.828725  1
