# generated using pymatgen
data_GdMg2P6BrN12
_symmetry_space_group_name_H-M   'P 1'
_cell_length_a   7.38226687
_cell_length_b   7.37761447
_cell_length_c   7.37761474
_cell_angle_alpha   109.30823142
_cell_angle_beta   109.74385035
_cell_angle_gamma   109.74383064
_symmetry_Int_Tables_number   1
_chemical_formula_structural   GdMg2P6BrN12
_chemical_formula_sum   'Gd1 Mg2 P6 Br1 N12'
_cell_volume   307.84187881
_cell_formula_units_Z   1
loop_
 _symmetry_equiv_pos_site_id
 _symmetry_equiv_pos_as_xyz
  1  'x, y, z'
loop_
 _atom_site_type_symbol
 _atom_site_label
 _atom_site_symmetry_multiplicity
 _atom_site_fract_x
 _atom_site_fract_y
 _atom_site_fract_z
 _atom_site_occupancy
  Gd  Gd0  1  0.355156  0.016234  0.016234  1
  Mg  Mg1  1  0.004791  0.389332  0.004456  1
  Mg  Mg2  1  0.004791  0.004456  0.389332  1
  P  P3  1  0.504577  0.258338  0.741322  1
  P  P4  1  0.258579  0.747348  0.498619  1
  P  P5  1  0.754247  0.499978  0.249908  1
  P  P6  1  0.754247  0.249908  0.499978  1
  P  P7  1  0.504577  0.741322  0.258338  1
  P  P8  1  0.258579  0.498619  0.747348  1
  Br  Br9  1  0.958904  0.008584  0.008584  1
  N  N10  1  0.422538  0.699298  0.421777  1
  N  N11  1  0.682650  0.385498  0.385498  1
  N  N12  1  0.422538  0.421777  0.699298  1
  N  N13  1  0.725872  0.292696  0.718339  1
  N  N14  1  0.003208  0.572235  0.282635  1
  N  N15  1  0.285688  0.573783  0.999348  1
  N  N16  1  0.285688  0.999348  0.573783  1
  N  N17  1  0.003208  0.282635  0.572235  1
  N  N18  1  0.725872  0.718339  0.292696  1
  N  N19  1  0.579713  0.992070  0.292447  1
  N  N20  1  0.284863  0.715750  0.715750  1
  N  N21  1  0.579713  0.292447  0.992070  1
