# generated using pymatgen
data_Sc3In2HgPt2
_symmetry_space_group_name_H-M   'P 1'
_cell_length_a   7.52431600
_cell_length_b   7.53736661
_cell_length_c   3.33979500
_cell_angle_alpha   90.00000000
_cell_angle_beta   90.00000000
_cell_angle_gamma   119.94274045
_symmetry_Int_Tables_number   1
_chemical_formula_structural   Sc3In2HgPt2
_chemical_formula_sum   'Sc3 In2 Hg1 Pt2'
_cell_volume   164.12978479
_cell_formula_units_Z   1
loop_
 _symmetry_equiv_pos_site_id
 _symmetry_equiv_pos_as_xyz
  1  'x, y, z'
loop_
 _atom_site_type_symbol
 _atom_site_label
 _atom_site_symmetry_multiplicity
 _atom_site_fract_x
 _atom_site_fract_y
 _atom_site_fract_z
 _atom_site_occupancy
  Sc  Sc0  1  0.579417  0.000000  0.500001  1
  Sc  Sc1  1  0.419811  0.420444  0.500001  1
  Sc  Sc2  1  0.999367  0.579556  0.500001  1
  In  In3  1  0.999911  0.232247  0.000000  1
  In  In4  1  0.767664  0.767753  0.000000  1
  Hg  Hg5  1  0.232528  0.000000  0.000000  1
  Pt  Pt6  1  0.667640  0.333978  0.000000  1
  Pt  Pt7  1  0.333661  0.666022  0.000000  1
