# generated using pymatgen
data_YBPd6Au
_symmetry_space_group_name_H-M   'P 1'
_cell_length_a   5.86099873
_cell_length_b   5.86099832
_cell_length_c   5.86099900
_cell_angle_alpha   60.00000179
_cell_angle_beta   60.00000411
_cell_angle_gamma   59.99999717
_symmetry_Int_Tables_number   1
_chemical_formula_structural   YBPd6Au
_chemical_formula_sum   'Y1 B1 Pd6 Au1'
_cell_volume   142.36390214
_cell_formula_units_Z   1
loop_
 _symmetry_equiv_pos_site_id
 _symmetry_equiv_pos_as_xyz
  1  'x, y, z'
loop_
 _atom_site_type_symbol
 _atom_site_label
 _atom_site_symmetry_multiplicity
 _atom_site_fract_x
 _atom_site_fract_y
 _atom_site_fract_z
 _atom_site_occupancy
  Y  Y0  1  0.750000  0.750000  0.750000  1
  B  B1  1  0.000000  0.000000  0.000000  1
  Pd  Pd2  1  0.744658  0.255343  0.255343  1
  Pd  Pd3  1  0.255343  0.744658  0.255343  1
  Pd  Pd4  1  0.744657  0.744657  0.255344  1
  Pd  Pd5  1  0.255343  0.255343  0.744658  1
  Pd  Pd6  1  0.744657  0.255344  0.744657  1
  Pd  Pd7  1  0.255344  0.744657  0.744657  1
  Au  Au8  1  0.250000  0.250000  0.250000  1
