# generated using pymatgen
data_Cs3KIn3FeI16
_symmetry_space_group_name_H-M   'P 1'
_cell_length_a   8.49198718
_cell_length_b   9.23400993
_cell_length_c   17.17893861
_cell_angle_alpha   86.39628641
_cell_angle_beta   90.81174089
_cell_angle_gamma   90.33593611
_symmetry_Int_Tables_number   1
_chemical_formula_structural   Cs3KIn3FeI16
_chemical_formula_sum   'Cs3 K1 In3 Fe1 I16'
_cell_volume   1344.27281497
_cell_formula_units_Z   1
loop_
 _symmetry_equiv_pos_site_id
 _symmetry_equiv_pos_as_xyz
  1  'x, y, z'
loop_
 _atom_site_type_symbol
 _atom_site_label
 _atom_site_symmetry_multiplicity
 _atom_site_fract_x
 _atom_site_fract_y
 _atom_site_fract_z
 _atom_site_occupancy
  Cs  Cs0  1  0.505661  0.255562  0.642290  1
  Cs  Cs1  1  0.011528  0.743464  0.862508  1
  Cs  Cs2  1  0.491808  0.745623  0.356848  1
  K  K3  1  0.004327  0.250232  0.133163  1
  In  In4  1  0.349696  0.247986  0.358655  1
  In  In5  1  0.864353  0.752741  0.139267  1
  In  In6  1  0.643379  0.752307  0.639224  1
  Fe  Fe7  1  0.139431  0.247817  0.863851  1
  I  I8  1  0.873338  0.148602  0.909990  1
  I  I9  1  0.355053  0.856674  0.585730  1
  I  I10  1  0.147100  0.869647  0.087345  1
  I  I11  1  0.638436  0.145241  0.412133  1
  I  I12  1  0.382840  0.406123  0.217303  1
  I  I13  1  0.901022  0.582144  0.276114  1
  I  I14  1  0.598748  0.592951  0.779247  1
  I  I15  1  0.100231  0.399033  0.734973  1
  I  I16  1  0.666687  0.983760  0.161219  1
  I  I17  1  0.137577  0.027539  0.333381  1
  I  I18  1  0.336648  0.046005  0.842165  1
  I  I19  1  0.854941  0.974279  0.663075  1
  I  I20  1  0.233229  0.426789  0.467437  1
  I  I21  1  0.745805  0.566048  0.032690  1
  I  I22  1  0.765980  0.573379  0.532576  1
  I  I23  1  0.252185  0.406054  0.968819  1
