# generated using pymatgen
data_Nd3Ho(Rh2O7)2
_symmetry_space_group_name_H-M   'P 1'
_cell_length_a   7.33152729
_cell_length_b   7.35613509
_cell_length_c   7.35613400
_cell_angle_alpha   59.99999591
_cell_angle_beta   59.88890363
_cell_angle_gamma   59.88891338
_symmetry_Int_Tables_number   1
_chemical_formula_structural   Nd3Ho(Rh2O7)2
_chemical_formula_sum   'Nd3 Ho1 Rh4 O14'
_cell_volume   280.05767763
_cell_formula_units_Z   1
loop_
 _symmetry_equiv_pos_site_id
 _symmetry_equiv_pos_as_xyz
  1  'x, y, z'
loop_
 _atom_site_type_symbol
 _atom_site_label
 _atom_site_symmetry_multiplicity
 _atom_site_fract_x
 _atom_site_fract_y
 _atom_site_fract_z
 _atom_site_occupancy
  Nd  Nd0  1  0.125000  0.125000  0.125000  1
  Nd  Nd1  1  0.125000  0.625000  0.125000  1
  Nd  Nd2  1  0.125000  0.125000  0.625000  1
  Ho  Ho3  1  0.625000  0.125000  0.125000  1
  Rh  Rh4  1  0.625000  0.625000  0.625000  1
  Rh  Rh5  1  0.625000  0.625000  0.125000  1
  Rh  Rh6  1  0.125000  0.625000  0.625000  1
  Rh  Rh7  1  0.625000  0.125000  0.625000  1
  O  O8  1  0.262462  0.245846  0.245846  1
  O  O9  1  0.292140  0.708247  0.291367  1
  O  O10  1  0.957860  0.958633  0.541753  1
  O  O11  1  0.547984  0.958334  0.535350  1
  O  O12  1  0.702016  0.714650  0.291666  1
  O  O13  1  0.957860  0.541753  0.541753  1
  O  O14  1  0.702016  0.291666  0.714650  1
  O  O15  1  0.292140  0.291367  0.708247  1
  O  O16  1  0.702016  0.291666  0.291666  1
  O  O17  1  0.292140  0.708247  0.708247  1
  O  O18  1  0.957860  0.541753  0.958633  1
  O  O19  1  0.547984  0.535350  0.958334  1
  O  O20  1  0.987538  0.004154  0.004154  1
  O  O21  1  0.547984  0.958334  0.958334  1
