# generated using pymatgen
data_Y7Er9Mg2(InRh2)2
_symmetry_space_group_name_H-M   'P 1'
_cell_length_a   9.68669884
_cell_length_b   9.64576697
_cell_length_c   9.68358000
_cell_angle_alpha   60.03482518
_cell_angle_beta   59.74121084
_cell_angle_gamma   59.84811579
_symmetry_Int_Tables_number   1
_chemical_formula_structural   Y7Er9Mg2(InRh2)2
_chemical_formula_sum   'Y7 Er9 Mg2 In2 Rh4'
_cell_volume   637.95686034
_cell_formula_units_Z   1
loop_
 _symmetry_equiv_pos_site_id
 _symmetry_equiv_pos_as_xyz
  1  'x, y, z'
loop_
 _atom_site_type_symbol
 _atom_site_label
 _atom_site_symmetry_multiplicity
 _atom_site_fract_x
 _atom_site_fract_y
 _atom_site_fract_z
 _atom_site_occupancy
  Y  Y0  1  0.187974  0.188730  0.811934  1
  Y  Y1  1  0.440937  0.059605  0.059144  1
  Y  Y2  1  0.433725  0.067920  0.429752  1
  Y  Y3  1  0.064134  0.437277  0.064086  1
  Y  Y4  1  0.650145  0.049070  0.644460  1
  Y  Y5  1  0.187462  0.813247  0.813893  1
  Y  Y6  1  0.061409  0.063258  0.436738  1
  Er  Er7  1  0.809499  0.191130  0.189736  1
  Er  Er8  1  0.811678  0.811131  0.190240  1
  Er  Er9  1  0.652486  0.645076  0.050412  1
  Er  Er10  1  0.654545  0.656094  0.652040  1
  Er  Er11  1  0.061035  0.439811  0.435640  1
  Er  Er12  1  0.039364  0.651263  0.653206  1
  Er  Er13  1  0.810377  0.191081  0.811302  1
  Er  Er14  1  0.437154  0.438730  0.061718  1
  Er  Er15  1  0.190292  0.809377  0.189865  1
  Mg  Mg16  1  0.424564  0.732216  0.422886  1
  Mg  Mg17  1  0.422944  0.422426  0.734245  1
  In  In18  1  0.748071  0.419883  0.419126  1
  In  In19  1  0.414649  0.417126  0.419580  1
  Rh  Rh20  1  0.852892  0.427138  0.860170  1
  Rh  Rh21  1  0.862499  0.856728  0.422011  1
  Rh  Rh22  1  0.429589  0.852382  0.865390  1
  Rh  Rh23  1  0.852579  0.859299  0.862429  1
