# generated using pymatgen
data_Dy2Y2Al18Ir5Pt
_symmetry_space_group_name_H-M   'P 1'
_cell_length_a   7.56562229
_cell_length_b   7.56580397
_cell_length_c   9.46251802
_cell_angle_alpha   89.96951252
_cell_angle_beta   89.96977025
_cell_angle_gamma   119.62677469
_symmetry_Int_Tables_number   1
_chemical_formula_structural   Dy2Y2Al18Ir5Pt
_chemical_formula_sum   'Dy2 Y2 Al18 Ir5 Pt1'
_cell_volume   470.82326910
_cell_formula_units_Z   1
loop_
 _symmetry_equiv_pos_site_id
 _symmetry_equiv_pos_as_xyz
  1  'x, y, z'
loop_
 _atom_site_type_symbol
 _atom_site_label
 _atom_site_symmetry_multiplicity
 _atom_site_fract_x
 _atom_site_fract_y
 _atom_site_fract_z
 _atom_site_occupancy
  Dy  Dy0  1  0.670658  0.995054  0.750498  1
  Dy  Dy1  1  0.329387  0.005197  0.249348  1
  Y  Y2  1  0.994723  0.670549  0.750656  1
  Y  Y3  1  0.004969  0.329348  0.249503  1
  Al  Al4  1  0.128038  0.127278  0.750441  1
  Al  Al5  1  0.872759  0.871949  0.249557  1
  Al  Al6  1  0.004258  0.335250  0.576212  1
  Al  Al7  1  0.002244  0.668439  0.423723  1
  Al  Al8  1  0.999941  0.665048  0.074410  1
  Al  Al9  1  0.335011  0.000090  0.925635  1
  Al  Al10  1  0.000623  0.334539  0.925182  1
  Al  Al11  1  0.665409  0.999354  0.074786  1
  Al  Al12  1  0.664705  0.995717  0.423817  1
  Al  Al13  1  0.331608  0.997783  0.576245  1
  Al  Al14  1  0.333171  0.333080  0.051994  1
  Al  Al15  1  0.666903  0.666834  0.948007  1
  Al  Al16  1  0.666297  0.669457  0.554938  1
  Al  Al17  1  0.330552  0.333690  0.445054  1
  Al  Al18  1  0.340260  0.549204  0.750324  1
  Al  Al19  1  0.660159  0.453253  0.247454  1
  Al  Al20  1  0.546696  0.339760  0.752546  1
  Al  Al21  1  0.450819  0.659797  0.249677  1
  Ir  Ir22  1  0.328132  0.671858  0.500006  1
  Ir  Ir23  1  0.328306  0.671683  0.999994  1
  Ir  Ir24  1  0.671951  0.328101  0.000000  1
  Ir  Ir25  1  0.999868  0.000157  0.500003  1
  Ir  Ir26  1  0.000218  0.999811  0.999990  1
  Pt  Pt27  1  0.672334  0.327721  0.499999  1
