# generated using pymatgen
data_Nd4TmGa2Sn
_symmetry_space_group_name_H-M   'P 1'
_cell_length_a   9.08846416
_cell_length_b   9.08846464
_cell_length_c   9.08846367
_cell_angle_alpha   127.39907986
_cell_angle_beta   127.39908362
_cell_angle_gamma   77.60054161
_symmetry_Int_Tables_number   1
_chemical_formula_structural   Nd4TmGa2Sn
_chemical_formula_sum   'Nd8 Tm2 Ga4 Sn2'
_cell_volume   459.42727922
_cell_formula_units_Z   2
loop_
 _symmetry_equiv_pos_site_id
 _symmetry_equiv_pos_as_xyz
  1  'x, y, z'
loop_
 _atom_site_type_symbol
 _atom_site_label
 _atom_site_symmetry_multiplicity
 _atom_site_fract_x
 _atom_site_fract_y
 _atom_site_fract_z
 _atom_site_occupancy
  Nd  Nd0  1  0.525261  0.025261  0.838825  1
  Nd  Nd1  1  0.186434  0.686434  0.161175  1
  Nd  Nd2  1  0.025261  0.186434  0.500000  1
  Nd  Nd3  1  0.686434  0.525261  0.500000  1
  Nd  Nd4  1  0.474739  0.974739  0.161175  1
  Nd  Nd5  1  0.813566  0.313566  0.838825  1
  Nd  Nd6  1  0.974739  0.813566  0.500000  1
  Nd  Nd7  1  0.313566  0.474739  0.500000  1
  Tm  Tm8  1  0.500000  0.500000  0.000000  1
  Tm  Tm9  1  0.000000  0.000000  0.000000  1
  Ga  Ga10  1  0.875243  0.375243  0.250486  1
  Ga  Ga11  1  0.124757  0.624757  0.749514  1
  Ga  Ga12  1  0.375243  0.124757  0.500000  1
  Ga  Ga13  1  0.624757  0.875243  0.500000  1
  Sn  Sn14  1  0.250000  0.250000  0.000000  1
  Sn  Sn15  1  0.750000  0.750000  0.000000  1
