# generated using pymatgen
data_LaDy(SiAu)2
_symmetry_space_group_name_H-M   'P 1'
_cell_length_a   4.37500500
_cell_length_b   4.37500434
_cell_length_c   7.98239200
_cell_angle_alpha   90.00000000
_cell_angle_beta   90.00000000
_cell_angle_gamma   119.99999742
_symmetry_Int_Tables_number   1
_chemical_formula_structural   LaDy(SiAu)2
_chemical_formula_sum   'La1 Dy1 Si2 Au2'
_cell_volume   132.31855101
_cell_formula_units_Z   1
loop_
 _symmetry_equiv_pos_site_id
 _symmetry_equiv_pos_as_xyz
  1  'x, y, z'
loop_
 _atom_site_type_symbol
 _atom_site_label
 _atom_site_symmetry_multiplicity
 _atom_site_fract_x
 _atom_site_fract_y
 _atom_site_fract_z
 _atom_site_occupancy
  La  La0  1  0.000000  0.000000  0.001521  1
  Dy  Dy1  1  0.000000  0.000000  0.497638  1
  Si  Si2  1  0.666666  0.333333  0.241837  1
  Si  Si3  1  0.333334  0.666668  0.725273  1
  Au  Au4  1  0.333334  0.666668  0.281700  1
  Au  Au5  1  0.666666  0.333333  0.734015  1
