# generated using pymatgen
data_Tb5Dy11(In3Tc)2
_symmetry_space_group_name_H-M   'P 1'
_cell_length_a   10.44913227
_cell_length_b   10.44913096
_cell_length_c   7.07823992
_cell_angle_alpha   90.03186846
_cell_angle_beta   89.96812615
_cell_angle_gamma   120.00333972
_symmetry_Int_Tables_number   1
_chemical_formula_structural   Tb5Dy11(In3Tc)2
_chemical_formula_sum   'Tb5 Dy11 In6 Tc2'
_cell_volume   669.27037887
_cell_formula_units_Z   1
loop_
 _symmetry_equiv_pos_site_id
 _symmetry_equiv_pos_as_xyz
  1  'x, y, z'
loop_
 _atom_site_type_symbol
 _atom_site_label
 _atom_site_symmetry_multiplicity
 _atom_site_fract_x
 _atom_site_fract_y
 _atom_site_fract_z
 _atom_site_occupancy
  Tb  Tb0  1  0.532477  0.065049  0.517553  1
  Tb  Tb1  1  0.934951  0.467523  0.517553  1
  Tb  Tb2  1  0.532540  0.467460  0.517957  1
  Tb  Tb3  1  0.467413  0.934523  0.017654  1
  Tb  Tb4  1  0.065477  0.532587  0.017654  1
  Dy  Dy5  1  0.467238  0.532762  0.017930  1
  Dy  Dy6  1  0.176899  0.353687  0.719976  1
  Dy  Dy7  1  0.646313  0.823101  0.719976  1
  Dy  Dy8  1  0.176737  0.823263  0.720131  1
  Dy  Dy9  1  0.823196  0.646588  0.219607  1
  Dy  Dy10  1  0.353412  0.176804  0.219607  1
  Dy  Dy11  1  0.823374  0.176626  0.219818  1
  Dy  Dy12  1  0.666530  0.333470  0.891268  1
  Dy  Dy13  1  0.333507  0.666493  0.390926  1
  Dy  Dy14  1  0.000002  0.999998  0.497877  1
  Dy  Dy15  1  0.999863  0.000137  0.997878  1
  In  In16  1  0.836978  0.674234  0.760764  1
  In  In17  1  0.325766  0.163022  0.760764  1
  In  In18  1  0.836957  0.163043  0.760704  1
  In  In19  1  0.163066  0.325891  0.260274  1
  In  In20  1  0.674109  0.836934  0.260274  1
  In  In21  1  0.163044  0.836956  0.260950  1
  Tc  Tc22  1  0.666717  0.333283  0.288568  1
  Tc  Tc23  1  0.333435  0.666565  0.788539  1
