# generated using pymatgen
data_GdDy7Te12(MoO12)4
_symmetry_space_group_name_H-M   'P 1'
_cell_length_a   5.26962204
_cell_length_b   11.20791217
_cell_length_c   18.04954940
_cell_angle_alpha   90.01951804
_cell_angle_beta   90.00473259
_cell_angle_gamma   90.00788605
_symmetry_Int_Tables_number   1
_chemical_formula_structural   GdDy7Te12(MoO12)4
_chemical_formula_sum   'Gd1 Dy7 Te12 Mo4 O48'
_cell_volume   1066.03268288
_cell_formula_units_Z   1
loop_
 _symmetry_equiv_pos_site_id
 _symmetry_equiv_pos_as_xyz
  1  'x, y, z'
loop_
 _atom_site_type_symbol
 _atom_site_label
 _atom_site_symmetry_multiplicity
 _atom_site_fract_x
 _atom_site_fract_y
 _atom_site_fract_z
 _atom_site_occupancy
  Gd  Gd0  1  0.255520  0.921891  0.939562  1
  Dy  Dy1  1  0.755911  0.422248  0.560130  1
  Dy  Dy2  1  0.743504  0.422204  0.060408  1
  Dy  Dy3  1  0.744423  0.077836  0.060703  1
  Dy  Dy4  1  0.756018  0.077780  0.560137  1
  Dy  Dy5  1  0.244016  0.922214  0.439897  1
  Dy  Dy6  1  0.256754  0.577004  0.939810  1
  Dy  Dy7  1  0.244045  0.577706  0.439908  1
  Te  Te8  1  0.227044  0.585343  0.167152  1
  Te  Te9  1  0.716913  0.749987  0.546020  1
  Te  Te10  1  0.216423  0.250544  0.954079  1
  Te  Te11  1  0.726986  0.414474  0.333272  1
  Te  Te12  1  0.783905  0.748878  0.046824  1
  Te  Te13  1  0.272953  0.585530  0.666722  1
  Te  Te14  1  0.273167  0.914513  0.666697  1
  Te  Te15  1  0.773379  0.087061  0.832260  1
  Te  Te16  1  0.773741  0.415000  0.832759  1
  Te  Te17  1  0.227574  0.914317  0.167821  1
  Te  Te18  1  0.727003  0.085536  0.333302  1
  Te  Te19  1  0.283081  0.249963  0.453958  1
  Mo  Mo20  1  0.742193  0.749977  0.322709  1
  Mo  Mo21  1  0.257987  0.250100  0.677264  1
  Mo  Mo22  1  0.757738  0.749033  0.821727  1
  Mo  Mo23  1  0.242439  0.250096  0.177554  1
  O  O24  1  0.520408  0.249981  0.536104  1
  O  O25  1  0.955715  0.881792  0.829454  1
  O  O26  1  0.597390  0.614239  0.009673  1
  O  O27  1  0.358668  0.250037  0.268706  1
  O  O28  1  0.979832  0.250269  0.036380  1
  O  O29  1  0.960005  0.989469  0.655513  1
  O  O30  1  0.041530  0.118063  0.169935  1
  O  O31  1  0.402035  0.116017  0.991454  1
  O  O32  1  0.541591  0.882129  0.330338  1
  O  O33  1  0.422524  0.936090  0.569846  1
  O  O34  1  0.526878  0.250303  0.119220  1
  O  O35  1  0.603420  0.885281  0.009524  1
  O  O36  1  0.026510  0.750004  0.381028  1
  O  O37  1  0.577558  0.063877  0.430119  1
  O  O38  1  0.460318  0.489565  0.844033  1
  O  O39  1  0.143977  0.750021  0.640006  1
  O  O40  1  0.400568  0.386045  0.991137  1
  O  O41  1  0.422462  0.563938  0.569876  1
  O  O42  1  0.541760  0.617759  0.330341  1
  O  O43  1  0.042005  0.382264  0.169994  1
  O  O44  1  0.040167  0.489443  0.344476  1
  O  O45  1  0.640384  0.748958  0.730675  1
  O  O46  1  0.922091  0.436282  0.929842  1
  O  O47  1  0.900968  0.885460  0.508902  1
  O  O48  1  0.141918  0.250325  0.768439  1
  O  O49  1  0.040135  0.010582  0.344494  1
  O  O50  1  0.540319  0.510515  0.155972  1
  O  O51  1  0.077091  0.563480  0.070395  1
  O  O52  1  0.458639  0.382207  0.669533  1
  O  O53  1  0.099093  0.114519  0.491100  1
  O  O54  1  0.459858  0.012224  0.842583  1
  O  O55  1  0.099137  0.385419  0.491108  1
  O  O56  1  0.539842  0.989884  0.156006  1
  O  O57  1  0.858411  0.750061  0.231541  1
  O  O58  1  0.458413  0.117901  0.669566  1
  O  O59  1  0.960072  0.617515  0.829540  1
  O  O60  1  0.973509  0.249991  0.618990  1
  O  O61  1  0.918927  0.065832  0.929554  1
  O  O62  1  0.900897  0.614512  0.508884  1
  O  O63  1  0.855860  0.249999  0.360030  1
  O  O64  1  0.643539  0.250824  0.859082  1
  O  O65  1  0.475127  0.748051  0.880589  1
  O  O66  1  0.355642  0.750015  0.140404  1
  O  O67  1  0.018613  0.747403  0.964198  1
  O  O68  1  0.959807  0.510479  0.655489  1
  O  O69  1  0.076528  0.935676  0.071339  1
  O  O70  1  0.577511  0.436095  0.430088  1
  O  O71  1  0.479633  0.749974  0.463821  1
