# generated using pymatgen
data_EuTlI4
_symmetry_space_group_name_H-M   'P 1'
_cell_length_a   7.55963857
_cell_length_b   4.62806500
_cell_length_c   8.05774400
_cell_angle_alpha   90.00000000
_cell_angle_beta   90.23864599
_cell_angle_gamma   90.00000000
_symmetry_Int_Tables_number   1
_chemical_formula_structural   EuTlI4
_chemical_formula_sum   'Eu1 Tl1 I4'
_cell_volume   281.90980459
_cell_formula_units_Z   1
loop_
 _symmetry_equiv_pos_site_id
 _symmetry_equiv_pos_as_xyz
  1  'x, y, z'
loop_
 _atom_site_type_symbol
 _atom_site_label
 _atom_site_symmetry_multiplicity
 _atom_site_fract_x
 _atom_site_fract_y
 _atom_site_fract_z
 _atom_site_occupancy
  Eu  Eu0  1  0.000000  0.499999  0.000000  1
  Tl  Tl1  1  0.000000  0.000000  0.500000  1
  I  I2  1  0.755000  0.000000  0.152338  1
  I  I3  1  0.248912  0.499999  0.315856  1
  I  I4  1  0.751088  0.499999  0.684143  1
  I  I5  1  0.245001  0.000000  0.847663  1
