# generated using pymatgen
data_Dy8InCo2Ag
_symmetry_space_group_name_H-M   'P 1'
_cell_length_a   9.46296369
_cell_length_b   9.47834466
_cell_length_c   9.46296279
_cell_angle_alpha   59.94621579
_cell_angle_beta   59.92495275
_cell_angle_gamma   59.94621194
_symmetry_Int_Tables_number   1
_chemical_formula_structural   Dy8InCo2Ag
_chemical_formula_sum   'Dy16 In2 Co4 Ag2'
_cell_volume   599.33788567
_cell_formula_units_Z   2
loop_
 _symmetry_equiv_pos_site_id
 _symmetry_equiv_pos_as_xyz
  1  'x, y, z'
loop_
 _atom_site_type_symbol
 _atom_site_label
 _atom_site_symmetry_multiplicity
 _atom_site_fract_x
 _atom_site_fract_y
 _atom_site_fract_z
 _atom_site_occupancy
  Dy  Dy0  1  0.152462  0.540231  0.152462  1
  Dy  Dy1  1  0.690231  0.309769  0.690231  1
  Dy  Dy2  1  0.689704  0.310171  0.312193  1
  Dy  Dy3  1  0.938150  0.565232  0.557602  1
  Dy  Dy4  1  0.541875  0.153330  0.151464  1
  Dy  Dy5  1  0.151464  0.153330  0.541875  1
  Dy  Dy6  1  0.938150  0.939016  0.557602  1
  Dy  Dy7  1  0.312207  0.687793  0.312207  1
  Dy  Dy8  1  0.557602  0.939016  0.938150  1
  Dy  Dy9  1  0.560298  0.939702  0.560298  1
  Dy  Dy10  1  0.689704  0.687933  0.312193  1
  Dy  Dy11  1  0.557602  0.565232  0.938150  1
  Dy  Dy12  1  0.937101  0.562899  0.937101  1
  Dy  Dy13  1  0.312193  0.687933  0.689704  1
  Dy  Dy14  1  0.152462  0.154845  0.152462  1
  Dy  Dy15  1  0.312193  0.310171  0.689704  1
  In  In16  1  0.921628  0.239964  0.921628  1
  In  In17  1  0.921628  0.916780  0.921628  1
  Co  Co18  1  0.358849  0.359342  0.922467  1
  Co  Co19  1  0.358445  0.923298  0.358445  1
  Co  Co20  1  0.922467  0.359342  0.358849  1
  Co  Co21  1  0.358445  0.359812  0.358445  1
  Ag  Ag22  1  0.918498  0.917429  0.246645  1
  Ag  Ag23  1  0.246645  0.917429  0.918498  1
