# generated using pymatgen
data_CaHg3(NO3)8
_symmetry_space_group_name_H-M   'P 1'
_cell_length_a   7.97699659
_cell_length_b   7.97699659
_cell_length_c   7.97699659
_cell_angle_alpha   89.81131553
_cell_angle_beta   89.81131553
_cell_angle_gamma   89.81131553
_symmetry_Int_Tables_number   1
_chemical_formula_structural   CaHg3(NO3)8
_chemical_formula_sum   'Ca1 Hg3 N8 O24'
_cell_volume   507.58779408
_cell_formula_units_Z   1
loop_
 _symmetry_equiv_pos_site_id
 _symmetry_equiv_pos_as_xyz
  1  'x, y, z'
loop_
 _atom_site_type_symbol
 _atom_site_label
 _atom_site_symmetry_multiplicity
 _atom_site_fract_x
 _atom_site_fract_y
 _atom_site_fract_z
 _atom_site_occupancy
  Ca  Ca0  1  0.000000  0.000000  0.000000  1
  Hg  Hg1  1  0.000000  0.500000  0.500000  1
  Hg  Hg2  1  0.500000  0.500000  0.000000  1
  Hg  Hg3  1  0.500000  0.000000  0.500000  1
  N  N4  1  0.335879  0.335879  0.335879  1
  N  N5  1  0.335985  0.165775  0.837555  1
  N  N6  1  0.165775  0.837555  0.335985  1
  N  N7  1  0.837555  0.335985  0.165775  1
  N  N8  1  0.664121  0.664121  0.664121  1
  N  N9  1  0.162445  0.664015  0.834225  1
  N  N10  1  0.834225  0.162445  0.664015  1
  N  N11  1  0.664015  0.834225  0.162445  1
  O  O12  1  0.739759  0.309885  0.042737  1
  O  O13  1  0.189933  0.959176  0.237306  1
  O  O14  1  0.261130  0.811288  0.459902  1
  O  O15  1  0.237306  0.189933  0.959176  1
  O  O16  1  0.238461  0.310097  0.459107  1
  O  O17  1  0.459107  0.238461  0.310097  1
  O  O18  1  0.310097  0.459107  0.238461  1
  O  O19  1  0.188712  0.540098  0.738870  1
  O  O20  1  0.957263  0.260241  0.690115  1
  O  O21  1  0.690115  0.957263  0.260241  1
  O  O22  1  0.040824  0.762694  0.810067  1
  O  O23  1  0.540098  0.738870  0.188712  1
  O  O24  1  0.810067  0.040824  0.762694  1
  O  O25  1  0.738870  0.188712  0.540098  1
  O  O26  1  0.762694  0.810067  0.040824  1
  O  O27  1  0.260241  0.690115  0.957263  1
  O  O28  1  0.761539  0.689903  0.540893  1
  O  O29  1  0.540893  0.761539  0.689903  1
  O  O30  1  0.689903  0.540893  0.761539  1
  O  O31  1  0.811288  0.459902  0.261130  1
  O  O32  1  0.042737  0.739759  0.309885  1
  O  O33  1  0.309885  0.042737  0.739759  1
  O  O34  1  0.959176  0.237306  0.189933  1
  O  O35  1  0.459902  0.261130  0.811288  1
