# generated using pymatgen
data_Tc6SnAs13
_symmetry_space_group_name_H-M   'P 1'
_cell_length_a   7.67202561
_cell_length_b   7.67153468
_cell_length_c   7.67202561
_cell_angle_alpha   110.23122104
_cell_angle_beta   107.95721500
_cell_angle_gamma   110.23123122
_symmetry_Int_Tables_number   1
_chemical_formula_structural   Tc6SnAs13
_chemical_formula_sum   'Tc6 Sn1 As13'
_cell_volume   347.43875924
_cell_formula_units_Z   1
loop_
 _symmetry_equiv_pos_site_id
 _symmetry_equiv_pos_as_xyz
  1  'x, y, z'
loop_
 _atom_site_type_symbol
 _atom_site_label
 _atom_site_symmetry_multiplicity
 _atom_site_fract_x
 _atom_site_fract_y
 _atom_site_fract_z
 _atom_site_occupancy
  Tc  Tc0  1  0.343583  0.000062  0.343556  1
  Tc  Tc1  1  0.008763  0.337687  0.346482  1
  Tc  Tc2  1  0.008656  0.662370  0.671003  1
  Tc  Tc3  1  0.328997  0.337630  0.991344  1
  Tc  Tc4  1  0.653518  0.662313  0.991237  1
  Tc  Tc5  1  0.656444  0.999938  0.656417  1
  Sn  Sn6  1  0.750012  0.500000  0.249988  1
  As  As7  1  0.495672  0.749046  0.244737  1
  As  As8  1  0.495692  0.250925  0.746643  1
  As  As9  1  0.755263  0.250954  0.504328  1
  As  As10  1  0.253357  0.749075  0.504308  1
  As  As11  1  0.249984  0.500000  0.750016  1
  As  As12  1  0.998455  0.995117  0.328074  1
  As  As13  1  0.671926  0.004883  0.001545  1
  As  As14  1  0.998433  0.670409  0.003262  1
  As  As15  1  0.333039  0.329711  0.328195  1
  As  As16  1  0.996738  0.329591  0.001567  1
  As  As17  1  0.671805  0.670289  0.666961  1
  As  As18  1  0.332972  0.004849  0.003308  1
  As  As19  1  0.996692  0.995151  0.667028  1
