# generated using pymatgen
data_Sr8Tb11ErPb16
_symmetry_space_group_name_H-M   'P 1'
_cell_length_a   8.18402955
_cell_length_b   8.71619908
_cell_length_c   16.37706900
_cell_angle_alpha   90.00000000
_cell_angle_beta   90.00000000
_cell_angle_gamma   89.60945941
_symmetry_Int_Tables_number   1
_chemical_formula_structural   Sr8Tb11ErPb16
_chemical_formula_sum   'Sr8 Tb11 Er1 Pb16'
_cell_volume   1168.20865662
_cell_formula_units_Z   1
loop_
 _symmetry_equiv_pos_site_id
 _symmetry_equiv_pos_as_xyz
  1  'x, y, z'
loop_
 _atom_site_type_symbol
 _atom_site_label
 _atom_site_symmetry_multiplicity
 _atom_site_fract_x
 _atom_site_fract_y
 _atom_site_fract_z
 _atom_site_occupancy
  Sr  Sr0  1  0.496155  0.679401  0.592238  1
  Sr  Sr1  1  0.997268  0.819934  0.907598  1
  Sr  Sr2  1  0.502777  0.318634  0.091628  1
  Sr  Sr3  1  0.001236  0.179996  0.409082  1
  Sr  Sr4  1  0.502777  0.318634  0.408372  1
  Sr  Sr5  1  0.001236  0.179996  0.090918  1
  Sr  Sr6  1  0.496155  0.679401  0.907762  1
  Sr  Sr7  1  0.997268  0.819934  0.592402  1
  Tb  Tb8  1  0.671933  0.158534  0.624557  1
  Tb  Tb9  1  0.171325  0.342542  0.876027  1
  Tb  Tb10  1  0.329298  0.842015  0.123640  1
  Tb  Tb11  1  0.829318  0.658476  0.376980  1
  Tb  Tb12  1  0.329298  0.842015  0.376360  1
  Tb  Tb13  1  0.829318  0.658476  0.123020  1
  Tb  Tb14  1  0.671933  0.158534  0.875443  1
  Tb  Tb15  1  0.171325  0.342542  0.623973  1
  Tb  Tb16  1  0.831412  0.505836  0.750000  1
  Tb  Tb17  1  0.333496  0.995359  0.750000  1
  Tb  Tb18  1  0.169889  0.494610  0.250000  1
  Er  Er19  1  0.667093  0.005272  0.250000  1
  Pb  Pb20  1  0.671925  0.957336  0.455827  1
  Pb  Pb21  1  0.173112  0.543211  0.044328  1
  Pb  Pb22  1  0.327508  0.042407  0.954736  1
  Pb  Pb23  1  0.827119  0.457122  0.544953  1
  Pb  Pb24  1  0.327508  0.042407  0.545264  1
  Pb  Pb25  1  0.827119  0.457122  0.955047  1
  Pb  Pb26  1  0.671925  0.957336  0.044173  1
  Pb  Pb27  1  0.173112  0.543211  0.455672  1
  Pb  Pb28  1  0.472639  0.364511  0.750000  1
  Pb  Pb29  1  0.974321  0.138445  0.750000  1
  Pb  Pb30  1  0.529345  0.637312  0.250000  1
  Pb  Pb31  1  0.025843  0.860973  0.250000  1
  Pb  Pb32  1  0.699065  0.856958  0.750000  1
  Pb  Pb33  1  0.199833  0.641029  0.750000  1
  Pb  Pb34  1  0.298824  0.140706  0.250000  1
  Pb  Pb35  1  0.800292  0.359770  0.250000  1
