# generated using pymatgen
data_NdDy15(ScBi3)4
_symmetry_space_group_name_H-M   'P 1'
_cell_length_a   8.12886535
_cell_length_b   9.44092700
_cell_length_c   11.97736300
_cell_angle_alpha   90.00000000
_cell_angle_beta   89.98323882
_cell_angle_gamma   90.00000000
_symmetry_Int_Tables_number   1
_chemical_formula_structural   NdDy15(ScBi3)4
_chemical_formula_sum   'Nd1 Dy15 Sc4 Bi12'
_cell_volume   919.19099829
_cell_formula_units_Z   1
loop_
 _symmetry_equiv_pos_site_id
 _symmetry_equiv_pos_as_xyz
  1  'x, y, z'
loop_
 _atom_site_type_symbol
 _atom_site_label
 _atom_site_symmetry_multiplicity
 _atom_site_fract_x
 _atom_site_fract_y
 _atom_site_fract_z
 _atom_site_occupancy
  Nd  Nd0  1  0.144762  0.250000  0.715173  1
  Dy  Dy1  1  0.184956  0.750000  0.720434  1
  Dy  Dy2  1  0.684623  0.750000  0.779745  1
  Dy  Dy3  1  0.813814  0.250000  0.278926  1
  Dy  Dy4  1  0.314940  0.250000  0.219818  1
  Dy  Dy5  1  0.303822  0.436027  0.942194  1
  Dy  Dy6  1  0.804010  0.064493  0.558089  1
  Dy  Dy7  1  0.695703  0.935586  0.059082  1
  Dy  Dy8  1  0.196198  0.564320  0.441278  1
  Dy  Dy9  1  0.695703  0.564414  0.059082  1
  Dy  Dy10  1  0.196198  0.935680  0.441278  1
  Dy  Dy11  1  0.303822  0.063973  0.942194  1
  Dy  Dy12  1  0.804010  0.435507  0.558089  1
  Dy  Dy13  1  0.355511  0.750000  0.215762  1
  Dy  Dy14  1  0.855161  0.750000  0.284485  1
  Dy  Dy15  1  0.645762  0.250000  0.784419  1
  Sc  Sc16  1  0.025128  0.750000  0.988147  1
  Sc  Sc17  1  0.526122  0.750000  0.512114  1
  Sc  Sc18  1  0.974110  0.250000  0.013623  1
  Sc  Sc19  1  0.474603  0.250000  0.487416  1
  Bi  Bi20  1  0.436205  0.002028  0.668217  1
  Bi  Bi21  1  0.931715  0.498583  0.833435  1
  Bi  Bi22  1  0.566116  0.503906  0.331274  1
  Bi  Bi23  1  0.066005  0.995801  0.168608  1
  Bi  Bi24  1  0.566116  0.996094  0.331274  1
  Bi  Bi25  1  0.066005  0.504199  0.168608  1
  Bi  Bi26  1  0.436205  0.497972  0.668217  1
  Bi  Bi27  1  0.931715  0.001417  0.833435  1
  Bi  Bi28  1  0.403411  0.750000  0.957487  1
  Bi  Bi29  1  0.903758  0.750000  0.542693  1
  Bi  Bi30  1  0.597194  0.250000  0.042527  1
  Bi  Bi31  1  0.096595  0.250000  0.452877  1
