# generated using pymatgen
data_HoTm11Fe2Co3Bi
_symmetry_space_group_name_H-M   'P 1'
_cell_length_a   8.19955774
_cell_length_b   8.20679575
_cell_length_c   8.20945225
_cell_angle_alpha   111.81265855
_cell_angle_beta   111.10604685
_cell_angle_gamma   105.57774887
_symmetry_Int_Tables_number   1
_chemical_formula_structural   HoTm11Fe2Co3Bi
_chemical_formula_sum   'Ho1 Tm11 Fe2 Co3 Bi1'
_cell_volume   423.71310069
_cell_formula_units_Z   1
loop_
 _symmetry_equiv_pos_site_id
 _symmetry_equiv_pos_as_xyz
  1  'x, y, z'
loop_
 _atom_site_type_symbol
 _atom_site_label
 _atom_site_symmetry_multiplicity
 _atom_site_fract_x
 _atom_site_fract_y
 _atom_site_fract_z
 _atom_site_occupancy
  Ho  Ho0  1  0.012839  0.208538  0.804152  1
  Tm  Tm1  1  0.814372  0.714516  0.529315  1
  Tm  Tm2  1  0.184812  0.283868  0.468287  1
  Tm  Tm3  1  0.184813  0.716431  0.900846  1
  Tm  Tm4  1  0.814343  0.284875  0.099646  1
  Tm  Tm5  1  0.689077  0.381399  0.691303  1
  Tm  Tm6  1  0.311276  0.619456  0.309027  1
  Tm  Tm7  1  0.688940  0.997707  0.307679  1
  Tm  Tm8  1  0.311196  0.002176  0.691892  1
  Tm  Tm9  1  0.595261  0.791353  0.803811  1
  Tm  Tm10  1  0.406080  0.208881  0.197162  1
  Tm  Tm11  1  0.988011  0.790999  0.196991  1
  Fe  Fe12  1  0.617290  0.999982  0.618372  1
  Fe  Fe13  1  0.382275  0.000541  0.382026  1
  Co  Co14  1  0.110504  0.610920  0.499402  1
  Co  Co15  1  0.887917  0.389003  0.498716  1
  Co  Co16  1  0.000602  0.998922  0.001384  1
  Bi  Bi17  1  0.500393  0.500433  0.999989  1
