# generated using pymatgen
data_Dy5Y(Si3Os)8
_symmetry_space_group_name_H-M   'P 1'
_cell_length_a   10.14810505
_cell_length_b   10.14810450
_cell_length_c   8.17766219
_cell_angle_alpha   90.02268228
_cell_angle_beta   89.97731794
_cell_angle_gamma   132.56805628
_symmetry_Int_Tables_number   1
_chemical_formula_structural   Dy5Y(Si3Os)8
_chemical_formula_sum   'Dy5 Y1 Si24 Os8'
_cell_volume   620.23552090
_cell_formula_units_Z   1
loop_
 _symmetry_equiv_pos_site_id
 _symmetry_equiv_pos_as_xyz
  1  'x, y, z'
loop_
 _atom_site_type_symbol
 _atom_site_label
 _atom_site_symmetry_multiplicity
 _atom_site_fract_x
 _atom_site_fract_y
 _atom_site_fract_z
 _atom_site_occupancy
  Dy  Dy0  1  0.501145  0.001145  0.750000  1
  Dy  Dy1  1  0.998943  0.498943  0.250000  1
  Dy  Dy2  1  0.498926  0.998926  0.250000  1
  Dy  Dy3  1  0.999995  0.000009  0.000012  1
  Dy  Dy4  1  0.500009  0.499995  0.499988  1
  Y  Y5  1  0.001023  0.501023  0.750000  1
  Si  Si6  1  0.795051  0.204724  0.499922  1
  Si  Si7  1  0.704724  0.295051  0.000078  1
  Si  Si8  1  0.204918  0.795251  0.499967  1
  Si  Si9  1  0.295251  0.704918  0.000033  1
  Si  Si10  1  0.667557  0.667771  0.166839  1
  Si  Si11  1  0.167771  0.167557  0.333161  1
  Si  Si12  1  0.832375  0.832347  0.666833  1
  Si  Si13  1  0.332347  0.332375  0.833167  1
  Si  Si14  1  0.844739  0.611041  0.995852  1
  Si  Si15  1  0.111041  0.344739  0.504148  1
  Si  Si16  1  0.655124  0.888973  0.495710  1
  Si  Si17  1  0.388973  0.155124  0.004290  1
  Si  Si18  1  0.155202  0.388896  0.004583  1
  Si  Si19  1  0.888896  0.655202  0.495417  1
  Si  Si20  1  0.121250  0.886737  0.728008  1
  Si  Si21  1  0.386737  0.621250  0.771992  1
  Si  Si22  1  0.379276  0.613812  0.227993  1
  Si  Si23  1  0.113812  0.879276  0.272007  1
  Si  Si24  1  0.878997  0.113630  0.272114  1
  Si  Si25  1  0.613630  0.378997  0.227886  1
  Si  Si26  1  0.620405  0.385865  0.771993  1
  Si  Si27  1  0.885865  0.120405  0.728007  1
  Si  Si28  1  0.611062  0.844907  0.995601  1
  Si  Si29  1  0.344907  0.111062  0.504399  1
  Os  Os30  1  0.626802  0.626699  0.872211  1
  Os  Os31  1  0.126699  0.126802  0.627789  1
  Os  Os32  1  0.373342  0.373265  0.127789  1
  Os  Os33  1  0.873265  0.873342  0.372211  1
  Os  Os34  1  0.169054  0.830663  0.000035  1
  Os  Os35  1  0.330663  0.669054  0.499965  1
  Os  Os36  1  0.830944  0.169283  0.000264  1
  Os  Os37  1  0.669283  0.330944  0.499736  1
