# generated using pymatgen
data_Zr8Ti5Si16W7
_symmetry_space_group_name_H-M   'P 1'
_cell_length_a   6.59148109
_cell_length_b   6.74456717
_cell_length_c   12.92023015
_cell_angle_alpha   89.96728745
_cell_angle_beta   89.90668573
_cell_angle_gamma   90.05980242
_symmetry_Int_Tables_number   1
_chemical_formula_structural   Zr8Ti5Si16W7
_chemical_formula_sum   'Zr8 Ti5 Si16 W7'
_cell_volume   574.38945828
_cell_formula_units_Z   1
loop_
 _symmetry_equiv_pos_site_id
 _symmetry_equiv_pos_as_xyz
  1  'x, y, z'
loop_
 _atom_site_type_symbol
 _atom_site_label
 _atom_site_symmetry_multiplicity
 _atom_site_fract_x
 _atom_site_fract_y
 _atom_site_fract_z
 _atom_site_occupancy
  Zr  Zr0  1  0.494869  0.671756  0.592790  1
  Zr  Zr1  1  0.995105  0.828474  0.907059  1
  Zr  Zr2  1  0.503169  0.327795  0.093453  1
  Zr  Zr3  1  0.005579  0.172548  0.407226  1
  Zr  Zr4  1  0.504434  0.328956  0.407740  1
  Zr  Zr5  1  0.004493  0.171466  0.092312  1
  Zr  Zr6  1  0.495821  0.670738  0.908068  1
  Zr  Zr7  1  0.994722  0.828947  0.592190  1
  Ti  Ti8  1  0.664170  0.168999  0.625902  1
  Ti  Ti9  1  0.164063  0.331673  0.875197  1
  Ti  Ti10  1  0.336290  0.831019  0.124533  1
  Ti  Ti11  1  0.835654  0.668471  0.374547  1
  Ti  Ti12  1  0.335178  0.832024  0.375221  1
  Si  Si13  1  0.670248  0.960017  0.460281  1
  Si  Si14  1  0.169709  0.539418  0.039528  1
  Si  Si15  1  0.330399  0.039557  0.960184  1
  Si  Si16  1  0.830407  0.460413  0.539994  1
  Si  Si17  1  0.330260  0.040216  0.539865  1
  Si  Si18  1  0.831609  0.458719  0.959075  1
  Si  Si19  1  0.667745  0.959269  0.040188  1
  Si  Si20  1  0.169236  0.541938  0.460108  1
  Si  Si21  1  0.465119  0.381244  0.751063  1
  Si  Si22  1  0.965360  0.118775  0.749408  1
  Si  Si23  1  0.535553  0.618459  0.250538  1
  Si  Si24  1  0.035804  0.881342  0.249911  1
  Si  Si25  1  0.701474  0.860649  0.748421  1
  Si  Si26  1  0.201317  0.639555  0.751104  1
  Si  Si27  1  0.297750  0.138132  0.249978  1
  Si  Si28  1  0.797613  0.360970  0.251269  1
  W  W29  1  0.833398  0.666876  0.122419  1
  W  W30  1  0.668337  0.165672  0.876655  1
  W  W31  1  0.166717  0.334115  0.624836  1
  W  W32  1  0.836861  0.498988  0.750333  1
  W  W33  1  0.337975  0.001915  0.749499  1
  W  W34  1  0.162316  0.505565  0.250079  1
  W  W35  1  0.661247  0.995331  0.249030  1
