# generated using pymatgen
data_La3PrPRu3I2
_symmetry_space_group_name_H-M   'P 1'
_cell_length_a   4.31980900
_cell_length_b   4.31980933
_cell_length_c   17.52248700
_cell_angle_alpha   90.00000000
_cell_angle_beta   90.00000000
_cell_angle_gamma   119.99998984
_symmetry_Int_Tables_number   1
_chemical_formula_structural   La3PrPRu3I2
_chemical_formula_sum   'La3 Pr1 P1 Ru3 I2'
_cell_volume   283.17541484
_cell_formula_units_Z   1
loop_
 _symmetry_equiv_pos_site_id
 _symmetry_equiv_pos_as_xyz
  1  'x, y, z'
loop_
 _atom_site_type_symbol
 _atom_site_label
 _atom_site_symmetry_multiplicity
 _atom_site_fract_x
 _atom_site_fract_y
 _atom_site_fract_z
 _atom_site_occupancy
  La  La0  1  0.000000  0.000000  0.892615  1
  La  La1  1  0.000000  0.000000  0.600351  1
  La  La2  1  0.000000  0.000000  0.403179  1
  Pr  Pr3  1  0.000000  0.000000  0.107303  1
  P  P4  1  0.333333  0.666667  0.508153  1
  Ru  Ru5  1  0.666667  0.333333  0.493677  1
  Ru  Ru6  1  0.666667  0.333333  0.003733  1
  Ru  Ru7  1  0.333333  0.666667  0.996128  1
  I  I8  1  0.333333  0.666667  0.253221  1
  I  I9  1  0.666667  0.333333  0.741642  1
