# generated using pymatgen
data_Hf10SnB2Sb5
_symmetry_space_group_name_H-M   'P 1'
_cell_length_a   5.73051900
_cell_length_b   8.44827892
_cell_length_c   8.44504000
_cell_angle_alpha   119.98714116
_cell_angle_beta   90.00011427
_cell_angle_gamma   89.99985890
_symmetry_Int_Tables_number   1
_chemical_formula_structural   Hf10SnB2Sb5
_chemical_formula_sum   'Hf10 Sn1 B2 Sb5'
_cell_volume   354.12028248
_cell_formula_units_Z   1
loop_
 _symmetry_equiv_pos_site_id
 _symmetry_equiv_pos_as_xyz
  1  'x, y, z'
loop_
 _atom_site_type_symbol
 _atom_site_label
 _atom_site_symmetry_multiplicity
 _atom_site_fract_x
 _atom_site_fract_y
 _atom_site_fract_z
 _atom_site_occupancy
  Hf  Hf0  1  0.249999  0.231121  0.999377  1
  Hf  Hf1  1  0.749998  0.768931  0.000373  1
  Hf  Hf2  1  0.750000  0.231070  0.231443  1
  Hf  Hf3  1  0.249999  0.000000  0.231956  1
  Hf  Hf4  1  0.000368  0.665737  0.332584  1
  Hf  Hf5  1  0.499632  0.665737  0.332583  1
  Hf  Hf6  1  0.000368  0.334262  0.666845  1
  Hf  Hf7  1  0.499630  0.334263  0.666846  1
  Hf  Hf8  1  0.250000  0.768878  0.768255  1
  Hf  Hf9  1  0.750000  0.999999  0.769116  1
  Sn  Sn10  1  0.249998  0.000003  0.599433  1
  B  B11  1  0.000072  0.999999  0.000076  1
  B  B12  1  0.499928  0.999999  0.000076  1
  Sb  Sb13  1  0.749999  0.399332  0.999274  1
  Sb  Sb14  1  0.249999  0.600422  0.000063  1
  Sb  Sb15  1  0.250001  0.399578  0.399640  1
  Sb  Sb16  1  0.749999  0.999999  0.402120  1
  Sb  Sb17  1  0.750000  0.600669  0.599941  1
