# generated using pymatgen
data_Dy3Y3Al24Co5Ru3
_symmetry_space_group_name_H-M   'P 1'
_cell_length_a   8.71821800
_cell_length_b   8.71821777
_cell_length_c   9.41870700
_cell_angle_alpha   90.00000000
_cell_angle_beta   90.00000000
_cell_angle_gamma   120.00000087
_symmetry_Int_Tables_number   1
_chemical_formula_structural   Dy3Y3Al24Co5Ru3
_chemical_formula_sum   'Dy3 Y3 Al24 Co5 Ru3'
_cell_volume   619.97953247
_cell_formula_units_Z   1
loop_
 _symmetry_equiv_pos_site_id
 _symmetry_equiv_pos_as_xyz
  1  'x, y, z'
loop_
 _atom_site_type_symbol
 _atom_site_label
 _atom_site_symmetry_multiplicity
 _atom_site_fract_x
 _atom_site_fract_y
 _atom_site_fract_z
 _atom_site_occupancy
  Dy  Dy0  1  0.805647  0.194353  0.747597  1
  Dy  Dy1  1  0.805647  0.611292  0.747597  1
  Dy  Dy2  1  0.388708  0.194353  0.747597  1
  Y  Y3  1  0.194160  0.805840  0.252489  1
  Y  Y4  1  0.194160  0.388321  0.252489  1
  Y  Y5  1  0.611679  0.805840  0.252489  1
  Al  Al6  1  0.560618  0.439382  0.256637  1
  Al  Al7  1  0.560618  0.121236  0.256637  1
  Al  Al8  1  0.878764  0.439382  0.256637  1
  Al  Al9  1  0.439422  0.560578  0.743319  1
  Al  Al10  1  0.439422  0.878845  0.743319  1
  Al  Al11  1  0.121155  0.560578  0.743319  1
  Al  Al12  1  0.325012  0.162506  0.425491  1
  Al  Al13  1  0.837494  0.162506  0.425491  1
  Al  Al14  1  0.837494  0.674988  0.425491  1
  Al  Al15  1  0.675155  0.837578  0.574807  1
  Al  Al16  1  0.162422  0.837578  0.574807  1
  Al  Al17  1  0.162422  0.324845  0.574807  1
  Al  Al18  1  0.679590  0.839795  0.922086  1
  Al  Al19  1  0.160205  0.839795  0.922086  1
  Al  Al20  1  0.160205  0.320410  0.922086  1
  Al  Al21  1  0.320519  0.160260  0.077617  1
  Al  Al22  1  0.839740  0.160260  0.077617  1
  Al  Al23  1  0.839740  0.679481  0.077617  1
  Al  Al24  1  0.666667  0.333333  0.518580  1
  Al  Al25  1  0.333333  0.666667  0.481789  1
  Al  Al26  1  0.333333  0.666667  0.016297  1
  Al  Al27  1  0.666667  0.333333  0.983358  1
  Al  Al28  1  0.000000  0.000000  0.249922  1
  Al  Al29  1  0.000000  0.000000  0.750083  1
  Co  Co30  1  0.000000  0.000000  0.499916  1
  Co  Co31  1  0.000000  0.000000  0.000129  1
  Co  Co32  1  0.500044  0.499956  0.500103  1
  Co  Co33  1  0.500044  0.000089  0.500103  1
  Co  Co34  1  0.999911  0.499956  0.500103  1
  Ru  Ru35  1  0.500051  0.499949  0.999828  1
  Ru  Ru36  1  0.500051  0.000101  0.999828  1
  Ru  Ru37  1  0.999899  0.499949  0.999828  1
