# generated using pymatgen
data_Nd4DyMn2P12Ir17
_symmetry_space_group_name_H-M   'P 1'
_cell_length_a   12.70254918
_cell_length_b   12.80471206
_cell_length_c   3.99827600
_cell_angle_alpha   90.00000000
_cell_angle_beta   90.00000000
_cell_angle_gamma   119.75574184
_symmetry_Int_Tables_number   1
_chemical_formula_structural   Nd4DyMn2P12Ir17
_chemical_formula_sum   'Nd4 Dy1 Mn2 P12 Ir17'
_cell_volume   564.58298116
_cell_formula_units_Z   1
loop_
 _symmetry_equiv_pos_site_id
 _symmetry_equiv_pos_as_xyz
  1  'x, y, z'
loop_
 _atom_site_type_symbol
 _atom_site_label
 _atom_site_symmetry_multiplicity
 _atom_site_fract_x
 _atom_site_fract_y
 _atom_site_fract_z
 _atom_site_occupancy
  Nd  Nd0  1  0.332056  0.663748  0.500000  1
  Nd  Nd1  1  0.001483  0.810133  0.000000  1
  Nd  Nd2  1  0.190937  0.190669  0.000000  1
  Nd  Nd3  1  0.812825  0.999609  0.000000  1
  Dy  Dy4  1  0.668712  0.336683  0.500000  1
  Mn  Mn5  1  0.996223  0.454096  0.500000  1
  Mn  Mn6  1  0.543699  0.544128  0.500000  1
  P  P7  1  0.999872  0.631157  0.500000  1
  P  P8  1  0.367542  0.369807  0.500000  1
  P  P9  1  0.639857  0.998429  0.500000  1
  P  P10  1  0.516956  0.683972  0.000000  1
  P  P11  1  0.308466  0.824650  0.000000  1
  P  P12  1  0.164521  0.479763  0.000000  1
  P  P13  1  0.485824  0.178832  0.000000  1
  P  P14  1  0.686846  0.518603  0.000000  1
  P  P15  1  0.829180  0.313944  0.000000  1
  P  P16  1  0.999107  0.179096  0.500000  1
  P  P17  1  0.820994  0.819913  0.500000  1
  P  P18  1  0.182096  0.000950  0.500000  1
  Ir  Ir19  1  0.508276  0.869744  0.000000  1
  Ir  Ir20  1  0.125454  0.637366  0.000000  1
  Ir  Ir21  1  0.358868  0.489871  0.000000  1
  Ir  Ir22  1  0.492878  0.363823  0.000000  1
  Ir  Ir23  1  0.865390  0.505529  0.000000  1
  Ir  Ir24  1  0.638124  0.134311  0.000000  1
  Ir  Ir25  1  0.461841  0.001458  0.500000  1
  Ir  Ir26  1  0.996346  0.282971  0.000000  1
  Ir  Ir27  1  0.714941  0.715523  0.000000  1
  Ir  Ir28  1  0.291142  0.001451  0.000000  1
  Ir  Ir29  1  0.619838  0.800616  0.500000  1
  Ir  Ir30  1  0.203849  0.823585  0.500000  1
  Ir  Ir31  1  0.175662  0.376432  0.500000  1
  Ir  Ir32  1  0.381751  0.179185  0.500000  1
  Ir  Ir33  1  0.800991  0.622293  0.500000  1
  Ir  Ir34  1  0.816126  0.197726  0.500000  1
  Ir  Ir35  1  0.001327  0.999935  0.500000  1
