# generated using pymatgen
data_DyEr2In3Ag2Ir
_symmetry_space_group_name_H-M   'P 1'
_cell_length_a   8.00335688
_cell_length_b   8.00630230
_cell_length_c   3.69059100
_cell_angle_alpha   90.00000000
_cell_angle_beta   90.00000000
_cell_angle_gamma   119.93429624
_symmetry_Int_Tables_number   1
_chemical_formula_structural   DyEr2In3Ag2Ir
_chemical_formula_sum   'Dy1 Er2 In3 Ag2 Ir1'
_cell_volume   204.93581912
_cell_formula_units_Z   1
loop_
 _symmetry_equiv_pos_site_id
 _symmetry_equiv_pos_as_xyz
  1  'x, y, z'
loop_
 _atom_site_type_symbol
 _atom_site_label
 _atom_site_symmetry_multiplicity
 _atom_site_fract_x
 _atom_site_fract_y
 _atom_site_fract_z
 _atom_site_occupancy
  Dy  Dy0  1  0.033157  0.419595  0.000000  1
  Er  Er1  1  0.579801  0.615406  0.000000  1
  Er  Er2  1  0.385845  0.964268  0.000000  1
  In  In3  1  0.988860  0.721737  0.500000  1
  In  In4  1  0.278604  0.267256  0.500000  1
  In  In5  1  0.732657  0.011052  0.500000  1
  Ag  Ag6  1  0.000348  0.999446  0.000000  1
  Ag  Ag7  1  0.665250  0.333265  0.500000  1
  Ir  Ir8  1  0.335477  0.667977  0.500000  1
