# generated using pymatgen
data_Ce(ThSi2)7
_symmetry_space_group_name_H-M   'P 1'
_cell_length_a   7.95172002
_cell_length_b   7.95171909
_cell_length_c   8.61815106
_cell_angle_alpha   89.98801138
_cell_angle_beta   90.01198822
_cell_angle_gamma   119.96536599
_symmetry_Int_Tables_number   1
_chemical_formula_structural   Ce(ThSi2)7
_chemical_formula_sum   'Ce1 Th7 Si14'
_cell_volume   472.08292417
_cell_formula_units_Z   1
loop_
 _symmetry_equiv_pos_site_id
 _symmetry_equiv_pos_as_xyz
  1  'x, y, z'
loop_
 _atom_site_type_symbol
 _atom_site_label
 _atom_site_symmetry_multiplicity
 _atom_site_fract_x
 _atom_site_fract_y
 _atom_site_fract_z
 _atom_site_occupancy
  Ce  Ce0  1  0.257415  0.257415  0.000000  1
  Th  Th1  1  0.743904  0.743904  0.000000  1
  Th  Th2  1  0.744476  0.744476  0.500000  1
  Th  Th3  1  0.255952  0.255952  0.500000  1
  Th  Th4  1  0.251798  0.748293  0.495954  1
  Th  Th5  1  0.748293  0.251798  0.504046  1
  Th  Th6  1  0.747848  0.251444  0.995795  1
  Th  Th7  1  0.251444  0.747848  0.004205  1
  Si  Si8  1  0.058273  0.367236  0.248395  1
  Si  Si9  1  0.942556  0.631609  0.749915  1
  Si  Si10  1  0.583363  0.415404  0.248864  1
  Si  Si11  1  0.415404  0.583363  0.751136  1
  Si  Si12  1  0.409977  0.588350  0.249193  1
  Si  Si13  1  0.588350  0.409977  0.750807  1
  Si  Si14  1  0.064146  0.938396  0.248773  1
  Si  Si15  1  0.938396  0.064146  0.751227  1
  Si  Si16  1  0.631609  0.942556  0.250085  1
  Si  Si17  1  0.367236  0.058273  0.751605  1
  Si  Si18  1  0.928353  0.587833  0.250311  1
  Si  Si19  1  0.071939  0.411437  0.750699  1
  Si  Si20  1  0.411437  0.071939  0.249301  1
  Si  Si21  1  0.587833  0.928353  0.749689  1
