# generated using pymatgen
data_Tb5Y6Ho5(CdPd)4
_symmetry_space_group_name_H-M   'P 1'
_cell_length_a   9.73094029
_cell_length_b   9.71237429
_cell_length_c   9.71237423
_cell_angle_alpha   59.93062948
_cell_angle_beta   59.93673750
_cell_angle_gamma   59.93673820
_symmetry_Int_Tables_number   1
_chemical_formula_structural   Tb5Y6Ho5(CdPd)4
_chemical_formula_sum   'Tb5 Y6 Ho5 Cd4 Pd4'
_cell_volume   648.10731366
_cell_formula_units_Z   1
loop_
 _symmetry_equiv_pos_site_id
 _symmetry_equiv_pos_as_xyz
  1  'x, y, z'
loop_
 _atom_site_type_symbol
 _atom_site_label
 _atom_site_symmetry_multiplicity
 _atom_site_fract_x
 _atom_site_fract_y
 _atom_site_fract_z
 _atom_site_occupancy
  Tb  Tb0  1  0.351514  0.354354  0.354354  1
  Tb  Tb1  1  0.353946  0.356340  0.935766  1
  Tb  Tb2  1  0.353946  0.935766  0.356340  1
  Tb  Tb3  1  0.939777  0.354354  0.354354  1
  Tb  Tb4  1  0.810517  0.189483  0.189483  1
  Y  Y5  1  0.934312  0.565688  0.565688  1
  Y  Y6  1  0.564633  0.935367  0.935367  1
  Y  Y7  1  0.565139  0.934817  0.565210  1
  Y  Y8  1  0.934834  0.565210  0.934817  1
  Y  Y9  1  0.565139  0.565210  0.934817  1
  Y  Y10  1  0.934834  0.934817  0.565210  1
  Ho  Ho11  1  0.187962  0.812038  0.812038  1
  Ho  Ho12  1  0.189575  0.811191  0.188356  1
  Ho  Ho13  1  0.810878  0.188356  0.811191  1
  Ho  Ho14  1  0.189575  0.188356  0.811191  1
  Ho  Ho15  1  0.810878  0.811191  0.188356  1
  Cd  Cd16  1  0.582745  0.581811  0.581811  1
  Cd  Cd17  1  0.582455  0.581860  0.253232  1
  Cd  Cd18  1  0.582455  0.253232  0.581860  1
  Cd  Cd19  1  0.253636  0.581811  0.581811  1
  Pd  Pd20  1  0.146301  0.143547  0.143547  1
  Pd  Pd21  1  0.144172  0.142911  0.568742  1
  Pd  Pd22  1  0.144172  0.568742  0.142911  1
  Pd  Pd23  1  0.566603  0.143547  0.143547  1
