# generated using pymatgen
data_Zn43Pd8
_symmetry_space_group_name_H-M   'P 1'
_cell_length_a   9.17028736
_cell_length_b   9.17028670
_cell_length_c   9.17028700
_cell_angle_alpha   89.91385905
_cell_angle_beta   89.91385906
_cell_angle_gamma   89.91386085
_symmetry_Int_Tables_number   1
_chemical_formula_structural   Zn43Pd8
_chemical_formula_sum   'Zn43 Pd8'
_cell_volume   771.16500889
_cell_formula_units_Z   1
loop_
 _symmetry_equiv_pos_site_id
 _symmetry_equiv_pos_as_xyz
  1  'x, y, z'
loop_
 _atom_site_type_symbol
 _atom_site_label
 _atom_site_symmetry_multiplicity
 _atom_site_fract_x
 _atom_site_fract_y
 _atom_site_fract_z
 _atom_site_occupancy
  Zn  Zn0  1  0.607242  0.607242  0.607242  1
  Zn  Zn1  1  0.611348  0.390018  0.390018  1
  Zn  Zn2  1  0.390018  0.390018  0.611348  1
  Zn  Zn3  1  0.390018  0.611348  0.390018  1
  Zn  Zn4  1  0.500905  0.858063  0.500905  1
  Zn  Zn5  1  0.500905  0.500905  0.858063  1
  Zn  Zn6  1  0.858063  0.500905  0.500905  1
  Zn  Zn7  1  0.498231  0.141467  0.498231  1
  Zn  Zn8  1  0.498231  0.498231  0.141467  1
  Zn  Zn9  1  0.141467  0.498231  0.498231  1
  Zn  Zn10  1  0.048936  0.294681  0.294681  1
  Zn  Zn11  1  0.294681  0.048936  0.294681  1
  Zn  Zn12  1  0.294681  0.294681  0.048936  1
  Zn  Zn13  1  0.041571  0.691631  0.691631  1
  Zn  Zn14  1  0.309778  0.959823  0.690917  1
  Zn  Zn15  1  0.309778  0.690917  0.959823  1
  Zn  Zn16  1  0.959823  0.690917  0.309778  1
  Zn  Zn17  1  0.690917  0.959823  0.309778  1
  Zn  Zn18  1  0.691631  0.691631  0.041571  1
  Zn  Zn19  1  0.959823  0.309778  0.690917  1
  Zn  Zn20  1  0.691631  0.041571  0.691631  1
  Zn  Zn21  1  0.690917  0.309778  0.959823  1
  Zn  Zn22  1  0.539871  0.811866  0.811866  1
  Zn  Zn23  1  0.811866  0.539872  0.811866  1
  Zn  Zn24  1  0.811866  0.811866  0.539871  1
  Zn  Zn25  1  0.533889  0.186206  0.186206  1
  Zn  Zn26  1  0.814851  0.461027  0.188306  1
  Zn  Zn27  1  0.814851  0.188306  0.461027  1
  Zn  Zn28  1  0.461027  0.188306  0.814851  1
  Zn  Zn29  1  0.188306  0.461027  0.814851  1
  Zn  Zn30  1  0.186206  0.186206  0.533889  1
  Zn  Zn31  1  0.461027  0.814851  0.188306  1
  Zn  Zn32  1  0.186206  0.533889  0.186206  1
  Zn  Zn33  1  0.188306  0.814851  0.461027  1
  Zn  Zn34  1  0.005869  0.346331  0.005869  1
  Zn  Zn35  1  0.005869  0.005869  0.346331  1
  Zn  Zn36  1  0.346331  0.005869  0.005869  1
  Zn  Zn37  1  0.000780  0.642912  0.000780  1
  Zn  Zn38  1  0.000780  0.000780  0.642912  1
  Zn  Zn39  1  0.642912  0.000780  0.000780  1
  Zn  Zn40  1  0.108260  0.901042  0.901042  1
  Zn  Zn41  1  0.901042  0.901042  0.108260  1
  Zn  Zn42  1  0.901042  0.108260  0.901042  1
  Pd  Pd43  1  0.829462  0.829462  0.829462  1
  Pd  Pd44  1  0.821439  0.174420  0.174420  1
  Pd  Pd45  1  0.174420  0.174420  0.821439  1
  Pd  Pd46  1  0.174420  0.821439  0.174420  1
  Pd  Pd47  1  0.330506  0.330506  0.330506  1
  Pd  Pd48  1  0.327726  0.672736  0.672736  1
  Pd  Pd49  1  0.672736  0.672736  0.327726  1
  Pd  Pd50  1  0.672736  0.327726  0.672736  1
