# generated using pymatgen
data_Nd7RhO12
_symmetry_space_group_name_H-M   'P 1'
_cell_length_a   6.87048339
_cell_length_b   6.87048464
_cell_length_c   6.87048400
_cell_angle_alpha   95.75022179
_cell_angle_beta   95.75022284
_cell_angle_gamma   95.75021422
_symmetry_Int_Tables_number   1
_chemical_formula_structural   Nd7RhO12
_chemical_formula_sum   'Nd7 Rh1 O12'
_cell_volume   319.05917545
_cell_formula_units_Z   1
loop_
 _symmetry_equiv_pos_site_id
 _symmetry_equiv_pos_as_xyz
  1  'x, y, z'
loop_
 _atom_site_type_symbol
 _atom_site_label
 _atom_site_symmetry_multiplicity
 _atom_site_fract_x
 _atom_site_fract_y
 _atom_site_fract_z
 _atom_site_occupancy
  Nd  Nd0  1  0.728092  0.906332  0.422203  1
  Nd  Nd1  1  0.422203  0.728092  0.906332  1
  Nd  Nd2  1  0.093668  0.577797  0.271908  1
  Nd  Nd3  1  0.906332  0.422203  0.728092  1
  Nd  Nd4  1  0.577797  0.271908  0.093668  1
  Nd  Nd5  1  0.271908  0.093668  0.577797  1
  Nd  Nd6  1  0.000000  0.000000  0.000000  1
  Rh  Rh7  1  0.500000  0.500000  0.500000  1
  O  O8  1  0.063492  0.913434  0.322593  1
  O  O9  1  0.677407  0.936508  0.086566  1
  O  O10  1  0.448608  0.794834  0.578379  1
  O  O11  1  0.086566  0.677407  0.936508  1
  O  O12  1  0.794834  0.578379  0.448608  1
  O  O13  1  0.421621  0.551392  0.205166  1
  O  O14  1  0.578379  0.448608  0.794834  1
  O  O15  1  0.205166  0.421621  0.551392  1
  O  O16  1  0.913434  0.322593  0.063492  1
  O  O17  1  0.551392  0.205166  0.421621  1
  O  O18  1  0.322593  0.063492  0.913434  1
  O  O19  1  0.936508  0.086566  0.677407  1
