# generated using pymatgen
data_Tm5U3Sb20
_symmetry_space_group_name_H-M   'P 1'
_cell_length_a   4.19783400
_cell_length_b   13.17512795
_cell_length_c   14.52048151
_cell_angle_alpha   78.19630594
_cell_angle_beta   90.00000000
_cell_angle_gamma   90.00000000
_symmetry_Int_Tables_number   1
_chemical_formula_structural   Tm5U3Sb20
_chemical_formula_sum   'Tm5 U3 Sb20'
_cell_volume   786.10241412
_cell_formula_units_Z   1
loop_
 _symmetry_equiv_pos_site_id
 _symmetry_equiv_pos_as_xyz
  1  'x, y, z'
loop_
 _atom_site_type_symbol
 _atom_site_label
 _atom_site_symmetry_multiplicity
 _atom_site_fract_x
 _atom_site_fract_y
 _atom_site_fract_z
 _atom_site_occupancy
  Tm  Tm0  1  0.250000  0.392469  0.771142  1
  Tm  Tm1  1  0.750000  0.610759  0.227407  1
  Tm  Tm2  1  0.250000  0.660480  0.857020  1
  Tm  Tm3  1  0.750000  0.338128  0.141360  1
  Tm  Tm4  1  0.250000  0.666259  0.576238  1
  U  U5  1  0.750000  0.333599  0.425741  1
  U  U6  1  0.250000  0.954751  0.359393  1
  U  U7  1  0.750000  0.043962  0.641194  1
  Sb  Sb8  1  0.250000  0.140347  0.775645  1
  Sb  Sb9  1  0.750000  0.859595  0.225062  1
  Sb  Sb10  1  0.250000  0.151705  0.487883  1
  Sb  Sb11  1  0.750000  0.856786  0.514246  1
  Sb  Sb12  1  0.250000  0.150358  0.169645  1
  Sb  Sb13  1  0.750000  0.848530  0.829948  1
  Sb  Sb14  1  0.250000  0.421252  0.976658  1
  Sb  Sb15  1  0.750000  0.578218  0.023666  1
  Sb  Sb16  1  0.750000  0.029319  0.912849  1
  Sb  Sb17  1  0.250000  0.967392  0.086102  1
  Sb  Sb18  1  0.750000  0.143525  0.319025  1
  Sb  Sb19  1  0.250000  0.855994  0.680238  1
  Sb  Sb20  1  0.750000  0.276318  0.936416  1
  Sb  Sb21  1  0.250000  0.724576  0.062051  1
  Sb  Sb22  1  0.750000  0.282338  0.654645  1
  Sb  Sb23  1  0.250000  0.717037  0.344153  1
  Sb  Sb24  1  0.750000  0.574610  0.733998  1
  Sb  Sb25  1  0.250000  0.422928  0.269236  1
  Sb  Sb26  1  0.750000  0.571646  0.447518  1
  Sb  Sb27  1  0.250000  0.427117  0.551519  1
