# generated using pymatgen
data_Zr6Al2In3GaPt6
_symmetry_space_group_name_H-M   'P 1'
_cell_length_a   7.36571549
_cell_length_b   7.36088663
_cell_length_c   7.22227423
_cell_angle_alpha   89.99999746
_cell_angle_beta   90.05827380
_cell_angle_gamma   119.97831358
_symmetry_Int_Tables_number   1
_chemical_formula_structural   Zr6Al2In3GaPt6
_chemical_formula_sum   'Zr6 Al2 In3 Ga1 Pt6'
_cell_volume   339.19093670
_cell_formula_units_Z   1
loop_
 _symmetry_equiv_pos_site_id
 _symmetry_equiv_pos_as_xyz
  1  'x, y, z'
loop_
 _atom_site_type_symbol
 _atom_site_label
 _atom_site_symmetry_multiplicity
 _atom_site_fract_x
 _atom_site_fract_y
 _atom_site_fract_z
 _atom_site_occupancy
  Zr  Zr0  1  0.386278  0.409818  0.745033  1
  Zr  Zr1  1  0.022995  0.610747  0.745546  1
  Zr  Zr2  1  0.589542  0.977252  0.745622  1
  Zr  Zr3  1  0.613722  0.023542  0.254967  1
  Zr  Zr4  1  0.977005  0.587753  0.254454  1
  Zr  Zr5  1  0.410458  0.387711  0.254378  1
  Al  Al6  1  0.719637  0.718537  0.499952  1
  Al  Al7  1  0.280363  0.998900  0.500048  1
  In  In8  1  0.255580  0.999674  0.000059  1
  In  In9  1  0.744420  0.744094  0.999941  1
  In  In10  1  0.000000  0.254216  0.000000  1
  Ga  Ga11  1  0.000000  0.285292  0.500000  1
  Pt  Pt12  1  0.666812  0.333457  0.960562  1
  Pt  Pt13  1  0.999830  0.997861  0.709179  1
  Pt  Pt14  1  0.661133  0.333800  0.533872  1
  Pt  Pt15  1  0.338867  0.672668  0.466128  1
  Pt  Pt16  1  0.333188  0.666646  0.039438  1
  Pt  Pt17  1  0.000170  0.998031  0.290821  1
