# generated using pymatgen
data_Ac4Co5IrO19
_symmetry_space_group_name_H-M   'P 1'
_cell_length_a   7.52262097
_cell_length_b   7.56743105
_cell_length_c   7.52262100
_cell_angle_alpha   109.76959405
_cell_angle_beta   108.77347799
_cell_angle_gamma   109.62837715
_symmetry_Int_Tables_number   1
_chemical_formula_structural   Ac4Co5IrO19
_chemical_formula_sum   'Ac4 Co5 Ir1 O19'
_cell_volume   330.61884602
_cell_formula_units_Z   1
loop_
 _symmetry_equiv_pos_site_id
 _symmetry_equiv_pos_as_xyz
  1  'x, y, z'
loop_
 _atom_site_type_symbol
 _atom_site_label
 _atom_site_symmetry_multiplicity
 _atom_site_fract_x
 _atom_site_fract_y
 _atom_site_fract_z
 _atom_site_occupancy
  Ac  Ac0  1  0.998436  0.997105  0.328878  1
  Ac  Ac1  1  0.991360  0.325131  0.004453  1
  Ac  Ac2  1  0.679322  0.674869  0.666229  1
  Ac  Ac3  1  0.331773  0.002895  0.001330  1
  Co  Co4  1  0.836701  0.338719  0.492984  1
  Co  Co5  1  0.502397  0.154247  0.657622  1
  Co  Co6  1  0.154264  0.661281  0.497982  1
  Co  Co7  1  0.503375  0.845753  0.348150  1
  Co  Co8  1  0.661630  0.500000  0.161630  1
  Ir  Ir9  1  0.340262  0.500000  0.840262  1
  O  O10  1  0.360452  0.000000  0.360452  1
  O  O11  1  0.353991  0.351318  0.005334  1
  O  O12  1  0.004570  0.645342  0.645714  1
  O  O13  1  0.654015  0.648682  0.002672  1
  O  O14  1  0.000372  0.354658  0.359228  1
  O  O15  1  0.648380  0.000000  0.648380  1
  O  O16  1  0.000855  0.000000  0.000855  1
  O  O17  1  0.366938  0.320857  0.614466  1
  O  O18  1  0.032836  0.290716  0.672523  1
  O  O19  1  0.742853  0.374678  0.696887  1
  O  O20  1  0.381807  0.709284  0.742120  1
  O  O21  1  0.255260  0.960128  0.633031  1
  O  O22  1  0.624681  0.368261  0.323059  1
  O  O23  1  0.322209  0.625322  0.368175  1
  O  O24  1  0.672904  0.039872  0.295132  1
  O  O25  1  0.954800  0.631739  0.256420  1
  O  O26  1  0.699885  0.744609  0.374673  1
  O  O27  1  0.630064  0.255391  0.955274  1
  O  O28  1  0.293610  0.679143  0.046082  1
