# generated using pymatgen
data_LaPrGaSi
_symmetry_space_group_name_H-M   'P 1'
_cell_length_a   6.13824235
_cell_length_b   6.13824209
_cell_length_c   4.08877900
_cell_angle_alpha   90.00000000
_cell_angle_beta   90.00000000
_cell_angle_gamma   136.97069218
_symmetry_Int_Tables_number   1
_chemical_formula_structural   LaPrGaSi
_chemical_formula_sum   'La1 Pr1 Ga1 Si1'
_cell_volume   105.12429975
_cell_formula_units_Z   1
loop_
 _symmetry_equiv_pos_site_id
 _symmetry_equiv_pos_as_xyz
  1  'x, y, z'
loop_
 _atom_site_type_symbol
 _atom_site_label
 _atom_site_symmetry_multiplicity
 _atom_site_fract_x
 _atom_site_fract_y
 _atom_site_fract_z
 _atom_site_occupancy
  La  La0  1  0.643630  0.356370  0.500000  1
  Pr  Pr1  1  0.358772  0.641228  0.000000  1
  Ga  Ga2  1  0.067102  0.932898  0.000000  1
  Si  Si3  1  0.930497  0.069503  0.500000  1
