# generated using pymatgen
data_TmPu3(AlB4)4
_symmetry_space_group_name_H-M   'P 1'
_cell_length_a   3.57073000
_cell_length_b   5.93360021
_cell_length_c   11.50167640
_cell_angle_alpha   89.96971066
_cell_angle_beta   90.00000000
_cell_angle_gamma   90.00000000
_symmetry_Int_Tables_number   1
_chemical_formula_structural   TmPu3(AlB4)4
_chemical_formula_sum   'Tm1 Pu3 Al4 B16'
_cell_volume   243.68925343
_cell_formula_units_Z   1
loop_
 _symmetry_equiv_pos_site_id
 _symmetry_equiv_pos_as_xyz
  1  'x, y, z'
loop_
 _atom_site_type_symbol
 _atom_site_label
 _atom_site_symmetry_multiplicity
 _atom_site_fract_x
 _atom_site_fract_y
 _atom_site_fract_z
 _atom_site_occupancy
  Tm  Tm0  1  0.000000  0.871238  0.849690  1
  Pu  Pu1  1  0.000000  0.630168  0.350033  1
  Pu  Pu2  1  0.000000  0.369592  0.650444  1
  Pu  Pu3  1  0.000000  0.129982  0.149264  1
  Al  Al4  1  0.000000  0.638285  0.091174  1
  Al  Al5  1  0.000000  0.361477  0.909752  1
  Al  Al6  1  0.000000  0.138910  0.409361  1
  Al  Al7  1  0.000000  0.860716  0.590030  1
  B  B8  1  0.500000  0.790560  0.187475  1
  B  B9  1  0.500000  0.209936  0.812273  1
  B  B10  1  0.500000  0.290144  0.312234  1
  B  B11  1  0.500000  0.709849  0.688009  1
  B  B12  1  0.500000  0.866881  0.030731  1
  B  B13  1  0.500000  0.132432  0.968459  1
  B  B14  1  0.500000  0.367039  0.469087  1
  B  B15  1  0.500000  0.632837  0.532117  1
  B  B16  1  0.500000  0.885855  0.453014  1
  B  B17  1  0.500000  0.113491  0.547345  1
  B  B18  1  0.500000  0.386651  0.046055  1
  B  B19  1  0.500000  0.615724  0.952606  1
  B  B20  1  0.500000  0.973535  0.307110  1
  B  B21  1  0.500000  0.026027  0.693417  1
  B  B22  1  0.500000  0.472579  0.192980  1
  B  B23  1  0.500000  0.526093  0.807339  1
