# generated using pymatgen
data_Eu4AlGaPt4
_symmetry_space_group_name_H-M   'P 1'
_cell_length_a   5.76594189
_cell_length_b   5.76594198
_cell_length_c   8.01955440
_cell_angle_alpha   79.36421748
_cell_angle_beta   79.36421335
_cell_angle_gamma   61.10248575
_symmetry_Int_Tables_number   1
_chemical_formula_structural   Eu4AlGaPt4
_chemical_formula_sum   'Eu4 Al1 Ga1 Pt4'
_cell_volume   227.99711237
_cell_formula_units_Z   1
loop_
 _symmetry_equiv_pos_site_id
 _symmetry_equiv_pos_as_xyz
  1  'x, y, z'
loop_
 _atom_site_type_symbol
 _atom_site_label
 _atom_site_symmetry_multiplicity
 _atom_site_fract_x
 _atom_site_fract_y
 _atom_site_fract_z
 _atom_site_occupancy
  Eu  Eu0  1  0.781442  0.517525  0.850135  1
  Eu  Eu1  1  0.482475  0.218558  0.649865  1
  Eu  Eu2  1  0.217520  0.483644  0.147830  1
  Eu  Eu3  1  0.516356  0.782480  0.352170  1
  Al  Al4  1  0.884710  0.115290  0.250000  1
  Ga  Ga5  1  0.127209  0.872791  0.750000  1
  Pt  Pt6  1  0.998493  0.740414  0.500173  1
  Pt  Pt7  1  0.259586  0.001507  0.999827  1
  Pt  Pt8  1  0.995046  0.262837  0.493158  1
  Pt  Pt9  1  0.737163  0.004954  0.006842  1
