# generated using pymatgen
data_Hf8ScSe16
_symmetry_space_group_name_H-M   'P 1'
_cell_length_a   7.51309500
_cell_length_b   7.51309277
_cell_length_c   13.42033900
_cell_angle_alpha   90.00000000
_cell_angle_beta   90.00000000
_cell_angle_gamma   119.99998780
_symmetry_Int_Tables_number   1
_chemical_formula_structural   Hf8ScSe16
_chemical_formula_sum   'Hf8 Sc1 Se16'
_cell_volume   656.04224064
_cell_formula_units_Z   1
loop_
 _symmetry_equiv_pos_site_id
 _symmetry_equiv_pos_as_xyz
  1  'x, y, z'
loop_
 _atom_site_type_symbol
 _atom_site_label
 _atom_site_symmetry_multiplicity
 _atom_site_fract_x
 _atom_site_fract_y
 _atom_site_fract_z
 _atom_site_occupancy
  Hf  Hf0  1  0.503905  0.496095  0.753419  1
  Hf  Hf1  1  0.496095  0.503905  0.246581  1
  Hf  Hf2  1  0.503905  0.007809  0.753419  1
  Hf  Hf3  1  0.496095  0.992191  0.246581  1
  Hf  Hf4  1  0.992191  0.496095  0.753419  1
  Hf  Hf5  1  0.007809  0.503905  0.246581  1
  Hf  Hf6  1  0.000000  0.000000  0.754341  1
  Hf  Hf7  1  0.000000  0.000000  0.245659  1
  Sc  Sc8  1  0.000000  0.000000  0.000000  1
  Se  Se9  1  0.831810  0.663621  0.123079  1
  Se  Se10  1  0.834080  0.668159  0.635926  1
  Se  Se11  1  0.831810  0.168190  0.123079  1
  Se  Se12  1  0.834080  0.165920  0.635926  1
  Se  Se13  1  0.333333  0.666667  0.125468  1
  Se  Se14  1  0.333333  0.666667  0.641768  1
  Se  Se15  1  0.336379  0.168190  0.123079  1
  Se  Se16  1  0.331841  0.165920  0.635926  1
  Se  Se17  1  0.663621  0.831810  0.876921  1
  Se  Se18  1  0.668159  0.834080  0.364074  1
  Se  Se19  1  0.666667  0.333333  0.874532  1
  Se  Se20  1  0.666667  0.333333  0.358232  1
  Se  Se21  1  0.168190  0.831810  0.876921  1
  Se  Se22  1  0.165920  0.834080  0.364074  1
  Se  Se23  1  0.168190  0.336379  0.876921  1
  Se  Se24  1  0.165920  0.331841  0.364074  1
