# generated using pymatgen
data_Nd12Ga5Si3Ir8
_symmetry_space_group_name_H-M   'P 1'
_cell_length_a   5.73184398
_cell_length_b   8.20860475
_cell_length_c   13.44862000
_cell_angle_alpha   90.00000000
_cell_angle_beta   90.00000000
_cell_angle_gamma   90.24433204
_symmetry_Int_Tables_number   1
_chemical_formula_structural   Nd12Ga5Si3Ir8
_chemical_formula_sum   'Nd12 Ga5 Si3 Ir8'
_cell_volume   632.75775808
_cell_formula_units_Z   1
loop_
 _symmetry_equiv_pos_site_id
 _symmetry_equiv_pos_as_xyz
  1  'x, y, z'
loop_
 _atom_site_type_symbol
 _atom_site_label
 _atom_site_symmetry_multiplicity
 _atom_site_fract_x
 _atom_site_fract_y
 _atom_site_fract_z
 _atom_site_occupancy
  Nd  Nd0  1  0.850748  0.893692  0.599779  1
  Nd  Nd1  1  0.148859  0.396151  0.899964  1
  Nd  Nd2  1  0.851968  0.605018  0.102531  1
  Nd  Nd3  1  0.630591  0.250587  0.750000  1
  Nd  Nd4  1  0.640964  0.249965  0.250000  1
  Nd  Nd5  1  0.851968  0.605018  0.397469  1
  Nd  Nd6  1  0.361052  0.752351  0.250000  1
  Nd  Nd7  1  0.147992  0.105947  0.101942  1
  Nd  Nd8  1  0.147992  0.105947  0.398058  1
  Nd  Nd9  1  0.360598  0.752090  0.750000  1
  Nd  Nd10  1  0.148859  0.396151  0.600036  1
  Nd  Nd11  1  0.850748  0.893692  0.900221  1
  Ga  Ga12  1  0.380357  0.747219  0.499200  1
  Ga  Ga13  1  0.380357  0.747219  0.000800  1
  Ga  Ga14  1  0.134414  0.105320  0.750000  1
  Ga  Ga15  1  0.620824  0.251006  0.499103  1
  Ga  Ga16  1  0.620824  0.251006  0.000897  1
  Si  Si17  1  0.148474  0.397069  0.250000  1
  Si  Si18  1  0.853574  0.897006  0.250000  1
  Si  Si19  1  0.852942  0.603118  0.750000  1
  Ir  Ir20  1  0.357461  0.025662  0.910239  1
  Ir  Ir21  1  0.355854  0.472120  0.095979  1
  Ir  Ir22  1  0.647042  0.971810  0.095939  1
  Ir  Ir23  1  0.647591  0.527620  0.905050  1
  Ir  Ir24  1  0.647042  0.971810  0.404061  1
  Ir  Ir25  1  0.647591  0.527620  0.594950  1
  Ir  Ir26  1  0.355854  0.472120  0.404021  1
  Ir  Ir27  1  0.357461  0.025662  0.589761  1
