# generated using pymatgen
data_Pa6Ti2GaSb9
_symmetry_space_group_name_H-M   'P 1'
_cell_length_a   9.14507000
_cell_length_b   9.14507092
_cell_length_c   6.09862000
_cell_angle_alpha   90.00000000
_cell_angle_beta   90.00000000
_cell_angle_gamma   119.99999668
_symmetry_Int_Tables_number   1
_chemical_formula_structural   Pa6Ti2GaSb9
_chemical_formula_sum   'Pa6 Ti2 Ga1 Sb9'
_cell_volume   441.70908485
_cell_formula_units_Z   1
loop_
 _symmetry_equiv_pos_site_id
 _symmetry_equiv_pos_as_xyz
  1  'x, y, z'
loop_
 _atom_site_type_symbol
 _atom_site_label
 _atom_site_symmetry_multiplicity
 _atom_site_fract_x
 _atom_site_fract_y
 _atom_site_fract_z
 _atom_site_occupancy
  Pa  Pa0  1  0.607818  0.993615  0.244945  1
  Pa  Pa1  1  0.385797  0.993615  0.755055  1
  Pa  Pa2  1  0.006385  0.614203  0.244945  1
  Pa  Pa3  1  0.006385  0.392182  0.755055  1
  Pa  Pa4  1  0.385797  0.392182  0.244945  1
  Pa  Pa5  1  0.607818  0.614203  0.755055  1
  Ti  Ti6  1  0.000000  0.000000  0.000000  1
  Ti  Ti7  1  0.000000  0.000000  0.500000  1
  Ga  Ga8  1  0.333333  0.666667  0.000000  1
  Sb  Sb9  1  0.264051  0.001115  0.250082  1
  Sb  Sb10  1  0.737064  0.001115  0.749918  1
  Sb  Sb11  1  0.998885  0.262936  0.250082  1
  Sb  Sb12  1  0.998885  0.735949  0.749918  1
  Sb  Sb13  1  0.737064  0.735949  0.250082  1
  Sb  Sb14  1  0.264051  0.262936  0.749918  1
  Sb  Sb15  1  0.666667  0.333333  0.000000  1
  Sb  Sb16  1  0.666667  0.333333  0.500000  1
  Sb  Sb17  1  0.333333  0.666667  0.500000  1
