# generated using pymatgen
data_YbHoPt2O7
_symmetry_space_group_name_H-M   'P 1'
_cell_length_a   7.24738926
_cell_length_b   7.25258819
_cell_length_c   7.25258650
_cell_angle_alpha   59.93805080
_cell_angle_beta   60.02370534
_cell_angle_gamma   60.02370724
_symmetry_Int_Tables_number   1
_chemical_formula_structural   YbHoPt2O7
_chemical_formula_sum   'Yb2 Ho2 Pt4 O14'
_cell_volume   269.52817042
_cell_formula_units_Z   2
loop_
 _symmetry_equiv_pos_site_id
 _symmetry_equiv_pos_as_xyz
  1  'x, y, z'
loop_
 _atom_site_type_symbol
 _atom_site_label
 _atom_site_symmetry_multiplicity
 _atom_site_fract_x
 _atom_site_fract_y
 _atom_site_fract_z
 _atom_site_occupancy
  Yb  Yb0  1  0.625000  0.625000  0.125000  1
  Yb  Yb1  1  0.625000  0.125000  0.625000  1
  Ho  Ho2  1  0.625000  0.625000  0.625000  1
  Ho  Ho3  1  0.125000  0.625000  0.625000  1
  Pt  Pt4  1  0.125000  0.125000  0.125000  1
  Pt  Pt5  1  0.625000  0.125000  0.125000  1
  Pt  Pt6  1  0.125000  0.625000  0.125000  1
  Pt  Pt7  1  0.125000  0.125000  0.625000  1
  O  O8  1  0.037151  0.462849  0.462849  1
  O  O9  1  0.789542  0.788812  0.215686  1
  O  O10  1  0.791794  0.208206  0.208206  1
  O  O11  1  0.460458  0.034314  0.461188  1
  O  O12  1  0.755354  0.744646  0.744646  1
  O  O13  1  0.044041  0.034314  0.461188  1
  O  O14  1  0.044041  0.461188  0.034314  1
  O  O15  1  0.789542  0.215686  0.788812  1
  O  O16  1  0.205959  0.788812  0.215686  1
  O  O17  1  0.205959  0.215686  0.788812  1
  O  O18  1  0.494646  0.505354  0.505354  1
  O  O19  1  0.458206  0.041794  0.041794  1
  O  O20  1  0.460458  0.461188  0.034314  1
  O  O21  1  0.212849  0.787151  0.787151  1
