# generated using pymatgen
data_La8NdU3Se20
_symmetry_space_group_name_H-M   'P 1'
_cell_length_a   7.95234264
_cell_length_b   8.57922800
_cell_length_c   12.57939994
_cell_angle_alpha   90.00000000
_cell_angle_beta   90.23654590
_cell_angle_gamma   90.00000000
_symmetry_Int_Tables_number   1
_chemical_formula_structural   La8NdU3Se20
_chemical_formula_sum   'La8 Nd1 U3 Se20'
_cell_volume   858.22175206
_cell_formula_units_Z   1
loop_
 _symmetry_equiv_pos_site_id
 _symmetry_equiv_pos_as_xyz
  1  'x, y, z'
loop_
 _atom_site_type_symbol
 _atom_site_label
 _atom_site_symmetry_multiplicity
 _atom_site_fract_x
 _atom_site_fract_y
 _atom_site_fract_z
 _atom_site_occupancy
  La  La0  1  0.530706  0.501327  0.323947  1
  La  La1  1  0.969664  0.999993  0.823044  1
  La  La2  1  0.470780  0.000700  0.675293  1
  La  La3  1  0.027338  0.500916  0.178294  1
  La  La4  1  0.470780  0.499300  0.675293  1
  La  La5  1  0.027338  0.999084  0.178294  1
  La  La6  1  0.530706  0.998673  0.323947  1
  La  La7  1  0.969664  0.500007  0.823044  1
  Nd  Nd8  1  0.073372  0.750000  0.493327  1
  U  U9  1  0.426781  0.750000  0.989147  1
  U  U10  1  0.938384  0.250000  0.505218  1
  U  U11  1  0.568582  0.250000  0.009443  1
  Se  Se12  1  0.831654  0.969963  0.595718  1
  Se  Se13  1  0.662221  0.541927  0.090584  1
  Se  Se14  1  0.167062  0.450542  0.406239  1
  Se  Se15  1  0.335333  0.043471  0.907613  1
  Se  Se16  1  0.167062  0.049458  0.406239  1
  Se  Se17  1  0.335333  0.456529  0.907613  1
  Se  Se18  1  0.831654  0.530037  0.595718  1
  Se  Se19  1  0.662221  0.958073  0.090584  1
  Se  Se20  1  0.829904  0.750000  0.307686  1
  Se  Se21  1  0.663705  0.750000  0.813866  1
  Se  Se22  1  0.165208  0.250000  0.686108  1
  Se  Se23  1  0.337353  0.250000  0.185228  1
  Se  Se24  1  0.460064  0.750000  0.498356  1
  Se  Se25  1  0.045077  0.750000  0.999655  1
  Se  Se26  1  0.549706  0.250000  0.499578  1
  Se  Se27  1  0.952560  0.250000  0.002164  1
  Se  Se28  1  0.194145  0.750000  0.720718  1
  Se  Se29  1  0.310172  0.750000  0.212615  1
  Se  Se30  1  0.808303  0.250000  0.285436  1
  Se  Se31  1  0.687167  0.250000  0.789990  1
