# generated using pymatgen
data_Er10NiHg3
_symmetry_space_group_name_H-M   'P 1'
_cell_length_a   9.57708100
_cell_length_b   9.57708123
_cell_length_c   9.42264900
_cell_angle_alpha   90.00000000
_cell_angle_beta   90.00000000
_cell_angle_gamma   119.99999573
_symmetry_Int_Tables_number   1
_chemical_formula_structural   Er10NiHg3
_chemical_formula_sum   'Er20 Ni2 Hg6'
_cell_volume   748.46241367
_cell_formula_units_Z   2
loop_
 _symmetry_equiv_pos_site_id
 _symmetry_equiv_pos_as_xyz
  1  'x, y, z'
loop_
 _atom_site_type_symbol
 _atom_site_label
 _atom_site_symmetry_multiplicity
 _atom_site_fract_x
 _atom_site_fract_y
 _atom_site_fract_z
 _atom_site_occupancy
  Er  Er0  1  0.000000  0.000000  0.500000  1
  Er  Er1  1  0.000000  0.000000  0.000000  1
  Er  Er2  1  0.543180  0.456820  0.250000  1
  Er  Er3  1  0.543180  0.086361  0.250000  1
  Er  Er4  1  0.913639  0.456820  0.250000  1
  Er  Er5  1  0.456820  0.543180  0.750000  1
  Er  Er6  1  0.456820  0.913639  0.750000  1
  Er  Er7  1  0.086361  0.543180  0.750000  1
  Er  Er8  1  0.209433  0.790567  0.435934  1
  Er  Er9  1  0.209433  0.418868  0.435934  1
  Er  Er10  1  0.581132  0.790567  0.435934  1
  Er  Er11  1  0.790567  0.209433  0.564066  1
  Er  Er12  1  0.790567  0.581132  0.564066  1
  Er  Er13  1  0.418868  0.209433  0.564066  1
  Er  Er14  1  0.790567  0.209433  0.935934  1
  Er  Er15  1  0.790567  0.581132  0.935934  1
  Er  Er16  1  0.418868  0.209433  0.935934  1
  Er  Er17  1  0.209433  0.790567  0.064066  1
  Er  Er18  1  0.209433  0.418868  0.064066  1
  Er  Er19  1  0.581132  0.790567  0.064066  1
  Ni  Ni20  1  0.333333  0.666667  0.250000  1
  Ni  Ni21  1  0.666667  0.333333  0.750000  1
  Hg  Hg22  1  0.879050  0.120950  0.250000  1
  Hg  Hg23  1  0.879050  0.758099  0.250000  1
  Hg  Hg24  1  0.241901  0.120950  0.250000  1
  Hg  Hg25  1  0.120950  0.879050  0.750000  1
  Hg  Hg26  1  0.120950  0.241901  0.750000  1
  Hg  Hg27  1  0.758099  0.879050  0.750000  1
