# generated using pymatgen
data_Lu2Zr3P12Ru19
_symmetry_space_group_name_H-M   'P 1'
_cell_length_a   12.44855001
_cell_length_b   12.44855096
_cell_length_c   3.94018000
_cell_angle_alpha   90.00000000
_cell_angle_beta   90.00000000
_cell_angle_gamma   119.99031720
_symmetry_Int_Tables_number   1
_chemical_formula_structural   Lu2Zr3P12Ru19
_chemical_formula_sum   'Lu2 Zr3 P12 Ru19'
_cell_volume   528.84284129
_cell_formula_units_Z   1
loop_
 _symmetry_equiv_pos_site_id
 _symmetry_equiv_pos_as_xyz
  1  'x, y, z'
loop_
 _atom_site_type_symbol
 _atom_site_label
 _atom_site_symmetry_multiplicity
 _atom_site_fract_x
 _atom_site_fract_y
 _atom_site_fract_z
 _atom_site_occupancy
  Lu  Lu0  1  0.813840  0.000281  0.500000  1
  Lu  Lu1  1  0.000281  0.813840  0.500000  1
  Zr  Zr2  1  0.187445  0.187445  0.500000  1
  Zr  Zr3  1  0.332097  0.664982  0.000000  1
  Zr  Zr4  1  0.664982  0.332097  0.000000  1
  P  P5  1  0.817132  0.817132  0.000000  1
  P  P6  1  0.183030  0.000468  0.000000  1
  P  P7  1  0.000468  0.183030  0.000000  1
  P  P8  1  0.173313  0.479341  0.500000  1
  P  P9  1  0.520518  0.694286  0.500000  1
  P  P10  1  0.305412  0.826953  0.500000  1
  P  P11  1  0.694286  0.520518  0.500000  1
  P  P12  1  0.826953  0.305412  0.500000  1
  P  P13  1  0.479341  0.173313  0.500000  1
  P  P14  1  0.370181  0.370181  0.000000  1
  P  P15  1  0.628899  0.000078  0.000000  1
  P  P16  1  0.000078  0.628899  0.000000  1
  Ru  Ru17  1  0.553527  0.553527  0.000000  1
  Ru  Ru18  1  0.446192  0.002317  0.000000  1
  Ru  Ru19  1  0.002317  0.446192  0.000000  1
  Ru  Ru20  1  0.718156  0.718156  0.500000  1
  Ru  Ru21  1  0.282097  0.001913  0.500000  1
  Ru  Ru22  1  0.001913  0.282097  0.500000  1
  Ru  Ru23  1  0.185340  0.374072  0.000000  1
  Ru  Ru24  1  0.621609  0.807355  0.000000  1
  Ru  Ru25  1  0.192642  0.815238  0.000000  1
  Ru  Ru26  1  0.807355  0.621609  0.000000  1
  Ru  Ru27  1  0.815238  0.192642  0.000000  1
  Ru  Ru28  1  0.374072  0.185340  0.000000  1
  Ru  Ru29  1  0.366010  0.494397  0.500000  1
  Ru  Ru30  1  0.504558  0.872250  0.500000  1
  Ru  Ru31  1  0.128403  0.633655  0.500000  1
  Ru  Ru32  1  0.872250  0.504558  0.500000  1
  Ru  Ru33  1  0.633655  0.128403  0.500000  1
  Ru  Ru34  1  0.494397  0.366010  0.500000  1
  Ru  Ru35  1  0.002015  0.002015  0.000000  1
