# generated using pymatgen
data_Dy3Mg(Si4Tc3)2
_symmetry_space_group_name_H-M   'P 1'
_cell_length_a   6.79172437
_cell_length_b   6.64781321
_cell_length_c   6.76793951
_cell_angle_alpha   70.46825999
_cell_angle_beta   89.80271478
_cell_angle_gamma   90.05412641
_symmetry_Int_Tables_number   1
_chemical_formula_structural   Dy3Mg(Si4Tc3)2
_chemical_formula_sum   'Dy3 Mg1 Si8 Tc6'
_cell_volume   287.98705184
_cell_formula_units_Z   1
loop_
 _symmetry_equiv_pos_site_id
 _symmetry_equiv_pos_as_xyz
  1  'x, y, z'
loop_
 _atom_site_type_symbol
 _atom_site_label
 _atom_site_symmetry_multiplicity
 _atom_site_fract_x
 _atom_site_fract_y
 _atom_site_fract_z
 _atom_site_occupancy
  Dy  Dy0  1  0.165707  0.059458  0.806597  1
  Dy  Dy1  1  0.334305  0.556404  0.810563  1
  Dy  Dy2  1  0.830809  0.942199  0.193428  1
  Mg  Mg3  1  0.669440  0.454497  0.181133  1
  Si  Si4  1  0.452441  0.123492  0.107671  1
  Si  Si5  1  0.948746  0.379476  0.901837  1
  Si  Si6  1  0.548688  0.876343  0.901381  1
  Si  Si7  1  0.041966  0.617913  0.104679  1
  Si  Si8  1  0.851397  0.144330  0.503097  1
  Si  Si9  1  0.369221  0.365775  0.482596  1
  Si  Si10  1  0.141092  0.866573  0.487019  1
  Si  Si11  1  0.643146  0.624110  0.508488  1
  Tc  Tc12  1  0.503209  0.001813  0.499595  1
  Tc  Tc13  1  0.998155  0.497882  0.501067  1
  Tc  Tc14  1  0.154039  0.242585  0.238948  1
  Tc  Tc15  1  0.653747  0.252432  0.771743  1
  Tc  Tc16  1  0.845872  0.758575  0.762961  1
  Tc  Tc17  1  0.348018  0.736143  0.237195  1
