# generated using pymatgen
data_TbY3Lu4(ReB6)4
_symmetry_space_group_name_H-M   'P 1'
_cell_length_a   3.64880400
_cell_length_b   9.11373300
_cell_length_c   11.50496800
_cell_angle_alpha   90.00016141
_cell_angle_beta   90.00000000
_cell_angle_gamma   90.00000000
_symmetry_Int_Tables_number   1
_chemical_formula_structural   TbY3Lu4(ReB6)4
_chemical_formula_sum   'Tb1 Y3 Lu4 Re4 B24'
_cell_volume   382.58879938
_cell_formula_units_Z   1
loop_
 _symmetry_equiv_pos_site_id
 _symmetry_equiv_pos_as_xyz
  1  'x, y, z'
loop_
 _atom_site_type_symbol
 _atom_site_label
 _atom_site_symmetry_multiplicity
 _atom_site_fract_x
 _atom_site_fract_y
 _atom_site_fract_z
 _atom_site_occupancy
  Tb  Tb0  1  0.000000  0.176889  0.913975  1
  Y  Y1  1  0.000000  0.323071  0.414016  1
  Y  Y2  1  0.000000  0.676932  0.585971  1
  Y  Y3  1  0.000000  0.823059  0.086010  1
  Lu  Lu4  1  0.000000  0.943723  0.370261  1
  Lu  Lu5  1  0.000000  0.056294  0.629721  1
  Lu  Lu6  1  0.000000  0.443729  0.129790  1
  Lu  Lu7  1  0.000000  0.556290  0.870202  1
  Re  Re8  1  0.000000  0.639822  0.319806  1
  Re  Re9  1  0.000000  0.360202  0.680145  1
  Re  Re10  1  0.000000  0.139844  0.180252  1
  Re  Re11  1  0.000000  0.860146  0.819821  1
  B  B12  1  0.500000  0.553938  0.432503  1
  B  B13  1  0.500000  0.446075  0.567495  1
  B  B14  1  0.500000  0.053973  0.067569  1
  B  B15  1  0.500000  0.946028  0.932465  1
  B  B16  1  0.500000  0.751270  0.418319  1
  B  B17  1  0.500000  0.248731  0.581673  1
  B  B18  1  0.500000  0.251248  0.081760  1
  B  B19  1  0.500000  0.748710  0.918340  1
  B  B20  1  0.500000  0.793522  0.265558  1
  B  B21  1  0.500000  0.206558  0.734400  1
  B  B22  1  0.500000  0.293528  0.234454  1
  B  B23  1  0.500000  0.706473  0.765554  1
  B  B24  1  0.500000  0.630333  0.184874  1
  B  B25  1  0.500000  0.369684  0.815076  1
  B  B26  1  0.500000  0.130316  0.315151  1
  B  B27  1  0.500000  0.869665  0.684839  1
  B  B28  1  0.500000  0.982084  0.212871  1
  B  B29  1  0.500000  0.017803  0.787108  1
  B  B30  1  0.500000  0.482113  0.287143  1
  B  B31  1  0.500000  0.517881  0.712858  1
  B  B32  1  0.500000  0.597855  0.027143  1
  B  B33  1  0.500000  0.402221  0.972883  1
  B  B34  1  0.500000  0.097881  0.472851  1
  B  B35  1  0.500000  0.902108  0.527145  1
