# generated using pymatgen
data_Ho3TmFeOs7
_symmetry_space_group_name_H-M   'P 1'
_cell_length_a   5.26440232
_cell_length_b   5.26422209
_cell_length_c   8.75721720
_cell_angle_alpha   89.96234009
_cell_angle_beta   89.96209649
_cell_angle_gamma   60.90939110
_symmetry_Int_Tables_number   1
_chemical_formula_structural   Ho3TmFeOs7
_chemical_formula_sum   'Ho3 Tm1 Fe1 Os7'
_cell_volume   212.07384794
_cell_formula_units_Z   1
loop_
 _symmetry_equiv_pos_site_id
 _symmetry_equiv_pos_as_xyz
  1  'x, y, z'
loop_
 _atom_site_type_symbol
 _atom_site_label
 _atom_site_symmetry_multiplicity
 _atom_site_fract_x
 _atom_site_fract_y
 _atom_site_fract_z
 _atom_site_occupancy
  Ho  Ho0  1  0.667754  0.667967  0.434021  1
  Ho  Ho1  1  0.667617  0.667763  0.066023  1
  Ho  Ho2  1  0.330900  0.331127  0.936163  1
  Tm  Tm3  1  0.330861  0.331180  0.563849  1
  Fe  Fe4  1  0.167964  0.168084  0.250598  1
  Os  Os5  1  0.999294  0.999645  0.498028  1
  Os  Os6  1  0.999023  0.999328  0.002218  1
  Os  Os7  1  0.826370  0.345521  0.749280  1
  Os  Os8  1  0.346584  0.825732  0.749269  1
  Os  Os9  1  0.830951  0.830854  0.749378  1
  Os  Os10  1  0.177884  0.654841  0.250583  1
  Os  Os11  1  0.654801  0.177954  0.250586  1
