# generated using pymatgen
data_Ho8Ti8Nb3Si16W
_symmetry_space_group_name_H-M   'P 1'
_cell_length_a   7.03206906
_cell_length_b   7.03206811
_cell_length_c   12.93376344
_cell_angle_alpha   90.03211102
_cell_angle_beta   89.96788679
_cell_angle_gamma   90.02595929
_symmetry_Int_Tables_number   1
_chemical_formula_structural   Ho8Ti8Nb3Si16W
_chemical_formula_sum   'Ho8 Ti8 Nb3 Si16 W1'
_cell_volume   639.57418844
_cell_formula_units_Z   1
loop_
 _symmetry_equiv_pos_site_id
 _symmetry_equiv_pos_as_xyz
  1  'x, y, z'
loop_
 _atom_site_type_symbol
 _atom_site_label
 _atom_site_symmetry_multiplicity
 _atom_site_fract_x
 _atom_site_fract_y
 _atom_site_fract_z
 _atom_site_occupancy
  Ho  Ho0  1  0.340768  0.002302  0.466938  1
  Ho  Ho1  1  0.497952  0.840510  0.717670  1
  Ho  Ho2  1  0.501219  0.159680  0.215991  1
  Ho  Ho3  1  0.840510  0.497952  0.282330  1
  Ho  Ho4  1  0.159680  0.501219  0.784009  1
  Ho  Ho5  1  0.658859  0.998880  0.967159  1
  Ho  Ho6  1  0.002302  0.340768  0.533062  1
  Ho  Ho7  1  0.998880  0.658859  0.032841  1
  Ti  Ti8  1  0.152959  0.008816  0.875927  1
  Ti  Ti9  1  0.490756  0.652378  0.124527  1
  Ti  Ti10  1  0.508346  0.348422  0.626053  1
  Ti  Ti11  1  0.652378  0.490756  0.875473  1
  Ti  Ti12  1  0.348422  0.508346  0.373947  1
  Ti  Ti13  1  0.848084  0.991400  0.374885  1
  Ti  Ti14  1  0.008816  0.152959  0.124073  1
  Ti  Ti15  1  0.991400  0.848084  0.625115  1
  Nb  Nb16  1  0.173754  0.826718  0.249244  1
  Nb  Nb17  1  0.826718  0.173754  0.750756  1
  Nb  Nb18  1  0.673186  0.673186  0.500000  1
  Si  Si19  1  0.203809  0.130675  0.684278  1
  Si  Si20  1  0.369741  0.700733  0.934482  1
  Si  Si21  1  0.630437  0.296421  0.434058  1
  Si  Si22  1  0.700733  0.369741  0.065518  1
  Si  Si23  1  0.296421  0.630437  0.565942  1
  Si  Si24  1  0.796453  0.869546  0.183782  1
  Si  Si25  1  0.130675  0.203809  0.315722  1
  Si  Si26  1  0.869546  0.796453  0.816218  1
  Si  Si27  1  0.291973  0.954788  0.063364  1
  Si  Si28  1  0.547024  0.792289  0.313570  1
  Si  Si29  1  0.451590  0.208427  0.815867  1
  Si  Si30  1  0.792289  0.547024  0.686430  1
  Si  Si31  1  0.208427  0.451590  0.184133  1
  Si  Si32  1  0.707563  0.047449  0.564173  1
  Si  Si33  1  0.954788  0.291973  0.936636  1
  Si  Si34  1  0.047449  0.707563  0.435827  1
  W  W35  1  0.326092  0.326092  0.000000  1
