# generated using pymatgen
data_Lu4Cd2CuNi3
_symmetry_space_group_name_H-M   'P 1'
_cell_length_a   7.29031993
_cell_length_b   7.29031993
_cell_length_c   3.61537000
_cell_angle_alpha   90.00000000
_cell_angle_beta   90.00000000
_cell_angle_gamma   89.52766324
_symmetry_Int_Tables_number   1
_chemical_formula_structural   Lu4Cd2CuNi3
_chemical_formula_sum   'Lu4 Cd2 Cu1 Ni3'
_cell_volume   192.14592009
_cell_formula_units_Z   1
loop_
 _symmetry_equiv_pos_site_id
 _symmetry_equiv_pos_as_xyz
  1  'x, y, z'
loop_
 _atom_site_type_symbol
 _atom_site_label
 _atom_site_symmetry_multiplicity
 _atom_site_fract_x
 _atom_site_fract_y
 _atom_site_fract_z
 _atom_site_occupancy
  Lu  Lu0  1  0.329649  0.183035  0.499999  1
  Lu  Lu1  1  0.827751  0.327750  0.499999  1
  Lu  Lu2  1  0.161755  0.661755  0.499999  1
  Lu  Lu3  1  0.683035  0.829650  0.499999  1
  Cd  Cd4  1  0.000916  0.000459  0.000000  1
  Cd  Cd5  1  0.500459  0.500916  0.000000  1
  Cu  Cu6  1  0.378631  0.878630  0.000000  1
  Ni  Ni7  1  0.620025  0.120025  0.000000  1
  Ni  Ni8  1  0.120963  0.376819  0.000000  1
  Ni  Ni9  1  0.876818  0.620963  0.000000  1
