# generated using pymatgen
data_Ac7Dy(InSi2)4
_symmetry_space_group_name_H-M   'P 1'
_cell_length_a   4.51283000
_cell_length_b   7.97962874
_cell_length_c   15.25276364
_cell_angle_alpha   90.69403986
_cell_angle_beta   90.00000000
_cell_angle_gamma   90.00000000
_symmetry_Int_Tables_number   1
_chemical_formula_structural   Ac7Dy(InSi2)4
_chemical_formula_sum   'Ac7 Dy1 In4 Si8'
_cell_volume   549.22252006
_cell_formula_units_Z   1
loop_
 _symmetry_equiv_pos_site_id
 _symmetry_equiv_pos_as_xyz
  1  'x, y, z'
loop_
 _atom_site_type_symbol
 _atom_site_label
 _atom_site_symmetry_multiplicity
 _atom_site_fract_x
 _atom_site_fract_y
 _atom_site_fract_z
 _atom_site_occupancy
  Ac  Ac0  1  0.500000  0.742282  0.032410  1
  Ac  Ac1  1  0.500000  0.242599  0.959633  1
  Ac  Ac2  1  0.500000  0.255104  0.470222  1
  Ac  Ac3  1  0.500000  0.757200  0.537735  1
  Ac  Ac4  1  0.500000  0.618710  0.284121  1
  Ac  Ac5  1  0.500000  0.385891  0.721054  1
  Ac  Ac6  1  0.500000  0.118843  0.213912  1
  Dy  Dy7  1  0.500000  0.885307  0.783823  1
  In  In8  1  0.000000  0.940132  0.375152  1
  In  In9  1  0.000000  0.048710  0.633798  1
  In  In10  1  0.000000  0.438937  0.123979  1
  In  In11  1  0.000000  0.580391  0.871198  1
  Si  Si12  1  0.000000  0.553586  0.427226  1
  Si  Si13  1  0.000000  0.465561  0.580586  1
  Si  Si14  1  0.000000  0.040167  0.068078  1
  Si  Si15  1  0.000000  0.930205  0.916073  1
  Si  Si16  1  0.000000  0.828596  0.181362  1
  Si  Si17  1  0.000000  0.146717  0.810036  1
  Si  Si18  1  0.000000  0.330072  0.318929  1
  Si  Si19  1  0.000000  0.690991  0.690676  1
