# generated using pymatgen
data_Er4Tm8Os3Ru
_symmetry_space_group_name_H-M   'P 1'
_cell_length_a   7.34214705
_cell_length_b   8.92607600
_cell_length_c   6.24586305
_cell_angle_alpha   90.00000000
_cell_angle_beta   89.92802290
_cell_angle_gamma   90.00000000
_symmetry_Int_Tables_number   1
_chemical_formula_structural   Er4Tm8Os3Ru
_chemical_formula_sum   'Er4 Tm8 Os3 Ru1'
_cell_volume   409.33207204
_cell_formula_units_Z   1
loop_
 _symmetry_equiv_pos_site_id
 _symmetry_equiv_pos_as_xyz
  1  'x, y, z'
loop_
 _atom_site_type_symbol
 _atom_site_label
 _atom_site_symmetry_multiplicity
 _atom_site_fract_x
 _atom_site_fract_y
 _atom_site_fract_z
 _atom_site_occupancy
  Er  Er0  1  0.040903  0.250000  0.629539  1
  Er  Er1  1  0.960068  0.750000  0.370171  1
  Er  Er2  1  0.460246  0.750000  0.130247  1
  Er  Er3  1  0.540257  0.250000  0.868676  1
  Tm  Tm4  1  0.174212  0.062273  0.166036  1
  Tm  Tm5  1  0.825353  0.937304  0.832811  1
  Tm  Tm6  1  0.324866  0.936153  0.668020  1
  Tm  Tm7  1  0.825353  0.562696  0.832811  1
  Tm  Tm8  1  0.675037  0.062702  0.333409  1
  Tm  Tm9  1  0.174212  0.437727  0.166036  1
  Tm  Tm10  1  0.675037  0.437298  0.333409  1
  Tm  Tm11  1  0.324866  0.563847  0.668020  1
  Os  Os12  1  0.616687  0.750000  0.539435  1
  Os  Os13  1  0.117033  0.750000  0.960325  1
  Os  Os14  1  0.882760  0.250000  0.039623  1
  Ru  Ru15  1  0.383111  0.250000  0.461433  1
