# generated using pymatgen
data_Hf3Zr7AlSn6Sb
_symmetry_space_group_name_H-M   'P 1'
_cell_length_a   8.80051700
_cell_length_b   8.80051737
_cell_length_c   5.90584800
_cell_angle_alpha   90.00000000
_cell_angle_beta   90.00000000
_cell_angle_gamma   119.99999486
_symmetry_Int_Tables_number   1
_chemical_formula_structural   Hf3Zr7AlSn6Sb
_chemical_formula_sum   'Hf3 Zr7 Al1 Sn6 Sb1'
_cell_volume   396.12231630
_cell_formula_units_Z   1
loop_
 _symmetry_equiv_pos_site_id
 _symmetry_equiv_pos_as_xyz
  1  'x, y, z'
loop_
 _atom_site_type_symbol
 _atom_site_label
 _atom_site_symmetry_multiplicity
 _atom_site_fract_x
 _atom_site_fract_y
 _atom_site_fract_z
 _atom_site_occupancy
  Hf  Hf0  1  0.333333  0.666667  0.000000  1
  Hf  Hf1  1  0.666667  0.333333  0.500000  1
  Hf  Hf2  1  0.666667  0.333333  0.000000  1
  Zr  Zr3  1  0.333333  0.666667  0.500000  1
  Zr  Zr4  1  0.276023  0.000477  0.260412  1
  Zr  Zr5  1  0.276023  0.275546  0.739588  1
  Zr  Zr6  1  0.999523  0.723977  0.739588  1
  Zr  Zr7  1  0.999523  0.275546  0.260412  1
  Zr  Zr8  1  0.724454  0.723977  0.260412  1
  Zr  Zr9  1  0.724454  0.000477  0.739588  1
  Al  Al10  1  0.000000  0.000000  0.500000  1
  Sn  Sn11  1  0.611879  0.000540  0.249245  1
  Sn  Sn12  1  0.611879  0.611339  0.750755  1
  Sn  Sn13  1  0.999460  0.388121  0.750755  1
  Sn  Sn14  1  0.999460  0.611339  0.249245  1
  Sn  Sn15  1  0.388661  0.388121  0.249245  1
  Sn  Sn16  1  0.388661  0.000540  0.750755  1
  Sb  Sb17  1  0.000000  0.000000  0.000000  1
