# generated using pymatgen
data_La5YbPrCoI12
_symmetry_space_group_name_H-M   'P 1'
_cell_length_a   10.20282437
_cell_length_b   10.16421929
_cell_length_c   10.03354025
_cell_angle_alpha   107.10957946
_cell_angle_beta   106.67615549
_cell_angle_gamma   107.17454000
_symmetry_Int_Tables_number   1
_chemical_formula_structural   La5YbPrCoI12
_chemical_formula_sum   'La5 Yb1 Pr1 Co1 I12'
_cell_volume   866.84926884
_cell_formula_units_Z   1
loop_
 _symmetry_equiv_pos_site_id
 _symmetry_equiv_pos_as_xyz
  1  'x, y, z'
loop_
 _atom_site_type_symbol
 _atom_site_label
 _atom_site_symmetry_multiplicity
 _atom_site_fract_x
 _atom_site_fract_y
 _atom_site_fract_z
 _atom_site_occupancy
  La  La0  1  0.975941  0.904991  0.713273  1
  La  La1  1  0.024917  0.094807  0.286767  1
  La  La2  1  0.102241  0.307408  0.024788  1
  La  La3  1  0.310307  0.025889  0.102973  1
  La  La4  1  0.895461  0.691370  0.974616  1
  Yb  Yb5  1  0.499804  0.500905  0.500497  1
  Pr  Pr6  1  0.695181  0.974025  0.897997  1
  Co  Co7  1  0.000838  0.999545  0.000154  1
  I  I8  1  0.537260  0.619926  0.839586  1
  I  I9  1  0.462097  0.383478  0.160993  1
  I  I10  1  0.319999  0.927370  0.771530  1
  I  I11  1  0.383871  0.165938  0.465846  1
  I  I12  1  0.928646  0.776685  0.323340  1
  I  I13  1  0.680945  0.071915  0.225357  1
  I  I14  1  0.070613  0.223345  0.676539  1
  I  I15  1  0.773862  0.317785  0.927920  1
  I  I16  1  0.222975  0.678542  0.070943  1
  I  I17  1  0.833780  0.535963  0.612640  1
  I  I18  1  0.165214  0.463907  0.387189  1
  I  I19  1  0.616047  0.836206  0.537050  1
