# generated using pymatgen
data_CaMnZn(PO4)2
_symmetry_space_group_name_H-M   'P 1'
_cell_length_a   5.09023432
_cell_length_b   8.69991927
_cell_length_c   9.13117406
_cell_angle_alpha   113.58347040
_cell_angle_beta   103.27272224
_cell_angle_gamma   94.59965965
_symmetry_Int_Tables_number   1
_chemical_formula_structural   CaMnZn(PO4)2
_chemical_formula_sum   'Ca2 Mn2 Zn2 P4 O16'
_cell_volume   353.92466274
_cell_formula_units_Z   2
loop_
 _symmetry_equiv_pos_site_id
 _symmetry_equiv_pos_as_xyz
  1  'x, y, z'
loop_
 _atom_site_type_symbol
 _atom_site_label
 _atom_site_symmetry_multiplicity
 _atom_site_fract_x
 _atom_site_fract_y
 _atom_site_fract_z
 _atom_site_occupancy
  Ca  Ca0  1  0.772309  0.263043  0.948840  1
  Ca  Ca1  1  0.227691  0.736957  0.051160  1
  Mn  Mn2  1  0.638522  0.398213  0.605471  1
  Mn  Mn3  1  0.361478  0.601787  0.394529  1
  Zn  Zn4  1  0.848096  0.078501  0.282601  1
  Zn  Zn5  1  0.151904  0.921499  0.717399  1
  P  P6  1  0.889928  0.725258  0.301448  1
  P  P7  1  0.110072  0.274742  0.698552  1
  P  P8  1  0.328515  0.205490  0.183437  1
  P  P9  1  0.671485  0.794510  0.816563  1
  O  O10  1  0.023346  0.432896  0.822034  1
  O  O11  1  0.976654  0.567104  0.177966  1
  O  O12  1  0.445653  0.049287  0.195724  1
  O  O13  1  0.554347  0.950713  0.804276  1
  O  O14  1  0.043847  0.740339  0.478629  1
  O  O15  1  0.956153  0.259661  0.521371  1
  O  O16  1  0.990449  0.118052  0.720048  1
  O  O17  1  0.009551  0.881948  0.279952  1
  O  O18  1  0.447419  0.360897  0.359509  1
  O  O19  1  0.552581  0.639103  0.640491  1
  O  O20  1  0.604196  0.746202  0.948582  1
  O  O21  1  0.395804  0.253798  0.051418  1
  O  O22  1  0.423486  0.291624  0.723762  1
  O  O23  1  0.576514  0.708376  0.276238  1
  O  O24  1  0.991704  0.831278  0.852072  1
  O  O25  1  0.008296  0.168722  0.147928  1
