# generated using pymatgen
data_SmLu2U(ReB6)2
_symmetry_space_group_name_H-M   'P 1'
_cell_length_a   3.66779200
_cell_length_b   9.10749173
_cell_length_c   11.49203700
_cell_angle_alpha   90.31193945
_cell_angle_beta   90.00000000
_cell_angle_gamma   90.00000000
_symmetry_Int_Tables_number   1
_chemical_formula_structural   SmLu2U(ReB6)2
_chemical_formula_sum   'Sm2 Lu4 U2 Re4 B24'
_cell_volume   383.87874276
_cell_formula_units_Z   2
loop_
 _symmetry_equiv_pos_site_id
 _symmetry_equiv_pos_as_xyz
  1  'x, y, z'
loop_
 _atom_site_type_symbol
 _atom_site_label
 _atom_site_symmetry_multiplicity
 _atom_site_fract_x
 _atom_site_fract_y
 _atom_site_fract_z
 _atom_site_occupancy
  Sm  Sm0  1  0.000000  0.822703  0.086082  1
  Sm  Sm1  1  0.000000  0.177297  0.913918  1
  Lu  Lu2  1  0.000000  0.945078  0.373658  1
  Lu  Lu3  1  0.000000  0.054922  0.626342  1
  Lu  Lu4  1  0.000000  0.444240  0.127704  1
  Lu  Lu5  1  0.000000  0.555760  0.872296  1
  U  U6  1  0.000000  0.322453  0.414269  1
  U  U7  1  0.000000  0.677547  0.585731  1
  Re  Re8  1  0.000000  0.635109  0.325897  1
  Re  Re9  1  0.000000  0.364891  0.674103  1
  Re  Re10  1  0.000000  0.142983  0.184943  1
  Re  Re11  1  0.000000  0.857017  0.815057  1
  B  B12  1  0.500000  0.553004  0.434421  1
  B  B13  1  0.500000  0.446996  0.565579  1
  B  B14  1  0.500000  0.054982  0.069469  1
  B  B15  1  0.500000  0.945018  0.930531  1
  B  B16  1  0.500000  0.749429  0.420854  1
  B  B17  1  0.500000  0.250571  0.579146  1
  B  B18  1  0.500000  0.250849  0.082865  1
  B  B19  1  0.500000  0.749151  0.917135  1
  B  B20  1  0.500000  0.791843  0.267566  1
  B  B21  1  0.500000  0.208157  0.732434  1
  B  B22  1  0.500000  0.294332  0.236580  1
  B  B23  1  0.500000  0.705668  0.763420  1
  B  B24  1  0.500000  0.629495  0.186409  1
  B  B25  1  0.500000  0.370505  0.813591  1
  B  B26  1  0.500000  0.133271  0.317142  1
  B  B27  1  0.500000  0.866729  0.682858  1
  B  B28  1  0.500000  0.983237  0.215065  1
  B  B29  1  0.500000  0.016763  0.784935  1
  B  B30  1  0.500000  0.481471  0.287944  1
  B  B31  1  0.500000  0.518529  0.712056  1
  B  B32  1  0.500000  0.599266  0.027750  1
  B  B33  1  0.500000  0.400734  0.972250  1
  B  B34  1  0.500000  0.108149  0.470689  1
  B  B35  1  0.500000  0.891851  0.529311  1
