# generated using pymatgen
data_Ti2CuSi4
_symmetry_space_group_name_H-M   'P 1'
_cell_length_a   15.29380571
_cell_length_b   15.29380507
_cell_length_c   3.56062300
_cell_angle_alpha   90.00000000
_cell_angle_beta   90.00000000
_cell_angle_gamma   166.38051036
_symmetry_Int_Tables_number   1
_chemical_formula_structural   Ti2CuSi4
_chemical_formula_sum   'Ti4 Cu2 Si8'
_cell_volume   196.10908479
_cell_formula_units_Z   2
loop_
 _symmetry_equiv_pos_site_id
 _symmetry_equiv_pos_as_xyz
  1  'x, y, z'
loop_
 _atom_site_type_symbol
 _atom_site_label
 _atom_site_symmetry_multiplicity
 _atom_site_fract_x
 _atom_site_fract_y
 _atom_site_fract_z
 _atom_site_occupancy
  Ti  Ti0  1  0.956898  0.043102  0.750000  1
  Ti  Ti1  1  0.043102  0.956898  0.250000  1
  Ti  Ti2  1  0.672469  0.327531  0.750000  1
  Ti  Ti3  1  0.327531  0.672469  0.250000  1
  Cu  Cu4  1  0.250491  0.749509  0.750000  1
  Cu  Cu5  1  0.749509  0.250491  0.250000  1
  Si  Si6  1  0.526771  0.473229  0.750000  1
  Si  Si7  1  0.473229  0.526771  0.250000  1
  Si  Si8  1  0.389412  0.610588  0.750000  1
  Si  Si9  1  0.610588  0.389412  0.250000  1
  Si  Si10  1  0.109544  0.890456  0.750000  1
  Si  Si11  1  0.890456  0.109544  0.250000  1
  Si  Si12  1  0.802856  0.197144  0.750000  1
  Si  Si13  1  0.197144  0.802856  0.250000  1
