# generated using pymatgen
data_Cs6YErBi4
_symmetry_space_group_name_H-M   'P 1'
_cell_length_a   10.68025545
_cell_length_b   10.68025599
_cell_length_c   10.68025569
_cell_angle_alpha   127.16353281
_cell_angle_beta   70.81379801
_cell_angle_gamma   136.43119795
_symmetry_Int_Tables_number   1
_chemical_formula_structural   Cs6YErBi4
_chemical_formula_sum   'Cs6 Y1 Er1 Bi4'
_cell_volume   655.81924977
_cell_formula_units_Z   1
loop_
 _symmetry_equiv_pos_site_id
 _symmetry_equiv_pos_as_xyz
  1  'x, y, z'
loop_
 _atom_site_type_symbol
 _atom_site_label
 _atom_site_symmetry_multiplicity
 _atom_site_fract_x
 _atom_site_fract_y
 _atom_site_fract_z
 _atom_site_occupancy
  Cs  Cs0  1  0.250000  0.250000  0.000000  1
  Cs  Cs1  1  0.750000  0.750000  0.000000  1
  Cs  Cs2  1  0.315261  0.803258  0.118452  1
  Cs  Cs3  1  0.184739  0.303192  0.487997  1
  Cs  Cs4  1  0.815196  0.696743  0.512004  1
  Cs  Cs5  1  0.684804  0.196807  0.881547  1
  Y  Y6  1  0.250000  0.749999  0.499999  1
  Er  Er7  1  0.750000  0.250000  0.500000  1
  Bi  Bi8  1  0.905107  0.311845  0.218628  1
  Bi  Bi9  1  0.594893  0.813522  0.406739  1
  Bi  Bi10  1  0.406784  0.188155  0.593261  1
  Bi  Bi11  1  0.093216  0.686478  0.781371  1
