# generated using pymatgen
data_LaPa3(CoGe)4
_symmetry_space_group_name_H-M   'P 1'
_cell_length_a   4.28178800
_cell_length_b   6.95337059
_cell_length_c   7.52461438
_cell_angle_alpha   93.23017429
_cell_angle_beta   90.00000000
_cell_angle_gamma   90.00000000
_symmetry_Int_Tables_number   1
_chemical_formula_structural   LaPa3(CoGe)4
_chemical_formula_sum   'La1 Pa3 Co4 Ge4'
_cell_volume   223.67334946
_cell_formula_units_Z   1
loop_
 _symmetry_equiv_pos_site_id
 _symmetry_equiv_pos_as_xyz
  1  'x, y, z'
loop_
 _atom_site_type_symbol
 _atom_site_label
 _atom_site_symmetry_multiplicity
 _atom_site_fract_x
 _atom_site_fract_y
 _atom_site_fract_z
 _atom_site_occupancy
  La  La0  1  0.250000  0.775562  0.478764  1
  Pa  Pa1  1  0.250000  0.696918  0.993404  1
  Pa  Pa2  1  0.750000  0.299805  0.009647  1
  Pa  Pa3  1  0.750000  0.243289  0.526869  1
  Co  Co4  1  0.250000  0.038154  0.111067  1
  Co  Co5  1  0.750000  0.959910  0.873698  1
  Co  Co6  1  0.750000  0.544199  0.234758  1
  Co  Co7  1  0.250000  0.444100  0.761753  1
  Ge  Ge8  1  0.250000  0.375363  0.293029  1
  Ge  Ge9  1  0.750000  0.616392  0.719822  1
  Ge  Ge10  1  0.750000  0.914328  0.218542  1
  Ge  Ge11  1  0.250000  0.091982  0.778648  1
