# generated using pymatgen
data_Th4FeCo3B16
_symmetry_space_group_name_H-M   'P 1'
_cell_length_a   6.96015887
_cell_length_b   6.96015749
_cell_length_c   6.96015800
_cell_angle_alpha   112.63485105
_cell_angle_beta   112.68208911
_cell_angle_gamma   103.26914841
_symmetry_Int_Tables_number   1
_chemical_formula_structural   Th4FeCo3B16
_chemical_formula_sum   'Th4 Fe1 Co3 B16'
_cell_volume   257.31131290
_cell_formula_units_Z   1
loop_
 _symmetry_equiv_pos_site_id
 _symmetry_equiv_pos_as_xyz
  1  'x, y, z'
loop_
 _atom_site_type_symbol
 _atom_site_label
 _atom_site_symmetry_multiplicity
 _atom_site_fract_x
 _atom_site_fract_y
 _atom_site_fract_z
 _atom_site_occupancy
  Th  Th0  1  0.786213  0.787419  0.998793  1
  Th  Th1  1  0.211375  0.212581  0.998793  1
  Th  Th2  1  0.752814  0.251333  0.501481  1
  Th  Th3  1  0.250149  0.748667  0.501481  1
  Fe  Fe4  1  0.271493  0.500000  0.771493  1
  Co  Co5  1  0.728712  0.500000  0.228712  1
  Co  Co6  1  0.499858  0.730694  0.230553  1
  Co  Co7  1  0.499858  0.269306  0.769164  1
  B  B8  1  0.275802  0.112043  0.387845  1
  B  B9  1  0.724556  0.888656  0.613211  1
  B  B10  1  0.275802  0.887957  0.163758  1
  B  B11  1  0.724556  0.111344  0.835901  1
  B  B12  1  0.112062  0.723536  0.835598  1
  B  B13  1  0.887765  0.276006  0.163770  1
  B  B14  1  0.112062  0.276464  0.388527  1
  B  B15  1  0.887765  0.723994  0.611759  1
  B  B16  1  0.118274  0.119030  0.537309  1
  B  B17  1  0.582144  0.582384  0.463267  1
  B  B18  1  0.118274  0.580963  0.999243  1
  B  B19  1  0.582144  0.118877  0.999761  1
  B  B20  1  0.880883  0.881123  0.463267  1
  B  B21  1  0.418279  0.419037  0.537309  1
  B  B22  1  0.880883  0.417616  0.999761  1
  B  B23  1  0.418279  0.880970  0.999243  1
