# generated using pymatgen
data_Pr8Lu(IrO8)3
_symmetry_space_group_name_H-M   'P 1'
_cell_length_a   5.52677017
_cell_length_b   9.49186188
_cell_length_c   10.38483642
_cell_angle_alpha   89.22397785
_cell_angle_beta   90.16002199
_cell_angle_gamma   90.50401467
_symmetry_Int_Tables_number   1
_chemical_formula_structural   Pr8Lu(IrO8)3
_chemical_formula_sum   'Pr8 Lu1 Ir3 O24'
_cell_volume   544.70866421
_cell_formula_units_Z   1
loop_
 _symmetry_equiv_pos_site_id
 _symmetry_equiv_pos_as_xyz
  1  'x, y, z'
loop_
 _atom_site_type_symbol
 _atom_site_label
 _atom_site_symmetry_multiplicity
 _atom_site_fract_x
 _atom_site_fract_y
 _atom_site_fract_z
 _atom_site_occupancy
  Pr  Pr0  1  0.041430  0.217016  0.130007  1
  Pr  Pr1  1  0.465560  0.765514  0.634196  1
  Pr  Pr2  1  0.966236  0.716434  0.375924  1
  Pr  Pr3  1  0.526790  0.290319  0.852842  1
  Pr  Pr4  1  0.039647  0.116292  0.538832  1
  Pr  Pr5  1  0.474343  0.899892  0.037292  1
  Pr  Pr6  1  0.984528  0.602919  0.959163  1
  Pr  Pr7  1  0.515714  0.408532  0.464853  1
  Lu  Lu8  1  0.030633  0.487660  0.648612  1
  Ir  Ir9  1  0.549283  0.000665  0.354820  1
  Ir  Ir10  1  0.957265  0.998803  0.857946  1
  Ir  Ir11  1  0.460790  0.502993  0.144939  1
  O  O12  1  0.439700  0.153211  0.454782  1
  O  O13  1  0.060800  0.855160  0.982967  1
  O  O14  1  0.565927  0.650323  0.028763  1
  O  O15  1  0.901305  0.334918  0.506257  1
  O  O16  1  0.721190  0.389478  0.082663  1
  O  O17  1  0.754061  0.616616  0.550060  1
  O  O18  1  0.283660  0.894228  0.432276  1
  O  O19  1  0.219419  0.108966  0.936802  1
  O  O20  1  0.257269  0.409751  0.009524  1
  O  O21  1  0.251123  0.602544  0.504311  1
  O  O22  1  0.753388  0.920034  0.492257  1
  O  O23  1  0.750483  0.090590  0.990797  1
  O  O24  1  0.194825  0.626404  0.181478  1
  O  O25  1  0.319307  0.326094  0.662780  1
  O  O26  1  0.823166  0.116678  0.310344  1
  O  O27  1  0.691099  0.872973  0.827021  1
  O  O28  1  0.348506  0.056801  0.210213  1
  O  O29  1  0.160297  0.944598  0.722855  1
  O  O30  1  0.658613  0.563830  0.280938  1
  O  O31  1  0.799560  0.460334  0.811202  1
  O  O32  1  0.322180  0.363127  0.256724  1
  O  O33  1  0.215247  0.639690  0.776570  1
  O  O34  1  0.662343  0.855514  0.244533  1
  O  O35  1  0.834316  0.141098  0.744458  1
