# generated using pymatgen
data_Y5Bi2Pt
_symmetry_space_group_name_H-M   'P 1'
_cell_length_a   8.13594800
_cell_length_b   9.05220200
_cell_length_c   12.43093300
_cell_angle_alpha   90.00000000
_cell_angle_beta   90.00000000
_cell_angle_gamma   90.00000000
_symmetry_Int_Tables_number   1
_chemical_formula_structural   Y5Bi2Pt
_chemical_formula_sum   'Y20 Bi8 Pt4'
_cell_volume   915.51639615
_cell_formula_units_Z   4
loop_
 _symmetry_equiv_pos_site_id
 _symmetry_equiv_pos_as_xyz
  1  'x, y, z'
loop_
 _atom_site_type_symbol
 _atom_site_label
 _atom_site_symmetry_multiplicity
 _atom_site_fract_x
 _atom_site_fract_y
 _atom_site_fract_z
 _atom_site_occupancy
  Y  Y0  1  0.165701  0.750000  0.210723  1
  Y  Y1  1  0.334299  0.750000  0.710723  1
  Y  Y2  1  0.834299  0.250000  0.789277  1
  Y  Y3  1  0.665701  0.250000  0.289277  1
  Y  Y4  1  0.451962  0.750000  0.999805  1
  Y  Y5  1  0.048038  0.750000  0.499805  1
  Y  Y6  1  0.548038  0.250000  0.000195  1
  Y  Y7  1  0.951962  0.250000  0.500195  1
  Y  Y8  1  0.627973  0.750000  0.302951  1
  Y  Y9  1  0.872027  0.750000  0.802951  1
  Y  Y10  1  0.372027  0.250000  0.697049  1
  Y  Y11  1  0.127973  0.250000  0.197049  1
  Y  Y12  1  0.820743  0.546077  0.067377  1
  Y  Y13  1  0.679257  0.953923  0.567377  1
  Y  Y14  1  0.179257  0.046077  0.932623  1
  Y  Y15  1  0.320743  0.453923  0.432623  1
  Y  Y16  1  0.179257  0.453923  0.932623  1
  Y  Y17  1  0.320743  0.046077  0.432623  1
  Y  Y18  1  0.820743  0.953923  0.067377  1
  Y  Y19  1  0.679257  0.546077  0.567377  1
  Bi  Bi20  1  0.932673  0.509663  0.327130  1
  Bi  Bi21  1  0.567327  0.990337  0.827130  1
  Bi  Bi22  1  0.067327  0.009663  0.672870  1
  Bi  Bi23  1  0.432673  0.490337  0.172870  1
  Bi  Bi24  1  0.067327  0.490337  0.672870  1
  Bi  Bi25  1  0.432673  0.009663  0.172870  1
  Bi  Bi26  1  0.932673  0.990337  0.327130  1
  Bi  Bi27  1  0.567327  0.509663  0.827130  1
  Pt  Pt28  1  0.420895  0.750000  0.488210  1
  Pt  Pt29  1  0.079105  0.750000  0.988210  1
  Pt  Pt30  1  0.579105  0.250000  0.511790  1
  Pt  Pt31  1  0.920895  0.250000  0.011790  1
