# generated using pymatgen
data_YTh3(ZnCo)4
_symmetry_space_group_name_H-M   'P 1'
_cell_length_a   3.83456100
_cell_length_b   6.92894506
_cell_length_c   8.32036143
_cell_angle_alpha   90.95324662
_cell_angle_beta   90.00000000
_cell_angle_gamma   90.00000000
_symmetry_Int_Tables_number   1
_chemical_formula_structural   YTh3(ZnCo)4
_chemical_formula_sum   'Y1 Th3 Zn4 Co4'
_cell_volume   221.03693607
_cell_formula_units_Z   1
loop_
 _symmetry_equiv_pos_site_id
 _symmetry_equiv_pos_as_xyz
  1  'x, y, z'
loop_
 _atom_site_type_symbol
 _atom_site_label
 _atom_site_symmetry_multiplicity
 _atom_site_fract_x
 _atom_site_fract_y
 _atom_site_fract_z
 _atom_site_occupancy
  Y  Y0  1  0.250000  0.048956  0.312800  1
  Th  Th1  1  0.250000  0.546372  0.190521  1
  Th  Th2  1  0.750000  0.459348  0.815714  1
  Th  Th3  1  0.750000  0.956822  0.679636  1
  Zn  Zn4  1  0.250000  0.623893  0.552527  1
  Zn  Zn5  1  0.750000  0.360373  0.445823  1
  Zn  Zn6  1  0.750000  0.880788  0.058122  1
  Zn  Zn7  1  0.250000  0.127517  0.949778  1
  Co  Co8  1  0.250000  0.745174  0.858190  1
  Co  Co9  1  0.750000  0.268683  0.130380  1
  Co  Co10  1  0.750000  0.741342  0.360779  1
  Co  Co11  1  0.250000  0.240732  0.645730  1
