# generated using pymatgen
data_Lu12Mn(TcSn)2
_symmetry_space_group_name_H-M   'P 1'
_cell_length_a   8.25050079
_cell_length_b   8.25050203
_cell_length_c   8.25050100
_cell_angle_alpha   108.65207214
_cell_angle_beta   108.65207505
_cell_angle_gamma   111.12223446
_symmetry_Int_Tables_number   1
_chemical_formula_structural   Lu12Mn(TcSn)2
_chemical_formula_sum   'Lu12 Mn1 Tc2 Sn2'
_cell_volume   432.06362926
_cell_formula_units_Z   1
loop_
 _symmetry_equiv_pos_site_id
 _symmetry_equiv_pos_as_xyz
  1  'x, y, z'
loop_
 _atom_site_type_symbol
 _atom_site_label
 _atom_site_symmetry_multiplicity
 _atom_site_fract_x
 _atom_site_fract_y
 _atom_site_fract_z
 _atom_site_occupancy
  Lu  Lu0  1  0.306129  0.306129  0.612718  1
  Lu  Lu1  1  0.693411  0.693411  0.387282  1
  Lu  Lu2  1  0.693411  0.306129  0.000000  1
  Lu  Lu3  1  0.306129  0.693411  0.000000  1
  Lu  Lu4  1  0.190561  0.430025  0.239464  1
  Lu  Lu5  1  0.807462  0.570142  0.762679  1
  Lu  Lu6  1  0.190561  0.951095  0.760536  1
  Lu  Lu7  1  0.951095  0.190561  0.760536  1
  Lu  Lu8  1  0.807462  0.044784  0.237321  1
  Lu  Lu9  1  0.044784  0.807462  0.237321  1
  Lu  Lu10  1  0.430025  0.190561  0.239464  1
  Lu  Lu11  1  0.570142  0.807462  0.762679  1
  Mn  Mn12  1  0.629075  0.629075  0.000000  1
  Tc  Tc13  1  0.381756  0.381756  0.000000  1
  Tc  Tc14  1  0.001001  0.001001  0.000000  1
  Sn  Sn15  1  0.998499  0.498499  0.500000  1
  Sn  Sn16  1  0.498499  0.998499  0.500000  1
