# generated using pymatgen
data_Ho5GeIrO12
_symmetry_space_group_name_H-M   'P 1'
_cell_length_a   6.80491983
_cell_length_b   6.80491818
_cell_length_c   7.20758316
_cell_angle_alpha   74.55709451
_cell_angle_beta   74.55710000
_cell_angle_gamma   51.23065377
_symmetry_Int_Tables_number   1
_chemical_formula_structural   Ho5GeIrO12
_chemical_formula_sum   'Ho5 Ge1 Ir1 O12'
_cell_volume   248.61956329
_cell_formula_units_Z   1
loop_
 _symmetry_equiv_pos_site_id
 _symmetry_equiv_pos_as_xyz
  1  'x, y, z'
loop_
 _atom_site_type_symbol
 _atom_site_label
 _atom_site_symmetry_multiplicity
 _atom_site_fract_x
 _atom_site_fract_y
 _atom_site_fract_z
 _atom_site_occupancy
  Ho  Ho0  1  0.309649  0.293499  0.360614  1
  Ho  Ho1  1  0.706501  0.690351  0.639386  1
  Ho  Ho2  1  0.305839  0.308462  0.830656  1
  Ho  Ho3  1  0.691538  0.694161  0.169344  1
  Ho  Ho4  1  0.001710  0.998290  0.500000  1
  Ge  Ge5  1  0.751954  0.248046  0.000000  1
  Ir  Ir6  1  0.242361  0.757639  0.000000  1
  O  O7  1  0.898721  0.426041  0.918001  1
  O  O8  1  0.424305  0.903964  0.916714  1
  O  O9  1  0.096036  0.575695  0.083286  1
  O  O10  1  0.573959  0.101279  0.081999  1
  O  O11  1  0.100918  0.596965  0.573179  1
  O  O12  1  0.598766  0.092963  0.575911  1
  O  O13  1  0.907037  0.401234  0.424089  1
  O  O14  1  0.403035  0.899082  0.426821  1
  O  O15  1  0.988215  0.011613  0.819715  1
  O  O16  1  0.988387  0.011785  0.180285  1
  O  O17  1  0.505387  0.494320  0.816898  1
  O  O18  1  0.505680  0.494613  0.183102  1
