# generated using pymatgen
data_TbY4Pb3S
_symmetry_space_group_name_H-M   'P 1'
_cell_length_a   9.16034402
_cell_length_b   9.16139146
_cell_length_c   6.74767100
_cell_angle_alpha   90.00000000
_cell_angle_beta   90.00000000
_cell_angle_gamma   120.00378706
_symmetry_Int_Tables_number   1
_chemical_formula_structural   TbY4Pb3S
_chemical_formula_sum   'Tb2 Y8 Pb6 S2'
_cell_volume   490.38952080
_cell_formula_units_Z   2
loop_
 _symmetry_equiv_pos_site_id
 _symmetry_equiv_pos_as_xyz
  1  'x, y, z'
loop_
 _atom_site_type_symbol
 _atom_site_label
 _atom_site_symmetry_multiplicity
 _atom_site_fract_x
 _atom_site_fract_y
 _atom_site_fract_z
 _atom_site_occupancy
  Tb  Tb0  1  0.756696  0.756726  0.750000  1
  Tb  Tb1  1  0.243304  0.000030  0.750000  1
  Y  Y2  1  0.000000  0.243306  0.750000  1
  Y  Y3  1  0.243278  0.243267  0.250000  1
  Y  Y4  1  0.756722  0.999989  0.250000  1
  Y  Y5  1  0.000000  0.756690  0.250000  1
  Y  Y6  1  0.666678  0.333322  0.000037  1
  Y  Y7  1  0.333322  0.666645  0.000037  1
  Y  Y8  1  0.333322  0.666645  0.499963  1
  Y  Y9  1  0.666678  0.333322  0.499963  1
  Pb  Pb10  1  0.397302  0.397350  0.750000  1
  Pb  Pb11  1  0.602698  0.000048  0.750000  1
  Pb  Pb12  1  0.000000  0.602562  0.750000  1
  Pb  Pb13  1  0.602727  0.602713  0.250000  1
  Pb  Pb14  1  0.397273  0.999986  0.250000  1
  Pb  Pb15  1  0.000000  0.397326  0.250000  1
  S  S16  1  0.000000  0.000036  0.000076  1
  S  S17  1  0.000000  0.000036  0.499924  1
