# generated using pymatgen
data_ErLu11Ni4
_symmetry_space_group_name_H-M   'P 1'
_cell_length_a   6.19792302
_cell_length_b   6.66936715
_cell_length_c   9.31814900
_cell_angle_alpha   90.00000000
_cell_angle_beta   90.00000000
_cell_angle_gamma   90.00781397
_symmetry_Int_Tables_number   1
_chemical_formula_structural   ErLu11Ni4
_chemical_formula_sum   'Er1 Lu11 Ni4'
_cell_volume   385.17709253
_cell_formula_units_Z   1
loop_
 _symmetry_equiv_pos_site_id
 _symmetry_equiv_pos_as_xyz
  1  'x, y, z'
loop_
 _atom_site_type_symbol
 _atom_site_label
 _atom_site_symmetry_multiplicity
 _atom_site_fract_x
 _atom_site_fract_y
 _atom_site_fract_z
 _atom_site_occupancy
  Er  Er0  1  0.865783  0.531237  0.250000  1
  Lu  Lu1  1  0.633741  0.031933  0.250000  1
  Lu  Lu2  1  0.365598  0.967460  0.750000  1
  Lu  Lu3  1  0.134060  0.468398  0.750000  1
  Lu  Lu4  1  0.181865  0.179733  0.064123  1
  Lu  Lu5  1  0.818402  0.820538  0.934456  1
  Lu  Lu6  1  0.680988  0.319433  0.934397  1
  Lu  Lu7  1  0.818402  0.820538  0.565544  1
  Lu  Lu8  1  0.319675  0.680094  0.064615  1
  Lu  Lu9  1  0.181865  0.179733  0.435877  1
  Lu  Lu10  1  0.319675  0.680094  0.435385  1
  Lu  Lu11  1  0.680988  0.319433  0.565603  1
  Ni  Ni12  1  0.448193  0.393735  0.250000  1
  Ni  Ni13  1  0.548636  0.605045  0.750000  1
  Ni  Ni14  1  0.952242  0.105414  0.750000  1
  Ni  Ni15  1  0.049888  0.897182  0.250000  1
