# generated using pymatgen
data_PrNdTh(SnRh)3
_symmetry_space_group_name_H-M   'P 1'
_cell_length_a   7.55286548
_cell_length_b   7.66230794
_cell_length_c   4.11245500
_cell_angle_alpha   90.00000000
_cell_angle_beta   90.00000000
_cell_angle_gamma   120.46778221
_symmetry_Int_Tables_number   1
_chemical_formula_structural   PrNdTh(SnRh)3
_chemical_formula_sum   'Pr1 Nd1 Th1 Sn3 Rh3'
_cell_volume   205.13353063
_cell_formula_units_Z   1
loop_
 _symmetry_equiv_pos_site_id
 _symmetry_equiv_pos_as_xyz
  1  'x, y, z'
loop_
 _atom_site_type_symbol
 _atom_site_label
 _atom_site_symmetry_multiplicity
 _atom_site_fract_x
 _atom_site_fract_y
 _atom_site_fract_z
 _atom_site_occupancy
  Pr  Pr0  1  0.409849  0.411214  0.000000  1
  Nd  Nd1  1  0.590355  0.001355  0.000000  1
  Th  Th2  1  0.000053  0.585278  0.000000  1
  Sn  Sn3  1  0.740061  0.749007  0.500000  1
  Sn  Sn4  1  0.999514  0.241651  0.500000  1
  Sn  Sn5  1  0.260210  0.008538  0.500000  1
  Rh  Rh6  1  0.999721  0.985711  0.000000  1
  Rh  Rh7  1  0.690312  0.353457  0.500000  1
  Rh  Rh8  1  0.309924  0.663789  0.500000  1
