# generated using pymatgen
data_SmReF7
_symmetry_space_group_name_H-M   'P 1'
_cell_length_a   5.71025600
_cell_length_b   9.11652485
_cell_length_c   12.25451298
_cell_angle_alpha   62.26074678
_cell_angle_beta   90.00000000
_cell_angle_gamma   90.00000000
_symmetry_Int_Tables_number   1
_chemical_formula_structural   SmReF7
_chemical_formula_sum   'Sm4 Re4 F28'
_cell_volume   564.62617446
_cell_formula_units_Z   4
loop_
 _symmetry_equiv_pos_site_id
 _symmetry_equiv_pos_as_xyz
  1  'x, y, z'
loop_
 _atom_site_type_symbol
 _atom_site_label
 _atom_site_symmetry_multiplicity
 _atom_site_fract_x
 _atom_site_fract_y
 _atom_site_fract_z
 _atom_site_occupancy
  Sm  Sm0  1  0.758225  0.812729  0.764749  1
  Sm  Sm1  1  0.258225  0.187271  0.735251  1
  Sm  Sm2  1  0.241775  0.187271  0.235251  1
  Sm  Sm3  1  0.741775  0.812729  0.264749  1
  Re  Re4  1  0.756111  0.273658  0.957094  1
  Re  Re5  1  0.256111  0.726342  0.542906  1
  Re  Re6  1  0.243889  0.726342  0.042906  1
  Re  Re7  1  0.743889  0.273658  0.457094  1
  F  F8  1  0.448520  0.708099  0.919400  1
  F  F9  1  0.948520  0.291901  0.580600  1
  F  F10  1  0.551480  0.291901  0.080600  1
  F  F11  1  0.051480  0.708099  0.419400  1
  F  F12  1  0.456945  0.282392  0.545966  1
  F  F13  1  0.956945  0.717608  0.954034  1
  F  F14  1  0.543055  0.717608  0.454034  1
  F  F15  1  0.043055  0.282392  0.045966  1
  F  F16  1  0.766268  0.518197  0.859007  1
  F  F17  1  0.266268  0.481803  0.640993  1
  F  F18  1  0.233732  0.481803  0.140993  1
  F  F19  1  0.733732  0.518197  0.359007  1
  F  F20  1  0.758839  0.029210  0.053088  1
  F  F21  1  0.258839  0.970790  0.446912  1
  F  F22  1  0.241161  0.970790  0.946912  1
  F  F23  1  0.741161  0.029210  0.553088  1
  F  F24  1  0.978927  0.730665  0.638513  1
  F  F25  1  0.478927  0.269335  0.861487  1
  F  F26  1  0.021073  0.269335  0.361487  1
  F  F27  1  0.521073  0.730665  0.138513  1
  F  F28  1  0.044700  0.744501  0.169060  1
  F  F29  1  0.544700  0.255499  0.330940  1
  F  F30  1  0.955300  0.255499  0.830940  1
  F  F31  1  0.455300  0.744501  0.669060  1
  F  F32  1  0.416594  0.969797  0.231818  1
  F  F33  1  0.916594  0.030203  0.268182  1
  F  F34  1  0.583406  0.030203  0.768182  1
  F  F35  1  0.083406  0.969797  0.731818  1
