# generated using pymatgen
data_Mn2GaIr3S8
_symmetry_space_group_name_H-M   'P 1'
_cell_length_a   7.13826056
_cell_length_b   7.13826046
_cell_length_c   7.13826073
_cell_angle_alpha   60.62726268
_cell_angle_beta   60.62726655
_cell_angle_gamma   60.62726409
_symmetry_Int_Tables_number   1
_chemical_formula_structural   Mn2GaIr3S8
_chemical_formula_sum   'Mn2 Ga1 Ir3 S8'
_cell_volume   260.83778533
_cell_formula_units_Z   1
loop_
 _symmetry_equiv_pos_site_id
 _symmetry_equiv_pos_as_xyz
  1  'x, y, z'
loop_
 _atom_site_type_symbol
 _atom_site_label
 _atom_site_symmetry_multiplicity
 _atom_site_fract_x
 _atom_site_fract_y
 _atom_site_fract_z
 _atom_site_occupancy
  Mn  Mn0  1  0.375984  0.375984  0.375984  1
  Mn  Mn1  1  0.624016  0.624016  0.624016  1
  Ga  Ga2  1  0.000000  0.000000  0.000000  1
  Ir  Ir3  1  0.500000  0.000000  0.000000  1
  Ir  Ir4  1  0.000000  0.000000  0.500000  1
  Ir  Ir5  1  0.000000  0.500000  0.000000  1
  S  S6  1  0.234927  0.234927  0.234927  1
  S  S7  1  0.788185  0.242202  0.242202  1
  S  S8  1  0.242202  0.242202  0.788185  1
  S  S9  1  0.242202  0.788185  0.242202  1
  S  S10  1  0.765073  0.765073  0.765073  1
  S  S11  1  0.211815  0.757798  0.757798  1
  S  S12  1  0.757798  0.757798  0.211815  1
  S  S13  1  0.757798  0.211815  0.757798  1
