# generated using pymatgen
data_Tb8Nb11Si16Pd
_symmetry_space_group_name_H-M   'P 1'
_cell_length_a   7.09095690
_cell_length_b   7.09095645
_cell_length_c   13.03898937
_cell_angle_alpha   90.20976559
_cell_angle_beta   89.79023375
_cell_angle_gamma   89.59980868
_symmetry_Int_Tables_number   1
_chemical_formula_structural   Tb8Nb11Si16Pd
_chemical_formula_sum   'Tb8 Nb11 Si16 Pd1'
_cell_volume   655.59727464
_cell_formula_units_Z   1
loop_
 _symmetry_equiv_pos_site_id
 _symmetry_equiv_pos_as_xyz
  1  'x, y, z'
loop_
 _atom_site_type_symbol
 _atom_site_label
 _atom_site_symmetry_multiplicity
 _atom_site_fract_x
 _atom_site_fract_y
 _atom_site_fract_z
 _atom_site_occupancy
  Tb  Tb0  1  0.341679  0.002655  0.467070  1
  Tb  Tb1  1  0.495741  0.841679  0.717775  1
  Tb  Tb2  1  0.501957  0.158480  0.215627  1
  Tb  Tb3  1  0.841679  0.495741  0.282225  1
  Tb  Tb4  1  0.158480  0.501957  0.784373  1
  Tb  Tb5  1  0.655277  0.000512  0.967422  1
  Tb  Tb6  1  0.002655  0.341679  0.532930  1
  Tb  Tb7  1  0.000512  0.655277  0.032578  1
  Nb  Nb8  1  0.173476  0.826780  0.248483  1
  Nb  Nb9  1  0.826780  0.173476  0.751517  1
  Nb  Nb10  1  0.671538  0.671538  0.500000  1
  Nb  Nb11  1  0.150994  0.007212  0.875914  1
  Nb  Nb12  1  0.495096  0.654444  0.123136  1
  Nb  Nb13  1  0.505114  0.348414  0.624322  1
  Nb  Nb14  1  0.654444  0.495096  0.876864  1
  Nb  Nb15  1  0.348414  0.505114  0.375678  1
  Nb  Nb16  1  0.847837  0.992079  0.373618  1
  Nb  Nb17  1  0.007212  0.150994  0.124086  1
  Nb  Nb18  1  0.992079  0.847837  0.626382  1
  Si  Si19  1  0.202548  0.134828  0.683976  1
  Si  Si20  1  0.371027  0.711627  0.931664  1
  Si  Si21  1  0.634202  0.294586  0.432561  1
  Si  Si22  1  0.711627  0.371027  0.068336  1
  Si  Si23  1  0.294586  0.634202  0.567439  1
  Si  Si24  1  0.796473  0.866683  0.182475  1
  Si  Si25  1  0.134828  0.202548  0.316024  1
  Si  Si26  1  0.866683  0.796473  0.817525  1
  Si  Si27  1  0.288280  0.946476  0.062412  1
  Si  Si28  1  0.545714  0.792423  0.312602  1
  Si  Si29  1  0.451242  0.209371  0.813192  1
  Si  Si30  1  0.792423  0.545714  0.687398  1
  Si  Si31  1  0.209371  0.451242  0.186808  1
  Si  Si32  1  0.706743  0.046390  0.563805  1
  Si  Si33  1  0.946476  0.288280  0.937588  1
  Si  Si34  1  0.046390  0.706743  0.436195  1
  Pd  Pd35  1  0.330419  0.330419  0.000000  1
