# generated using pymatgen
data_NdEr3Si6IrRh
_symmetry_space_group_name_H-M   'P 1'
_cell_length_a   8.17745500
_cell_length_b   8.17745495
_cell_length_c   7.97607800
_cell_angle_alpha   90.00000000
_cell_angle_beta   90.00000000
_cell_angle_gamma   119.99999615
_symmetry_Int_Tables_number   1
_chemical_formula_structural   NdEr3Si6IrRh
_chemical_formula_sum   'Nd2 Er6 Si12 Ir2 Rh2'
_cell_volume   461.90893602
_cell_formula_units_Z   2
loop_
 _symmetry_equiv_pos_site_id
 _symmetry_equiv_pos_as_xyz
  1  'x, y, z'
loop_
 _atom_site_type_symbol
 _atom_site_label
 _atom_site_symmetry_multiplicity
 _atom_site_fract_x
 _atom_site_fract_y
 _atom_site_fract_z
 _atom_site_occupancy
  Nd  Nd0  1  0.000000  0.000000  0.250000  1
  Nd  Nd1  1  0.000000  0.000000  0.750000  1
  Er  Er2  1  0.492324  0.507676  0.250000  1
  Er  Er3  1  0.492324  0.984647  0.250000  1
  Er  Er4  1  0.015353  0.507676  0.250000  1
  Er  Er5  1  0.509334  0.490666  0.750000  1
  Er  Er6  1  0.981332  0.490666  0.750000  1
  Er  Er7  1  0.509334  0.018668  0.750000  1
  Si  Si8  1  0.832020  0.167980  0.502382  1
  Si  Si9  1  0.832020  0.664042  0.502382  1
  Si  Si10  1  0.335958  0.167980  0.502382  1
  Si  Si11  1  0.832020  0.167980  0.997618  1
  Si  Si12  1  0.832020  0.664042  0.997618  1
  Si  Si13  1  0.335958  0.167980  0.997618  1
  Si  Si14  1  0.168881  0.831119  0.002307  1
  Si  Si15  1  0.662239  0.831119  0.002307  1
  Si  Si16  1  0.168881  0.337761  0.002307  1
  Si  Si17  1  0.168881  0.831119  0.497693  1
  Si  Si18  1  0.662239  0.831119  0.497693  1
  Si  Si19  1  0.168881  0.337761  0.497693  1
  Ir  Ir20  1  0.666667  0.333333  0.465346  1
  Ir  Ir21  1  0.666667  0.333333  0.034654  1
  Rh  Rh22  1  0.333333  0.666667  0.963794  1
  Rh  Rh23  1  0.333333  0.666667  0.536206  1
