# generated using pymatgen
data_Zr4Al5VOs2
_symmetry_space_group_name_H-M   'P 1'
_cell_length_a   5.29063226
_cell_length_b   5.31262320
_cell_length_c   8.49419700
_cell_angle_alpha   90.00000000
_cell_angle_beta   90.00000000
_cell_angle_gamma   120.13758356
_symmetry_Int_Tables_number   1
_chemical_formula_structural   Zr4Al5VOs2
_chemical_formula_sum   'Zr4 Al5 V1 Os2'
_cell_volume   206.47419479
_cell_formula_units_Z   1
loop_
 _symmetry_equiv_pos_site_id
 _symmetry_equiv_pos_as_xyz
  1  'x, y, z'
loop_
 _atom_site_type_symbol
 _atom_site_label
 _atom_site_symmetry_multiplicity
 _atom_site_fract_x
 _atom_site_fract_y
 _atom_site_fract_z
 _atom_site_occupancy
  Zr  Zr0  1  0.335436  0.667719  0.445082  1
  Zr  Zr1  1  0.663113  0.331556  0.560490  1
  Zr  Zr2  1  0.663113  0.331556  0.939510  1
  Zr  Zr3  1  0.335436  0.667719  0.054918  1
  Al  Al4  1  0.831590  0.166333  0.250000  1
  Al  Al5  1  0.831590  0.665257  0.250000  1
  Al  Al6  1  0.329854  0.164927  0.250000  1
  Al  Al7  1  0.182805  0.838636  0.750000  1
  Al  Al8  1  0.182805  0.344169  0.750000  1
  V  V9  1  0.680191  0.840096  0.750000  1
  Os  Os10  1  0.982033  0.991017  0.504446  1
  Os  Os11  1  0.982033  0.991017  0.995554  1
