# generated using pymatgen
data_Lu12AlCo4Sb
_symmetry_space_group_name_H-M   'P 1'
_cell_length_a   8.14704320
_cell_length_b   8.14704355
_cell_length_c   8.14704351
_cell_angle_alpha   111.70263322
_cell_angle_beta   109.71506661
_cell_angle_gamma   107.02971956
_symmetry_Int_Tables_number   1
_chemical_formula_structural   Lu12AlCo4Sb
_chemical_formula_sum   'Lu12 Al1 Co4 Sb1'
_cell_volume   415.57815687
_cell_formula_units_Z   1
loop_
 _symmetry_equiv_pos_site_id
 _symmetry_equiv_pos_as_xyz
  1  'x, y, z'
loop_
 _atom_site_type_symbol
 _atom_site_label
 _atom_site_symmetry_multiplicity
 _atom_site_fract_x
 _atom_site_fract_y
 _atom_site_fract_z
 _atom_site_occupancy
  Lu  Lu0  1  0.439492  0.233860  0.205631  1
  Lu  Lu1  1  0.560508  0.766140  0.794369  1
  Lu  Lu2  1  0.028228  0.233860  0.794369  1
  Lu  Lu3  1  0.971772  0.766140  0.205631  1
  Lu  Lu4  1  0.180989  0.279672  0.460662  1
  Lu  Lu5  1  0.819011  0.720328  0.539338  1
  Lu  Lu6  1  0.180989  0.720328  0.901317  1
  Lu  Lu7  1  0.819011  0.279672  0.098683  1
  Lu  Lu8  1  0.322150  0.634304  0.312155  1
  Lu  Lu9  1  0.677850  0.365696  0.687845  1
  Lu  Lu10  1  0.322150  0.009995  0.687845  1
  Lu  Lu11  1  0.677850  0.990005  0.312155  1
  Al  Al12  1  0.000000  0.000000  0.000000  1
  Co  Co13  1  0.341035  0.000000  0.341035  1
  Co  Co14  1  0.658965  0.000000  0.658965  1
  Co  Co15  1  0.116209  0.616209  0.500000  1
  Co  Co16  1  0.883791  0.383791  0.500000  1
  Sb  Sb17  1  0.500000  0.500000  0.000000  1
