# generated using pymatgen
data_Dy7Bi(TeO6)4
_symmetry_space_group_name_H-M   'P 1'
_cell_length_a   5.33223747
_cell_length_b   9.18908434
_cell_length_c   10.07191101
_cell_angle_alpha   90.23492500
_cell_angle_beta   89.97325981
_cell_angle_gamma   89.96803247
_symmetry_Int_Tables_number   1
_chemical_formula_structural   Dy7Bi(TeO6)4
_chemical_formula_sum   'Dy7 Bi1 Te4 O24'
_cell_volume   493.50304248
_cell_formula_units_Z   1
loop_
 _symmetry_equiv_pos_site_id
 _symmetry_equiv_pos_as_xyz
  1  'x, y, z'
loop_
 _atom_site_type_symbol
 _atom_site_label
 _atom_site_symmetry_multiplicity
 _atom_site_fract_x
 _atom_site_fract_y
 _atom_site_fract_z
 _atom_site_occupancy
  Dy  Dy0  1  0.480165  0.896270  0.037828  1
  Dy  Dy1  1  0.978719  0.604474  0.960198  1
  Dy  Dy2  1  0.521680  0.396703  0.462391  1
  Dy  Dy3  1  0.019328  0.103037  0.540262  1
  Dy  Dy4  1  0.460861  0.781776  0.635873  1
  Dy  Dy5  1  0.960474  0.716248  0.365743  1
  Dy  Dy6  1  0.538725  0.283713  0.863780  1
  Bi  Bi7  1  0.035855  0.216841  0.140043  1
  Te  Te8  1  0.961575  0.993671  0.850976  1
  Te  Te9  1  0.461279  0.508789  0.146879  1
  Te  Te10  1  0.038686  0.494909  0.647267  1
  Te  Te11  1  0.537156  0.002126  0.355421  1
  O  O12  1  0.243902  0.584665  0.505090  1
  O  O13  1  0.742763  0.913097  0.496991  1
  O  O14  1  0.749953  0.082995  0.991066  1
  O  O15  1  0.258883  0.421156  0.002323  1
  O  O16  1  0.266927  0.883737  0.433413  1
  O  O17  1  0.767636  0.613613  0.567259  1
  O  O18  1  0.727072  0.390609  0.062664  1
  O  O19  1  0.236307  0.111975  0.926776  1
  O  O20  1  0.180320  0.641814  0.178827  1
  O  O21  1  0.682416  0.857738  0.820240  1
  O  O22  1  0.817058  0.139450  0.330339  1
  O  O23  1  0.319559  0.360262  0.677669  1
  O  O24  1  0.321158  0.361720  0.262391  1
  O  O25  1  0.814019  0.140542  0.738531  1
  O  O26  1  0.689021  0.858961  0.240049  1
  O  O27  1  0.185802  0.641242  0.760820  1
  O  O28  1  0.336078  0.046627  0.202051  1
  O  O29  1  0.830872  0.449864  0.797863  1
  O  O30  1  0.670024  0.551053  0.298508  1
  O  O31  1  0.167829  0.947281  0.699806  1
  O  O32  1  0.408209  0.155208  0.470720  1
  O  O33  1  0.912336  0.343971  0.529450  1
  O  O34  1  0.589499  0.659134  0.030109  1
  O  O35  1  0.087857  0.844731  0.970380  1
