# generated using pymatgen
data_Nd10(SnBi)3
_symmetry_space_group_name_H-M   'P 1'
_cell_length_a   9.47122498
_cell_length_b   9.44346035
_cell_length_c   6.67169500
_cell_angle_alpha   90.00000000
_cell_angle_beta   90.00000000
_cell_angle_gamma   120.16497715
_symmetry_Int_Tables_number   1
_chemical_formula_structural   Nd10(SnBi)3
_chemical_formula_sum   'Nd10 Sn3 Bi3'
_cell_volume   515.91689174
_cell_formula_units_Z   1
loop_
 _symmetry_equiv_pos_site_id
 _symmetry_equiv_pos_as_xyz
  1  'x, y, z'
loop_
 _atom_site_type_symbol
 _atom_site_label
 _atom_site_symmetry_multiplicity
 _atom_site_fract_x
 _atom_site_fract_y
 _atom_site_fract_z
 _atom_site_occupancy
  Nd  Nd0  1  0.333304  0.673035  0.001434  1
  Nd  Nd1  1  0.666419  0.328968  0.498551  1
  Nd  Nd2  1  0.666419  0.328968  0.001449  1
  Nd  Nd3  1  0.333304  0.673035  0.498566  1
  Nd  Nd4  1  0.243741  0.994769  0.250001  1
  Nd  Nd5  1  0.752465  0.000091  0.750000  1
  Nd  Nd6  1  0.994874  0.242728  0.250001  1
  Nd  Nd7  1  0.760413  0.760340  0.250001  1
  Nd  Nd8  1  0.244106  0.239239  0.750000  1
  Nd  Nd9  1  0.005133  0.760450  0.750000  1
  Sn  Sn10  1  0.608268  0.999224  0.250001  1
  Sn  Sn11  1  0.392754  0.001301  0.750000  1
  Sn  Sn12  1  0.997673  0.607177  0.250001  1
  Bi  Bi13  1  0.389055  0.390321  0.250001  1
  Bi  Bi14  1  0.610203  0.609239  0.750000  1
  Bi  Bi15  1  0.001869  0.391112  0.750000  1
