# generated using pymatgen
data_La2Gd2Hf3PdO14
_symmetry_space_group_name_H-M   'P 1'
_cell_length_a   7.50864504
_cell_length_b   7.55048156
_cell_length_c   7.53535600
_cell_angle_alpha   60.06624514
_cell_angle_beta   59.88225352
_cell_angle_gamma   59.77560251
_symmetry_Int_Tables_number   1
_chemical_formula_structural   La2Gd2Hf3PdO14
_chemical_formula_sum   'La2 Gd2 Hf3 Pd1 O14'
_cell_volume   301.44788693
_cell_formula_units_Z   1
loop_
 _symmetry_equiv_pos_site_id
 _symmetry_equiv_pos_as_xyz
  1  'x, y, z'
loop_
 _atom_site_type_symbol
 _atom_site_label
 _atom_site_symmetry_multiplicity
 _atom_site_fract_x
 _atom_site_fract_y
 _atom_site_fract_z
 _atom_site_occupancy
  La  La0  1  0.625000  0.125000  0.125000  1
  La  La1  1  0.125000  0.625000  0.125000  1
  Gd  Gd2  1  0.125000  0.125000  0.625000  1
  Gd  Gd3  1  0.125000  0.125000  0.125000  1
  Hf  Hf4  1  0.625000  0.125000  0.625000  1
  Hf  Hf5  1  0.625000  0.625000  0.125000  1
  Hf  Hf6  1  0.625000  0.625000  0.625000  1
  Pd  Pd7  1  0.125000  0.625000  0.625000  1
  O  O8  1  0.710667  0.704644  0.292345  1
  O  O9  1  0.287594  0.295821  0.708293  1
  O  O10  1  0.714467  0.291691  0.701978  1
  O  O11  1  0.287935  0.711916  0.296093  1
  O  O12  1  0.287935  0.711916  0.704057  1
  O  O13  1  0.714467  0.291691  0.291864  1
  O  O14  1  0.539333  0.545356  0.957655  1
  O  O15  1  0.962406  0.954179  0.541707  1
  O  O16  1  0.535533  0.958309  0.548022  1
  O  O17  1  0.962065  0.538084  0.953907  1
  O  O18  1  0.962065  0.538084  0.545943  1
  O  O19  1  0.535533  0.958309  0.958136  1
  O  O20  1  0.242876  0.242179  0.257473  1
  O  O21  1  0.007124  0.007821  0.992527  1
