# generated using pymatgen
data_Yb4Sc2SbRhO12
_symmetry_space_group_name_H-M   'P 1'
_cell_length_a   5.65616584
_cell_length_b   5.44487154
_cell_length_c   9.50164891
_cell_angle_alpha   55.25535767
_cell_angle_beta   89.46418806
_cell_angle_gamma   89.94112424
_symmetry_Int_Tables_number   1
_chemical_formula_structural   Yb4Sc2SbRhO12
_chemical_formula_sum   'Yb4 Sc2 Sb1 Rh1 O12'
_cell_volume   240.43474020
_cell_formula_units_Z   1
loop_
 _symmetry_equiv_pos_site_id
 _symmetry_equiv_pos_as_xyz
  1  'x, y, z'
loop_
 _atom_site_type_symbol
 _atom_site_label
 _atom_site_symmetry_multiplicity
 _atom_site_fract_x
 _atom_site_fract_y
 _atom_site_fract_z
 _atom_site_occupancy
  Yb  Yb0  1  0.563034  0.774840  0.741509  1
  Yb  Yb1  1  0.943936  0.760234  0.259105  1
  Yb  Yb2  1  0.436966  0.225160  0.258491  1
  Yb  Yb3  1  0.056064  0.239766  0.740895  1
  Sc  Sc4  1  0.500000  0.500000  0.500000  1
  Sc  Sc5  1  0.000000  0.500000  0.000000  1
  Sb  Sb6  1  0.500000  0.000000  0.000000  1
  Rh  Rh7  1  0.000000  0.000000  0.500000  1
  O  O8  1  0.801509  0.241738  0.551331  1
  O  O9  1  0.695131  0.238573  0.056494  1
  O  O10  1  0.198491  0.758262  0.448669  1
  O  O11  1  0.304869  0.761427  0.943506  1
  O  O12  1  0.792860  0.868857  0.939212  1
  O  O13  1  0.709520  0.860852  0.446435  1
  O  O14  1  0.207140  0.131143  0.060788  1
  O  O15  1  0.290480  0.139148  0.553565  1
  O  O16  1  0.963887  0.654464  0.741412  1
  O  O17  1  0.536483  0.649902  0.243602  1
  O  O18  1  0.036113  0.345536  0.258588  1
  O  O19  1  0.463517  0.350098  0.756398  1
