# generated using pymatgen
data_NdY5(Ga2Si)4
_symmetry_space_group_name_H-M   'P 1'
_cell_length_a   4.10599534
_cell_length_b   4.19629282
_cell_length_c   21.69220659
_cell_angle_alpha   84.44948321
_cell_angle_beta   84.56927134
_cell_angle_gamma   90.00000627
_symmetry_Int_Tables_number   1
_chemical_formula_structural   NdY5(Ga2Si)4
_chemical_formula_sum   'Nd1 Y5 Ga8 Si4'
_cell_volume   370.31780027
_cell_formula_units_Z   1
loop_
 _symmetry_equiv_pos_site_id
 _symmetry_equiv_pos_as_xyz
  1  'x, y, z'
loop_
 _atom_site_type_symbol
 _atom_site_label
 _atom_site_symmetry_multiplicity
 _atom_site_fract_x
 _atom_site_fract_y
 _atom_site_fract_z
 _atom_site_occupancy
  Nd  Nd0  1  0.041481  0.291481  0.917037  1
  Y  Y1  1  0.957402  0.707402  0.085195  1
  Y  Y2  1  0.290254  0.040254  0.419493  1
  Y  Y3  1  0.623818  0.373818  0.752364  1
  Y  Y4  1  0.377003  0.627003  0.245994  1
  Y  Y5  1  0.709873  0.959873  0.580253  1
  Ga  Ga6  1  0.820039  0.570039  0.359921  1
  Ga  Ga7  1  0.153206  0.903206  0.693589  1
  Ga  Ga8  1  0.431076  0.181076  0.137847  1
  Ga  Ga9  1  0.764280  0.514280  0.471441  1
  Ga  Ga10  1  0.097662  0.847662  0.804675  1
  Ga  Ga11  1  0.847640  0.097640  0.304720  1
  Ga  Ga12  1  0.180680  0.430680  0.638639  1
  Ga  Ga13  1  0.512773  0.762773  0.974454  1
  Si  Si14  1  0.902437  0.152437  0.195127  1
  Si  Si15  1  0.235613  0.485613  0.528773  1
  Si  Si16  1  0.568854  0.818854  0.862290  1
  Si  Si17  1  0.485908  0.235908  0.028183  1
