# generated using pymatgen
data_TbTh5H8Br15
_symmetry_space_group_name_H-M   'P 1'
_cell_length_a   10.03436177
_cell_length_b   10.03438579
_cell_length_c   10.03437939
_cell_angle_alpha   109.15858626
_cell_angle_beta   109.15855996
_cell_angle_gamma   110.09837061
_symmetry_Int_Tables_number   1
_chemical_formula_structural   TbTh5H8Br15
_chemical_formula_sum   'Tb1 Th5 H8 Br15'
_cell_volume   777.69614351
_cell_formula_units_Z   1
loop_
 _symmetry_equiv_pos_site_id
 _symmetry_equiv_pos_as_xyz
  1  'x, y, z'
loop_
 _atom_site_type_symbol
 _atom_site_label
 _atom_site_symmetry_multiplicity
 _atom_site_fract_x
 _atom_site_fract_y
 _atom_site_fract_z
 _atom_site_occupancy
  Tb  Tb0  1  0.232132  0.232132  0.000001  1
  Th  Th1  1  0.757766  0.757768  0.999999  1
  Th  Th2  1  0.240555  0.003219  0.237336  1
  Th  Th3  1  0.003219  0.240554  0.237334  1
  Th  Th4  1  0.765884  0.003220  0.762663  1
  Th  Th5  1  0.003220  0.765883  0.762666  1
  H  H6  1  0.177513  0.998392  0.000000  1
  H  H7  1  0.820777  0.998708  0.999998  1
  H  H8  1  0.998392  0.177512  0.999999  1
  H  H9  1  0.998708  0.820777  0.000001  1
  H  H10  1  0.998708  0.998707  0.177930  1
  H  H11  1  0.177512  0.177512  0.179120  1
  H  H12  1  0.998392  0.998392  0.820879  1
  H  H13  1  0.820777  0.820777  0.822068  1
  Br  Br14  1  0.746873  0.252729  0.999999  1
  Br  Br15  1  0.500750  0.500751  0.000000  1
  Br  Br16  1  0.252736  0.746870  0.000008  1
  Br  Br17  1  0.746121  0.999467  0.253345  1
  Br  Br18  1  0.999462  0.746124  0.253346  1
  Br  Br19  1  0.504601  0.255319  0.249283  1
  Br  Br20  1  0.255319  0.504602  0.249283  1
  Br  Br21  1  0.746872  0.746869  0.494141  1
  Br  Br22  1  0.500366  0.000366  0.500000  1
  Br  Br23  1  0.000367  0.500367  0.500001  1
  Br  Br24  1  0.252729  0.252729  0.505856  1
  Br  Br25  1  0.255318  0.006036  0.750718  1
  Br  Br26  1  0.006038  0.255319  0.750718  1
  Br  Br27  1  0.746121  0.492777  0.746656  1
  Br  Br28  1  0.492777  0.746126  0.746658  1
