# generated using pymatgen
data_Na2SrHgAs2
_symmetry_space_group_name_H-M   'P 1'
_cell_length_a   4.53757000
_cell_length_b   7.74061000
_cell_length_c   8.83608200
_cell_angle_alpha   90.00000000
_cell_angle_beta   90.00000000
_cell_angle_gamma   90.00000000
_symmetry_Int_Tables_number   1
_chemical_formula_structural   Na2SrHgAs2
_chemical_formula_sum   'Na4 Sr2 Hg2 As4'
_cell_volume   310.35465380
_cell_formula_units_Z   2
loop_
 _symmetry_equiv_pos_site_id
 _symmetry_equiv_pos_as_xyz
  1  'x, y, z'
loop_
 _atom_site_type_symbol
 _atom_site_label
 _atom_site_symmetry_multiplicity
 _atom_site_fract_x
 _atom_site_fract_y
 _atom_site_fract_z
 _atom_site_occupancy
  Na  Na0  1  0.500000  0.032725  0.416865  1
  Na  Na1  1  0.000000  0.364430  0.331185  1
  Na  Na2  1  0.500000  0.532725  0.583135  1
  Na  Na3  1  0.000000  0.864430  0.668815  1
  Sr  Sr4  1  0.000000  0.483312  0.937976  1
  Sr  Sr5  1  0.000000  0.983312  0.062024  1
  Hg  Hg6  1  0.500000  0.145286  0.804796  1
  Hg  Hg7  1  0.500000  0.645286  0.195204  1
  As  As8  1  0.000000  0.247697  0.648427  1
  As  As9  1  0.500000  0.272070  0.122382  1
  As  As10  1  0.000000  0.747697  0.351573  1
  As  As11  1  0.500000  0.772070  0.877618  1
