# generated using pymatgen
data_Li4Sm8Y8Si15Pt
_symmetry_space_group_name_H-M   'P 1'
_cell_length_a   7.20738739
_cell_length_b   7.75637927
_cell_length_c   14.71072500
_cell_angle_alpha   90.00000000
_cell_angle_beta   90.00000000
_cell_angle_gamma   90.45462038
_symmetry_Int_Tables_number   1
_chemical_formula_structural   Li4Sm8Y8Si15Pt
_chemical_formula_sum   'Li4 Sm8 Y8 Si15 Pt1'
_cell_volume   822.35115813
_cell_formula_units_Z   1
loop_
 _symmetry_equiv_pos_site_id
 _symmetry_equiv_pos_as_xyz
  1  'x, y, z'
loop_
 _atom_site_type_symbol
 _atom_site_label
 _atom_site_symmetry_multiplicity
 _atom_site_fract_x
 _atom_site_fract_y
 _atom_site_fract_z
 _atom_site_occupancy
  Li  Li0  1  0.155904  0.521958  0.750000  1
  Li  Li1  1  0.843977  0.478526  0.250000  1
  Li  Li2  1  0.344121  0.023333  0.250000  1
  Li  Li3  1  0.650102  0.977576  0.750000  1
  Sm  Sm4  1  0.023737  0.186789  0.099189  1
  Sm  Sm5  1  0.981058  0.817326  0.899337  1
  Sm  Sm6  1  0.476811  0.685624  0.899315  1
  Sm  Sm7  1  0.981058  0.817326  0.600663  1
  Sm  Sm8  1  0.523291  0.313964  0.100752  1
  Sm  Sm9  1  0.023737  0.186789  0.400811  1
  Sm  Sm10  1  0.523291  0.313964  0.399248  1
  Sm  Sm11  1  0.476811  0.685624  0.600685  1
  Y  Y12  1  0.319530  0.176821  0.629258  1
  Y  Y13  1  0.675265  0.820061  0.373621  1
  Y  Y14  1  0.174671  0.682511  0.373040  1
  Y  Y15  1  0.675265  0.820061  0.126379  1
  Y  Y16  1  0.825695  0.318058  0.629967  1
  Y  Y17  1  0.319530  0.176821  0.870742  1
  Y  Y18  1  0.825695  0.318058  0.870033  1
  Y  Y19  1  0.174671  0.682511  0.126960  1
  Si  Si20  1  0.977232  0.915135  0.250000  1
  Si  Si21  1  0.477997  0.585049  0.250000  1
  Si  Si22  1  0.519733  0.414731  0.750000  1
  Si  Si23  1  0.279591  0.863511  0.750000  1
  Si  Si24  1  0.731541  0.125610  0.250000  1
  Si  Si25  1  0.228445  0.378157  0.250000  1
  Si  Si26  1  0.770648  0.623342  0.750000  1
  Si  Si27  1  0.150752  0.468729  0.535354  1
  Si  Si28  1  0.848880  0.532340  0.464979  1
  Si  Si29  1  0.348147  0.969252  0.465001  1
  Si  Si30  1  0.848880  0.532340  0.035021  1
  Si  Si31  1  0.651053  0.031674  0.535425  1
  Si  Si32  1  0.150752  0.468729  0.964646  1
  Si  Si33  1  0.651053  0.031674  0.964575  1
  Si  Si34  1  0.348147  0.969252  0.034999  1
  Pt  Pt35  1  0.022932  0.086773  0.750000  1
