# generated using pymatgen
data_Er5SiSn3
_symmetry_space_group_name_H-M   'P 1'
_cell_length_a   9.14390000
_cell_length_b   9.14390027
_cell_length_c   6.38718900
_cell_angle_alpha   90.00000000
_cell_angle_beta   90.00000000
_cell_angle_gamma   119.99999903
_symmetry_Int_Tables_number   1
_chemical_formula_structural   Er5SiSn3
_chemical_formula_sum   'Er10 Si2 Sn6'
_cell_volume   462.49107019
_cell_formula_units_Z   2
loop_
 _symmetry_equiv_pos_site_id
 _symmetry_equiv_pos_as_xyz
  1  'x, y, z'
loop_
 _atom_site_type_symbol
 _atom_site_label
 _atom_site_symmetry_multiplicity
 _atom_site_fract_x
 _atom_site_fract_y
 _atom_site_fract_z
 _atom_site_occupancy
  Er  Er0  1  0.666667  0.333333  0.000000  1
  Er  Er1  1  0.333333  0.666667  0.000000  1
  Er  Er2  1  0.333333  0.666667  0.500000  1
  Er  Er3  1  0.666667  0.333333  0.500000  1
  Er  Er4  1  0.746964  0.746964  0.750000  1
  Er  Er5  1  0.253036  0.000000  0.750000  1
  Er  Er6  1  0.000000  0.253036  0.750000  1
  Er  Er7  1  0.253036  0.253036  0.250000  1
  Er  Er8  1  0.746964  0.000000  0.250000  1
  Er  Er9  1  0.000000  0.746964  0.250000  1
  Si  Si10  1  0.000000  0.000000  0.000000  1
  Si  Si11  1  0.000000  0.000000  0.500000  1
  Sn  Sn12  1  0.391442  0.391442  0.750000  1
  Sn  Sn13  1  0.608558  0.000000  0.750000  1
  Sn  Sn14  1  0.000000  0.608558  0.750000  1
  Sn  Sn15  1  0.608558  0.608558  0.250000  1
  Sn  Sn16  1  0.391442  0.000000  0.250000  1
  Sn  Sn17  1  0.000000  0.391442  0.250000  1
