# generated using pymatgen
data_Li2MgV(B4Ru5)2
_symmetry_space_group_name_H-M   'P 1'
_cell_length_a   2.95636900
_cell_length_b   8.32001723
_cell_length_c   10.03555200
_cell_angle_alpha   90.30154735
_cell_angle_beta   90.00000000
_cell_angle_gamma   90.00000000
_symmetry_Int_Tables_number   1
_chemical_formula_structural   Li2MgV(B4Ru5)2
_chemical_formula_sum   'Li2 Mg1 V1 B8 Ru10'
_cell_volume   246.84146545
_cell_formula_units_Z   1
loop_
 _symmetry_equiv_pos_site_id
 _symmetry_equiv_pos_as_xyz
  1  'x, y, z'
loop_
 _atom_site_type_symbol
 _atom_site_label
 _atom_site_symmetry_multiplicity
 _atom_site_fract_x
 _atom_site_fract_y
 _atom_site_fract_z
 _atom_site_occupancy
  Li  Li0  1  0.500000  0.356059  0.180690  1
  Li  Li1  1  0.500000  0.149189  0.693593  1
  Mg  Mg2  1  0.500000  0.853120  0.319404  1
  V  V3  1  0.500000  0.643706  0.814638  1
  B  B4  1  0.500000  0.852676  0.597665  1
  B  B5  1  0.500000  0.144618  0.394022  1
  B  B6  1  0.500000  0.346320  0.897729  1
  B  B7  1  0.500000  0.646226  0.106532  1
  B  B8  1  0.500000  0.961696  0.909029  1
  B  B9  1  0.500000  0.042608  0.090314  1
  B  B10  1  0.500000  0.452828  0.586950  1
  B  B11  1  0.500000  0.533396  0.407833  1
  Ru  Ru12  1  0.000000  0.402545  0.739172  1
  Ru  Ru13  1  0.000000  0.600375  0.260404  1
  Ru  Ru14  1  0.000000  0.886147  0.762783  1
  Ru  Ru15  1  0.000000  0.112055  0.237503  1
  Ru  Ru16  1  0.000000  0.009171  0.509187  1
  Ru  Ru17  1  0.000000  0.508675  0.991446  1
  Ru  Ru18  1  0.000000  0.655838  0.552418  1
  Ru  Ru19  1  0.000000  0.343163  0.454252  1
  Ru  Ru20  1  0.000000  0.156986  0.950536  1
  Ru  Ru21  1  0.000000  0.842598  0.043899  1
