# generated using pymatgen
data_Tb2Cr(Co3As2)3
_symmetry_space_group_name_H-M   'P 1'
_cell_length_a   3.78559600
_cell_length_b   10.72097500
_cell_length_c   12.25039500
_cell_angle_alpha   90.00000000
_cell_angle_beta   90.00000000
_cell_angle_gamma   90.00000000
_symmetry_Int_Tables_number   1
_chemical_formula_structural   Tb2Cr(Co3As2)3
_chemical_formula_sum   'Tb4 Cr2 Co18 As12'
_cell_volume   497.18571212
_cell_formula_units_Z   2
loop_
 _symmetry_equiv_pos_site_id
 _symmetry_equiv_pos_as_xyz
  1  'x, y, z'
loop_
 _atom_site_type_symbol
 _atom_site_label
 _atom_site_symmetry_multiplicity
 _atom_site_fract_x
 _atom_site_fract_y
 _atom_site_fract_z
 _atom_site_occupancy
  Tb  Tb0  1  0.250000  0.578727  0.702028  1
  Tb  Tb1  1  0.250000  0.921273  0.202028  1
  Tb  Tb2  1  0.750000  0.419553  0.295819  1
  Tb  Tb3  1  0.750000  0.080447  0.795819  1
  Cr  Cr4  1  0.250000  0.703171  0.990492  1
  Cr  Cr5  1  0.250000  0.796829  0.490492  1
  Co  Co6  1  0.750000  0.294280  0.009897  1
  Co  Co7  1  0.750000  0.205720  0.509897  1
  Co  Co8  1  0.250000  0.405543  0.488627  1
  Co  Co9  1  0.250000  0.094457  0.988627  1
  Co  Co10  1  0.750000  0.594024  0.512779  1
  Co  Co11  1  0.750000  0.905976  0.012779  1
  Co  Co12  1  0.250000  0.217440  0.176986  1
  Co  Co13  1  0.250000  0.282560  0.676986  1
  Co  Co14  1  0.750000  0.783458  0.824583  1
  Co  Co15  1  0.750000  0.716542  0.324583  1
  Co  Co16  1  0.250000  0.884275  0.697417  1
  Co  Co17  1  0.250000  0.615725  0.197417  1
  Co  Co18  1  0.750000  0.117739  0.302881  1
  Co  Co19  1  0.750000  0.382261  0.802881  1
  Co  Co20  1  0.250000  0.465479  0.932584  1
  Co  Co21  1  0.250000  0.034521  0.432584  1
  Co  Co22  1  0.750000  0.533043  0.066335  1
  Co  Co23  1  0.750000  0.966957  0.566335  1
  As  As24  1  0.250000  0.416297  0.113875  1
  As  As25  1  0.250000  0.083703  0.613875  1
  As  As26  1  0.750000  0.581938  0.883679  1
  As  As27  1  0.750000  0.918062  0.383679  1
  As  As28  1  0.250000  0.267161  0.868595  1
  As  As29  1  0.250000  0.232839  0.368595  1
  As  As30  1  0.750000  0.731639  0.134146  1
  As  As31  1  0.750000  0.768361  0.634146  1
  As  As32  1  0.250000  0.596759  0.391020  1
  As  As33  1  0.250000  0.903241  0.891020  1
  As  As34  1  0.750000  0.396599  0.608257  1
  As  As35  1  0.750000  0.103401  0.108257  1
