# generated using pymatgen
data_CrFe4SbO8
_symmetry_space_group_name_H-M   'P 1'
_cell_length_a   6.31985024
_cell_length_b   6.31991719
_cell_length_c   6.14629761
_cell_angle_alpha   59.48878851
_cell_angle_beta   59.49287869
_cell_angle_gamma   57.38883547
_symmetry_Int_Tables_number   1
_chemical_formula_structural   CrFe4SbO8
_chemical_formula_sum   'Cr1 Fe4 Sb1 O8'
_cell_volume   168.63561377
_cell_formula_units_Z   1
loop_
 _symmetry_equiv_pos_site_id
 _symmetry_equiv_pos_as_xyz
  1  'x, y, z'
loop_
 _atom_site_type_symbol
 _atom_site_label
 _atom_site_symmetry_multiplicity
 _atom_site_fract_x
 _atom_site_fract_y
 _atom_site_fract_z
 _atom_site_occupancy
  Cr  Cr0  1  0.000000  0.000000  0.000000  1
  Fe  Fe1  1  0.638167  0.638253  0.128713  1
  Fe  Fe2  1  0.361833  0.361747  0.871287  1
  Fe  Fe3  1  0.000000  0.500000  0.500000  1
  Fe  Fe4  1  0.500000  0.000000  0.500000  1
  Sb  Sb5  1  0.000000  0.000000  0.500000  1
  O  O6  1  0.223987  0.223916  0.754089  1
  O  O7  1  0.220556  0.220578  0.281786  1
  O  O8  1  0.228476  0.776387  0.744500  1
  O  O9  1  0.776409  0.228497  0.744431  1
  O  O10  1  0.776013  0.776084  0.245911  1
  O  O11  1  0.779444  0.779422  0.718214  1
  O  O12  1  0.771524  0.223613  0.255500  1
  O  O13  1  0.223591  0.771503  0.255569  1
