# generated using pymatgen
data_NdTl3Ir2(PdO7)2
_symmetry_space_group_name_H-M   'P 1'
_cell_length_a   7.41756943
_cell_length_b   7.36579350
_cell_length_c   7.41757020
_cell_angle_alpha   58.85959469
_cell_angle_beta   58.97384820
_cell_angle_gamma   58.85959512
_symmetry_Int_Tables_number   1
_chemical_formula_structural   NdTl3Ir2(PdO7)2
_chemical_formula_sum   'Nd1 Tl3 Ir2 Pd2 O14'
_cell_volume   279.35743581
_cell_formula_units_Z   1
loop_
 _symmetry_equiv_pos_site_id
 _symmetry_equiv_pos_as_xyz
  1  'x, y, z'
loop_
 _atom_site_type_symbol
 _atom_site_label
 _atom_site_symmetry_multiplicity
 _atom_site_fract_x
 _atom_site_fract_y
 _atom_site_fract_z
 _atom_site_occupancy
  Nd  Nd0  1  0.125000  0.125000  0.125000  1
  Tl  Tl1  1  0.625000  0.125000  0.125000  1
  Tl  Tl2  1  0.125000  0.625000  0.125000  1
  Tl  Tl3  1  0.125000  0.125000  0.625000  1
  Ir  Ir4  1  0.125000  0.625000  0.625000  1
  Ir  Ir5  1  0.625000  0.625000  0.125000  1
  Pd  Pd6  1  0.625000  0.125000  0.625000  1
  Pd  Pd7  1  0.625000  0.625000  0.625000  1
  O  O8  1  0.709775  0.703260  0.288625  1
  O  O9  1  0.287575  0.296613  0.710552  1
  O  O10  1  0.709684  0.288627  0.709684  1
  O  O11  1  0.300355  0.693836  0.300355  1
  O  O12  1  0.288625  0.703260  0.709775  1
  O  O13  1  0.710552  0.296613  0.287575  1
  O  O14  1  0.540225  0.546740  0.961375  1
  O  O15  1  0.962425  0.953387  0.539448  1
  O  O16  1  0.540316  0.961373  0.540316  1
  O  O17  1  0.949645  0.556164  0.949645  1
  O  O18  1  0.961375  0.546740  0.540225  1
  O  O19  1  0.539448  0.953387  0.962425  1
  O  O20  1  0.253198  0.248894  0.253198  1
  O  O21  1  0.996802  0.001106  0.996802  1
