# generated using pymatgen
data_Gd2Dy4OsO12
_symmetry_space_group_name_H-M   'P 1'
_cell_length_a   6.51398427
_cell_length_b   6.51684867
_cell_length_c   6.50648884
_cell_angle_alpha   98.71324640
_cell_angle_beta   98.55485432
_cell_angle_gamma   98.62526488
_symmetry_Int_Tables_number   1
_chemical_formula_structural   Gd2Dy4OsO12
_chemical_formula_sum   'Gd2 Dy4 Os1 O12'
_cell_volume   265.74162506
_cell_formula_units_Z   1
loop_
 _symmetry_equiv_pos_site_id
 _symmetry_equiv_pos_as_xyz
  1  'x, y, z'
loop_
 _atom_site_type_symbol
 _atom_site_label
 _atom_site_symmetry_multiplicity
 _atom_site_fract_x
 _atom_site_fract_y
 _atom_site_fract_z
 _atom_site_occupancy
  Gd  Gd0  1  0.389505  0.686819  0.856394  1
  Gd  Gd1  1  0.142365  0.609450  0.310916  1
  Dy  Dy2  1  0.855529  0.388144  0.686296  1
  Dy  Dy3  1  0.612568  0.312898  0.144624  1
  Dy  Dy4  1  0.315810  0.144849  0.610280  1
  Dy  Dy5  1  0.687043  0.856357  0.390204  1
  Os  Os6  1  0.999636  0.000795  0.999721  1
  O  O7  1  0.926096  0.034330  0.704142  1
  O  O8  1  0.961081  0.296337  0.068254  1
  O  O9  1  0.591693  0.176959  0.433554  1
  O  O10  1  0.820937  0.565741  0.411237  1
  O  O11  1  0.294497  0.074201  0.964977  1
  O  O12  1  0.565748  0.403789  0.822590  1
  O  O13  1  0.438894  0.590259  0.179284  1
  O  O14  1  0.705823  0.930750  0.039042  1
  O  O15  1  0.175928  0.430720  0.590844  1
  O  O16  1  0.411006  0.824693  0.565377  1
  O  O17  1  0.032130  0.704079  0.927137  1
  O  O18  1  0.073713  0.968830  0.295124  1
