# generated using pymatgen
data_La2AlSiBr2
_symmetry_space_group_name_H-M   'P 1'
_cell_length_a   4.19465800
_cell_length_b   4.19465766
_cell_length_c   11.39480700
_cell_angle_alpha   90.00000000
_cell_angle_beta   90.00000000
_cell_angle_gamma   120.00000265
_symmetry_Int_Tables_number   1
_chemical_formula_structural   La2AlSiBr2
_chemical_formula_sum   'La2 Al1 Si1 Br2'
_cell_volume   173.63236239
_cell_formula_units_Z   1
loop_
 _symmetry_equiv_pos_site_id
 _symmetry_equiv_pos_as_xyz
  1  'x, y, z'
loop_
 _atom_site_type_symbol
 _atom_site_label
 _atom_site_symmetry_multiplicity
 _atom_site_fract_x
 _atom_site_fract_y
 _atom_site_fract_z
 _atom_site_occupancy
  La  La0  1  0.000000  0.000000  0.191284  1
  La  La1  1  0.000000  0.000000  0.808799  1
  Al  Al2  1  0.333333  0.666667  0.985959  1
  Si  Si3  1  0.666667  0.333333  0.014228  1
  Br  Br4  1  0.666667  0.333333  0.641807  1
  Br  Br5  1  0.333333  0.666667  0.357925  1
