# generated using pymatgen
data_Ti8Al15Pd2PtRh4
_symmetry_space_group_name_H-M   'P 1'
_cell_length_a   8.67712637
_cell_length_b   8.65630047
_cell_length_c   8.67712616
_cell_angle_alpha   120.05230673
_cell_angle_beta   120.01787735
_cell_angle_gamma   90.00811806
_symmetry_Int_Tables_number   1
_chemical_formula_structural   Ti8Al15Pd2PtRh4
_chemical_formula_sum   'Ti8 Al15 Pd2 Pt1 Rh4'
_cell_volume   460.33801934
_cell_formula_units_Z   1
loop_
 _symmetry_equiv_pos_site_id
 _symmetry_equiv_pos_as_xyz
  1  'x, y, z'
loop_
 _atom_site_type_symbol
 _atom_site_label
 _atom_site_symmetry_multiplicity
 _atom_site_fract_x
 _atom_site_fract_y
 _atom_site_fract_z
 _atom_site_occupancy
  Ti  Ti0  1  0.788148  0.289572  0.073473  1
  Ti  Ti1  1  0.216100  0.289572  0.501425  1
  Ti  Ti2  1  0.210482  0.710694  0.500212  1
  Ti  Ti3  1  0.214170  0.714575  0.924218  1
  Ti  Ti4  1  0.790355  0.714575  0.500403  1
  Ti  Ti5  1  0.784601  0.285321  0.500720  1
  Ti  Ti6  1  0.380967  0.122772  0.741806  1
  Ti  Ti7  1  0.376959  0.636040  0.259082  1
  Al  Al8  1  0.997689  0.496731  0.499042  1
  Al  Al9  1  0.154189  0.344271  0.190080  1
  Al  Al10  1  0.155538  0.968833  0.813294  1
  Al  Al11  1  0.150561  0.345161  0.808108  1
  Al  Al12  1  0.537052  0.345161  0.194601  1
  Al  Al13  1  0.844983  0.653347  0.808365  1
  Al  Al14  1  0.847640  0.038207  0.190567  1
  Al  Al15  1  0.846376  0.653673  0.187013  1
  Al  Al16  1  0.466660  0.653673  0.807297  1
  Al  Al17  1  0.376355  0.123746  0.261434  1
  Al  Al18  1  0.862312  0.123746  0.747391  1
  Al  Al19  1  0.620203  0.878728  0.258524  1
  Al  Al20  1  0.623013  0.363911  0.740899  1
  Al  Al21  1  0.623981  0.876468  0.740585  1
  Al  Al22  1  0.135882  0.876468  0.252487  1
  Pd  Pd23  1  0.997734  0.998601  0.497929  1
  Pd  Pd24  1  0.500672  0.998601  0.000866  1
  Pt  Pt25  1  0.499096  0.500190  0.001094  1
  Rh  Rh26  1  0.498796  0.499531  0.498710  1
  Rh  Rh27  1  0.000820  0.499531  0.000735  1
  Rh  Rh28  1  0.000357  0.999853  0.999496  1
  Rh  Rh29  1  0.498304  0.998449  0.500145  1
