# generated using pymatgen
data_Lu5Sc5(Si2As)2
_symmetry_space_group_name_H-M   'P 1'
_cell_length_a   8.13142535
_cell_length_b   8.11381941
_cell_length_c   5.88905100
_cell_angle_alpha   90.00000000
_cell_angle_beta   90.00000000
_cell_angle_gamma   120.14296345
_symmetry_Int_Tables_number   1
_chemical_formula_structural   Lu5Sc5(Si2As)2
_chemical_formula_sum   'Lu5 Sc5 Si4 As2'
_cell_volume   336.00095946
_cell_formula_units_Z   1
loop_
 _symmetry_equiv_pos_site_id
 _symmetry_equiv_pos_as_xyz
  1  'x, y, z'
loop_
 _atom_site_type_symbol
 _atom_site_label
 _atom_site_symmetry_multiplicity
 _atom_site_fract_x
 _atom_site_fract_y
 _atom_site_fract_z
 _atom_site_occupancy
  Lu  Lu0  1  0.997989  0.754478  0.750000  1
  Lu  Lu1  1  0.997046  0.243609  0.250000  1
  Lu  Lu2  1  0.757714  0.756984  0.250000  1
  Lu  Lu3  1  0.755816  0.000595  0.750000  1
  Lu  Lu4  1  0.243953  0.246786  0.750000  1
  Sc  Sc5  1  0.245875  0.995480  0.250000  1
  Sc  Sc6  1  0.331762  0.666661  0.499279  1
  Sc  Sc7  1  0.669915  0.334844  0.000624  1
  Sc  Sc8  1  0.669915  0.334844  0.499376  1
  Sc  Sc9  1  0.331762  0.666661  0.000721  1
  Si  Si10  1  0.004858  0.608145  0.250000  1
  Si  Si11  1  0.001519  0.398934  0.750000  1
  Si  Si12  1  0.603911  0.603995  0.750000  1
  Si  Si13  1  0.600866  0.999305  0.250000  1
  As  As14  1  0.394547  0.001412  0.750000  1
  As  As15  1  0.392552  0.387265  0.250000  1
