# generated using pymatgen
data_DyY4Er(BO3)6
_symmetry_space_group_name_H-M   'P 1'
_cell_length_a   6.58758066
_cell_length_b   6.59411007
_cell_length_c   9.63899859
_cell_angle_alpha   70.38013960
_cell_angle_beta   70.37902169
_cell_angle_gamma   60.03768890
_symmetry_Int_Tables_number   1
_chemical_formula_structural   DyY4Er(BO3)6
_chemical_formula_sum   'Dy1 Y4 Er1 B6 O18'
_cell_volume   334.36293620
_cell_formula_units_Z   1
loop_
 _symmetry_equiv_pos_site_id
 _symmetry_equiv_pos_as_xyz
  1  'x, y, z'
loop_
 _atom_site_type_symbol
 _atom_site_label
 _atom_site_symmetry_multiplicity
 _atom_site_fract_x
 _atom_site_fract_y
 _atom_site_fract_z
 _atom_site_occupancy
  Dy  Dy0  1  0.829328  0.342331  0.000611  1
  Y  Y1  1  0.000223  0.499870  0.500013  1
  Y  Y2  1  0.500047  0.000032  0.000012  1
  Y  Y3  1  0.170582  0.657774  0.999367  1
  Y  Y4  1  0.342716  0.829089  0.500646  1
  Er  Er5  1  0.657358  0.170937  0.499386  1
  B  B6  1  0.917335  0.843625  0.746123  1
  B  B7  1  0.158102  0.082356  0.752753  1
  B  B8  1  0.081156  0.157105  0.253867  1
  B  B9  1  0.842397  0.918500  0.247478  1
  B  B10  1  0.676593  0.323065  0.749416  1
  B  B11  1  0.324166  0.675624  0.250358  1
  O  O12  1  0.964600  0.784332  0.602517  1
  O  O13  1  0.217384  0.034106  0.896606  1
  O  O14  1  0.032136  0.217263  0.397495  1
  O  O15  1  0.782402  0.966429  0.103774  1
  O  O16  1  0.870167  0.685824  0.887895  1
  O  O17  1  0.316717  0.129967  0.611567  1
  O  O18  1  0.129092  0.313855  0.112101  1
  O  O19  1  0.685424  0.871851  0.389144  1
  O  O20  1  0.519303  0.384463  0.891281  1
  O  O21  1  0.615310  0.479680  0.607665  1
  O  O22  1  0.481831  0.614705  0.108352  1
  O  O23  1  0.387424  0.516115  0.391577  1
  O  O24  1  0.916917  0.299160  0.751907  1
  O  O25  1  0.700210  0.083790  0.746609  1
  O  O26  1  0.083363  0.700713  0.248420  1
  O  O27  1  0.299074  0.916154  0.252563  1
  O  O28  1  0.134475  0.866210  0.749442  1
  O  O29  1  0.864166  0.135074  0.251056  1
