# generated using pymatgen
data_Sm3Ho2Bi3O14
_symmetry_space_group_name_H-M   'P 1'
_cell_length_a   6.64099308
_cell_length_b   6.67829602
_cell_length_c   7.80037411
_cell_angle_alpha   106.73972296
_cell_angle_beta   89.69288499
_cell_angle_gamma   98.69535818
_symmetry_Int_Tables_number   1
_chemical_formula_structural   Sm3Ho2Bi3O14
_chemical_formula_sum   'Sm3 Ho2 Bi3 O14'
_cell_volume   327.21596144
_cell_formula_units_Z   1
loop_
 _symmetry_equiv_pos_site_id
 _symmetry_equiv_pos_as_xyz
  1  'x, y, z'
loop_
 _atom_site_type_symbol
 _atom_site_label
 _atom_site_symmetry_multiplicity
 _atom_site_fract_x
 _atom_site_fract_y
 _atom_site_fract_z
 _atom_site_occupancy
  Sm  Sm0  1  0.270567  0.536912  0.882875  1
  Sm  Sm1  1  0.739118  0.457852  0.113613  1
  Sm  Sm2  1  0.746233  0.479956  0.618324  1
  Ho  Ho3  1  0.460265  0.008809  0.255128  1
  Ho  Ho4  1  0.537202  0.999076  0.749203  1
  Bi  Bi5  1  0.994197  0.999164  0.500239  1
  Bi  Bi6  1  0.999010  0.996077  0.997716  1
  Bi  Bi7  1  0.283797  0.536741  0.388669  1
  O  O8  1  0.450841  0.658479  0.171738  1
  O  O9  1  0.555384  0.348244  0.833432  1
  O  O10  1  0.303037  0.927670  0.951431  1
  O  O11  1  0.697043  0.069069  0.050493  1
  O  O12  1  0.298098  0.934775  0.517897  1
  O  O13  1  0.697277  0.078663  0.488958  1
  O  O14  1  0.544374  0.358054  0.342978  1
  O  O15  1  0.460706  0.646151  0.655785  1
  O  O16  1  0.927571  0.662666  0.946250  1
  O  O17  1  0.068323  0.323224  0.031174  1
  O  O18  1  0.067554  0.335928  0.625469  1
  O  O19  1  0.909443  0.665234  0.383960  1
  O  O20  1  0.869846  0.907633  0.727347  1
  O  O21  1  0.120113  0.069625  0.267322  1
