# generated using pymatgen
data_Hf2Co9B6W
_symmetry_space_group_name_H-M   'P 1'
_cell_length_a   5.65578156
_cell_length_b   5.65578211
_cell_length_c   5.65578219
_cell_angle_alpha   95.51904051
_cell_angle_beta   95.51905097
_cell_angle_gamma   95.51906178
_symmetry_Int_Tables_number   1
_chemical_formula_structural   Hf2Co9B6W
_chemical_formula_sum   'Hf2 Co9 B6 W1'
_cell_volume   178.22524542
_cell_formula_units_Z   1
loop_
 _symmetry_equiv_pos_site_id
 _symmetry_equiv_pos_as_xyz
  1  'x, y, z'
loop_
 _atom_site_type_symbol
 _atom_site_label
 _atom_site_symmetry_multiplicity
 _atom_site_fract_x
 _atom_site_fract_y
 _atom_site_fract_z
 _atom_site_occupancy
  Hf  Hf0  1  0.680857  0.680857  0.680857  1
  Hf  Hf1  1  0.319143  0.319143  0.319143  1
  Co  Co2  1  0.000000  0.000000  0.500000  1
  Co  Co3  1  0.500000  0.000000  0.000000  1
  Co  Co4  1  0.000000  0.500000  0.000000  1
  Co  Co5  1  0.702801  0.200049  0.702801  1
  Co  Co6  1  0.702801  0.702801  0.200049  1
  Co  Co7  1  0.200049  0.702801  0.702801  1
  Co  Co8  1  0.297199  0.799951  0.297199  1
  Co  Co9  1  0.297199  0.297199  0.799951  1
  Co  Co10  1  0.799951  0.297199  0.297199  1
  B  B11  1  0.615637  0.384363  0.000000  1
  B  B12  1  0.000000  0.615637  0.384363  1
  B  B13  1  0.384363  0.000000  0.615637  1
  B  B14  1  0.000000  0.384363  0.615637  1
  B  B15  1  0.615637  0.000000  0.384363  1
  B  B16  1  0.384363  0.615637  0.000000  1
  W  W17  1  0.000000  0.000000  0.000000  1
