# generated using pymatgen
data_Hf6Ti4Ga12Ir5Rh2
_symmetry_space_group_name_H-M   'P 1'
_cell_length_a   8.77341545
_cell_length_b   8.77341560
_cell_length_c   8.77180350
_cell_angle_alpha   60.03755497
_cell_angle_beta   60.03755264
_cell_angle_gamma   59.97671868
_symmetry_Int_Tables_number   1
_chemical_formula_structural   Hf6Ti4Ga12Ir5Rh2
_chemical_formula_sum   'Hf6 Ti4 Ga12 Ir5 Rh2'
_cell_volume   477.61836719
_cell_formula_units_Z   1
loop_
 _symmetry_equiv_pos_site_id
 _symmetry_equiv_pos_as_xyz
  1  'x, y, z'
loop_
 _atom_site_type_symbol
 _atom_site_label
 _atom_site_symmetry_multiplicity
 _atom_site_fract_x
 _atom_site_fract_y
 _atom_site_fract_z
 _atom_site_occupancy
  Hf  Hf0  1  0.690875  0.690875  0.309685  1
  Hf  Hf1  1  0.308238  0.691182  0.308666  1
  Hf  Hf2  1  0.691182  0.308238  0.308666  1
  Hf  Hf3  1  0.308950  0.308950  0.690302  1
  Hf  Hf4  1  0.691681  0.309040  0.690916  1
  Hf  Hf5  1  0.309040  0.691681  0.690916  1
  Ti  Ti6  1  0.878492  0.878492  0.364653  1
  Ti  Ti7  1  0.878154  0.364344  0.878258  1
  Ti  Ti8  1  0.364344  0.878154  0.878258  1
  Ti  Ti9  1  0.879033  0.879033  0.877984  1
  Ga  Ga10  1  0.119649  0.119649  0.641056  1
  Ga  Ga11  1  0.119503  0.640890  0.119376  1
  Ga  Ga12  1  0.640890  0.119503  0.119376  1
  Ga  Ga13  1  0.120058  0.120058  0.119199  1
  Ga  Ga14  1  0.659392  0.659392  0.024352  1
  Ga  Ga15  1  0.657603  0.024494  0.660306  1
  Ga  Ga16  1  0.024494  0.657603  0.660306  1
  Ga  Ga17  1  0.658450  0.658450  0.658567  1
  Ga  Ga18  1  0.340818  0.340818  0.975954  1
  Ga  Ga19  1  0.341757  0.976166  0.340138  1
  Ga  Ga20  1  0.976166  0.341757  0.340138  1
  Ga  Ga21  1  0.341234  0.341234  0.341069  1
  Ir  Ir22  1  0.000176  0.000176  0.999707  1
  Ir  Ir23  1  0.997609  0.997609  0.502716  1
  Ir  Ir24  1  0.502038  0.997763  0.502631  1
  Ir  Ir25  1  0.997763  0.502038  0.502631  1
  Ir  Ir26  1  0.502490  0.502490  0.997718  1
  Rh  Rh27  1  0.998062  0.501860  0.998230  1
  Rh  Rh28  1  0.501860  0.998062  0.998230  1
