# generated using pymatgen
data_YbY3(SiPt2)4
_symmetry_space_group_name_H-M   'P 1'
_cell_length_a   5.52919001
_cell_length_b   6.96922100
_cell_length_c   7.34254501
_cell_angle_alpha   90.00000000
_cell_angle_beta   90.00736759
_cell_angle_gamma   90.00000000
_symmetry_Int_Tables_number   1
_chemical_formula_structural   YbY3(SiPt2)4
_chemical_formula_sum   'Yb1 Y3 Si4 Pt8'
_cell_volume   282.93870768
_cell_formula_units_Z   1
loop_
 _symmetry_equiv_pos_site_id
 _symmetry_equiv_pos_as_xyz
  1  'x, y, z'
loop_
 _atom_site_type_symbol
 _atom_site_label
 _atom_site_symmetry_multiplicity
 _atom_site_fract_x
 _atom_site_fract_y
 _atom_site_fract_z
 _atom_site_occupancy
  Yb  Yb0  1  0.865623  0.250000  0.523250  1
  Y  Y1  1  0.132500  0.750000  0.474544  1
  Y  Y2  1  0.366725  0.750000  0.975269  1
  Y  Y3  1  0.634044  0.250000  0.026107  1
  Si  Si4  1  0.133157  0.250000  0.876167  1
  Si  Si5  1  0.366991  0.250000  0.381365  1
  Si  Si6  1  0.632206  0.750000  0.621184  1
  Si  Si7  1  0.867117  0.750000  0.121510  1
  Pt  Pt8  1  0.098230  0.051682  0.179480  1
  Pt  Pt9  1  0.098230  0.448318  0.179480  1
  Pt  Pt10  1  0.405427  0.050833  0.678673  1
  Pt  Pt11  1  0.405427  0.449167  0.678673  1
  Pt  Pt12  1  0.593278  0.550855  0.319480  1
  Pt  Pt13  1  0.593278  0.949145  0.319480  1
  Pt  Pt14  1  0.903883  0.551594  0.822668  1
  Pt  Pt15  1  0.903883  0.948406  0.822668  1
