# generated using pymatgen
data_Np3PtF24
_symmetry_space_group_name_H-M   'P 1'
_cell_length_a   5.56790768
_cell_length_b   9.47315600
_cell_length_c   10.44534405
_cell_angle_alpha   90.00000000
_cell_angle_beta   90.89652868
_cell_angle_gamma   90.00000000
_symmetry_Int_Tables_number   1
_chemical_formula_structural   Np3PtF24
_chemical_formula_sum   'Np3 Pt1 F24'
_cell_volume   550.87909941
_cell_formula_units_Z   1
loop_
 _symmetry_equiv_pos_site_id
 _symmetry_equiv_pos_as_xyz
  1  'x, y, z'
loop_
 _atom_site_type_symbol
 _atom_site_label
 _atom_site_symmetry_multiplicity
 _atom_site_fract_x
 _atom_site_fract_y
 _atom_site_fract_z
 _atom_site_occupancy
  Np  Np0  1  0.068017  0.250000  0.867136  1
  Np  Np1  1  0.566478  0.750000  0.631908  1
  Np  Np2  1  0.932289  0.750000  0.134261  1
  Pt  Pt3  1  0.433177  0.250000  0.366395  1
  F  F4  1  0.204180  0.750000  0.010311  1
  F  F5  1  0.400547  0.899236  0.734023  1
  F  F6  1  0.100069  0.600945  0.237254  1
  F  F7  1  0.291538  0.750000  0.505644  1
  F  F8  1  0.660353  0.750000  0.258127  1
  F  F9  1  0.900284  0.400056  0.764064  1
  F  F10  1  0.173232  0.250000  0.245656  1
  F  F11  1  0.400547  0.600764  0.734023  1
  F  F12  1  0.840335  0.750000  0.759732  1
  F  F13  1  0.275852  0.107860  0.463098  1
  F  F14  1  0.590132  0.392272  0.269719  1
  F  F15  1  0.734253  0.898615  0.530859  1
  F  F16  1  0.340774  0.250000  0.744385  1
  F  F17  1  0.100069  0.899055  0.237254  1
  F  F18  1  0.275852  0.392140  0.463098  1
  F  F19  1  0.235014  0.099647  0.970188  1
  F  F20  1  0.692550  0.250000  0.487064  1
  F  F21  1  0.795685  0.250000  0.990063  1
  F  F22  1  0.900284  0.099944  0.764064  1
  F  F23  1  0.235014  0.400353  0.970188  1
  F  F24  1  0.764543  0.600460  0.030456  1
  F  F25  1  0.764543  0.899540  0.030456  1
  F  F26  1  0.734253  0.601385  0.530859  1
  F  F27  1  0.590132  0.107728  0.269719  1
