# generated using pymatgen
data_SmDyHo(Co3P2)3
_symmetry_space_group_name_H-M   'P 1'
_cell_length_a   3.70504600
_cell_length_b   10.52418100
_cell_length_c   12.19506300
_cell_angle_alpha   90.00000000
_cell_angle_beta   90.00000000
_cell_angle_gamma   90.00000000
_symmetry_Int_Tables_number   1
_chemical_formula_structural   SmDyHo(Co3P2)3
_chemical_formula_sum   'Sm2 Dy2 Ho2 Co18 P12'
_cell_volume   475.51690521
_cell_formula_units_Z   2
loop_
 _symmetry_equiv_pos_site_id
 _symmetry_equiv_pos_as_xyz
  1  'x, y, z'
loop_
 _atom_site_type_symbol
 _atom_site_label
 _atom_site_symmetry_multiplicity
 _atom_site_fract_x
 _atom_site_fract_y
 _atom_site_fract_z
 _atom_site_occupancy
  Sm  Sm0  1  0.000000  0.500000  0.521921  1
  Sm  Sm1  1  0.500000  0.000000  0.478250  1
  Dy  Dy2  1  0.500000  0.817495  0.205208  1
  Dy  Dy3  1  0.500000  0.182505  0.205208  1
  Ho  Ho4  1  0.000000  0.682295  0.794737  1
  Ho  Ho5  1  0.000000  0.317705  0.794737  1
  Co  Co6  1  0.000000  0.500000  0.986297  1
  Co  Co7  1  0.500000  0.000000  0.013132  1
  Co  Co8  1  0.500000  0.296970  0.429682  1
  Co  Co9  1  0.500000  0.703030  0.429682  1
  Co  Co10  1  0.000000  0.203186  0.570630  1
  Co  Co11  1  0.000000  0.796814  0.570630  1
  Co  Co12  1  0.500000  0.879270  0.711719  1
  Co  Co13  1  0.500000  0.120730  0.711719  1
  Co  Co14  1  0.000000  0.620429  0.288381  1
  Co  Co15  1  0.000000  0.379571  0.288381  1
  Co  Co16  1  0.500000  0.333507  0.994869  1
  Co  Co17  1  0.500000  0.666493  0.994869  1
  Co  Co18  1  0.000000  0.166904  0.004778  1
  Co  Co19  1  0.000000  0.833096  0.004778  1
  Co  Co20  1  0.500000  0.500000  0.157455  1
  Co  Co21  1  0.000000  0.000000  0.842569  1
  Co  Co22  1  0.500000  0.500000  0.705613  1
  Co  Co23  1  0.000000  0.000000  0.294638  1
  P  P24  1  0.500000  0.308866  0.617175  1
  P  P25  1  0.500000  0.691134  0.617175  1
  P  P26  1  0.000000  0.191350  0.383287  1
  P  P27  1  0.000000  0.808650  0.383287  1
  P  P28  1  0.500000  0.500000  0.883275  1
  P  P29  1  0.000000  0.000000  0.116302  1
  P  P30  1  0.500000  0.846517  0.893648  1
  P  P31  1  0.500000  0.153483  0.893648  1
  P  P32  1  0.000000  0.652899  0.106148  1
  P  P33  1  0.000000  0.347101  0.106148  1
  P  P34  1  0.500000  0.500000  0.341146  1
  P  P35  1  0.000000  0.000000  0.658877  1
