# generated using pymatgen
data_Ca12Si8Ni7Pd
_symmetry_space_group_name_H-M   'P 1'
_cell_length_a   5.62935193
_cell_length_b   7.89772279
_cell_length_c   12.76824277
_cell_angle_alpha   89.94445100
_cell_angle_beta   90.37062591
_cell_angle_gamma   90.13046988
_symmetry_Int_Tables_number   1
_chemical_formula_structural   Ca12Si8Ni7Pd
_chemical_formula_sum   'Ca12 Si8 Ni7 Pd1'
_cell_volume   567.65047693
_cell_formula_units_Z   1
loop_
 _symmetry_equiv_pos_site_id
 _symmetry_equiv_pos_as_xyz
  1  'x, y, z'
loop_
 _atom_site_type_symbol
 _atom_site_label
 _atom_site_symmetry_multiplicity
 _atom_site_fract_x
 _atom_site_fract_y
 _atom_site_fract_z
 _atom_site_occupancy
  Ca  Ca0  1  0.136638  0.615740  0.102206  1
  Ca  Ca1  1  0.132879  0.886338  0.896109  1
  Ca  Ca2  1  0.866605  0.112805  0.395486  1
  Ca  Ca3  1  0.866810  0.384930  0.606086  1
  Ca  Ca4  1  0.869146  0.386511  0.897258  1
  Ca  Ca5  1  0.870722  0.109866  0.101622  1
  Ca  Ca6  1  0.127394  0.887308  0.605141  1
  Ca  Ca7  1  0.133262  0.615412  0.395851  1
  Ca  Ca8  1  0.352408  0.261157  0.247412  1
  Ca  Ca9  1  0.348173  0.238817  0.751983  1
  Ca  Ca10  1  0.653028  0.761103  0.247573  1
  Ca  Ca11  1  0.649662  0.738168  0.751361  1
  Si  Si12  1  0.404595  0.249392  0.999252  1
  Si  Si13  1  0.592031  0.758320  0.504992  1
  Si  Si14  1  0.597448  0.750352  0.999239  1
  Si  Si15  1  0.390426  0.244282  0.504923  1
  Si  Si16  1  0.829103  0.410003  0.241349  1
  Si  Si17  1  0.814618  0.086534  0.751666  1
  Si  Si18  1  0.186132  0.913047  0.249874  1
  Si  Si19  1  0.181789  0.587095  0.750715  1
  Ni  Ni20  1  0.620410  0.477066  0.082631  1
  Ni  Ni21  1  0.617214  0.022900  0.914719  1
  Ni  Ni22  1  0.379259  0.977246  0.415781  1
  Ni  Ni23  1  0.376815  0.523610  0.588078  1
  Ni  Ni24  1  0.382204  0.522554  0.914523  1
  Ni  Ni25  1  0.383045  0.976758  0.084732  1
  Ni  Ni26  1  0.614685  0.026068  0.587759  1
  Pd  Pd27  1  0.623499  0.476616  0.411680  1
