# generated using pymatgen
data_Sc6Co5CuSn6
_symmetry_space_group_name_H-M   'P 1'
_cell_length_a   7.35077900
_cell_length_b   7.35077758
_cell_length_c   6.83278700
_cell_angle_alpha   90.00000000
_cell_angle_beta   90.00000000
_cell_angle_gamma   120.00000189
_symmetry_Int_Tables_number   1
_chemical_formula_structural   Sc6Co5CuSn6
_chemical_formula_sum   'Sc6 Co5 Cu1 Sn6'
_cell_volume   319.73866253
_cell_formula_units_Z   1
loop_
 _symmetry_equiv_pos_site_id
 _symmetry_equiv_pos_as_xyz
  1  'x, y, z'
loop_
 _atom_site_type_symbol
 _atom_site_label
 _atom_site_symmetry_multiplicity
 _atom_site_fract_x
 _atom_site_fract_y
 _atom_site_fract_z
 _atom_site_occupancy
  Sc  Sc0  1  0.388572  0.989800  0.244740  1
  Sc  Sc1  1  0.601227  0.611428  0.244740  1
  Sc  Sc2  1  0.010200  0.398773  0.244740  1
  Sc  Sc3  1  0.388438  0.989557  0.755204  1
  Sc  Sc4  1  0.601119  0.611562  0.755204  1
  Sc  Sc5  1  0.010443  0.398881  0.755204  1
  Co  Co6  1  0.000000  0.000000  0.765433  1
  Co  Co7  1  0.000000  0.000000  0.234478  1
  Co  Co8  1  0.666667  0.333333  0.999234  1
  Co  Co9  1  0.333333  0.666667  0.499593  1
  Co  Co10  1  0.333333  0.666667  0.000336  1
  Cu  Cu11  1  0.666667  0.333333  0.501397  1
  Sn  Sn12  1  0.281155  0.275227  0.999941  1
  Sn  Sn13  1  0.994072  0.718845  0.999941  1
  Sn  Sn14  1  0.000500  0.734462  0.499957  1
  Sn  Sn15  1  0.733961  0.999500  0.499957  1
  Sn  Sn16  1  0.265538  0.266039  0.499957  1
  Sn  Sn17  1  0.724773  0.005928  0.999941  1
