# generated using pymatgen
data_DyErTm2(ReB6)2
_symmetry_space_group_name_H-M   'P 1'
_cell_length_a   3.65384400
_cell_length_b   9.12217500
_cell_length_c   11.50154400
_cell_angle_alpha   89.99974984
_cell_angle_beta   90.00000000
_cell_angle_gamma   90.00000000
_symmetry_Int_Tables_number   1
_chemical_formula_structural   DyErTm2(ReB6)2
_chemical_formula_sum   'Dy2 Er2 Tm4 Re4 B24'
_cell_volume   383.35801356
_cell_formula_units_Z   2
loop_
 _symmetry_equiv_pos_site_id
 _symmetry_equiv_pos_as_xyz
  1  'x, y, z'
loop_
 _atom_site_type_symbol
 _atom_site_label
 _atom_site_symmetry_multiplicity
 _atom_site_fract_x
 _atom_site_fract_y
 _atom_site_fract_z
 _atom_site_occupancy
  Dy  Dy0  1  0.000000  0.323367  0.413824  1
  Dy  Dy1  1  0.000000  0.676633  0.586176  1
  Er  Er2  1  0.000000  0.823529  0.086093  1
  Er  Er3  1  0.000000  0.176471  0.913907  1
  Tm  Tm4  1  0.000000  0.943454  0.370126  1
  Tm  Tm5  1  0.000000  0.056546  0.629874  1
  Tm  Tm6  1  0.000000  0.443513  0.129604  1
  Tm  Tm7  1  0.000000  0.556487  0.870396  1
  Re  Re8  1  0.000000  0.639381  0.320248  1
  Re  Re9  1  0.000000  0.360619  0.679752  1
  Re  Re10  1  0.000000  0.138955  0.179208  1
  Re  Re11  1  0.000000  0.861045  0.820792  1
  B  B12  1  0.500000  0.553627  0.432829  1
  B  B13  1  0.500000  0.446373  0.567171  1
  B  B14  1  0.500000  0.053383  0.066833  1
  B  B15  1  0.500000  0.946617  0.933167  1
  B  B16  1  0.500000  0.750289  0.418741  1
  B  B17  1  0.500000  0.249711  0.581259  1
  B  B18  1  0.500000  0.250170  0.080875  1
  B  B19  1  0.500000  0.749830  0.919125  1
  B  B20  1  0.500000  0.793064  0.265374  1
  B  B21  1  0.500000  0.206936  0.734626  1
  B  B22  1  0.500000  0.292901  0.234283  1
  B  B23  1  0.500000  0.707099  0.765717  1
  B  B24  1  0.500000  0.630969  0.185044  1
  B  B25  1  0.500000  0.369031  0.814956  1
  B  B26  1  0.500000  0.130706  0.314648  1
  B  B27  1  0.500000  0.869294  0.685352  1
  B  B28  1  0.500000  0.981905  0.212142  1
  B  B29  1  0.500000  0.018095  0.787858  1
  B  B30  1  0.500000  0.482227  0.287569  1
  B  B31  1  0.500000  0.517773  0.712431  1
  B  B32  1  0.500000  0.599546  0.027800  1
  B  B33  1  0.500000  0.400454  0.972200  1
  B  B34  1  0.500000  0.099118  0.472316  1
  B  B35  1  0.500000  0.900882  0.527684  1
