# generated using pymatgen
data_Cs2Se5O16
_symmetry_space_group_name_H-M   'P 1'
_cell_length_a   10.39840400
_cell_length_b   12.25572600
_cell_length_c   16.34835800
_cell_angle_alpha   90.00000000
_cell_angle_beta   90.00000000
_cell_angle_gamma   90.00000000
_symmetry_Int_Tables_number   1
_chemical_formula_structural   Cs2Se5O16
_chemical_formula_sum   'Cs8 Se20 O64'
_cell_volume   2083.43458431
_cell_formula_units_Z   4
loop_
 _symmetry_equiv_pos_site_id
 _symmetry_equiv_pos_as_xyz
  1  'x, y, z'
loop_
 _atom_site_type_symbol
 _atom_site_label
 _atom_site_symmetry_multiplicity
 _atom_site_fract_x
 _atom_site_fract_y
 _atom_site_fract_z
 _atom_site_occupancy
  Cs  Cs0  1  0.241809  0.011170  0.047370  1
  Cs  Cs1  1  0.741809  0.488830  0.952630  1
  Cs  Cs2  1  0.758191  0.011170  0.452630  1
  Cs  Cs3  1  0.258191  0.488830  0.547370  1
  Cs  Cs4  1  0.758191  0.988830  0.952630  1
  Cs  Cs5  1  0.258191  0.511170  0.047370  1
  Cs  Cs6  1  0.241809  0.988830  0.547370  1
  Cs  Cs7  1  0.741809  0.511170  0.452630  1
  Se  Se8  1  0.000000  0.169567  0.250000  1
  Se  Se9  1  0.500000  0.330433  0.750000  1
  Se  Se10  1  0.000000  0.830433  0.750000  1
  Se  Se11  1  0.500000  0.669567  0.250000  1
  Se  Se12  1  0.217696  0.347477  0.296635  1
  Se  Se13  1  0.717696  0.152523  0.703365  1
  Se  Se14  1  0.782304  0.347477  0.203365  1
  Se  Se15  1  0.282304  0.152523  0.796635  1
  Se  Se16  1  0.929611  0.751601  0.074325  1
  Se  Se17  1  0.429611  0.748399  0.925675  1
  Se  Se18  1  0.070389  0.751601  0.425675  1
  Se  Se19  1  0.570389  0.748399  0.574325  1
  Se  Se20  1  0.070389  0.248399  0.925675  1
  Se  Se21  1  0.570389  0.251601  0.074325  1
  Se  Se22  1  0.929611  0.248399  0.574325  1
  Se  Se23  1  0.429611  0.251601  0.425675  1
  Se  Se24  1  0.717696  0.847477  0.203365  1
  Se  Se25  1  0.217696  0.652523  0.796635  1
  Se  Se26  1  0.282304  0.847477  0.296635  1
  Se  Se27  1  0.782304  0.652523  0.703365  1
  O  O28  1  0.606862  0.605595  0.303576  1
  O  O29  1  0.106862  0.894405  0.696424  1
  O  O30  1  0.393138  0.605595  0.196424  1
  O  O31  1  0.893138  0.894405  0.803576  1
  O  O32  1  0.393138  0.394405  0.696424  1
  O  O33  1  0.893138  0.105595  0.303576  1
  O  O34  1  0.606862  0.394405  0.803576  1
  O  O35  1  0.106862  0.105595  0.196424  1
  O  O36  1  0.708188  0.870350  0.300709  1
  O  O37  1  0.208188  0.629650  0.699291  1
  O  O38  1  0.291812  0.870350  0.199291  1
  O  O39  1  0.791812  0.629650  0.800709  1
  O  O40  1  0.291812  0.129650  0.699291  1
  O  O41  1  0.791812  0.370350  0.300709  1
  O  O42  1  0.708188  0.129650  0.800709  1
  O  O43  1  0.208188  0.370350  0.199291  1
  O  O44  1  0.701808  0.943237  0.135683  1
  O  O45  1  0.201808  0.556763  0.864317  1
  O  O46  1  0.298192  0.943237  0.364317  1
  O  O47  1  0.798192  0.556763  0.635683  1
  O  O48  1  0.298192  0.056763  0.864317  1
  O  O49  1  0.798192  0.443237  0.135683  1
  O  O50  1  0.971740  0.347375  0.903139  1
  O  O51  1  0.701808  0.056763  0.635683  1
  O  O52  1  0.028260  0.652625  0.096861  1
  O  O53  1  0.528260  0.847375  0.903139  1
  O  O54  1  0.971740  0.652625  0.403139  1
  O  O55  1  0.471740  0.847375  0.596861  1
  O  O56  1  0.075464  0.259215  0.322876  1
  O  O57  1  0.575464  0.240785  0.677124  1
  O  O58  1  0.924536  0.259215  0.177124  1
  O  O59  1  0.424536  0.240785  0.822876  1
  O  O60  1  0.924536  0.740785  0.677124  1
  O  O61  1  0.424536  0.759215  0.322876  1
  O  O62  1  0.075464  0.740785  0.822876  1
  O  O63  1  0.575464  0.759215  0.177124  1
  O  O64  1  0.347266  0.261840  0.314270  1
  O  O65  1  0.847266  0.238160  0.685730  1
  O  O66  1  0.652734  0.261840  0.185730  1
  O  O67  1  0.152734  0.238160  0.814270  1
  O  O68  1  0.652734  0.738160  0.685730  1
  O  O69  1  0.152734  0.761840  0.314270  1
  O  O70  1  0.347266  0.738160  0.814270  1
  O  O71  1  0.847266  0.761840  0.185730  1
  O  O72  1  0.488343  0.374450  0.438593  1
  O  O73  1  0.988343  0.125550  0.561407  1
  O  O74  1  0.511657  0.374450  0.061407  1
  O  O75  1  0.011657  0.125550  0.938593  1
  O  O76  1  0.511657  0.625550  0.561407  1
  O  O77  1  0.011657  0.874450  0.438593  1
  O  O78  1  0.488343  0.625550  0.938593  1
  O  O79  1  0.988343  0.874450  0.061407  1
  O  O80  1  0.306107  0.222988  0.484275  1
  O  O81  1  0.806107  0.277012  0.515725  1
  O  O82  1  0.693893  0.222988  0.015725  1
  O  O83  1  0.193893  0.277012  0.984275  1
  O  O84  1  0.693893  0.777012  0.515725  1
  O  O85  1  0.193893  0.722988  0.484275  1
  O  O86  1  0.306107  0.777012  0.984275  1
  O  O87  1  0.806107  0.722988  0.015725  1
  O  O88  1  0.528260  0.152625  0.403139  1
  O  O89  1  0.028260  0.347375  0.596861  1
  O  O90  1  0.471740  0.152625  0.096861  1
  O  O91  1  0.201808  0.443237  0.364317  1
