# generated using pymatgen
data_Sr10HgBi6P
_symmetry_space_group_name_H-M   'P 1'
_cell_length_a   9.84435900
_cell_length_b   9.84435877
_cell_length_c   7.74865900
_cell_angle_alpha   90.00000000
_cell_angle_beta   90.00000000
_cell_angle_gamma   119.99999742
_symmetry_Int_Tables_number   1
_chemical_formula_structural   Sr10HgBi6P
_chemical_formula_sum   'Sr10 Hg1 Bi6 P1'
_cell_volume   650.32742319
_cell_formula_units_Z   1
loop_
 _symmetry_equiv_pos_site_id
 _symmetry_equiv_pos_as_xyz
  1  'x, y, z'
loop_
 _atom_site_type_symbol
 _atom_site_label
 _atom_site_symmetry_multiplicity
 _atom_site_fract_x
 _atom_site_fract_y
 _atom_site_fract_z
 _atom_site_occupancy
  Sr  Sr0  1  0.666667  0.333333  0.000000  1
  Sr  Sr1  1  0.333333  0.666667  0.000000  1
  Sr  Sr2  1  0.333333  0.666667  0.500000  1
  Sr  Sr3  1  0.666667  0.333333  0.500000  1
  Sr  Sr4  1  0.748293  0.748293  0.787432  1
  Sr  Sr5  1  0.251707  0.000000  0.787432  1
  Sr  Sr6  1  0.000000  0.251707  0.787432  1
  Sr  Sr7  1  0.251707  0.251707  0.212568  1
  Sr  Sr8  1  0.748293  0.000000  0.212568  1
  Sr  Sr9  1  0.000000  0.748293  0.212568  1
  Hg  Hg10  1  0.000000  0.000000  0.500000  1
  Bi  Bi11  1  0.398295  0.398295  0.748078  1
  Bi  Bi12  1  0.601705  0.000000  0.748078  1
  Bi  Bi13  1  0.000000  0.601705  0.748078  1
  Bi  Bi14  1  0.601705  0.601705  0.251922  1
  Bi  Bi15  1  0.398295  0.000000  0.251922  1
  Bi  Bi16  1  0.000000  0.398295  0.251922  1
  P  P17  1  0.000000  0.000000  0.000000  1
