# generated using pymatgen
data_Ti7V5ZnSn9
_symmetry_space_group_name_H-M   'P 1'
_cell_length_a   9.15420860
_cell_length_b   9.15420854
_cell_length_c   5.51490471
_cell_angle_alpha   89.95008879
_cell_angle_beta   90.04990808
_cell_angle_gamma   120.04643829
_symmetry_Int_Tables_number   1
_chemical_formula_structural   Ti7V5ZnSn9
_chemical_formula_sum   'Ti7 V5 Zn1 Sn9'
_cell_volume   400.04294526
_cell_formula_units_Z   1
loop_
 _symmetry_equiv_pos_site_id
 _symmetry_equiv_pos_as_xyz
  1  'x, y, z'
loop_
 _atom_site_type_symbol
 _atom_site_label
 _atom_site_symmetry_multiplicity
 _atom_site_fract_x
 _atom_site_fract_y
 _atom_site_fract_z
 _atom_site_occupancy
  Ti  Ti0  1  0.847748  0.690051  0.746409  1
  Ti  Ti1  1  0.155407  0.844593  0.255904  1
  Ti  Ti2  1  0.690051  0.847748  0.253591  1
  Ti  Ti3  1  0.309949  0.152252  0.746409  1
  Ti  Ti4  1  0.844593  0.155407  0.744096  1
  Ti  Ti5  1  0.152252  0.309949  0.253591  1
  Ti  Ti6  1  0.500000  0.500000  0.000000  1
  V  V7  1  0.500000  0.000000  0.500000  1
  V  V8  1  0.000000  0.500000  0.000000  1
  V  V9  1  0.000000  0.500000  0.500000  1
  V  V10  1  0.500000  0.000000  0.000000  1
  V  V11  1  0.500000  0.500000  0.500000  1
  Zn  Zn12  1  0.000000  0.000000  0.500000  1
  Sn  Sn13  1  0.202734  0.408419  0.747895  1
  Sn  Sn14  1  0.794124  0.205876  0.248232  1
  Sn  Sn15  1  0.408419  0.202734  0.252105  1
  Sn  Sn16  1  0.591581  0.797266  0.747895  1
  Sn  Sn17  1  0.205876  0.794124  0.751768  1
  Sn  Sn18  1  0.797266  0.591581  0.252105  1
  Sn  Sn19  1  0.667499  0.332501  0.745759  1
  Sn  Sn20  1  0.332501  0.667499  0.254241  1
  Sn  Sn21  1  0.000000  0.000000  0.000000  1
