# generated using pymatgen
data_Sc2Ni12GeP6
_symmetry_space_group_name_H-M   'P 1'
_cell_length_a   9.03664200
_cell_length_b   9.03664067
_cell_length_c   3.60157000
_cell_angle_alpha   90.00000000
_cell_angle_beta   90.00000000
_cell_angle_gamma   120.00000487
_symmetry_Int_Tables_number   1
_chemical_formula_structural   Sc2Ni12GeP6
_chemical_formula_sum   'Sc2 Ni12 Ge1 P6'
_cell_volume   254.70446680
_cell_formula_units_Z   1
loop_
 _symmetry_equiv_pos_site_id
 _symmetry_equiv_pos_as_xyz
  1  'x, y, z'
loop_
 _atom_site_type_symbol
 _atom_site_label
 _atom_site_symmetry_multiplicity
 _atom_site_fract_x
 _atom_site_fract_y
 _atom_site_fract_z
 _atom_site_occupancy
  Sc  Sc0  1  0.000000  0.000000  0.000000  1
  Sc  Sc1  1  0.333333  0.666667  0.500000  1
  Ni  Ni2  1  0.103780  0.396516  0.000000  1
  Ni  Ni3  1  0.292736  0.896220  0.000000  1
  Ni  Ni4  1  0.603484  0.707264  0.000000  1
  Ni  Ni5  1  0.831474  0.623751  0.000000  1
  Ni  Ni6  1  0.792278  0.168526  0.000000  1
  Ni  Ni7  1  0.376249  0.207722  0.000000  1
  Ni  Ni8  1  0.053052  0.769924  0.500000  1
  Ni  Ni9  1  0.716873  0.946948  0.500000  1
  Ni  Ni10  1  0.230076  0.283127  0.500000  1
  Ni  Ni11  1  0.902068  0.433900  0.500000  1
  Ni  Ni12  1  0.531833  0.097932  0.500000  1
  Ni  Ni13  1  0.566100  0.468167  0.500000  1
  Ge  Ge14  1  0.666667  0.333333  0.000000  1
  P  P15  1  0.079530  0.626376  0.000000  1
  P  P16  1  0.546846  0.920470  0.000000  1
  P  P17  1  0.373624  0.453154  0.000000  1
  P  P18  1  0.786284  0.745580  0.500000  1
  P  P19  1  0.959295  0.213716  0.500000  1
  P  P20  1  0.254420  0.040705  0.500000  1
