# generated using pymatgen
data_Yb2Th2As4PdPt3
_symmetry_space_group_name_H-M   'P 1'
_cell_length_a   4.35419400
_cell_length_b   4.35419483
_cell_length_c   15.61626600
_cell_angle_alpha   90.00000000
_cell_angle_beta   90.00000000
_cell_angle_gamma   120.00000888
_symmetry_Int_Tables_number   1
_chemical_formula_structural   Yb2Th2As4PdPt3
_chemical_formula_sum   'Yb2 Th2 As4 Pd1 Pt3'
_cell_volume   256.40318982
_cell_formula_units_Z   1
loop_
 _symmetry_equiv_pos_site_id
 _symmetry_equiv_pos_as_xyz
  1  'x, y, z'
loop_
 _atom_site_type_symbol
 _atom_site_label
 _atom_site_symmetry_multiplicity
 _atom_site_fract_x
 _atom_site_fract_y
 _atom_site_fract_z
 _atom_site_occupancy
  Yb  Yb0  1  0.000000  0.000000  0.250157  1
  Yb  Yb1  1  0.000000  0.000000  0.749796  1
  Th  Th2  1  0.000000  0.000000  0.500194  1
  Th  Th3  1  0.000000  0.000000  0.999910  1
  As  As4  1  0.333333  0.666667  0.881562  1
  As  As5  1  0.666667  0.333333  0.119241  1
  As  As6  1  0.666667  0.333333  0.384481  1
  As  As7  1  0.333333  0.666667  0.618263  1
  Pd  Pd8  1  0.333333  0.666667  0.364881  1
  Pt  Pt9  1  0.666667  0.333333  0.630869  1
  Pt  Pt10  1  0.666667  0.333333  0.869386  1
  Pt  Pt11  1  0.333333  0.666667  0.131259  1
