# generated using pymatgen
data_TbLuU2(ReB6)2
_symmetry_space_group_name_H-M   'P 1'
_cell_length_a   3.62662900
_cell_length_b   9.28029781
_cell_length_c   11.40232344
_cell_angle_alpha   89.91092203
_cell_angle_beta   90.00000000
_cell_angle_gamma   90.00000000
_symmetry_Int_Tables_number   1
_chemical_formula_structural   TbLuU2(ReB6)2
_chemical_formula_sum   'Tb2 Lu2 U4 Re4 B24'
_cell_volume   383.75838198
_cell_formula_units_Z   2
loop_
 _symmetry_equiv_pos_site_id
 _symmetry_equiv_pos_as_xyz
  1  'x, y, z'
loop_
 _atom_site_type_symbol
 _atom_site_label
 _atom_site_symmetry_multiplicity
 _atom_site_fract_x
 _atom_site_fract_y
 _atom_site_fract_z
 _atom_site_occupancy
  Tb  Tb0  1  0.000000  0.836574  0.092737  1
  Tb  Tb1  1  0.000000  0.163426  0.907263  1
  Lu  Lu2  1  0.000000  0.336868  0.408025  1
  Lu  Lu3  1  0.000000  0.663132  0.591975  1
  U  U4  1  0.000000  0.956309  0.396411  1
  U  U5  1  0.000000  0.043691  0.603589  1
  U  U6  1  0.000000  0.456257  0.103974  1
  U  U7  1  0.000000  0.543743  0.896026  1
  Re  Re8  1  0.000000  0.644126  0.319613  1
  Re  Re9  1  0.000000  0.355874  0.680387  1
  Re  Re10  1  0.000000  0.146549  0.182349  1
  Re  Re11  1  0.000000  0.853451  0.817651  1
  B  B12  1  0.500000  0.550250  0.431940  1
  B  B13  1  0.500000  0.449750  0.568060  1
  B  B14  1  0.500000  0.052377  0.069579  1
  B  B15  1  0.500000  0.947623  0.930421  1
  B  B16  1  0.500000  0.741523  0.424162  1
  B  B17  1  0.500000  0.258477  0.575838  1
  B  B18  1  0.500000  0.243777  0.077435  1
  B  B19  1  0.500000  0.756223  0.922565  1
  B  B20  1  0.500000  0.801410  0.276161  1
  B  B21  1  0.500000  0.198590  0.723839  1
  B  B22  1  0.500000  0.302792  0.225802  1
  B  B23  1  0.500000  0.697208  0.774198  1
  B  B24  1  0.500000  0.643285  0.189303  1
  B  B25  1  0.500000  0.356715  0.810697  1
  B  B26  1  0.500000  0.145249  0.312084  1
  B  B27  1  0.500000  0.854751  0.687916  1
  B  B28  1  0.500000  0.989522  0.220413  1
  B  B29  1  0.500000  0.010478  0.779587  1
  B  B30  1  0.500000  0.487608  0.281667  1
  B  B31  1  0.500000  0.512392  0.718333  1
  B  B32  1  0.500000  0.639203  0.039008  1
  B  B33  1  0.500000  0.360797  0.960992  1
  B  B34  1  0.500000  0.142378  0.460731  1
  B  B35  1  0.500000  0.857622  0.539269  1
