# generated using pymatgen
data_Hf3Zr3MnSi6Ru5
_symmetry_space_group_name_H-M   'P 1'
_cell_length_a   7.63124259
_cell_length_b   7.63759795
_cell_length_c   7.63031882
_cell_angle_alpha   127.99391916
_cell_angle_beta   122.34691381
_cell_angle_gamma   81.32787580
_symmetry_Int_Tables_number   1
_chemical_formula_structural   Hf3Zr3MnSi6Ru5
_chemical_formula_sum   'Hf3 Zr3 Mn1 Si6 Ru5'
_cell_volume   285.24356790
_cell_formula_units_Z   1
loop_
 _symmetry_equiv_pos_site_id
 _symmetry_equiv_pos_as_xyz
  1  'x, y, z'
loop_
 _atom_site_type_symbol
 _atom_site_label
 _atom_site_symmetry_multiplicity
 _atom_site_fract_x
 _atom_site_fract_y
 _atom_site_fract_z
 _atom_site_occupancy
  Hf  Hf0  1  0.253826  0.837197  0.085010  1
  Hf  Hf1  1  0.051057  0.253829  0.700291  1
  Hf  Hf2  1  0.948425  0.650947  0.205155  1
  Zr  Zr3  1  0.466524  0.694283  0.723810  1
  Zr  Zr4  1  0.533224  0.257848  0.228440  1
  Zr  Zr5  1  0.745070  0.829399  0.582091  1
  Mn  Mn6  1  0.493460  0.499048  0.992389  1
  Si  Si7  1  0.275438  0.267104  0.492827  1
  Si  Si8  1  0.727080  0.226419  0.998911  1
  Si  Si9  1  0.325519  0.585818  0.242718  1
  Si  Si10  1  0.671655  0.917072  0.258216  1
  Si  Si11  1  0.161439  0.924236  0.750905  1
  Si  Si12  1  0.840319  0.588505  0.764539  1
  Ru  Ru13  1  0.005958  0.500214  0.506541  1
  Ru  Ru14  1  0.096053  0.254773  0.102926  1
  Ru  Ru15  1  0.904033  0.007383  0.158737  1
  Ru  Ru16  1  0.348007  0.009498  0.604076  1
  Ru  Ru17  1  0.652913  0.256027  0.662024  1
