# generated using pymatgen
data_TbHoTcPtF14
_symmetry_space_group_name_H-M   'P 1'
_cell_length_a   5.57423117
_cell_length_b   8.91548167
_cell_length_c   12.01451188
_cell_angle_alpha   62.42644984
_cell_angle_beta   90.13174905
_cell_angle_gamma   90.07172383
_symmetry_Int_Tables_number   1
_chemical_formula_structural   TbHoTcPtF14
_chemical_formula_sum   'Tb2 Ho2 Tc2 Pt2 F28'
_cell_volume   529.26480261
_cell_formula_units_Z   2
loop_
 _symmetry_equiv_pos_site_id
 _symmetry_equiv_pos_as_xyz
  1  'x, y, z'
loop_
 _atom_site_type_symbol
 _atom_site_label
 _atom_site_symmetry_multiplicity
 _atom_site_fract_x
 _atom_site_fract_y
 _atom_site_fract_z
 _atom_site_occupancy
  Tb  Tb0  1  0.760185  0.184682  0.236987  1
  Tb  Tb1  1  0.239815  0.815318  0.763013  1
  Ho  Ho2  1  0.259330  0.813104  0.265468  1
  Ho  Ho3  1  0.740670  0.186896  0.734532  1
  Tc  Tc4  1  0.757498  0.727226  0.043393  1
  Tc  Tc5  1  0.242502  0.272774  0.956607  1
  Pt  Pt6  1  0.258965  0.273820  0.457275  1
  Pt  Pt7  1  0.741035  0.726180  0.542725  1
  F  F8  1  0.936031  0.703569  0.414971  1
  F  F9  1  0.063969  0.296431  0.585029  1
  F  F10  1  0.447142  0.291856  0.082079  1
  F  F11  1  0.552858  0.708144  0.917921  1
  F  F12  1  0.475230  0.730698  0.139639  1
  F  F13  1  0.524770  0.269302  0.860361  1
  F  F14  1  0.967265  0.274151  0.364776  1
  F  F15  1  0.032735  0.725849  0.635224  1
  F  F16  1  0.958126  0.746533  0.171562  1
  F  F17  1  0.041874  0.253467  0.828438  1
  F  F18  1  0.448060  0.257426  0.324785  1
  F  F19  1  0.551940  0.742574  0.675215  1
  F  F20  1  0.771554  0.479867  0.141032  1
  F  F21  1  0.228446  0.520133  0.858968  1
  F  F22  1  0.270116  0.522175  0.358367  1
  F  F23  1  0.729884  0.477825  0.641633  1
  F  F24  1  0.949699  0.278508  0.046670  1
  F  F25  1  0.050301  0.721492  0.953330  1
  F  F26  1  0.441504  0.719148  0.457175  1
  F  F27  1  0.558496  0.280852  0.542825  1
  F  F28  1  0.741929  0.974572  0.450207  1
  F  F29  1  0.258071  0.025428  0.549793  1
  F  F30  1  0.241705  0.025826  0.054440  1
  F  F31  1  0.758295  0.974174  0.945560  1
  F  F32  1  0.582150  0.967613  0.233487  1
  F  F33  1  0.417850  0.032387  0.766513  1
  F  F34  1  0.085677  0.027019  0.270010  1
  F  F35  1  0.914323  0.972981  0.729990  1
