# generated using pymatgen
data_CsGa2AuO6
_symmetry_space_group_name_H-M   'P 1'
_cell_length_a   7.86748142
_cell_length_b   7.86748122
_cell_length_c   7.86748000
_cell_angle_alpha   39.08359452
_cell_angle_beta   39.08359638
_cell_angle_gamma   39.08359348
_symmetry_Int_Tables_number   1
_chemical_formula_structural   CsGa2AuO6
_chemical_formula_sum   'Cs1 Ga2 Au1 O6'
_cell_volume   174.09801410
_cell_formula_units_Z   1
loop_
 _symmetry_equiv_pos_site_id
 _symmetry_equiv_pos_as_xyz
  1  'x, y, z'
loop_
 _atom_site_type_symbol
 _atom_site_label
 _atom_site_symmetry_multiplicity
 _atom_site_fract_x
 _atom_site_fract_y
 _atom_site_fract_z
 _atom_site_occupancy
  Cs  Cs0  1  0.000000  0.000000  0.000000  1
  Ga  Ga1  1  0.170124  0.170124  0.170124  1
  Ga  Ga2  1  0.829876  0.829876  0.829876  1
  Au  Au3  1  0.500000  0.500000  0.500000  1
  O  O4  1  0.788584  0.449705  0.119734  1
  O  O5  1  0.550296  0.880265  0.211416  1
  O  O6  1  0.119735  0.788583  0.449705  1
  O  O7  1  0.880265  0.211417  0.550295  1
  O  O8  1  0.449704  0.119735  0.788584  1
  O  O9  1  0.211416  0.550295  0.880266  1
