# generated using pymatgen
data_Dy2Co9CuP6
_symmetry_space_group_name_H-M   'P 1'
_cell_length_a   3.67857900
_cell_length_b   10.26262200
_cell_length_c   11.81367900
_cell_angle_alpha   90.00000000
_cell_angle_beta   90.00000000
_cell_angle_gamma   90.00000000
_symmetry_Int_Tables_number   1
_chemical_formula_structural   Dy2Co9CuP6
_chemical_formula_sum   'Dy4 Co18 Cu2 P12'
_cell_volume   445.98842391
_cell_formula_units_Z   2
loop_
 _symmetry_equiv_pos_site_id
 _symmetry_equiv_pos_as_xyz
  1  'x, y, z'
loop_
 _atom_site_type_symbol
 _atom_site_label
 _atom_site_symmetry_multiplicity
 _atom_site_fract_x
 _atom_site_fract_y
 _atom_site_fract_z
 _atom_site_occupancy
  Dy  Dy0  1  0.250000  0.580044  0.701917  1
  Dy  Dy1  1  0.250000  0.919956  0.201917  1
  Dy  Dy2  1  0.750000  0.417756  0.297038  1
  Dy  Dy3  1  0.750000  0.082244  0.797038  1
  Co  Co4  1  0.750000  0.286979  0.009116  1
  Co  Co5  1  0.750000  0.213021  0.509116  1
  Co  Co6  1  0.250000  0.405020  0.487292  1
  Co  Co7  1  0.250000  0.094980  0.987292  1
  Co  Co8  1  0.750000  0.592173  0.514544  1
  Co  Co9  1  0.750000  0.907827  0.014544  1
  Co  Co10  1  0.250000  0.222103  0.175764  1
  Co  Co11  1  0.250000  0.277897  0.675764  1
  Co  Co12  1  0.750000  0.778510  0.825399  1
  Co  Co13  1  0.750000  0.721490  0.325399  1
  Co  Co14  1  0.250000  0.882297  0.698145  1
  Co  Co15  1  0.250000  0.617703  0.198145  1
  Co  Co16  1  0.750000  0.119669  0.300622  1
  Co  Co17  1  0.750000  0.380331  0.800622  1
  Co  Co18  1  0.250000  0.465992  0.931986  1
  Co  Co19  1  0.250000  0.034008  0.431986  1
  Co  Co20  1  0.750000  0.533695  0.066613  1
  Co  Co21  1  0.750000  0.966305  0.566613  1
  Cu  Cu22  1  0.250000  0.712653  0.990291  1
  Cu  Cu23  1  0.250000  0.787347  0.490291  1
  P  P24  1  0.250000  0.419601  0.111935  1
  P  P25  1  0.250000  0.080399  0.611935  1
  P  P26  1  0.750000  0.577005  0.884385  1
  P  P27  1  0.750000  0.922995  0.384385  1
  P  P28  1  0.250000  0.269657  0.868274  1
  P  P29  1  0.250000  0.230343  0.368274  1
  P  P30  1  0.750000  0.729205  0.138085  1
  P  P31  1  0.750000  0.770795  0.638085  1
  P  P32  1  0.250000  0.598589  0.390789  1
  P  P33  1  0.250000  0.901411  0.890789  1
  P  P34  1  0.750000  0.396582  0.607807  1
  P  P35  1  0.750000  0.103418  0.107807  1
