# generated using pymatgen
data_Gd8Ho12(Ir3Rh)3
_symmetry_space_group_name_H-M   'P 1'
_cell_length_a   10.84667600
_cell_length_b   10.84667600
_cell_length_c   6.36985700
_cell_angle_alpha   90.00000000
_cell_angle_beta   90.00000000
_cell_angle_gamma   90.00000000
_symmetry_Int_Tables_number   1
_chemical_formula_structural   Gd8Ho12(Ir3Rh)3
_chemical_formula_sum   'Gd8 Ho12 Ir9 Rh3'
_cell_volume   749.41609818
_cell_formula_units_Z   1
loop_
 _symmetry_equiv_pos_site_id
 _symmetry_equiv_pos_as_xyz
  1  'x, y, z'
loop_
 _atom_site_type_symbol
 _atom_site_label
 _atom_site_symmetry_multiplicity
 _atom_site_fract_x
 _atom_site_fract_y
 _atom_site_fract_z
 _atom_site_occupancy
  Gd  Gd0  1  0.288403  0.089139  0.378105  1
  Gd  Gd1  1  0.288339  0.910452  0.877888  1
  Gd  Gd2  1  0.711661  0.089548  0.877888  1
  Gd  Gd3  1  0.711597  0.910861  0.378105  1
  Gd  Gd4  1  0.589548  0.788339  0.877888  1
  Gd  Gd5  1  0.589139  0.211597  0.378105  1
  Gd  Gd6  1  0.410861  0.788403  0.378105  1
  Gd  Gd7  1  0.410452  0.211661  0.877888  1
  Ho  Ho8  1  0.208212  0.412635  0.619192  1
  Ho  Ho9  1  0.208637  0.587584  0.121618  1
  Ho  Ho10  1  0.791363  0.412416  0.121618  1
  Ho  Ho11  1  0.791788  0.587365  0.619192  1
  Ho  Ho12  1  0.912416  0.708637  0.121618  1
  Ho  Ho13  1  0.912635  0.291788  0.619192  1
  Ho  Ho14  1  0.087365  0.708212  0.619192  1
  Ho  Ho15  1  0.087584  0.291363  0.121618  1
  Ho  Ho16  1  0.000000  0.000000  0.502104  1
  Ho  Ho17  1  0.000000  0.000000  0.001967  1
  Ho  Ho18  1  0.500000  0.500000  0.001967  1
  Ho  Ho19  1  0.500000  0.500000  0.502104  1
  Ir  Ir20  1  0.847554  0.154424  0.250377  1
  Ir  Ir21  1  0.847843  0.845159  0.750479  1
  Ir  Ir22  1  0.152157  0.154841  0.750479  1
  Ir  Ir23  1  0.152446  0.845576  0.250377  1
  Ir  Ir24  1  0.654841  0.347843  0.750479  1
  Ir  Ir25  1  0.654424  0.652446  0.250377  1
  Ir  Ir26  1  0.345576  0.347554  0.250377  1
  Ir  Ir27  1  0.345159  0.652157  0.750479  1
  Ir  Ir28  1  0.000000  0.500000  0.376679  1
  Rh  Rh29  1  0.500000  0.000000  0.123071  1
  Rh  Rh30  1  0.500000  0.000000  0.623473  1
  Rh  Rh31  1  0.000000  0.500000  0.878002  1
