# generated using pymatgen
data_DyYB6Ir2Rh7
_symmetry_space_group_name_H-M   'P 1'
_cell_length_a   5.61356515
_cell_length_b   5.61356552
_cell_length_c   8.59920500
_cell_angle_alpha   90.00000000
_cell_angle_beta   90.00000000
_cell_angle_gamma   119.81091067
_symmetry_Int_Tables_number   1
_chemical_formula_structural   DyYB6Ir2Rh7
_chemical_formula_sum   'Dy1 Y1 B6 Ir2 Rh7'
_cell_volume   235.12069039
_cell_formula_units_Z   1
loop_
 _symmetry_equiv_pos_site_id
 _symmetry_equiv_pos_as_xyz
  1  'x, y, z'
loop_
 _atom_site_type_symbol
 _atom_site_label
 _atom_site_symmetry_multiplicity
 _atom_site_fract_x
 _atom_site_fract_y
 _atom_site_fract_z
 _atom_site_occupancy
  Dy  Dy0  1  0.000000  0.000000  0.295959  1
  Y  Y1  1  0.000000  0.000000  0.703761  1
  B  B2  1  0.666836  0.333164  0.999955  1
  B  B3  1  0.333164  0.666836  0.999955  1
  B  B4  1  0.667622  0.332378  0.668039  1
  B  B5  1  0.332378  0.667622  0.668039  1
  B  B6  1  0.332370  0.667630  0.331945  1
  B  B7  1  0.667630  0.332370  0.331945  1
  Ir  Ir8  1  0.500000  0.000000  0.499941  1
  Ir  Ir9  1  0.000000  0.500000  0.499941  1
  Rh  Rh10  1  0.500000  0.500000  0.835979  1
  Rh  Rh11  1  0.500000  0.000000  0.836550  1
  Rh  Rh12  1  0.000000  0.500000  0.836550  1
  Rh  Rh13  1  0.500000  0.500000  0.164209  1
  Rh  Rh14  1  0.500000  0.000000  0.163659  1
  Rh  Rh15  1  0.000000  0.500000  0.163659  1
  Rh  Rh16  1  0.500000  0.500000  0.499916  1
