# generated using pymatgen
data_La2Y3TmCoI10
_symmetry_space_group_name_H-M   'P 1'
_cell_length_a   7.82583008
_cell_length_b   9.83901178
_cell_length_c   9.80003585
_cell_angle_alpha   106.78076564
_cell_angle_beta   95.80792107
_cell_angle_gamma   105.61443574
_symmetry_Int_Tables_number   1
_chemical_formula_structural   La2Y3TmCoI10
_chemical_formula_sum   'La2 Y3 Tm1 Co1 I10'
_cell_volume   682.57014650
_cell_formula_units_Z   1
loop_
 _symmetry_equiv_pos_site_id
 _symmetry_equiv_pos_as_xyz
  1  'x, y, z'
loop_
 _atom_site_type_symbol
 _atom_site_label
 _atom_site_symmetry_multiplicity
 _atom_site_fract_x
 _atom_site_fract_y
 _atom_site_fract_z
 _atom_site_occupancy
  La  La0  1  0.886616  0.957262  0.228936  1
  La  La1  1  0.112860  0.041936  0.770754  1
  Y  Y2  1  0.972049  0.284016  0.085750  1
  Y  Y3  1  0.653987  0.874412  0.837611  1
  Y  Y4  1  0.346024  0.124202  0.162144  1
  Tm  Tm5  1  0.027150  0.720764  0.915179  1
  Co  Co6  1  0.999743  0.999315  0.999744  1
  I  I7  1  0.655207  0.552101  0.731612  1
  I  I8  1  0.349646  0.447641  0.269744  1
  I  I9  1  0.729000  0.910213  0.541675  1
  I  I10  1  0.270416  0.089732  0.458461  1
  I  I11  1  0.081713  0.380503  0.824204  1
  I  I12  1  0.919265  0.621257  0.173411  1
  I  I13  1  0.443114  0.815078  0.088219  1
  I  I14  1  0.555167  0.183358  0.910276  1
  I  I15  1  0.224856  0.734965  0.660335  1
  I  I16  1  0.773187  0.263244  0.341945  1
