# generated using pymatgen
data_Dy3MnCrC6
_symmetry_space_group_name_H-M   'P 1'
_cell_length_a   8.10282300
_cell_length_b   8.10282313
_cell_length_c   4.98698400
_cell_angle_alpha   90.00000000
_cell_angle_beta   90.00000000
_cell_angle_gamma   119.99999538
_symmetry_Int_Tables_number   1
_chemical_formula_structural   Dy3MnCrC6
_chemical_formula_sum   'Dy6 Mn2 Cr2 C12'
_cell_volume   283.55763019
_cell_formula_units_Z   2
loop_
 _symmetry_equiv_pos_site_id
 _symmetry_equiv_pos_as_xyz
  1  'x, y, z'
loop_
 _atom_site_type_symbol
 _atom_site_label
 _atom_site_symmetry_multiplicity
 _atom_site_fract_x
 _atom_site_fract_y
 _atom_site_fract_z
 _atom_site_occupancy
  Dy  Dy0  1  0.621628  0.684655  0.750000  1
  Dy  Dy1  1  0.936973  0.621628  0.250000  1
  Dy  Dy2  1  0.684655  0.063027  0.250000  1
  Dy  Dy3  1  0.315345  0.936973  0.750000  1
  Dy  Dy4  1  0.063027  0.378372  0.750000  1
  Dy  Dy5  1  0.378372  0.315345  0.250000  1
  Mn  Mn6  1  0.666667  0.333333  0.750000  1
  Mn  Mn7  1  0.333333  0.666667  0.250000  1
  Cr  Cr8  1  0.000000  0.000000  0.500000  1
  Cr  Cr9  1  0.000000  0.000000  0.000000  1
  C  C10  1  0.962449  0.771455  0.750000  1
  C  C11  1  0.190994  0.962449  0.250000  1
  C  C12  1  0.771455  0.809006  0.250000  1
  C  C13  1  0.228545  0.190994  0.750000  1
  C  C14  1  0.809006  0.037551  0.750000  1
  C  C15  1  0.037551  0.228545  0.250000  1
  C  C16  1  0.864488  0.576374  0.750000  1
  C  C17  1  0.288114  0.864488  0.250000  1
  C  C18  1  0.576374  0.711886  0.250000  1
  C  C19  1  0.423626  0.288114  0.750000  1
  C  C20  1  0.135512  0.423626  0.250000  1
  C  C21  1  0.711886  0.135512  0.750000  1
