# generated using pymatgen
data_TmLu3(B4Mo)4
_symmetry_space_group_name_H-M   'P 1'
_cell_length_a   3.58811200
_cell_length_b   5.99025041
_cell_length_c   11.55830749
_cell_angle_alpha   90.02269282
_cell_angle_beta   90.00000000
_cell_angle_gamma   90.00000000
_symmetry_Int_Tables_number   1
_chemical_formula_structural   TmLu3(B4Mo)4
_chemical_formula_sum   'Tm1 Lu3 B16 Mo4'
_cell_volume   248.43065165
_cell_formula_units_Z   1
loop_
 _symmetry_equiv_pos_site_id
 _symmetry_equiv_pos_as_xyz
  1  'x, y, z'
loop_
 _atom_site_type_symbol
 _atom_site_label
 _atom_site_symmetry_multiplicity
 _atom_site_fract_x
 _atom_site_fract_y
 _atom_site_fract_z
 _atom_site_occupancy
  Tm  Tm0  1  0.000000  0.872281  0.850476  1
  Lu  Lu1  1  0.000000  0.627508  0.350603  1
  Lu  Lu2  1  0.000000  0.372417  0.649252  1
  Lu  Lu3  1  0.000000  0.127390  0.149454  1
  B  B4  1  0.500000  0.788940  0.187037  1
  B  B5  1  0.500000  0.211590  0.813151  1
  B  B6  1  0.500000  0.289069  0.313201  1
  B  B7  1  0.500000  0.710911  0.686360  1
  B  B8  1  0.500000  0.867881  0.032280  1
  B  B9  1  0.500000  0.131893  0.968699  1
  B  B10  1  0.500000  0.368156  0.467974  1
  B  B11  1  0.500000  0.631842  0.531389  1
  B  B12  1  0.500000  0.884860  0.451418  1
  B  B13  1  0.500000  0.115401  0.547977  1
  B  B14  1  0.500000  0.384502  0.048733  1
  B  B15  1  0.500000  0.614553  0.952219  1
  B  B16  1  0.500000  0.977384  0.305169  1
  B  B17  1  0.500000  0.023498  0.694187  1
  B  B18  1  0.500000  0.477310  0.195018  1
  B  B19  1  0.500000  0.522756  0.805381  1
  Mo  Mo20  1  0.000000  0.630733  0.084533  1
  Mo  Mo21  1  0.000000  0.368980  0.916080  1
  Mo  Mo22  1  0.000000  0.131032  0.415620  1
  Mo  Mo23  1  0.000000  0.869112  0.583789  1
