# generated using pymatgen
data_Ho2Tm5CoBr12
_symmetry_space_group_name_H-M   'P 1'
_cell_length_a   9.13251798
_cell_length_b   9.12097990
_cell_length_c   9.13160646
_cell_angle_alpha   106.68329411
_cell_angle_beta   106.80459013
_cell_angle_gamma   106.70708051
_symmetry_Int_Tables_number   1
_chemical_formula_structural   Ho2Tm5CoBr12
_chemical_formula_sum   'Ho2 Tm5 Co1 Br12'
_cell_volume   638.04803271
_cell_formula_units_Z   1
loop_
 _symmetry_equiv_pos_site_id
 _symmetry_equiv_pos_as_xyz
  1  'x, y, z'
loop_
 _atom_site_type_symbol
 _atom_site_label
 _atom_site_symmetry_multiplicity
 _atom_site_fract_x
 _atom_site_fract_y
 _atom_site_fract_z
 _atom_site_occupancy
  Ho  Ho0  1  0.300494  0.096398  0.020255  1
  Ho  Ho1  1  0.095663  0.020449  0.300595  1
  Tm  Tm2  1  0.019792  0.297365  0.094320  1
  Tm  Tm3  1  0.702590  0.904950  0.978855  1
  Tm  Tm4  1  0.904085  0.979246  0.702547  1
  Tm  Tm5  1  0.978683  0.702093  0.904160  1
  Tm  Tm6  1  0.499845  0.500100  0.499920  1
  Co  Co7  1  0.000290  0.000039  0.000151  1
  Br  Br8  1  0.218978  0.069529  0.675243  1
  Br  Br9  1  0.069058  0.673266  0.218169  1
  Br  Br10  1  0.676901  0.220226  0.069818  1
  Br  Br11  1  0.778039  0.930003  0.324723  1
  Br  Br12  1  0.930646  0.325358  0.780521  1
  Br  Br13  1  0.324465  0.778132  0.929958  1
  Br  Br14  1  0.386742  0.462549  0.169057  1
  Br  Br15  1  0.462338  0.168836  0.387976  1
  Br  Br16  1  0.168387  0.388232  0.460583  1
  Br  Br17  1  0.612850  0.539099  0.831358  1
  Br  Br18  1  0.538982  0.831478  0.612751  1
  Br  Br19  1  0.831172  0.612653  0.539039  1
