# generated using pymatgen
data_KCr2(Sb6Os)2
_symmetry_space_group_name_H-M   'P 1'
_cell_length_a   8.20959202
_cell_length_b   8.20959220
_cell_length_c   8.28472642
_cell_angle_alpha   109.45581181
_cell_angle_beta   109.05145537
_cell_angle_gamma   109.54014356
_symmetry_Int_Tables_number   1
_chemical_formula_structural   KCr2(Sb6Os)2
_chemical_formula_sum   'K1 Cr2 Sb12 Os2'
_cell_volume   431.75788258
_cell_formula_units_Z   1
loop_
 _symmetry_equiv_pos_site_id
 _symmetry_equiv_pos_as_xyz
  1  'x, y, z'
loop_
 _atom_site_type_symbol
 _atom_site_label
 _atom_site_symmetry_multiplicity
 _atom_site_fract_x
 _atom_site_fract_y
 _atom_site_fract_z
 _atom_site_occupancy
  K  K0  1  0.000000  0.000000  0.000000  1
  Cr  Cr1  1  0.500000  0.000000  0.000000  1
  Cr  Cr2  1  0.000000  0.500000  0.000000  1
  Sb  Sb3  1  0.844111  0.661918  0.506029  1
  Sb  Sb4  1  0.155889  0.338082  0.493971  1
  Sb  Sb5  1  0.153432  0.650570  0.804003  1
  Sb  Sb6  1  0.846568  0.349430  0.195997  1
  Sb  Sb7  1  0.650452  0.500078  0.838037  1
  Sb  Sb8  1  0.349548  0.499922  0.161963  1
  Sb  Sb9  1  0.662040  0.812415  0.161963  1
  Sb  Sb10  1  0.337960  0.187585  0.838037  1
  Sb  Sb11  1  0.499656  0.840522  0.651879  1
  Sb  Sb12  1  0.500344  0.159478  0.348121  1
  Sb  Sb13  1  0.188643  0.847777  0.348121  1
  Sb  Sb14  1  0.811357  0.152223  0.651879  1
  Os  Os15  1  0.500000  0.500000  0.500000  1
  Os  Os16  1  0.000000  0.000000  0.500000  1
