# generated using pymatgen
data_TlNiAsO4
_symmetry_space_group_name_H-M   'P 1'
_cell_length_a   5.14268400
_cell_length_b   10.41821248
_cell_length_c   8.90986200
_cell_angle_alpha   106.55962569
_cell_angle_beta   90.00037880
_cell_angle_gamma   90.00623305
_symmetry_Int_Tables_number   1
_chemical_formula_structural   TlNiAsO4
_chemical_formula_sum   'Tl4 Ni4 As4 O16'
_cell_volume   457.56927855
_cell_formula_units_Z   4
loop_
 _symmetry_equiv_pos_site_id
 _symmetry_equiv_pos_as_xyz
  1  'x, y, z'
loop_
 _atom_site_type_symbol
 _atom_site_label
 _atom_site_symmetry_multiplicity
 _atom_site_fract_x
 _atom_site_fract_y
 _atom_site_fract_z
 _atom_site_occupancy
  Tl  Tl0  1  0.499982  0.133377  0.211069  1
  Tl  Tl1  1  0.999977  0.133377  0.711067  1
  Tl  Tl2  1  0.500022  0.866623  0.788933  1
  Tl  Tl3  1  0.000019  0.866623  0.288931  1
  Ni  Ni4  1  0.500003  0.495079  0.664997  1
  Ni  Ni5  1  0.999997  0.504921  0.835004  1
  Ni  Ni6  1  0.000001  0.495079  0.164996  1
  Ni  Ni7  1  0.499999  0.504921  0.335004  1
  As  As8  1  0.500016  0.672852  0.057602  1
  As  As9  1  0.000024  0.672840  0.557598  1
  As  As10  1  0.499975  0.327160  0.942402  1
  As  As11  1  0.999984  0.327148  0.442399  1
  O  O12  1  0.499933  0.156552  0.885538  1
  O  O13  1  0.999939  0.156561  0.385541  1
  O  O14  1  0.500061  0.843440  0.114460  1
  O  O15  1  0.000066  0.843448  0.614462  1
  O  O16  1  0.342849  0.619210  0.875867  1
  O  O17  1  0.842850  0.619211  0.375868  1
  O  O18  1  0.332855  0.619169  0.200149  1
  O  O19  1  0.832856  0.619171  0.700147  1
  O  O20  1  0.175646  0.380818  0.956926  1
  O  O21  1  0.675644  0.380820  0.456928  1
  O  O22  1  0.657149  0.380789  0.124132  1
  O  O23  1  0.157152  0.380789  0.624133  1
  O  O24  1  0.824357  0.619180  0.043073  1
  O  O25  1  0.324353  0.619182  0.543073  1
  O  O26  1  0.667143  0.380829  0.799853  1
  O  O27  1  0.167146  0.380831  0.299852  1
