# generated using pymatgen
data_Nb4Ni4SnAu
_symmetry_space_group_name_H-M   'P 1'
_cell_length_a   6.87602200
_cell_length_b   6.87602200
_cell_length_c   6.48724300
_cell_angle_alpha   90.00000000
_cell_angle_beta   90.00000000
_cell_angle_gamma   90.00000000
_symmetry_Int_Tables_number   1
_chemical_formula_structural   Nb4Ni4SnAu
_chemical_formula_sum   'Nb8 Ni8 Sn2 Au2'
_cell_volume   306.71476368
_cell_formula_units_Z   2
loop_
 _symmetry_equiv_pos_site_id
 _symmetry_equiv_pos_as_xyz
  1  'x, y, z'
loop_
 _atom_site_type_symbol
 _atom_site_label
 _atom_site_symmetry_multiplicity
 _atom_site_fract_x
 _atom_site_fract_y
 _atom_site_fract_z
 _atom_site_occupancy
  Nb  Nb0  1  0.204120  0.191905  0.000000  1
  Nb  Nb1  1  0.691905  0.295880  0.500000  1
  Nb  Nb2  1  0.308095  0.704120  0.500000  1
  Nb  Nb3  1  0.795880  0.808095  0.000000  1
  Nb  Nb4  1  0.641460  0.358058  0.000000  1
  Nb  Nb5  1  0.858058  0.858540  0.500000  1
  Nb  Nb6  1  0.141942  0.141460  0.500000  1
  Nb  Nb7  1  0.358540  0.641942  0.000000  1
  Ni  Ni8  1  0.373048  0.373099  0.303557  1
  Ni  Ni9  1  0.873099  0.126952  0.803557  1
  Ni  Ni10  1  0.126901  0.873048  0.803557  1
  Ni  Ni11  1  0.626952  0.626901  0.303557  1
  Ni  Ni12  1  0.126901  0.873048  0.196443  1
  Ni  Ni13  1  0.873099  0.126952  0.196443  1
  Ni  Ni14  1  0.373048  0.373099  0.696443  1
  Ni  Ni15  1  0.626952  0.626901  0.696443  1
  Sn  Sn16  1  0.000000  0.500000  0.250000  1
  Sn  Sn17  1  0.000000  0.500000  0.750000  1
  Au  Au18  1  0.500000  0.000000  0.250000  1
  Au  Au19  1  0.500000  0.000000  0.750000  1
