# generated using pymatgen
data_Dy6TcOs
_symmetry_space_group_name_H-M   'P 1'
_cell_length_a   6.29677100
_cell_length_b   7.43893400
_cell_length_c   9.11108700
_cell_angle_alpha   90.00000000
_cell_angle_beta   90.00000000
_cell_angle_gamma   90.00000000
_symmetry_Int_Tables_number   1
_chemical_formula_structural   Dy6TcOs
_chemical_formula_sum   'Dy12 Tc2 Os2'
_cell_volume   426.77483042
_cell_formula_units_Z   2
loop_
 _symmetry_equiv_pos_site_id
 _symmetry_equiv_pos_as_xyz
  1  'x, y, z'
loop_
 _atom_site_type_symbol
 _atom_site_label
 _atom_site_symmetry_multiplicity
 _atom_site_fract_x
 _atom_site_fract_y
 _atom_site_fract_z
 _atom_site_occupancy
  Dy  Dy0  1  0.337672  0.674881  0.062773  1
  Dy  Dy1  1  0.162328  0.174881  0.437227  1
  Dy  Dy2  1  0.665337  0.324641  0.563268  1
  Dy  Dy3  1  0.834663  0.824641  0.936732  1
  Dy  Dy4  1  0.665337  0.324641  0.936732  1
  Dy  Dy5  1  0.834663  0.824641  0.563268  1
  Dy  Dy6  1  0.337672  0.674881  0.437227  1
  Dy  Dy7  1  0.162328  0.174881  0.062773  1
  Dy  Dy8  1  0.876422  0.540627  0.250000  1
  Dy  Dy9  1  0.623578  0.040627  0.250000  1
  Dy  Dy10  1  0.131273  0.458375  0.750000  1
  Dy  Dy11  1  0.368727  0.958375  0.750000  1
  Tc  Tc12  1  0.038095  0.884851  0.250000  1
  Tc  Tc13  1  0.461905  0.384851  0.250000  1
  Os  Os14  1  0.959112  0.117103  0.750000  1
  Os  Os15  1  0.540888  0.617103  0.750000  1
