# generated using pymatgen
data_DyY2(Cd2Ga)2
_symmetry_space_group_name_H-M   'P 1'
_cell_length_a   7.44968206
_cell_length_b   7.45151225
_cell_length_c   4.35199700
_cell_angle_alpha   90.00000000
_cell_angle_beta   90.00000000
_cell_angle_gamma   120.00812766
_symmetry_Int_Tables_number   1
_chemical_formula_structural   DyY2(Cd2Ga)2
_chemical_formula_sum   'Dy1 Y2 Cd4 Ga2'
_cell_volume   209.20198558
_cell_formula_units_Z   1
loop_
 _symmetry_equiv_pos_site_id
 _symmetry_equiv_pos_as_xyz
  1  'x, y, z'
loop_
 _atom_site_type_symbol
 _atom_site_label
 _atom_site_symmetry_multiplicity
 _atom_site_fract_x
 _atom_site_fract_y
 _atom_site_fract_z
 _atom_site_occupancy
  Dy  Dy0  1  0.000000  0.573281  0.500000  1
  Y  Y1  1  0.426579  0.426560  0.500000  1
  Y  Y2  1  0.573421  0.999981  0.500000  1
  Cd  Cd3  1  0.742634  0.742586  0.000000  1
  Cd  Cd4  1  0.257366  0.999952  0.000000  1
  Cd  Cd5  1  0.000000  0.257594  0.000000  1
  Cd  Cd6  1  0.000000  0.999643  0.500000  1
  Ga  Ga7  1  0.667142  0.333771  0.000000  1
  Ga  Ga8  1  0.332858  0.666630  0.000000  1
