# generated using pymatgen
data_Yb4YTm(Si3Ru)8
_symmetry_space_group_name_H-M   'P 1'
_cell_length_a   10.16074477
_cell_length_b   10.16074552
_cell_length_c   8.12826379
_cell_angle_alpha   89.97510982
_cell_angle_beta   90.02488982
_cell_angle_gamma   132.84154857
_symmetry_Int_Tables_number   1
_chemical_formula_structural   Yb4YTm(Si3Ru)8
_chemical_formula_sum   'Yb4 Y1 Tm1 Si24 Ru8'
_cell_volume   615.30891953
_cell_formula_units_Z   1
loop_
 _symmetry_equiv_pos_site_id
 _symmetry_equiv_pos_as_xyz
  1  'x, y, z'
loop_
 _atom_site_type_symbol
 _atom_site_label
 _atom_site_symmetry_multiplicity
 _atom_site_fract_x
 _atom_site_fract_y
 _atom_site_fract_z
 _atom_site_occupancy
  Yb  Yb0  1  0.000050  0.999933  0.999900  1
  Yb  Yb1  1  0.499933  0.500050  0.500100  1
  Yb  Yb2  1  0.001140  0.501140  0.250000  1
  Yb  Yb3  1  0.499071  0.999071  0.750000  1
  Y  Y4  1  0.500820  0.000820  0.250000  1
  Tm  Tm5  1  0.999776  0.499776  0.750000  1
  Si  Si6  1  0.294673  0.703642  0.999241  1
  Si  Si7  1  0.796090  0.205984  0.500931  1
  Si  Si8  1  0.705984  0.296090  0.999069  1
  Si  Si9  1  0.203642  0.794673  0.500759  1
  Si  Si10  1  0.831671  0.836587  0.332040  1
  Si  Si11  1  0.163596  0.167919  0.667817  1
  Si  Si12  1  0.667919  0.663596  0.832183  1
  Si  Si13  1  0.336587  0.331671  0.167960  1
  Si  Si14  1  0.624382  0.391376  0.230711  1
  Si  Si15  1  0.609199  0.376526  0.769731  1
  Si  Si16  1  0.107345  0.874495  0.730275  1
  Si  Si17  1  0.124858  0.891880  0.269357  1
  Si  Si18  1  0.374495  0.607345  0.769725  1
  Si  Si19  1  0.391880  0.624858  0.230643  1
  Si  Si20  1  0.891376  0.124382  0.269289  1
  Si  Si21  1  0.876526  0.109199  0.730269  1
  Si  Si22  1  0.846774  0.613431  0.006117  1
  Si  Si23  1  0.386496  0.152712  0.993095  1
  Si  Si24  1  0.886196  0.652999  0.509405  1
  Si  Si25  1  0.347222  0.113876  0.491022  1
  Si  Si26  1  0.152999  0.386196  0.990595  1
  Si  Si27  1  0.613876  0.847222  0.008978  1
  Si  Si28  1  0.113431  0.346774  0.493883  1
  Si  Si29  1  0.652712  0.886496  0.506905  1
  Ru  Ru30  1  0.170487  0.827939  0.999182  1
  Ru  Ru31  1  0.671278  0.330149  0.500882  1
  Ru  Ru32  1  0.830149  0.171278  0.999118  1
  Ru  Ru33  1  0.327939  0.670487  0.500818  1
  Ru  Ru34  1  0.626561  0.627239  0.124982  1
  Ru  Ru35  1  0.372596  0.373035  0.875296  1
  Ru  Ru36  1  0.873035  0.872596  0.624704  1
  Ru  Ru37  1  0.127239  0.126561  0.375018  1
