# generated using pymatgen
data_Tb8TaTi4Nb7Si16
_symmetry_space_group_name_H-M   'P 1'
_cell_length_a   7.07644057
_cell_length_b   7.07753577
_cell_length_c   13.04769273
_cell_angle_alpha   89.99707339
_cell_angle_beta   89.99362361
_cell_angle_gamma   90.02412353
_symmetry_Int_Tables_number   1
_chemical_formula_structural   Tb8TaTi4Nb7Si16
_chemical_formula_sum   'Tb8 Ta1 Ti4 Nb7 Si16'
_cell_volume   653.47746475
_cell_formula_units_Z   1
loop_
 _symmetry_equiv_pos_site_id
 _symmetry_equiv_pos_as_xyz
  1  'x, y, z'
loop_
 _atom_site_type_symbol
 _atom_site_label
 _atom_site_symmetry_multiplicity
 _atom_site_fract_x
 _atom_site_fract_y
 _atom_site_fract_z
 _atom_site_occupancy
  Tb  Tb0  1  0.341255  0.002149  0.466543  1
  Tb  Tb1  1  0.498127  0.840989  0.717080  1
  Tb  Tb2  1  0.501596  0.157851  0.216772  1
  Tb  Tb3  1  0.841061  0.499437  0.283254  1
  Tb  Tb4  1  0.158464  0.501715  0.782870  1
  Tb  Tb5  1  0.659332  0.997397  0.967151  1
  Tb  Tb6  1  0.001529  0.340445  0.533323  1
  Tb  Tb7  1  0.997102  0.660212  0.032862  1
  Ta  Ta8  1  0.328849  0.329138  0.000288  1
  Ti  Ti9  1  0.347011  0.508406  0.375252  1
  Ti  Ti10  1  0.845880  0.991700  0.374731  1
  Ti  Ti11  1  0.008679  0.153369  0.124697  1
  Ti  Ti12  1  0.990176  0.844874  0.624901  1
  Nb  Nb13  1  0.173320  0.826707  0.250035  1
  Nb  Nb14  1  0.827275  0.173537  0.749986  1
  Nb  Nb15  1  0.671992  0.671150  0.500191  1
  Nb  Nb16  1  0.153325  0.007747  0.874797  1
  Nb  Nb17  1  0.490971  0.653817  0.124731  1
  Nb  Nb18  1  0.507128  0.346802  0.624929  1
  Nb  Nb19  1  0.652970  0.491138  0.875302  1
  Si  Si20  1  0.202538  0.130495  0.683491  1
  Si  Si21  1  0.367094  0.703455  0.933565  1
  Si  Si22  1  0.631741  0.296555  0.433844  1
  Si  Si23  1  0.704347  0.366276  0.066863  1
  Si  Si24  1  0.296106  0.633462  0.565327  1
  Si  Si25  1  0.799396  0.870011  0.185219  1
  Si  Si26  1  0.130459  0.201525  0.314976  1
  Si  Si27  1  0.867497  0.797657  0.815755  1
  Si  Si28  1  0.292086  0.955309  0.064355  1
  Si  Si29  1  0.547284  0.792686  0.314582  1
  Si  Si30  1  0.452864  0.206787  0.813886  1
  Si  Si31  1  0.794618  0.547903  0.685598  1
  Si  Si32  1  0.206735  0.451755  0.186352  1
  Si  Si33  1  0.709985  0.046213  0.562898  1
  Si  Si34  1  0.954590  0.292827  0.937560  1
  Si  Si35  1  0.046615  0.708502  0.436034  1
