# generated using pymatgen
data_Tb17Y3Cd3Hg3Os2
_symmetry_space_group_name_H-M   'P 1'
_cell_length_a   9.64356500
_cell_length_b   9.64356365
_cell_length_c   9.86312600
_cell_angle_alpha   90.00000000
_cell_angle_beta   90.00000000
_cell_angle_gamma   120.00000121
_symmetry_Int_Tables_number   1
_chemical_formula_structural   Tb17Y3Cd3Hg3Os2
_chemical_formula_sum   'Tb17 Y3 Cd3 Hg3 Os2'
_cell_volume   794.36549407
_cell_formula_units_Z   1
loop_
 _symmetry_equiv_pos_site_id
 _symmetry_equiv_pos_as_xyz
  1  'x, y, z'
loop_
 _atom_site_type_symbol
 _atom_site_label
 _atom_site_symmetry_multiplicity
 _atom_site_fract_x
 _atom_site_fract_y
 _atom_site_fract_z
 _atom_site_occupancy
  Tb  Tb0  1  0.000000  0.000000  0.490834  1
  Tb  Tb1  1  0.000000  0.000000  0.009166  1
  Tb  Tb2  1  0.209400  0.790600  0.439563  1
  Tb  Tb3  1  0.209400  0.418801  0.439563  1
  Tb  Tb4  1  0.581199  0.790600  0.439563  1
  Tb  Tb5  1  0.790348  0.209652  0.559863  1
  Tb  Tb6  1  0.790348  0.580694  0.559863  1
  Tb  Tb7  1  0.419306  0.209652  0.559863  1
  Tb  Tb8  1  0.790348  0.209652  0.940137  1
  Tb  Tb9  1  0.790348  0.580694  0.940137  1
  Tb  Tb10  1  0.419306  0.209652  0.940137  1
  Tb  Tb11  1  0.209400  0.790600  0.060437  1
  Tb  Tb12  1  0.209400  0.418801  0.060437  1
  Tb  Tb13  1  0.581199  0.790600  0.060437  1
  Tb  Tb14  1  0.540366  0.459634  0.250000  1
  Tb  Tb15  1  0.540366  0.080734  0.250000  1
  Tb  Tb16  1  0.919266  0.459634  0.250000  1
  Y  Y17  1  0.459412  0.540588  0.750000  1
  Y  Y18  1  0.459412  0.918825  0.750000  1
  Y  Y19  1  0.081175  0.540588  0.750000  1
  Cd  Cd20  1  0.113086  0.886914  0.750000  1
  Cd  Cd21  1  0.113086  0.226171  0.750000  1
  Cd  Cd22  1  0.773829  0.886914  0.750000  1
  Hg  Hg23  1  0.880023  0.119977  0.250000  1
  Hg  Hg24  1  0.880023  0.760048  0.250000  1
  Hg  Hg25  1  0.239952  0.119977  0.250000  1
  Os  Os26  1  0.333333  0.666667  0.250000  1
  Os  Os27  1  0.666667  0.333333  0.750000  1
