# generated using pymatgen
data_Ca3Eu(NiH4)2
_symmetry_space_group_name_H-M   'P 1'
_cell_length_a   5.06975900
_cell_length_b   7.14176300
_cell_length_c   9.01833100
_cell_angle_alpha   90.00000000
_cell_angle_beta   90.00000000
_cell_angle_gamma   90.00000000
_symmetry_Int_Tables_number   1
_chemical_formula_structural   Ca3Eu(NiH4)2
_chemical_formula_sum   'Ca6 Eu2 Ni4 H16'
_cell_volume   326.52686604
_cell_formula_units_Z   2
loop_
 _symmetry_equiv_pos_site_id
 _symmetry_equiv_pos_as_xyz
  1  'x, y, z'
loop_
 _atom_site_type_symbol
 _atom_site_label
 _atom_site_symmetry_multiplicity
 _atom_site_fract_x
 _atom_site_fract_y
 _atom_site_fract_z
 _atom_site_occupancy
  Ca  Ca0  1  0.250000  0.144550  0.584424  1
  Ca  Ca1  1  0.250000  0.644550  0.915576  1
  Ca  Ca2  1  0.750000  0.853620  0.405206  1
  Ca  Ca3  1  0.750000  0.353620  0.094794  1
  Ca  Ca4  1  0.250000  0.492816  0.334029  1
  Ca  Ca5  1  0.250000  0.992816  0.165971  1
  Eu  Eu6  1  0.750000  0.509819  0.666903  1
  Eu  Eu7  1  0.750000  0.009819  0.833097  1
  Ni  Ni8  1  0.250000  0.245123  0.919847  1
  Ni  Ni9  1  0.250000  0.745123  0.580153  1
  Ni  Ni10  1  0.750000  0.756917  0.086944  1
  Ni  Ni11  1  0.750000  0.256917  0.413056  1
  H  H12  1  0.516002  0.322874  0.847134  1
  H  H13  1  0.983998  0.822874  0.652866  1
  H  H14  1  0.012623  0.674587  0.161029  1
  H  H15  1  0.487377  0.174587  0.338971  1
  H  H16  1  0.487377  0.674587  0.161029  1
  H  H17  1  0.012623  0.174587  0.338971  1
  H  H18  1  0.983998  0.322874  0.847134  1
  H  H19  1  0.516002  0.822874  0.652866  1
  H  H20  1  0.250000  0.019372  0.897297  1
  H  H21  1  0.250000  0.519372  0.602703  1
  H  H22  1  0.750000  0.981418  0.106511  1
  H  H23  1  0.750000  0.481418  0.393489  1
  H  H24  1  0.250000  0.324357  0.088735  1
  H  H25  1  0.250000  0.824357  0.411265  1
  H  H26  1  0.750000  0.677086  0.917585  1
  H  H27  1  0.750000  0.177086  0.582415  1
