# generated using pymatgen
data_Y4Zn2(OsRu)3
_symmetry_space_group_name_H-M   'P 1'
_cell_length_a   5.34590307
_cell_length_b   5.34590287
_cell_length_c   8.88013500
_cell_angle_alpha   90.00000000
_cell_angle_beta   90.00000000
_cell_angle_gamma   120.36972948
_symmetry_Int_Tables_number   1
_chemical_formula_structural   Y4Zn2(OsRu)3
_chemical_formula_sum   'Y4 Zn2 Os3 Ru3'
_cell_volume   218.95871344
_cell_formula_units_Z   1
loop_
 _symmetry_equiv_pos_site_id
 _symmetry_equiv_pos_as_xyz
  1  'x, y, z'
loop_
 _atom_site_type_symbol
 _atom_site_label
 _atom_site_symmetry_multiplicity
 _atom_site_fract_x
 _atom_site_fract_y
 _atom_site_fract_z
 _atom_site_occupancy
  Y  Y0  1  0.337482  0.662518  0.431348  1
  Y  Y1  1  0.670567  0.329433  0.557532  1
  Y  Y2  1  0.670567  0.329433  0.942468  1
  Y  Y3  1  0.337482  0.662518  0.068652  1
  Zn  Zn4  1  0.160050  0.344817  0.750000  1
  Zn  Zn5  1  0.655183  0.839950  0.750000  1
  Os  Os6  1  0.822838  0.177162  0.250000  1
  Os  Os7  1  0.837612  0.667705  0.250000  1
  Os  Os8  1  0.332295  0.162388  0.250000  1
  Ru  Ru9  1  0.008517  0.991483  0.501499  1
  Ru  Ru10  1  0.008517  0.991483  0.998501  1
  Ru  Ru11  1  0.158889  0.841111  0.750000  1
