# generated using pymatgen
data_Sc8Al(B8Rh)3
_symmetry_space_group_name_H-M   'P 1'
_cell_length_a   3.45458500
_cell_length_b   8.92857102
_cell_length_c   11.22374203
_cell_angle_alpha   90.00812304
_cell_angle_beta   90.00000000
_cell_angle_gamma   90.00000000
_symmetry_Int_Tables_number   1
_chemical_formula_structural   Sc8Al(B8Rh)3
_chemical_formula_sum   'Sc8 Al1 B24 Rh3'
_cell_volume   346.19079197
_cell_formula_units_Z   1
loop_
 _symmetry_equiv_pos_site_id
 _symmetry_equiv_pos_as_xyz
  1  'x, y, z'
loop_
 _atom_site_type_symbol
 _atom_site_label
 _atom_site_symmetry_multiplicity
 _atom_site_fract_x
 _atom_site_fract_y
 _atom_site_fract_z
 _atom_site_occupancy
  Sc  Sc0  1  0.000000  0.945853  0.373641  1
  Sc  Sc1  1  0.000000  0.055228  0.627880  1
  Sc  Sc2  1  0.000000  0.556429  0.872793  1
  Sc  Sc3  1  0.000000  0.181002  0.916533  1
  Sc  Sc4  1  0.000000  0.822169  0.087411  1
  Sc  Sc5  1  0.000000  0.680319  0.584891  1
  Sc  Sc6  1  0.000000  0.316664  0.410971  1
  Sc  Sc7  1  0.000000  0.444267  0.126643  1
  Al  Al8  1  0.000000  0.139815  0.179788  1
  B  B9  1  0.500000  0.367937  0.819539  1
  B  B10  1  0.500000  0.978729  0.212129  1
  B  B11  1  0.500000  0.552556  0.435445  1
  B  B12  1  0.500000  0.297955  0.237988  1
  B  B13  1  0.500000  0.203901  0.737857  1
  B  B14  1  0.500000  0.102030  0.472688  1
  B  B15  1  0.500000  0.796787  0.262676  1
  B  B16  1  0.500000  0.446403  0.563918  1
  B  B17  1  0.500000  0.246916  0.577614  1
  B  B18  1  0.500000  0.479115  0.287711  1
  B  B19  1  0.500000  0.703923  0.761542  1
  B  B20  1  0.500000  0.754218  0.421055  1
  B  B21  1  0.500000  0.519868  0.713072  1
  B  B22  1  0.500000  0.898336  0.527702  1
  B  B23  1  0.500000  0.052540  0.063271  1
  B  B24  1  0.500000  0.601635  0.027507  1
  B  B25  1  0.500000  0.748088  0.922641  1
  B  B26  1  0.500000  0.019745  0.787728  1
  B  B27  1  0.500000  0.398157  0.972204  1
  B  B28  1  0.500000  0.946718  0.936304  1
  B  B29  1  0.500000  0.631306  0.181743  1
  B  B30  1  0.500000  0.253054  0.077468  1
  B  B31  1  0.500000  0.867927  0.680465  1
  B  B32  1  0.500000  0.131643  0.319370  1
  Rh  Rh33  1  0.000000  0.359511  0.680085  1
  Rh  Rh34  1  0.000000  0.857792  0.818738  1
  Rh  Rh35  1  0.000000  0.641463  0.320991  1
