# generated using pymatgen
data_Ho3Er3Fe4(Co7P6)2
_symmetry_space_group_name_H-M   'P 1'
_cell_length_a   3.68829000
_cell_length_b   10.55082321
_cell_length_c   12.09598924
_cell_angle_alpha   90.02300256
_cell_angle_beta   90.00000000
_cell_angle_gamma   90.00000000
_symmetry_Int_Tables_number   1
_chemical_formula_structural   Ho3Er3Fe4(Co7P6)2
_chemical_formula_sum   'Ho3 Er3 Fe4 Co14 P12'
_cell_volume   470.70928404
_cell_formula_units_Z   1
loop_
 _symmetry_equiv_pos_site_id
 _symmetry_equiv_pos_as_xyz
  1  'x, y, z'
loop_
 _atom_site_type_symbol
 _atom_site_label
 _atom_site_symmetry_multiplicity
 _atom_site_fract_x
 _atom_site_fract_y
 _atom_site_fract_z
 _atom_site_occupancy
  Ho  Ho0  1  0.000000  0.500000  0.522643  1
  Ho  Ho1  1  0.500000  0.999907  0.477376  1
  Ho  Ho2  1  0.000000  0.318856  0.795994  1
  Er  Er3  1  0.500000  0.818954  0.204129  1
  Er  Er4  1  0.500000  0.181170  0.204017  1
  Er  Er5  1  0.000000  0.681182  0.795746  1
  Fe  Fe6  1  0.000000  0.500029  0.988550  1
  Fe  Fe7  1  0.500000  0.000033  0.011646  1
  Fe  Fe8  1  0.500000  0.499972  0.155987  1
  Fe  Fe9  1  0.000000  0.000024  0.844029  1
  Co  Co10  1  0.500000  0.296804  0.430295  1
  Co  Co11  1  0.500000  0.703234  0.430421  1
  Co  Co12  1  0.000000  0.203120  0.569466  1
  Co  Co13  1  0.000000  0.796830  0.569625  1
  Co  Co14  1  0.500000  0.878767  0.709076  1
  Co  Co15  1  0.500000  0.120907  0.708990  1
  Co  Co16  1  0.000000  0.621156  0.290871  1
  Co  Co17  1  0.000000  0.378791  0.290862  1
  Co  Co18  1  0.500000  0.331672  0.994516  1
  Co  Co19  1  0.500000  0.668299  0.994329  1
  Co  Co20  1  0.000000  0.168207  0.005827  1
  Co  Co21  1  0.000000  0.831756  0.005684  1
  Co  Co22  1  0.500000  0.500265  0.701282  1
  Co  Co23  1  0.000000  0.000000  0.298588  1
  P  P24  1  0.500000  0.310296  0.616629  1
  P  P25  1  0.500000  0.689791  0.616914  1
  P  P26  1  0.000000  0.189666  0.383030  1
  P  P27  1  0.000000  0.810377  0.383097  1
  P  P28  1  0.500000  0.500188  0.884193  1
  P  P29  1  0.000000  0.000031  0.115932  1
  P  P30  1  0.500000  0.847503  0.893012  1
  P  P31  1  0.500000  0.152284  0.893261  1
  P  P32  1  0.000000  0.652574  0.107045  1
  P  P33  1  0.000000  0.347412  0.106989  1
  P  P34  1  0.500000  0.499965  0.342407  1
  P  P35  1  0.000000  0.999978  0.657540  1
