# generated using pymatgen
data_La20GaSi10As
_symmetry_space_group_name_H-M   'P 1'
_cell_length_a   7.89725500
_cell_length_b   7.89725500
_cell_length_c   14.54449500
_cell_angle_alpha   90.00000000
_cell_angle_beta   90.00000000
_cell_angle_gamma   90.00000000
_symmetry_Int_Tables_number   1
_chemical_formula_structural   La20GaSi10As
_chemical_formula_sum   'La20 Ga1 Si10 As1'
_cell_volume   907.09123325
_cell_formula_units_Z   1
loop_
 _symmetry_equiv_pos_site_id
 _symmetry_equiv_pos_as_xyz
  1  'x, y, z'
loop_
 _atom_site_type_symbol
 _atom_site_label
 _atom_site_symmetry_multiplicity
 _atom_site_fract_x
 _atom_site_fract_y
 _atom_site_fract_z
 _atom_site_occupancy
  La  La0  1  0.500000  0.000000  0.777279  1
  La  La1  1  0.330399  0.314640  0.105283  1
  La  La2  1  0.829180  0.816082  0.894426  1
  La  La3  1  0.000000  0.500000  0.226637  1
  La  La4  1  0.826879  0.182142  0.392796  1
  La  La5  1  0.170820  0.183918  0.894426  1
  La  La6  1  0.669601  0.685360  0.105283  1
  La  La7  1  0.000000  0.500000  0.720140  1
  La  La8  1  0.811641  0.834088  0.607606  1
  La  La9  1  0.317858  0.326879  0.392796  1
  La  La10  1  0.185360  0.830399  0.105283  1
  La  La11  1  0.188359  0.165912  0.607606  1
  La  La12  1  0.814640  0.169601  0.105283  1
  La  La13  1  0.334088  0.688359  0.607606  1
  La  La14  1  0.500000  0.000000  0.276819  1
  La  La15  1  0.683918  0.329180  0.894426  1
  La  La16  1  0.665912  0.311641  0.607606  1
  La  La17  1  0.316082  0.670820  0.894426  1
  La  La18  1  0.173121  0.817858  0.392796  1
  La  La19  1  0.682142  0.673121  0.392796  1
  Ga  Ga20  1  0.000000  0.500000  0.501833  1
  Si  Si21  1  0.613338  0.387345  0.248754  1
  Si  Si22  1  0.887274  0.114077  0.751599  1
  Si  Si23  1  0.500000  0.000000  0.494551  1
  Si  Si24  1  0.887345  0.886662  0.248754  1
  Si  Si25  1  0.112726  0.885923  0.751599  1
  Si  Si26  1  0.385923  0.387274  0.751599  1
  Si  Si27  1  0.112655  0.113338  0.248754  1
  Si  Si28  1  0.386662  0.612655  0.248754  1
  Si  Si29  1  0.614077  0.612726  0.751599  1
  Si  Si30  1  0.500000  0.000000  0.995118  1
  As  As31  1  0.000000  0.500000  0.005762  1
