# generated using pymatgen
data_HoTm(MgIr)2
_symmetry_space_group_name_H-M   'P 1'
_cell_length_a   4.09189000
_cell_length_b   7.04957975
_cell_length_c   8.51892300
_cell_angle_alpha   90.30327265
_cell_angle_beta   90.00000000
_cell_angle_gamma   90.00000000
_symmetry_Int_Tables_number   1
_chemical_formula_structural   HoTm(MgIr)2
_chemical_formula_sum   'Ho2 Tm2 Mg4 Ir4'
_cell_volume   245.73430407
_cell_formula_units_Z   2
loop_
 _symmetry_equiv_pos_site_id
 _symmetry_equiv_pos_as_xyz
  1  'x, y, z'
loop_
 _atom_site_type_symbol
 _atom_site_label
 _atom_site_symmetry_multiplicity
 _atom_site_fract_x
 _atom_site_fract_y
 _atom_site_fract_z
 _atom_site_occupancy
  Ho  Ho0  1  0.750000  0.961061  0.674951  1
  Ho  Ho1  1  0.250000  0.038939  0.325049  1
  Tm  Tm2  1  0.250000  0.539974  0.172741  1
  Tm  Tm3  1  0.750000  0.460026  0.827259  1
  Mg  Mg4  1  0.250000  0.634634  0.559470  1
  Mg  Mg5  1  0.750000  0.365366  0.440530  1
  Mg  Mg6  1  0.750000  0.864229  0.059283  1
  Mg  Mg7  1  0.250000  0.135771  0.940717  1
  Ir  Ir8  1  0.250000  0.748590  0.870240  1
  Ir  Ir9  1  0.750000  0.251410  0.129760  1
  Ir  Ir10  1  0.750000  0.747552  0.368120  1
  Ir  Ir11  1  0.250000  0.252448  0.631880  1
