# generated using pymatgen
data_Sm4C5
_symmetry_space_group_name_H-M   'P 1'
_cell_length_a   3.78600000
_cell_length_b   6.77997100
_cell_length_c   12.27433500
_cell_angle_alpha   90.00000000
_cell_angle_beta   90.00000000
_cell_angle_gamma   90.00000000
_symmetry_Int_Tables_number   1
_chemical_formula_structural   Sm4C5
_chemical_formula_sum   'Sm8 C10'
_cell_volume   315.06953941
_cell_formula_units_Z   2
loop_
 _symmetry_equiv_pos_site_id
 _symmetry_equiv_pos_as_xyz
  1  'x, y, z'
loop_
 _atom_site_type_symbol
 _atom_site_label
 _atom_site_symmetry_multiplicity
 _atom_site_fract_x
 _atom_site_fract_y
 _atom_site_fract_z
 _atom_site_occupancy
  Sm  Sm0  1  0.000000  0.253766  0.541879  1
  Sm  Sm1  1  0.000000  0.746234  0.458121  1
  Sm  Sm2  1  0.000000  0.753766  0.958121  1
  Sm  Sm3  1  0.000000  0.246234  0.041879  1
  Sm  Sm4  1  0.500000  0.106697  0.802827  1
  Sm  Sm5  1  0.500000  0.893303  0.197173  1
  Sm  Sm6  1  0.500000  0.606697  0.697173  1
  Sm  Sm7  1  0.500000  0.393303  0.302827  1
  C  C8  1  0.500000  0.500000  0.500000  1
  C  C9  1  0.500000  0.000000  0.000000  1
  C  C10  1  0.000000  0.359478  0.736486  1
  C  C11  1  0.000000  0.640522  0.263514  1
  C  C12  1  0.000000  0.859478  0.763514  1
  C  C13  1  0.000000  0.140522  0.236486  1
  C  C14  1  0.000000  0.402517  0.841652  1
  C  C15  1  0.000000  0.597483  0.158348  1
  C  C16  1  0.000000  0.097483  0.341652  1
  C  C17  1  0.000000  0.902517  0.658348  1
