# generated using pymatgen
data_Dy2Y3(Tl2Pt)2
_symmetry_space_group_name_H-M   'P 1'
_cell_length_a   3.63574400
_cell_length_b   8.18819300
_cell_length_c   18.29285700
_cell_angle_alpha   90.00000000
_cell_angle_beta   90.00000000
_cell_angle_gamma   90.00000000
_symmetry_Int_Tables_number   1
_chemical_formula_structural   Dy2Y3(Tl2Pt)2
_chemical_formula_sum   'Dy4 Y6 Tl8 Pt4'
_cell_volume   544.58152799
_cell_formula_units_Z   2
loop_
 _symmetry_equiv_pos_site_id
 _symmetry_equiv_pos_as_xyz
  1  'x, y, z'
loop_
 _atom_site_type_symbol
 _atom_site_label
 _atom_site_symmetry_multiplicity
 _atom_site_fract_x
 _atom_site_fract_y
 _atom_site_fract_z
 _atom_site_occupancy
  Dy  Dy0  1  0.000000  0.243347  0.220565  1
  Dy  Dy1  1  0.000000  0.756653  0.779435  1
  Dy  Dy2  1  0.000000  0.256653  0.720565  1
  Dy  Dy3  1  0.000000  0.743347  0.279435  1
  Y  Y4  1  0.000000  0.117013  0.414525  1
  Y  Y5  1  0.000000  0.882987  0.585475  1
  Y  Y6  1  0.000000  0.382987  0.914525  1
  Y  Y7  1  0.000000  0.617013  0.085475  1
  Y  Y8  1  0.000000  0.000000  0.000000  1
  Y  Y9  1  0.000000  0.500000  0.500000  1
  Tl  Tl10  1  0.500000  0.422603  0.352218  1
  Tl  Tl11  1  0.500000  0.577397  0.647782  1
  Tl  Tl12  1  0.500000  0.077397  0.852218  1
  Tl  Tl13  1  0.500000  0.922603  0.147782  1
  Tl  Tl14  1  0.500000  0.292538  0.066304  1
  Tl  Tl15  1  0.500000  0.707462  0.933696  1
  Tl  Tl16  1  0.500000  0.207462  0.566304  1
  Tl  Tl17  1  0.500000  0.792538  0.433696  1
  Pt  Pt18  1  0.500000  0.025821  0.302918  1
  Pt  Pt19  1  0.500000  0.974179  0.697082  1
  Pt  Pt20  1  0.500000  0.474179  0.802918  1
  Pt  Pt21  1  0.500000  0.525821  0.197082  1
