# generated using pymatgen
data_Ce4Ir3Rh
_symmetry_space_group_name_H-M   'P 1'
_cell_length_a   3.85703100
_cell_length_b   4.05939500
_cell_length_c   11.28790400
_cell_angle_alpha   90.00000000
_cell_angle_beta   90.00000000
_cell_angle_gamma   90.00000000
_symmetry_Int_Tables_number   1
_chemical_formula_structural   Ce4Ir3Rh
_chemical_formula_sum   'Ce4 Ir3 Rh1'
_cell_volume   176.73710998
_cell_formula_units_Z   1
loop_
 _symmetry_equiv_pos_site_id
 _symmetry_equiv_pos_as_xyz
  1  'x, y, z'
loop_
 _atom_site_type_symbol
 _atom_site_label
 _atom_site_symmetry_multiplicity
 _atom_site_fract_x
 _atom_site_fract_y
 _atom_site_fract_z
 _atom_site_occupancy
  Ce  Ce0  1  0.500000  0.500000  0.364344  1
  Ce  Ce1  1  0.000000  0.500000  0.861328  1
  Ce  Ce2  1  0.000000  0.000000  0.136227  1
  Ce  Ce3  1  0.500000  0.000000  0.638100  1
  Ir  Ir4  1  0.000000  0.500000  0.596795  1
  Ir  Ir5  1  0.000000  0.000000  0.402783  1
  Ir  Ir6  1  0.500000  0.000000  0.903936  1
  Rh  Rh7  1  0.500000  0.500000  0.096487  1
