# generated using pymatgen
data_Pr5Nd11(Ga3Co)2
_symmetry_space_group_name_H-M   'P 1'
_cell_length_a   10.38438001
_cell_length_b   10.38729766
_cell_length_c   7.27443901
_cell_angle_alpha   90.00073431
_cell_angle_beta   89.99398422
_cell_angle_gamma   119.99141215
_symmetry_Int_Tables_number   1
_chemical_formula_structural   Pr5Nd11(Ga3Co)2
_chemical_formula_sum   'Pr5 Nd11 Ga6 Co2'
_cell_volume   679.59607427
_cell_formula_units_Z   1
loop_
 _symmetry_equiv_pos_site_id
 _symmetry_equiv_pos_as_xyz
  1  'x, y, z'
loop_
 _atom_site_type_symbol
 _atom_site_label
 _atom_site_symmetry_multiplicity
 _atom_site_fract_x
 _atom_site_fract_y
 _atom_site_fract_z
 _atom_site_occupancy
  Pr  Pr0  1  0.666712  0.333425  0.177697  1
  Pr  Pr1  1  0.999921  0.999863  0.271860  1
  Pr  Pr2  1  0.459782  0.919553  0.292106  1
  Pr  Pr3  1  0.080268  0.540261  0.291852  1
  Pr  Pr4  1  0.459984  0.540252  0.291947  1
  Nd  Nd5  1  0.342175  0.171062  0.484116  1
  Nd  Nd6  1  0.828895  0.171062  0.484157  1
  Nd  Nd7  1  0.828888  0.657747  0.484436  1
  Nd  Nd8  1  0.333256  0.666551  0.678664  1
  Nd  Nd9  1  0.000080  0.000183  0.771587  1
  Nd  Nd10  1  0.540517  0.081058  0.791922  1
  Nd  Nd11  1  0.540283  0.459455  0.791688  1
  Nd  Nd12  1  0.919195  0.459479  0.791663  1
  Nd  Nd13  1  0.171128  0.828881  0.983151  1
  Nd  Nd14  1  0.657768  0.828865  0.983137  1
  Nd  Nd15  1  0.171160  0.342294  0.983348  1
  Ga  Ga16  1  0.836046  0.672072  0.045710  1
  Ga  Ga17  1  0.327588  0.163730  0.045648  1
  Ga  Ga18  1  0.836150  0.163711  0.045648  1
  Ga  Ga19  1  0.163954  0.327946  0.546603  1
  Ga  Ga20  1  0.163850  0.836274  0.546512  1
  Ga  Ga21  1  0.672424  0.836296  0.546496  1
  Co  Co22  1  0.333354  0.666721  0.047410  1
  Co  Co23  1  0.666624  0.333261  0.548650  1
