# generated using pymatgen
data_Tb7DyHf3Si16Mo9
_symmetry_space_group_name_H-M   'P 1'
_cell_length_a   6.99379773
_cell_length_b   6.99379421
_cell_length_c   12.94631710
_cell_angle_alpha   89.94747886
_cell_angle_beta   90.07216822
_cell_angle_gamma   89.77921845
_symmetry_Int_Tables_number   1
_chemical_formula_structural   Tb7DyHf3Si16Mo9
_chemical_formula_sum   'Tb7 Dy1 Hf3 Si16 Mo9'
_cell_volume   633.24009351
_cell_formula_units_Z   1
loop_
 _symmetry_equiv_pos_site_id
 _symmetry_equiv_pos_as_xyz
  1  'x, y, z'
loop_
 _atom_site_type_symbol
 _atom_site_label
 _atom_site_symmetry_multiplicity
 _atom_site_fract_x
 _atom_site_fract_y
 _atom_site_fract_z
 _atom_site_occupancy
  Tb  Tb0  1  0.004720  0.660907  0.720254  1
  Tb  Tb1  1  0.161139  0.497051  0.468151  1
  Tb  Tb2  1  0.500254  0.840837  0.031103  1
  Tb  Tb3  1  0.840877  0.500249  0.969117  1
  Tb  Tb4  1  0.497100  0.161211  0.531599  1
  Tb  Tb5  1  0.337473  0.999925  0.783380  1
  Tb  Tb6  1  0.661023  0.004758  0.279667  1
  Dy  Dy7  1  0.000540  0.337849  0.216615  1
  Hf  Hf8  1  0.832017  0.832041  0.499948  1
  Hf  Hf9  1  0.329911  0.668854  0.247675  1
  Hf  Hf10  1  0.668916  0.330040  0.752284  1
  Si  Si11  1  0.370627  0.294952  0.316472  1
  Si  Si12  1  0.626654  0.706295  0.817133  1
  Si  Si13  1  0.204540  0.872699  0.567597  1
  Si  Si14  1  0.124687  0.804108  0.934901  1
  Si  Si15  1  0.804711  0.125158  0.065611  1
  Si  Si16  1  0.872864  0.204579  0.432071  1
  Si  Si17  1  0.294951  0.371536  0.683327  1
  Si  Si18  1  0.706791  0.626224  0.182884  1
  Si  Si19  1  0.286668  0.046623  0.183257  1
  Si  Si20  1  0.709221  0.958380  0.688961  1
  Si  Si21  1  0.456898  0.790242  0.437701  1
  Si  Si22  1  0.211893  0.532769  0.058771  1
  Si  Si23  1  0.533134  0.212363  0.941551  1
  Si  Si24  1  0.790178  0.456926  0.562234  1
  Si  Si25  1  0.046216  0.287280  0.816809  1
  Si  Si26  1  0.958564  0.708511  0.310810  1
  Mo  Mo27  1  0.167432  0.167788  0.000337  1
  Mo  Mo28  1  0.160382  0.994767  0.374980  1
  Mo  Mo29  1  0.833153  0.003854  0.877179  1
  Mo  Mo30  1  0.506502  0.659715  0.626504  1
  Mo  Mo31  1  0.343877  0.497619  0.873559  1
  Mo  Mo32  1  0.497717  0.344010  0.126609  1
  Mo  Mo33  1  0.660060  0.506281  0.373224  1
  Mo  Mo34  1  0.994633  0.160589  0.624728  1
  Mo  Mo35  1  0.003678  0.833012  0.122999  1
