# generated using pymatgen
data_NaSr(In2Pt)2
_symmetry_space_group_name_H-M   'P 1'
_cell_length_a   5.82236659
_cell_length_b   5.82236621
_cell_length_c   8.01113300
_cell_angle_alpha   90.00000000
_cell_angle_beta   90.00000000
_cell_angle_gamma   134.52310703
_symmetry_Int_Tables_number   1
_chemical_formula_structural   NaSr(In2Pt)2
_chemical_formula_sum   'Na1 Sr1 In4 Pt2'
_cell_volume   193.62564273
_cell_formula_units_Z   1
loop_
 _symmetry_equiv_pos_site_id
 _symmetry_equiv_pos_as_xyz
  1  'x, y, z'
loop_
 _atom_site_type_symbol
 _atom_site_label
 _atom_site_symmetry_multiplicity
 _atom_site_fract_x
 _atom_site_fract_y
 _atom_site_fract_z
 _atom_site_occupancy
  Na  Na0  1  0.937353  0.062647  0.750000  1
  Sr  Sr1  1  0.062087  0.937913  0.250000  1
  In  In2  1  0.650313  0.349687  0.940170  1
  In  In3  1  0.650313  0.349687  0.559830  1
  In  In4  1  0.352243  0.647757  0.046494  1
  In  In5  1  0.352243  0.647757  0.453506  1
  Pt  Pt6  1  0.216705  0.783295  0.750000  1
  Pt  Pt7  1  0.778745  0.221255  0.250000  1
