# generated using pymatgen
data_AcGe2
_symmetry_space_group_name_H-M   'P 1'
_cell_length_a   8.45655463
_cell_length_b   8.45655469
_cell_length_c   8.45655518
_cell_angle_alpha   149.16591647
_cell_angle_beta   149.16592190
_cell_angle_gamma   44.16714016
_symmetry_Int_Tables_number   1
_chemical_formula_structural   AcGe2
_chemical_formula_sum   'Ac2 Ge4'
_cell_volume   158.41624754
_cell_formula_units_Z   2
loop_
 _symmetry_equiv_pos_site_id
 _symmetry_equiv_pos_as_xyz
  1  'x, y, z'
loop_
 _atom_site_type_symbol
 _atom_site_label
 _atom_site_symmetry_multiplicity
 _atom_site_fract_x
 _atom_site_fract_y
 _atom_site_fract_z
 _atom_site_occupancy
  Ac  Ac0  1  0.500000  0.500000  0.000000  1
  Ac  Ac1  1  0.250000  0.750000  0.500000  1
  Ge  Ge2  1  0.832942  0.332942  0.500000  1
  Ge  Ge3  1  0.082942  0.082942  0.000000  1
  Ge  Ge4  1  0.667058  0.167058  0.500000  1
  Ge  Ge5  1  0.917058  0.917058  0.000000  1
