# generated using pymatgen
data_Ca2ZnGePd13
_symmetry_space_group_name_H-M   'P 1'
_cell_length_a   8.94007728
_cell_length_b   8.92131600
_cell_length_c   7.14130834
_cell_angle_alpha   90.00000000
_cell_angle_beta   90.15428815
_cell_angle_gamma   90.00000000
_symmetry_Int_Tables_number   1
_chemical_formula_structural   Ca2ZnGePd13
_chemical_formula_sum   'Ca4 Zn2 Ge2 Pd26'
_cell_volume   569.56908099
_cell_formula_units_Z   2
loop_
 _symmetry_equiv_pos_site_id
 _symmetry_equiv_pos_as_xyz
  1  'x, y, z'
loop_
 _atom_site_type_symbol
 _atom_site_label
 _atom_site_symmetry_multiplicity
 _atom_site_fract_x
 _atom_site_fract_y
 _atom_site_fract_z
 _atom_site_occupancy
  Ca  Ca0  1  0.510442  0.000000  0.936970  1
  Ca  Ca1  1  0.989558  0.500000  0.063030  1
  Ca  Ca2  1  0.000831  0.000000  0.499218  1
  Ca  Ca3  1  0.499169  0.500000  0.500782  1
  Zn  Zn4  1  0.250000  0.750000  0.000000  1
  Zn  Zn5  1  0.250000  0.250000  0.000000  1
  Ge  Ge6  1  0.503149  0.000000  0.447760  1
  Ge  Ge7  1  0.996851  0.500000  0.552240  1
  Pd  Pd8  1  0.329889  0.830089  0.622481  1
  Pd  Pd9  1  0.329889  0.169911  0.622481  1
  Pd  Pd10  1  0.670644  0.828418  0.625154  1
  Pd  Pd11  1  0.670644  0.171582  0.625154  1
  Pd  Pd12  1  0.170111  0.669911  0.377519  1
  Pd  Pd13  1  0.170111  0.330089  0.377519  1
  Pd  Pd14  1  0.829356  0.671582  0.374846  1
  Pd  Pd15  1  0.829356  0.328418  0.374846  1
  Pd  Pd16  1  0.496670  0.765208  0.251495  1
  Pd  Pd17  1  0.496670  0.234792  0.251495  1
  Pd  Pd18  1  0.267860  0.000000  0.252010  1
  Pd  Pd19  1  0.736472  0.000000  0.252387  1
  Pd  Pd20  1  0.003330  0.734792  0.748505  1
  Pd  Pd21  1  0.003330  0.265208  0.748505  1
  Pd  Pd22  1  0.232140  0.500000  0.747990  1
  Pd  Pd23  1  0.763528  0.500000  0.747613  1
  Pd  Pd24  1  0.492360  0.344881  0.863021  1
  Pd  Pd25  1  0.492360  0.655119  0.863021  1
  Pd  Pd26  1  0.854980  0.000000  0.857759  1
  Pd  Pd27  1  0.164257  0.000000  0.866023  1
  Pd  Pd28  1  0.007640  0.155119  0.136979  1
  Pd  Pd29  1  0.007640  0.844881  0.136979  1
  Pd  Pd30  1  0.645020  0.500000  0.142241  1
  Pd  Pd31  1  0.335743  0.500000  0.133977  1
  Pd  Pd32  1  0.750000  0.750000  0.000000  1
  Pd  Pd33  1  0.750000  0.250000  0.000000  1
