# generated using pymatgen
data_Y6Zn23N
_symmetry_space_group_name_H-M   'P 1'
_cell_length_a   8.93107266
_cell_length_b   8.93107127
_cell_length_c   8.93107200
_cell_angle_alpha   59.99999729
_cell_angle_beta   60.00000245
_cell_angle_gamma   60.00000074
_symmetry_Int_Tables_number   1
_chemical_formula_structural   Y6Zn23N
_chemical_formula_sum   'Y6 Zn23 N1'
_cell_volume   503.72762879
_cell_formula_units_Z   1
loop_
 _symmetry_equiv_pos_site_id
 _symmetry_equiv_pos_as_xyz
  1  'x, y, z'
loop_
 _atom_site_type_symbol
 _atom_site_label
 _atom_site_symmetry_multiplicity
 _atom_site_fract_x
 _atom_site_fract_y
 _atom_site_fract_z
 _atom_site_occupancy
  Y  Y0  1  0.696078  0.303922  0.303922  1
  Y  Y1  1  0.696078  0.303922  0.696078  1
  Y  Y2  1  0.696078  0.696078  0.303922  1
  Y  Y3  1  0.303922  0.696078  0.696078  1
  Y  Y4  1  0.303922  0.696078  0.303922  1
  Y  Y5  1  0.303922  0.303922  0.696078  1
  Zn  Zn6  1  0.632992  0.122337  0.122337  1
  Zn  Zn7  1  0.122337  0.632992  0.122337  1
  Zn  Zn8  1  0.122337  0.122337  0.632992  1
  Zn  Zn9  1  0.122337  0.122337  0.122337  1
  Zn  Zn10  1  0.367008  0.877663  0.877663  1
  Zn  Zn11  1  0.877663  0.367008  0.877663  1
  Zn  Zn12  1  0.877663  0.877663  0.367008  1
  Zn  Zn13  1  0.877663  0.877663  0.877663  1
  Zn  Zn14  1  0.500000  0.000000  0.000000  1
  Zn  Zn15  1  0.500000  0.000000  0.500000  1
  Zn  Zn16  1  0.500000  0.500000  0.000000  1
  Zn  Zn17  1  0.000000  0.500000  0.500000  1
  Zn  Zn18  1  0.000000  0.500000  0.000000  1
  Zn  Zn19  1  0.000000  0.000000  0.500000  1
  Zn  Zn20  1  0.000000  0.000000  0.000000  1
  Zn  Zn21  1  0.017756  0.327414  0.327414  1
  Zn  Zn22  1  0.327414  0.017756  0.327414  1
  Zn  Zn23  1  0.327414  0.327414  0.017756  1
  Zn  Zn24  1  0.327414  0.327414  0.327414  1
  Zn  Zn25  1  0.982244  0.672586  0.672586  1
  Zn  Zn26  1  0.672586  0.982244  0.672586  1
  Zn  Zn27  1  0.672586  0.672586  0.982244  1
  Zn  Zn28  1  0.672586  0.672586  0.672586  1
  N  N29  1  0.500000  0.500000  0.500000  1
