# generated using pymatgen
data_Th3In2GaCuRh2
_symmetry_space_group_name_H-M   'P 1'
_cell_length_a   7.51943900
_cell_length_b   7.54415383
_cell_length_c   4.04308100
_cell_angle_alpha   90.00000000
_cell_angle_beta   90.00000000
_cell_angle_gamma   119.89170216
_symmetry_Int_Tables_number   1
_chemical_formula_structural   Th3In2GaCuRh2
_chemical_formula_sum   'Th3 In2 Ga1 Cu1 Rh2'
_cell_volume   198.84375395
_cell_formula_units_Z   1
loop_
 _symmetry_equiv_pos_site_id
 _symmetry_equiv_pos_as_xyz
  1  'x, y, z'
loop_
 _atom_site_type_symbol
 _atom_site_label
 _atom_site_symmetry_multiplicity
 _atom_site_fract_x
 _atom_site_fract_y
 _atom_site_fract_z
 _atom_site_occupancy
  Th  Th0  1  0.994171  0.412125  0.500000  1
  Th  Th1  1  0.582046  0.587875  0.500000  1
  Th  Th2  1  0.432308  0.000000  0.500000  1
  In  In3  1  0.002122  0.761232  0.000000  1
  In  In4  1  0.240890  0.238768  0.000000  1
  Ga  Ga5  1  0.756912  0.000000  0.000000  1
  Cu  Cu6  1  0.981019  0.000000  0.500000  1
  Rh  Rh7  1  0.341499  0.672469  0.000000  1
  Rh  Rh8  1  0.669032  0.327531  0.000000  1
