# generated using pymatgen
data_Ho16MgIn3Ir4
_symmetry_space_group_name_H-M   'P 1'
_cell_length_a   9.64313658
_cell_length_b   9.64313665
_cell_length_c   9.64313751
_cell_angle_alpha   59.96960281
_cell_angle_beta   59.96960380
_cell_angle_gamma   59.96960008
_symmetry_Int_Tables_number   1
_chemical_formula_structural   Ho16MgIn3Ir4
_chemical_formula_sum   'Ho16 Mg1 In3 Ir4'
_cell_volume   633.63699790
_cell_formula_units_Z   1
loop_
 _symmetry_equiv_pos_site_id
 _symmetry_equiv_pos_as_xyz
  1  'x, y, z'
loop_
 _atom_site_type_symbol
 _atom_site_label
 _atom_site_symmetry_multiplicity
 _atom_site_fract_x
 _atom_site_fract_y
 _atom_site_fract_z
 _atom_site_occupancy
  Ho  Ho0  1  0.438113  0.438113  0.060361  1
  Ho  Ho1  1  0.650702  0.650702  0.046149  1
  Ho  Ho2  1  0.189094  0.812564  0.189094  1
  Ho  Ho3  1  0.059840  0.440225  0.059840  1
  Ho  Ho4  1  0.191993  0.808908  0.808908  1
  Ho  Ho5  1  0.060361  0.438113  0.438113  1
  Ho  Ho6  1  0.812564  0.189094  0.189094  1
  Ho  Ho7  1  0.651880  0.651880  0.651880  1
  Ho  Ho8  1  0.808908  0.191993  0.808908  1
  Ho  Ho9  1  0.189094  0.189094  0.812564  1
  Ho  Ho10  1  0.046149  0.650702  0.650702  1
  Ho  Ho11  1  0.440225  0.059840  0.059840  1
  Ho  Ho12  1  0.059840  0.059840  0.440225  1
  Ho  Ho13  1  0.650702  0.046149  0.650702  1
  Ho  Ho14  1  0.808908  0.808908  0.191993  1
  Ho  Ho15  1  0.438113  0.060361  0.438113  1
  Mg  Mg16  1  0.421566  0.421566  0.421566  1
  In  In17  1  0.417443  0.417443  0.747438  1
  In  In18  1  0.417443  0.747438  0.417443  1
  In  In19  1  0.747438  0.417443  0.417443  1
  Ir  Ir20  1  0.423814  0.858758  0.858758  1
  Ir  Ir21  1  0.858294  0.858294  0.858294  1
  Ir  Ir22  1  0.858758  0.423814  0.858758  1
  Ir  Ir23  1  0.858758  0.858758  0.423814  1
