# generated using pymatgen
data_Ca2H7Pt2
_symmetry_space_group_name_H-M   'P 1'
_cell_length_a   4.48010260
_cell_length_b   7.32632902
_cell_length_c   7.88269484
_cell_angle_alpha   80.50065309
_cell_angle_beta   31.54466314
_cell_angle_gamma   71.78157002
_symmetry_Int_Tables_number   1
_chemical_formula_structural   Ca2H7Pt2
_chemical_formula_sum   'Ca2 H7 Pt2'
_cell_volume   125.86792970
_cell_formula_units_Z   1
loop_
 _symmetry_equiv_pos_site_id
 _symmetry_equiv_pos_as_xyz
  1  'x, y, z'
loop_
 _atom_site_type_symbol
 _atom_site_label
 _atom_site_symmetry_multiplicity
 _atom_site_fract_x
 _atom_site_fract_y
 _atom_site_fract_z
 _atom_site_occupancy
  Ca  Ca0  1  0.887629  0.210209  0.271152  1
  Ca  Ca1  1  0.500035  0.718952  0.694935  1
  H  H2  1  0.496011  0.062416  0.743143  1
  H  H3  1  0.014010  0.070525  0.742490  1
  H  H4  1  0.393092  0.860640  0.215729  1
  H  H5  1  0.194008  0.376215  0.338302  1
  H  H6  1  0.056652  0.468917  0.996533  1
  H  H7  1  0.149183  0.553040  0.646737  1
  H  H8  1  0.915204  0.865615  0.214071  1
  Pt  Pt9  1  0.205651  0.964679  0.478471  1
  Pt  Pt10  1  0.680217  0.465012  0.992895  1
