# generated using pymatgen
data_Hf2ZrSc(FeSi)4
_symmetry_space_group_name_H-M   'P 1'
_cell_length_a   4.02830100
_cell_length_b   6.40840472
_cell_length_c   6.82772767
_cell_angle_alpha   89.69946881
_cell_angle_beta   90.00000000
_cell_angle_gamma   90.00000000
_symmetry_Int_Tables_number   1
_chemical_formula_structural   Hf2ZrSc(FeSi)4
_chemical_formula_sum   'Hf2 Zr1 Sc1 Fe4 Si4'
_cell_volume   176.25525015
_cell_formula_units_Z   1
loop_
 _symmetry_equiv_pos_site_id
 _symmetry_equiv_pos_as_xyz
  1  'x, y, z'
loop_
 _atom_site_type_symbol
 _atom_site_label
 _atom_site_symmetry_multiplicity
 _atom_site_fract_x
 _atom_site_fract_y
 _atom_site_fract_z
 _atom_site_occupancy
  Hf  Hf0  1  0.750000  0.014620  0.695906  1
  Hf  Hf1  1  0.750000  0.513752  0.802750  1
  Zr  Zr2  1  0.250000  0.487794  0.195646  1
  Sc  Sc3  1  0.250000  0.989600  0.305618  1
  Fe  Fe4  1  0.250000  0.156042  0.938125  1
  Fe  Fe5  1  0.250000  0.653635  0.563325  1
  Fe  Fe6  1  0.750000  0.839142  0.055350  1
  Fe  Fe7  1  0.750000  0.344687  0.443572  1
  Si  Si8  1  0.250000  0.293314  0.608221  1
  Si  Si9  1  0.250000  0.795299  0.889691  1
  Si  Si10  1  0.750000  0.709047  0.394243  1
  Si  Si11  1  0.750000  0.203069  0.107555  1
