# generated using pymatgen
data_Y2Sc3Si4
_symmetry_space_group_name_H-M   'P 1'
_cell_length_a   7.10011700
_cell_length_b   7.38764400
_cell_length_c   14.00898500
_cell_angle_alpha   90.00000000
_cell_angle_beta   90.00000000
_cell_angle_gamma   90.00000000
_symmetry_Int_Tables_number   1
_chemical_formula_structural   Y2Sc3Si4
_chemical_formula_sum   'Y8 Sc12 Si16'
_cell_volume   734.81520599
_cell_formula_units_Z   4
loop_
 _symmetry_equiv_pos_site_id
 _symmetry_equiv_pos_as_xyz
  1  'x, y, z'
loop_
 _atom_site_type_symbol
 _atom_site_label
 _atom_site_symmetry_multiplicity
 _atom_site_fract_x
 _atom_site_fract_y
 _atom_site_fract_z
 _atom_site_occupancy
  Y  Y0  1  0.988203  0.174812  0.097056  1
  Y  Y1  1  0.488203  0.325188  0.402944  1
  Y  Y2  1  0.511797  0.674812  0.902944  1
  Y  Y3  1  0.011797  0.825188  0.597056  1
  Y  Y4  1  0.011797  0.825188  0.902944  1
  Y  Y5  1  0.511797  0.674812  0.597056  1
  Y  Y6  1  0.488203  0.325188  0.097056  1
  Y  Y7  1  0.988203  0.174812  0.402944  1
  Sc  Sc8  1  0.660846  0.002553  0.250000  1
  Sc  Sc9  1  0.160846  0.497447  0.250000  1
  Sc  Sc10  1  0.839154  0.502553  0.750000  1
  Sc  Sc11  1  0.339154  0.997447  0.750000  1
  Sc  Sc12  1  0.830978  0.677374  0.125265  1
  Sc  Sc13  1  0.330978  0.822626  0.374735  1
  Sc  Sc14  1  0.669022  0.177374  0.874735  1
  Sc  Sc15  1  0.169022  0.322626  0.625265  1
  Sc  Sc16  1  0.169022  0.322626  0.874735  1
  Sc  Sc17  1  0.669022  0.177374  0.625265  1
  Sc  Sc18  1  0.330978  0.822626  0.125265  1
  Sc  Sc19  1  0.830978  0.677374  0.374735  1
  Si  Si20  1  0.785821  0.374889  0.250000  1
  Si  Si21  1  0.285821  0.125111  0.250000  1
  Si  Si22  1  0.714179  0.874889  0.750000  1
  Si  Si23  1  0.214179  0.625111  0.750000  1
  Si  Si24  1  0.033860  0.881451  0.250000  1
  Si  Si25  1  0.533860  0.618549  0.250000  1
  Si  Si26  1  0.466140  0.381451  0.750000  1
  Si  Si27  1  0.966140  0.118549  0.750000  1
  Si  Si28  1  0.842602  0.464426  0.960363  1
  Si  Si29  1  0.342602  0.035574  0.539637  1
  Si  Si30  1  0.657398  0.964426  0.039637  1
  Si  Si31  1  0.157398  0.535574  0.460363  1
  Si  Si32  1  0.157398  0.535574  0.039637  1
  Si  Si33  1  0.657398  0.964426  0.460363  1
  Si  Si34  1  0.342602  0.035574  0.960363  1
  Si  Si35  1  0.842602  0.464426  0.539637  1
