# generated using pymatgen
data_Ba7Ca4Re4PbN16
_symmetry_space_group_name_H-M   'P 1'
_cell_length_a   10.81258540
_cell_length_b   10.56762947
_cell_length_c   8.13199758
_cell_angle_alpha   71.41258183
_cell_angle_beta   66.05718575
_cell_angle_gamma   44.69263254
_symmetry_Int_Tables_number   1
_chemical_formula_structural   Ba7Ca4Re4PbN16
_chemical_formula_sum   'Ba7 Ca4 Re4 Pb1 N16'
_cell_volume   596.60696087
_cell_formula_units_Z   1
loop_
 _symmetry_equiv_pos_site_id
 _symmetry_equiv_pos_as_xyz
  1  'x, y, z'
loop_
 _atom_site_type_symbol
 _atom_site_label
 _atom_site_symmetry_multiplicity
 _atom_site_fract_x
 _atom_site_fract_y
 _atom_site_fract_z
 _atom_site_occupancy
  Ba  Ba0  1  0.930883  0.569117  0.569117  1
  Ba  Ba1  1  0.314331  0.685669  0.685669  1
  Ba  Ba2  1  0.132303  0.107786  0.889981  1
  Ba  Ba3  1  0.147523  0.130069  0.357965  1
  Ba  Ba4  1  0.364444  0.357965  0.130069  1
  Ba  Ba5  1  0.685691  0.314309  0.314309  1
  Ba  Ba6  1  0.869930  0.889981  0.107786  1
  Ca  Ca7  1  0.350974  0.325153  0.657707  1
  Ca  Ca8  1  0.870760  0.929045  0.620628  1
  Ca  Ca9  1  0.666166  0.657707  0.325153  1
  Ca  Ca10  1  0.579567  0.620628  0.929045  1
  Re  Re11  1  0.492662  0.000963  0.489447  1
  Re  Re12  1  0.016928  0.489447  0.000963  1
  Re  Re13  1  0.758028  0.261251  0.747018  1
  Re  Re14  1  0.233703  0.747018  0.261251  1
  Pb  Pb15  1  0.539139  0.960861  0.960861  1
  N  N16  1  0.037021  0.636449  0.819853  1
  N  N17  1  0.689892  0.307625  0.983168  1
  N  N18  1  0.654895  0.015619  0.484916  1
  N  N19  1  0.506678  0.819853  0.636449  1
  N  N20  1  0.222200  0.583399  0.415958  1
  N  N21  1  0.778442  0.415958  0.583399  1
  N  N22  1  0.981973  0.027306  0.708186  1
  N  N23  1  0.544261  0.958802  0.253307  1
  N  N24  1  0.423287  0.704128  0.286346  1
  N  N25  1  0.980191  0.543839  0.224129  1
  N  N26  1  0.282535  0.708186  0.027306  1
  N  N27  1  0.844571  0.484916  0.015619  1
  N  N28  1  0.243630  0.253307  0.958802  1
  N  N29  1  0.586238  0.286346  0.704128  1
  N  N30  1  0.251840  0.224129  0.543839  1
  N  N31  1  0.019315  0.983168  0.307625  1
