# generated using pymatgen
data_Ho2Er2Ga18(PdRu)3
_symmetry_space_group_name_H-M   'P 1'
_cell_length_a   7.61148616
_cell_length_b   7.61195186
_cell_length_c   9.55664068
_cell_angle_alpha   89.95286049
_cell_angle_beta   89.93046886
_cell_angle_gamma   120.12994878
_symmetry_Int_Tables_number   1
_chemical_formula_structural   Ho2Er2Ga18(PdRu)3
_chemical_formula_sum   'Ho2 Er2 Ga18 Pd3 Ru3'
_cell_volume   478.88396089
_cell_formula_units_Z   1
loop_
 _symmetry_equiv_pos_site_id
 _symmetry_equiv_pos_as_xyz
  1  'x, y, z'
loop_
 _atom_site_type_symbol
 _atom_site_label
 _atom_site_symmetry_multiplicity
 _atom_site_fract_x
 _atom_site_fract_y
 _atom_site_fract_z
 _atom_site_occupancy
  Ho  Ho0  1  0.996752  0.668361  0.251549  1
  Ho  Ho1  1  0.002710  0.331603  0.748148  1
  Er  Er2  1  0.668337  0.997329  0.251896  1
  Er  Er3  1  0.331774  0.003127  0.748388  1
  Ga  Ga4  1  0.129494  0.127481  0.249992  1
  Ga  Ga5  1  0.872613  0.870453  0.750009  1
  Ga  Ga6  1  0.004247  0.337403  0.081378  1
  Ga  Ga7  1  0.003376  0.665839  0.918628  1
  Ga  Ga8  1  0.000064  0.661848  0.578957  1
  Ga  Ga9  1  0.338464  0.000023  0.421125  1
  Ga  Ga10  1  0.000805  0.338328  0.419751  1
  Ga  Ga11  1  0.661284  0.999072  0.580095  1
  Ga  Ga12  1  0.662226  0.995588  0.918780  1
  Ga  Ga13  1  0.334550  0.996838  0.081278  1
  Ga  Ga14  1  0.339853  0.339193  0.564406  1
  Ga  Ga15  1  0.660695  0.660338  0.435555  1
  Ga  Ga16  1  0.660390  0.665650  0.068063  1
  Ga  Ga17  1  0.334543  0.339515  0.932007  1
  Ga  Ga18  1  0.337063  0.550784  0.250847  1
  Ga  Ga19  1  0.664461  0.453148  0.746502  1
  Ga  Ga20  1  0.546756  0.335327  0.253497  1
  Ga  Ga21  1  0.449401  0.663132  0.749137  1
  Pd  Pd22  1  0.671682  0.328088  0.999982  1
  Pd  Pd23  1  0.000702  0.999286  0.999962  1
  Pd  Pd24  1  0.999647  0.000338  0.500015  1
  Ru  Ru25  1  0.327642  0.672479  0.999979  1
  Ru  Ru26  1  0.327307  0.672875  0.500047  1
  Ru  Ru27  1  0.673163  0.326553  0.500028  1
