# generated using pymatgen
data_LaGd(YB5)2
_symmetry_space_group_name_H-M   'P 1'
_cell_length_a   7.18654700
_cell_length_b   7.17482584
_cell_length_c   7.20347935
_cell_angle_alpha   76.86660395
_cell_angle_beta   90.00000000
_cell_angle_gamma   90.00000000
_symmetry_Int_Tables_number   1
_chemical_formula_structural   LaGd(YB5)2
_chemical_formula_sum   'La2 Gd2 Y4 B20'
_cell_volume   361.71224012
_cell_formula_units_Z   2
loop_
 _symmetry_equiv_pos_site_id
 _symmetry_equiv_pos_as_xyz
  1  'x, y, z'
loop_
 _atom_site_type_symbol
 _atom_site_label
 _atom_site_symmetry_multiplicity
 _atom_site_fract_x
 _atom_site_fract_y
 _atom_site_fract_z
 _atom_site_occupancy
  La  La0  1  0.687582  0.784440  0.621589  1
  La  La1  1  0.187582  0.215560  0.878411  1
  Gd  Gd2  1  0.307146  0.232923  0.371901  1
  Gd  Gd3  1  0.807146  0.767077  0.128099  1
  Y  Y4  1  0.315290  0.752992  0.255514  1
  Y  Y5  1  0.815290  0.247008  0.244486  1
  Y  Y6  1  0.684025  0.248935  0.746514  1
  Y  Y7  1  0.184025  0.751065  0.753486  1
  B  B8  1  0.503706  0.313918  0.042520  1
  B  B9  1  0.003706  0.686082  0.457480  1
  B  B10  1  0.496597  0.684232  0.963417  1
  B  B11  1  0.996597  0.315768  0.536583  1
  B  B12  1  0.491499  0.922437  0.935417  1
  B  B13  1  0.991499  0.077563  0.564583  1
  B  B14  1  0.519081  0.072981  0.079458  1
  B  B15  1  0.019081  0.927019  0.420542  1
  B  B16  1  0.326310  0.494983  0.041414  1
  B  B17  1  0.826310  0.505017  0.458586  1
  B  B18  1  0.672342  0.504090  0.961060  1
  B  B19  1  0.172342  0.495910  0.538940  1
  B  B20  1  0.908819  0.500755  0.909800  1
  B  B21  1  0.408819  0.499245  0.590200  1
  B  B22  1  0.088962  0.502276  0.089392  1
  B  B23  1  0.588962  0.497724  0.410608  1
  B  B24  1  0.960451  0.497434  0.671855  1
  B  B25  1  0.460451  0.502566  0.828145  1
  B  B26  1  0.038189  0.504130  0.325001  1
  B  B27  1  0.538189  0.495870  0.174999  1
