# generated using pymatgen
data_HfMg(InRh2)2
_symmetry_space_group_name_H-M   'P 1'
_cell_length_a   4.55291101
_cell_length_b   6.42962800
_cell_length_c   13.61523602
_cell_angle_alpha   90.00000000
_cell_angle_beta   89.99904502
_cell_angle_gamma   90.00000000
_symmetry_Int_Tables_number   1
_chemical_formula_structural   HfMg(InRh2)2
_chemical_formula_sum   'Hf3 Mg3 In6 Rh12'
_cell_volume   398.56593997
_cell_formula_units_Z   3
loop_
 _symmetry_equiv_pos_site_id
 _symmetry_equiv_pos_as_xyz
  1  'x, y, z'
loop_
 _atom_site_type_symbol
 _atom_site_label
 _atom_site_symmetry_multiplicity
 _atom_site_fract_x
 _atom_site_fract_y
 _atom_site_fract_z
 _atom_site_occupancy
  Hf  Hf0  1  0.500012  0.000000  0.496594  1
  Hf  Hf1  1  0.999958  0.500000  0.666673  1
  Hf  Hf2  1  0.499963  0.000000  0.836741  1
  Mg  Mg3  1  0.000001  0.500000  0.001653  1
  Mg  Mg4  1  0.500041  0.000000  0.166703  1
  Mg  Mg5  1  0.000070  0.500000  0.331677  1
  In  In6  1  0.999981  0.000000  0.004757  1
  In  In7  1  0.500033  0.500000  0.166663  1
  In  In8  1  0.000032  0.000000  0.328571  1
  In  In9  1  0.500008  0.500000  0.496328  1
  In  In10  1  0.999850  0.000000  0.666660  1
  In  In11  1  0.499991  0.500000  0.837006  1
  Rh  Rh12  1  0.499983  0.247527  0.999243  1
  Rh  Rh13  1  0.499983  0.752473  0.999243  1
  Rh  Rh14  1  0.000028  0.253512  0.166662  1
  Rh  Rh15  1  0.000028  0.746489  0.166662  1
  Rh  Rh16  1  0.500085  0.247537  0.334078  1
  Rh  Rh17  1  0.500085  0.752463  0.334078  1
  Rh  Rh18  1  0.000020  0.250267  0.500398  1
  Rh  Rh19  1  0.000020  0.749733  0.500398  1
  Rh  Rh20  1  0.499935  0.251004  0.666667  1
  Rh  Rh21  1  0.499935  0.748996  0.666667  1
  Rh  Rh22  1  0.999982  0.250256  0.832939  1
  Rh  Rh23  1  0.999982  0.749745  0.832939  1
