# generated using pymatgen
data_K4PaVSe6
_symmetry_space_group_name_H-M   'P 1'
_cell_length_a   13.62189900
_cell_length_b   6.40478110
_cell_length_c   9.20560600
_cell_angle_alpha   72.27508769
_cell_angle_beta   90.00000000
_cell_angle_gamma   90.00000000
_symmetry_Int_Tables_number   1
_chemical_formula_structural   K4PaVSe6
_chemical_formula_sum   'K8 Pa2 V2 Se12'
_cell_volume   765.01971431
_cell_formula_units_Z   2
loop_
 _symmetry_equiv_pos_site_id
 _symmetry_equiv_pos_as_xyz
  1  'x, y, z'
loop_
 _atom_site_type_symbol
 _atom_site_label
 _atom_site_symmetry_multiplicity
 _atom_site_fract_x
 _atom_site_fract_y
 _atom_site_fract_z
 _atom_site_occupancy
  K  K0  1  0.959576  0.678785  0.646215  1
  K  K1  1  0.459576  0.821215  0.353785  1
  K  K2  1  0.040961  0.322920  0.354841  1
  K  K3  1  0.540961  0.177080  0.645159  1
  K  K4  1  0.867283  0.084168  0.907371  1
  K  K5  1  0.367283  0.415832  0.092629  1
  K  K6  1  0.132285  0.929901  0.094078  1
  K  K7  1  0.632285  0.570099  0.905922  1
  Pa  Pa8  1  0.749246  0.652281  0.297256  1
  Pa  Pa9  1  0.249246  0.847719  0.702744  1
  V  V10  1  0.252139  0.347771  0.700905  1
  V  V11  1  0.752139  0.152229  0.299095  1
  Se  Se12  1  0.909671  0.930541  0.280446  1
  Se  Se13  1  0.409671  0.569459  0.719554  1
  Se  Se14  1  0.090059  0.112465  0.721254  1
  Se  Se15  1  0.590059  0.387535  0.278746  1
  Se  Se16  1  0.818657  0.282739  0.519624  1
  Se  Se17  1  0.318657  0.217261  0.480376  1
  Se  Se18  1  0.179726  0.679438  0.479398  1
  Se  Se19  1  0.679726  0.820562  0.520602  1
  Se  Se20  1  0.839851  0.483459  0.085724  1
  Se  Se21  1  0.339851  0.016541  0.914276  1
  Se  Se22  1  0.160543  0.486996  0.910643  1
  Se  Se23  1  0.660543  0.013004  0.089357  1
