# generated using pymatgen
data_Er5Tm5(SiSb)4
_symmetry_space_group_name_H-M   'P 1'
_cell_length_a   8.42763211
_cell_length_b   8.43010068
_cell_length_c   7.77387523
_cell_angle_alpha   89.99358946
_cell_angle_beta   89.98144110
_cell_angle_gamma   125.26694041
_symmetry_Int_Tables_number   1
_chemical_formula_structural   Er5Tm5(SiSb)4
_chemical_formula_sum   'Er5 Tm5 Si4 Sb4'
_cell_volume   450.93769790
_cell_formula_units_Z   1
loop_
 _symmetry_equiv_pos_site_id
 _symmetry_equiv_pos_as_xyz
  1  'x, y, z'
loop_
 _atom_site_type_symbol
 _atom_site_label
 _atom_site_symmetry_multiplicity
 _atom_site_fract_x
 _atom_site_fract_y
 _atom_site_fract_z
 _atom_site_occupancy
  Er  Er0  1  0.540381  0.791242  0.165434  1
  Er  Er1  1  0.291514  0.040439  0.334564  1
  Er  Er2  1  0.208732  0.459609  0.834557  1
  Er  Er3  1  0.959633  0.708611  0.665358  1
  Er  Er4  1  0.708675  0.959569  0.665418  1
  Tm  Tm5  1  0.459520  0.209430  0.834961  1
  Tm  Tm6  1  0.790671  0.540542  0.165087  1
  Tm  Tm7  1  0.040607  0.290693  0.334873  1
  Tm  Tm8  1  0.499915  0.499808  0.499918  1
  Tm  Tm9  1  0.000127  0.000019  0.000125  1
  Si  Si10  1  0.632800  0.632476  0.868370  1
  Si  Si11  1  0.133128  0.132932  0.631786  1
  Si  Si12  1  0.867300  0.867140  0.367946  1
  Si  Si13  1  0.367211  0.367214  0.131757  1
  Sb  Sb14  1  0.293619  0.705625  0.499747  1
  Sb  Sb15  1  0.206031  0.794060  0.999938  1
  Sb  Sb16  1  0.706337  0.294014  0.499834  1
  Sb  Sb17  1  0.793798  0.206577  0.000328  1
