# generated using pymatgen
data_Lu6Zn23N
_symmetry_space_group_name_H-M   'P 1'
_cell_length_a   8.83994977
_cell_length_b   8.83994766
_cell_length_c   8.83994800
_cell_angle_alpha   59.99999125
_cell_angle_beta   59.99999913
_cell_angle_gamma   59.99998938
_symmetry_Int_Tables_number   1
_chemical_formula_structural   Lu6Zn23N
_chemical_formula_sum   'Lu6 Zn23 N1'
_cell_volume   488.46577188
_cell_formula_units_Z   1
loop_
 _symmetry_equiv_pos_site_id
 _symmetry_equiv_pos_as_xyz
  1  'x, y, z'
loop_
 _atom_site_type_symbol
 _atom_site_label
 _atom_site_symmetry_multiplicity
 _atom_site_fract_x
 _atom_site_fract_y
 _atom_site_fract_z
 _atom_site_occupancy
  Lu  Lu0  1  0.692767  0.307233  0.307233  1
  Lu  Lu1  1  0.307233  0.692767  0.692767  1
  Lu  Lu2  1  0.307233  0.692767  0.307233  1
  Lu  Lu3  1  0.692767  0.307233  0.692767  1
  Lu  Lu4  1  0.307233  0.307233  0.692767  1
  Lu  Lu5  1  0.692767  0.692767  0.307233  1
  Zn  Zn6  1  0.121309  0.121309  0.121309  1
  Zn  Zn7  1  0.878691  0.878691  0.878691  1
  Zn  Zn8  1  0.121309  0.121309  0.636077  1
  Zn  Zn9  1  0.121309  0.636077  0.121309  1
  Zn  Zn10  1  0.878691  0.878691  0.363923  1
  Zn  Zn11  1  0.878691  0.363923  0.878691  1
  Zn  Zn12  1  0.636077  0.121309  0.121309  1
  Zn  Zn13  1  0.363923  0.878691  0.878691  1
  Zn  Zn14  1  0.500000  0.000000  0.000000  1
  Zn  Zn15  1  0.000000  0.500000  0.500000  1
  Zn  Zn16  1  0.000000  0.500000  0.000000  1
  Zn  Zn17  1  0.500000  0.000000  0.500000  1
  Zn  Zn18  1  0.000000  0.000000  0.500000  1
  Zn  Zn19  1  0.500000  0.500000  0.000000  1
  Zn  Zn20  1  0.329176  0.329176  0.329176  1
  Zn  Zn21  1  0.670824  0.670824  0.670824  1
  Zn  Zn22  1  0.329176  0.329176  0.012471  1
  Zn  Zn23  1  0.329176  0.012471  0.329176  1
  Zn  Zn24  1  0.670824  0.670824  0.987529  1
  Zn  Zn25  1  0.670824  0.987529  0.670824  1
  Zn  Zn26  1  0.012471  0.329176  0.329176  1
  Zn  Zn27  1  0.987529  0.670824  0.670824  1
  Zn  Zn28  1  0.000000  0.000000  0.000000  1
  N  N29  1  0.500000  0.500000  0.500000  1
