# generated using pymatgen
data_Te3As4Se3
_symmetry_space_group_name_H-M   'P 1'
_cell_length_a   10.27805105
_cell_length_b   10.27805165
_cell_length_c   6.81493006
_cell_angle_alpha   83.17744254
_cell_angle_beta   83.17744227
_cell_angle_gamma   22.31158204
_symmetry_Int_Tables_number   1
_chemical_formula_structural   Te3As4Se3
_chemical_formula_sum   'Te3 As4 Se3'
_cell_volume   271.30100143
_cell_formula_units_Z   1
loop_
 _symmetry_equiv_pos_site_id
 _symmetry_equiv_pos_as_xyz
  1  'x, y, z'
loop_
 _atom_site_type_symbol
 _atom_site_label
 _atom_site_symmetry_multiplicity
 _atom_site_fract_x
 _atom_site_fract_y
 _atom_site_fract_z
 _atom_site_occupancy
  Te  Te0  1  0.832865  0.832865  0.388099  1
  Te  Te1  1  0.165230  0.165230  0.613511  1
  Te  Te2  1  0.666380  0.666380  0.109675  1
  As  As3  1  0.915425  0.915425  0.703159  1
  As  As4  1  0.411580  0.411580  0.187017  1
  As  As5  1  0.581929  0.581929  0.805378  1
  As  As6  1  0.085875  0.085875  0.306595  1
  Se  Se7  1  0.498131  0.498131  0.501985  1
  Se  Se8  1  0.999121  0.999121  0.998500  1
  Se  Se9  1  0.343464  0.343464  0.886080  1
