# generated using pymatgen
data_Zr3GeIr2N
_symmetry_space_group_name_H-M   'P 1'
_cell_length_a   8.58967632
_cell_length_b   8.58967678
_cell_length_c   8.58967700
_cell_angle_alpha   60.00000301
_cell_angle_beta   60.00000125
_cell_angle_gamma   60.00000260
_symmetry_Int_Tables_number   1
_chemical_formula_structural   Zr3GeIr2N
_chemical_formula_sum   'Zr12 Ge4 Ir8 N4'
_cell_volume   448.14182583
_cell_formula_units_Z   4
loop_
 _symmetry_equiv_pos_site_id
 _symmetry_equiv_pos_as_xyz
  1  'x, y, z'
loop_
 _atom_site_type_symbol
 _atom_site_label
 _atom_site_symmetry_multiplicity
 _atom_site_fract_x
 _atom_site_fract_y
 _atom_site_fract_z
 _atom_site_occupancy
  Zr  Zr0  1  0.807835  0.192165  0.192165  1
  Zr  Zr1  1  0.192165  0.807835  0.192165  1
  Zr  Zr2  1  0.807835  0.807835  0.192165  1
  Zr  Zr3  1  0.192165  0.807835  0.807835  1
  Zr  Zr4  1  0.807835  0.192165  0.807835  1
  Zr  Zr5  1  0.192165  0.192165  0.807835  1
  Zr  Zr6  1  0.442165  0.057835  0.057835  1
  Zr  Zr7  1  0.057835  0.442165  0.057835  1
  Zr  Zr8  1  0.442165  0.442165  0.057835  1
  Zr  Zr9  1  0.057835  0.442165  0.442165  1
  Zr  Zr10  1  0.442165  0.057835  0.442165  1
  Zr  Zr11  1  0.057835  0.057835  0.442165  1
  Ge  Ge12  1  0.625000  0.625000  0.125000  1
  Ge  Ge13  1  0.625000  0.625000  0.625000  1
  Ge  Ge14  1  0.125000  0.625000  0.625000  1
  Ge  Ge15  1  0.625000  0.125000  0.625000  1
  Ir  Ir16  1  0.413687  0.413687  0.758936  1
  Ir  Ir17  1  0.413687  0.413687  0.413687  1
  Ir  Ir18  1  0.758936  0.413687  0.413687  1
  Ir  Ir19  1  0.413687  0.758936  0.413687  1
  Ir  Ir20  1  0.836313  0.836313  0.491064  1
  Ir  Ir21  1  0.836313  0.836313  0.836313  1
  Ir  Ir22  1  0.491064  0.836313  0.836313  1
  Ir  Ir23  1  0.836313  0.491064  0.836313  1
  N  N24  1  0.125000  0.125000  0.625000  1
  N  N25  1  0.125000  0.125000  0.125000  1
  N  N26  1  0.625000  0.125000  0.125000  1
  N  N27  1  0.125000  0.625000  0.125000  1
