# generated using pymatgen
data_Tb2Al8SiTcPd2
_symmetry_space_group_name_H-M   'P 1'
_cell_length_a   7.59932036
_cell_length_b   7.59931993
_cell_length_c   9.43301700
_cell_angle_alpha   90.00000000
_cell_angle_beta   90.00000000
_cell_angle_gamma   119.20441230
_symmetry_Int_Tables_number   1
_chemical_formula_structural   Tb2Al8SiTcPd2
_chemical_formula_sum   'Tb4 Al16 Si2 Tc2 Pd4'
_cell_volume   475.50696551
_cell_formula_units_Z   2
loop_
 _symmetry_equiv_pos_site_id
 _symmetry_equiv_pos_as_xyz
  1  'x, y, z'
loop_
 _atom_site_type_symbol
 _atom_site_label
 _atom_site_symmetry_multiplicity
 _atom_site_fract_x
 _atom_site_fract_y
 _atom_site_fract_z
 _atom_site_occupancy
  Tb  Tb0  1  0.994759  0.677420  0.250000  1
  Tb  Tb1  1  0.005241  0.322580  0.750000  1
  Tb  Tb2  1  0.677420  0.994759  0.250000  1
  Tb  Tb3  1  0.322580  0.005241  0.750000  1
  Al  Al4  1  0.001908  0.333114  0.077856  1
  Al  Al5  1  0.998092  0.666886  0.922144  1
  Al  Al6  1  0.998092  0.666886  0.577856  1
  Al  Al7  1  0.333114  0.001908  0.422144  1
  Al  Al8  1  0.001908  0.333114  0.422144  1
  Al  Al9  1  0.666886  0.998092  0.577856  1
  Al  Al10  1  0.666886  0.998092  0.922144  1
  Al  Al11  1  0.333114  0.001908  0.077856  1
  Al  Al12  1  0.330952  0.330952  0.553456  1
  Al  Al13  1  0.669048  0.669048  0.446544  1
  Al  Al14  1  0.669048  0.669048  0.053456  1
  Al  Al15  1  0.330952  0.330952  0.946544  1
  Al  Al16  1  0.339736  0.548039  0.250000  1
  Al  Al17  1  0.660264  0.451961  0.750000  1
  Al  Al18  1  0.548039  0.339736  0.250000  1
  Al  Al19  1  0.451961  0.660264  0.750000  1
  Si  Si20  1  0.125697  0.125697  0.250000  1
  Si  Si21  1  0.874303  0.874303  0.750000  1
  Tc  Tc22  1  0.000000  0.000000  0.000000  1
  Tc  Tc23  1  0.000000  0.000000  0.500000  1
  Pd  Pd24  1  0.672055  0.327945  0.000000  1
  Pd  Pd25  1  0.327945  0.672055  0.000000  1
  Pd  Pd26  1  0.327945  0.672055  0.500000  1
  Pd  Pd27  1  0.672055  0.327945  0.500000  1
