# generated using pymatgen
data_Nd4Re5TcB12
_symmetry_space_group_name_H-M   'P 1'
_cell_length_a   6.31675689
_cell_length_b   6.31675599
_cell_length_c   7.63066973
_cell_angle_alpha   90.58508009
_cell_angle_beta   90.58508450
_cell_angle_gamma   114.56798535
_symmetry_Int_Tables_number   1
_chemical_formula_structural   Nd4Re5TcB12
_chemical_formula_sum   'Nd4 Re5 Tc1 B12'
_cell_volume   276.86055658
_cell_formula_units_Z   1
loop_
 _symmetry_equiv_pos_site_id
 _symmetry_equiv_pos_as_xyz
  1  'x, y, z'
loop_
 _atom_site_type_symbol
 _atom_site_label
 _atom_site_symmetry_multiplicity
 _atom_site_fract_x
 _atom_site_fract_y
 _atom_site_fract_z
 _atom_site_occupancy
  Nd  Nd0  1  0.094596  0.441743  0.325534  1
  Nd  Nd1  1  0.558257  0.905404  0.174466  1
  Nd  Nd2  1  0.906089  0.558636  0.674013  1
  Nd  Nd3  1  0.441364  0.093911  0.825987  1
  Re  Re4  1  0.415629  0.584371  0.750000  1
  Re  Re5  1  0.989536  0.805358  0.088242  1
  Re  Re6  1  0.194642  0.010464  0.411758  1
  Re  Re7  1  0.010208  0.194931  0.911919  1
  Re  Re8  1  0.805069  0.989792  0.588081  1
  Tc  Tc9  1  0.584504  0.415496  0.250000  1
  B  B10  1  0.242280  0.153000  0.132287  1
  B  B11  1  0.847000  0.757720  0.367713  1
  B  B12  1  0.756619  0.847202  0.868111  1
  B  B13  1  0.152798  0.243381  0.631889  1
  B  B14  1  0.583901  0.156877  0.482025  1
  B  B15  1  0.843123  0.416099  0.017975  1
  B  B16  1  0.414606  0.840852  0.519763  1
  B  B17  1  0.159148  0.585394  0.980237  1
  B  B18  1  0.441245  0.349859  0.532953  1
  B  B19  1  0.650141  0.558755  0.967047  1
  B  B20  1  0.559405  0.650160  0.466466  1
  B  B21  1  0.349840  0.440595  0.033534  1
