# generated using pymatgen
data_Ce10NiPb7
_symmetry_space_group_name_H-M   'P 1'
_cell_length_a   9.67683300
_cell_length_b   9.67683307
_cell_length_c   6.62898500
_cell_angle_alpha   90.00000000
_cell_angle_beta   90.00000000
_cell_angle_gamma   120.00000317
_symmetry_Int_Tables_number   1
_chemical_formula_structural   Ce10NiPb7
_chemical_formula_sum   'Ce10 Ni1 Pb7'
_cell_volume   537.58129567
_cell_formula_units_Z   1
loop_
 _symmetry_equiv_pos_site_id
 _symmetry_equiv_pos_as_xyz
  1  'x, y, z'
loop_
 _atom_site_type_symbol
 _atom_site_label
 _atom_site_symmetry_multiplicity
 _atom_site_fract_x
 _atom_site_fract_y
 _atom_site_fract_z
 _atom_site_occupancy
  Ce  Ce0  1  0.667353  0.333652  0.499430  1
  Ce  Ce1  1  0.332647  0.666348  0.500570  1
  Ce  Ce2  1  0.333070  0.666912  0.999571  1
  Ce  Ce3  1  0.666930  0.333088  0.000429  1
  Ce  Ce4  1  0.735907  0.736055  0.270929  1
  Ce  Ce5  1  0.263917  0.000091  0.271543  1
  Ce  Ce6  1  0.999992  0.263539  0.271904  1
  Ce  Ce7  1  0.264093  0.263945  0.729071  1
  Ce  Ce8  1  0.736083  0.999909  0.728457  1
  Ce  Ce9  1  0.000008  0.736461  0.728096  1
  Ni  Ni10  1  0.000000  0.000000  0.500000  1
  Pb  Pb11  1  0.000000  0.000000  0.000000  1
  Pb  Pb12  1  0.383193  0.383318  0.240869  1
  Pb  Pb13  1  0.616426  0.000014  0.241211  1
  Pb  Pb14  1  0.000385  0.616724  0.240580  1
  Pb  Pb15  1  0.616807  0.616682  0.759131  1
  Pb  Pb16  1  0.383574  0.999986  0.758789  1
  Pb  Pb17  1  0.999615  0.383276  0.759420  1
