# generated using pymatgen
data_LaTh3(CdPt2)2
_symmetry_space_group_name_H-M   'P 1'
_cell_length_a   8.00227716
_cell_length_b   8.00227716
_cell_length_c   3.82332900
_cell_angle_alpha   90.00000000
_cell_angle_beta   90.00000000
_cell_angle_gamma   90.95716548
_symmetry_Int_Tables_number   1
_chemical_formula_structural   LaTh3(CdPt2)2
_chemical_formula_sum   'La1 Th3 Cd2 Pt4'
_cell_volume   244.79821388
_cell_formula_units_Z   1
loop_
 _symmetry_equiv_pos_site_id
 _symmetry_equiv_pos_as_xyz
  1  'x, y, z'
loop_
 _atom_site_type_symbol
 _atom_site_label
 _atom_site_symmetry_multiplicity
 _atom_site_fract_x
 _atom_site_fract_y
 _atom_site_fract_z
 _atom_site_occupancy
  La  La0  1  0.327547  0.172453  0.500001  1
  Th  Th1  1  0.829077  0.328252  0.500001  1
  Th  Th2  1  0.171748  0.670923  0.500001  1
  Th  Th3  1  0.670725  0.829275  0.500001  1
  Cd  Cd4  1  0.000566  0.999532  0.000000  1
  Cd  Cd5  1  0.500468  0.499434  0.000000  1
  Pt  Pt6  1  0.636391  0.127762  0.000000  1
  Pt  Pt7  1  0.123574  0.376426  0.000000  1
  Pt  Pt8  1  0.867666  0.632334  0.000000  1
  Pt  Pt9  1  0.372238  0.863609  0.000000  1
