# generated using pymatgen
data_LiYHo2Ag2Pb3
_symmetry_space_group_name_H-M   'P 1'
_cell_length_a   7.44790566
_cell_length_b   7.44634457
_cell_length_c   4.62230100
_cell_angle_alpha   90.00000000
_cell_angle_beta   90.00000000
_cell_angle_gamma   120.40393306
_symmetry_Int_Tables_number   1
_chemical_formula_structural   LiYHo2Ag2Pb3
_chemical_formula_sum   'Li1 Y1 Ho2 Ag2 Pb3'
_cell_volume   221.09759221
_cell_formula_units_Z   1
loop_
 _symmetry_equiv_pos_site_id
 _symmetry_equiv_pos_as_xyz
  1  'x, y, z'
loop_
 _atom_site_type_symbol
 _atom_site_label
 _atom_site_symmetry_multiplicity
 _atom_site_fract_x
 _atom_site_fract_y
 _atom_site_fract_z
 _atom_site_occupancy
  Li  Li0  1  0.770640  0.770549  0.000000  1
  Y  Y1  1  0.004387  0.562613  0.500000  1
  Ho  Ho2  1  0.562991  0.005056  0.500000  1
  Ho  Ho3  1  0.421075  0.421003  0.500000  1
  Ag  Ag4  1  0.999346  0.241290  0.000000  1
  Ag  Ag5  1  0.241742  0.999374  0.000000  1
  Pb  Pb6  1  0.981369  0.982095  0.500000  1
  Pb  Pb7  1  0.349229  0.670106  0.000000  1
  Pb  Pb8  1  0.669223  0.347914  0.000000  1
