# generated using pymatgen
data_Ca9PaIr4
_symmetry_space_group_name_H-M   'P 1'
_cell_length_a   8.69745783
_cell_length_b   8.69745736
_cell_length_c   7.49311883
_cell_angle_alpha   82.43898733
_cell_angle_beta   82.43898672
_cell_angle_gamma   44.65833170
_symmetry_Int_Tables_number   1
_chemical_formula_structural   Ca9PaIr4
_chemical_formula_sum   'Ca9 Pa1 Ir4'
_cell_volume   394.35560573
_cell_formula_units_Z   1
loop_
 _symmetry_equiv_pos_site_id
 _symmetry_equiv_pos_as_xyz
  1  'x, y, z'
loop_
 _atom_site_type_symbol
 _atom_site_label
 _atom_site_symmetry_multiplicity
 _atom_site_fract_x
 _atom_site_fract_y
 _atom_site_fract_z
 _atom_site_occupancy
  Ca  Ca0  1  0.420287  0.579713  0.750000  1
  Ca  Ca1  1  0.361816  0.196261  0.320104  1
  Ca  Ca2  1  0.197953  0.979252  0.077247  1
  Ca  Ca3  1  0.793991  0.032070  0.919364  1
  Ca  Ca4  1  0.967930  0.206009  0.580636  1
  Ca  Ca5  1  0.637090  0.794229  0.680042  1
  Ca  Ca6  1  0.205771  0.362910  0.819958  1
  Ca  Ca7  1  0.803739  0.638184  0.179896  1
  Ca  Ca8  1  0.020748  0.802047  0.422753  1
  Pa  Pa9  1  0.562342  0.437658  0.250000  1
  Ir  Ir10  1  0.419566  0.782996  0.407538  1
  Ir  Ir11  1  0.217004  0.580434  0.092462  1
  Ir  Ir12  1  0.793320  0.401559  0.952766  1
  Ir  Ir13  1  0.598441  0.206680  0.547234  1
