# generated using pymatgen
data_AlCoIO6
_symmetry_space_group_name_H-M   'P 1'
_cell_length_a   4.98663400
_cell_length_b   4.98663424
_cell_length_c   4.55575600
_cell_angle_alpha   90.00000000
_cell_angle_beta   90.00000000
_cell_angle_gamma   119.99999841
_symmetry_Int_Tables_number   1
_chemical_formula_structural   AlCoIO6
_chemical_formula_sum   'Al1 Co1 I1 O6'
_cell_volume   98.10837964
_cell_formula_units_Z   1
loop_
 _symmetry_equiv_pos_site_id
 _symmetry_equiv_pos_as_xyz
  1  'x, y, z'
loop_
 _atom_site_type_symbol
 _atom_site_label
 _atom_site_symmetry_multiplicity
 _atom_site_fract_x
 _atom_site_fract_y
 _atom_site_fract_z
 _atom_site_occupancy
  Al  Al0  1  0.666667  0.333333  0.500000  1
  Co  Co1  1  0.000000  0.000000  0.000000  1
  I  I2  1  0.333333  0.666667  0.500000  1
  O  O3  1  0.640726  0.999268  0.728967  1
  O  O4  1  0.358542  0.359274  0.728967  1
  O  O5  1  0.000732  0.641458  0.728967  1
  O  O6  1  0.358542  0.999268  0.271033  1
  O  O7  1  0.640726  0.641458  0.271033  1
  O  O8  1  0.000732  0.359274  0.271033  1
