# generated using pymatgen
data_LaScTcB6
_symmetry_space_group_name_H-M   'P 1'
_cell_length_a   3.69509500
_cell_length_b   9.12059300
_cell_length_c   11.63268400
_cell_angle_alpha   90.00000000
_cell_angle_beta   90.00000000
_cell_angle_gamma   90.00000000
_symmetry_Int_Tables_number   1
_chemical_formula_structural   LaScTcB6
_chemical_formula_sum   'La4 Sc4 Tc4 B24'
_cell_volume   392.03840650
_cell_formula_units_Z   4
loop_
 _symmetry_equiv_pos_site_id
 _symmetry_equiv_pos_as_xyz
  1  'x, y, z'
loop_
 _atom_site_type_symbol
 _atom_site_label
 _atom_site_symmetry_multiplicity
 _atom_site_fract_x
 _atom_site_fract_y
 _atom_site_fract_z
 _atom_site_occupancy
  La  La0  1  0.000000  0.322041  0.415331  1
  La  La1  1  0.000000  0.677959  0.584669  1
  La  La2  1  0.000000  0.822041  0.084669  1
  La  La3  1  0.000000  0.177959  0.915331  1
  Sc  Sc4  1  0.000000  0.943159  0.366847  1
  Sc  Sc5  1  0.000000  0.056841  0.633153  1
  Sc  Sc6  1  0.000000  0.443159  0.133153  1
  Sc  Sc7  1  0.000000  0.556841  0.866847  1
  Tc  Tc8  1  0.000000  0.642556  0.315973  1
  Tc  Tc9  1  0.000000  0.357444  0.684027  1
  Tc  Tc10  1  0.000000  0.142556  0.184027  1
  Tc  Tc11  1  0.000000  0.857444  0.815973  1
  B  B12  1  0.500000  0.557988  0.427662  1
  B  B13  1  0.500000  0.442012  0.572338  1
  B  B14  1  0.500000  0.057988  0.072338  1
  B  B15  1  0.500000  0.942012  0.927662  1
  B  B16  1  0.500000  0.755189  0.413983  1
  B  B17  1  0.500000  0.244811  0.586017  1
  B  B18  1  0.500000  0.255189  0.086017  1
  B  B19  1  0.500000  0.744811  0.913983  1
  B  B20  1  0.500000  0.794518  0.265450  1
  B  B21  1  0.500000  0.205482  0.734550  1
  B  B22  1  0.500000  0.294518  0.234550  1
  B  B23  1  0.500000  0.705482  0.765450  1
  B  B24  1  0.500000  0.627815  0.184236  1
  B  B25  1  0.500000  0.372185  0.815764  1
  B  B26  1  0.500000  0.127815  0.315764  1
  B  B27  1  0.500000  0.872185  0.684236  1
  B  B28  1  0.500000  0.984095  0.215201  1
  B  B29  1  0.500000  0.015905  0.784799  1
  B  B30  1  0.500000  0.484095  0.284799  1
  B  B31  1  0.500000  0.515905  0.715201  1
  B  B32  1  0.500000  0.591894  0.024454  1
  B  B33  1  0.500000  0.408106  0.975546  1
  B  B34  1  0.500000  0.091894  0.475546  1
  B  B35  1  0.500000  0.908106  0.524454  1
