# generated using pymatgen
data_Y2Tm3Os2
_symmetry_space_group_name_H-M   'P 1'
_cell_length_a   6.29088552
_cell_length_b   7.34739787
_cell_length_c   8.38459380
_cell_angle_alpha   97.08994268
_cell_angle_beta   112.03331553
_cell_angle_gamma   90.00000307
_symmetry_Int_Tables_number   1
_chemical_formula_structural   Y2Tm3Os2
_chemical_formula_sum   'Y4 Tm6 Os4'
_cell_volume   356.04646560
_cell_formula_units_Z   2
loop_
 _symmetry_equiv_pos_site_id
 _symmetry_equiv_pos_as_xyz
  1  'x, y, z'
loop_
 _atom_site_type_symbol
 _atom_site_label
 _atom_site_symmetry_multiplicity
 _atom_site_fract_x
 _atom_site_fract_y
 _atom_site_fract_z
 _atom_site_occupancy
  Y  Y0  1  0.789404  0.082417  0.813408  1
  Y  Y1  1  0.975996  0.417583  0.186592  1
  Y  Y2  1  0.210596  0.917583  0.186592  1
  Y  Y3  1  0.024004  0.582417  0.813408  1
  Tm  Tm4  1  0.199610  0.183389  0.564714  1
  Tm  Tm5  1  0.634896  0.316611  0.435286  1
  Tm  Tm6  1  0.800390  0.816611  0.435286  1
  Tm  Tm7  1  0.365104  0.683389  0.564714  1
  Tm  Tm8  1  0.420915  0.250000  0.000000  1
  Tm  Tm9  1  0.579085  0.750000  0.000000  1
  Os  Os10  1  0.594561  0.423167  0.778462  1
  Os  Os11  1  0.816097  0.076833  0.221538  1
  Os  Os12  1  0.405439  0.576833  0.221538  1
  Os  Os13  1  0.183903  0.923167  0.778462  1
