# generated using pymatgen
data_YbLu7(Si4W3)4
_symmetry_space_group_name_H-M   'P 1'
_cell_length_a   6.70225482
_cell_length_b   6.89004766
_cell_length_c   12.83335384
_cell_angle_alpha   89.89646701
_cell_angle_beta   89.96658661
_cell_angle_gamma   89.84673494
_symmetry_Int_Tables_number   1
_chemical_formula_structural   YbLu7(Si4W3)4
_chemical_formula_sum   'Yb1 Lu7 Si16 W12'
_cell_volume   592.62640126
_cell_formula_units_Z   1
loop_
 _symmetry_equiv_pos_site_id
 _symmetry_equiv_pos_as_xyz
  1  'x, y, z'
loop_
 _atom_site_type_symbol
 _atom_site_label
 _atom_site_symmetry_multiplicity
 _atom_site_fract_x
 _atom_site_fract_y
 _atom_site_fract_z
 _atom_site_occupancy
  Yb  Yb0  1  0.996396  0.832681  0.590241  1
  Lu  Lu1  1  0.496120  0.669246  0.593284  1
  Lu  Lu2  1  0.995762  0.830310  0.906620  1
  Lu  Lu3  1  0.505182  0.330714  0.092678  1
  Lu  Lu4  1  0.005032  0.167951  0.408071  1
  Lu  Lu5  1  0.504431  0.331190  0.407351  1
  Lu  Lu6  1  0.005314  0.168984  0.092951  1
  Lu  Lu7  1  0.495508  0.669419  0.906836  1
  Si  Si8  1  0.662343  0.959002  0.453857  1
  Si  Si9  1  0.164326  0.541977  0.045546  1
  Si  Si10  1  0.335231  0.040697  0.954462  1
  Si  Si11  1  0.836369  0.459167  0.546475  1
  Si  Si12  1  0.337653  0.040759  0.546440  1
  Si  Si13  1  0.835894  0.458541  0.954685  1
  Si  Si14  1  0.664894  0.958951  0.045700  1
  Si  Si15  1  0.162897  0.541219  0.453590  1
  Si  Si16  1  0.465839  0.374825  0.750197  1
  Si  Si17  1  0.965668  0.126096  0.749818  1
  Si  Si18  1  0.533072  0.625492  0.249809  1
  Si  Si19  1  0.033856  0.872542  0.250529  1
  Si  Si20  1  0.699292  0.863610  0.749140  1
  Si  Si21  1  0.197055  0.639231  0.749202  1
  Si  Si22  1  0.302215  0.137008  0.250040  1
  Si  Si23  1  0.802414  0.360754  0.250241  1
  W  W24  1  0.667119  0.165085  0.625300  1
  W  W25  1  0.170900  0.339070  0.875906  1
  W  W26  1  0.330898  0.837158  0.125270  1
  W  W27  1  0.827551  0.660177  0.374019  1
  W  W28  1  0.331317  0.837257  0.374630  1
  W  W29  1  0.829251  0.660628  0.124903  1
  W  W30  1  0.668767  0.163567  0.875283  1
  W  W31  1  0.170180  0.338009  0.625806  1
  W  W32  1  0.834784  0.497986  0.750945  1
  W  W33  1  0.334505  0.000506  0.751261  1
  W  W34  1  0.165400  0.499114  0.249653  1
  W  W35  1  0.666571  0.001079  0.249260  1
