# generated using pymatgen
data_Tb12TcRuRh2
_symmetry_space_group_name_H-M   'P 1'
_cell_length_a   6.37992161
_cell_length_b   7.31904200
_cell_length_c   9.30860900
_cell_angle_alpha   90.00000000
_cell_angle_beta   90.00000000
_cell_angle_gamma   89.96040007
_symmetry_Int_Tables_number   1
_chemical_formula_structural   Tb12TcRuRh2
_chemical_formula_sum   'Tb12 Tc1 Ru1 Rh2'
_cell_volume   434.66459515
_cell_formula_units_Z   1
loop_
 _symmetry_equiv_pos_site_id
 _symmetry_equiv_pos_as_xyz
  1  'x, y, z'
loop_
 _atom_site_type_symbol
 _atom_site_label
 _atom_site_symmetry_multiplicity
 _atom_site_fract_x
 _atom_site_fract_y
 _atom_site_fract_z
 _atom_site_occupancy
  Tb  Tb0  1  0.329736  0.678759  0.063618  1
  Tb  Tb1  1  0.170489  0.175719  0.434094  1
  Tb  Tb2  1  0.669883  0.324393  0.566592  1
  Tb  Tb3  1  0.831762  0.821784  0.937502  1
  Tb  Tb4  1  0.669883  0.324393  0.933408  1
  Tb  Tb5  1  0.831762  0.821784  0.562498  1
  Tb  Tb6  1  0.329736  0.678759  0.436382  1
  Tb  Tb7  1  0.170489  0.175719  0.065906  1
  Tb  Tb8  1  0.865291  0.540201  0.250000  1
  Tb  Tb9  1  0.632335  0.038780  0.250000  1
  Tb  Tb10  1  0.137816  0.460709  0.750000  1
  Tb  Tb11  1  0.366327  0.957798  0.750000  1
  Tc  Tc12  1  0.040194  0.886744  0.250000  1
  Ru  Ru13  1  0.543278  0.614182  0.750000  1
  Rh  Rh14  1  0.455601  0.383936  0.250000  1
  Rh  Rh15  1  0.955418  0.116340  0.750000  1
