# generated using pymatgen
data_La16ErTm3Pb16
_symmetry_space_group_name_H-M   'P 1'
_cell_length_a   8.54967600
_cell_length_b   8.66105319
_cell_length_c   16.53256600
_cell_angle_alpha   90.00000000
_cell_angle_beta   90.00000000
_cell_angle_gamma   90.01198699
_symmetry_Int_Tables_number   1
_chemical_formula_structural   La16ErTm3Pb16
_chemical_formula_sum   'La16 Er1 Tm3 Pb16'
_cell_volume   1224.22323613
_cell_formula_units_Z   1
loop_
 _symmetry_equiv_pos_site_id
 _symmetry_equiv_pos_as_xyz
  1  'x, y, z'
loop_
 _atom_site_type_symbol
 _atom_site_label
 _atom_site_symmetry_multiplicity
 _atom_site_fract_x
 _atom_site_fract_y
 _atom_site_fract_z
 _atom_site_occupancy
  La  La0  1  0.375521  0.845497  0.881089  1
  La  La1  1  0.875710  0.654373  0.618906  1
  La  La2  1  0.624497  0.154668  0.381248  1
  La  La3  1  0.124368  0.345731  0.118712  1
  La  La4  1  0.624497  0.154668  0.118752  1
  La  La5  1  0.124368  0.345731  0.381288  1
  La  La6  1  0.375521  0.845497  0.618911  1
  La  La7  1  0.875710  0.654373  0.881094  1
  La  La8  1  0.534821  0.321478  0.899735  1
  La  La9  1  0.034718  0.178494  0.600274  1
  La  La10  1  0.465376  0.678404  0.399930  1
  La  La11  1  0.965165  0.821426  0.100100  1
  La  La12  1  0.465376  0.678404  0.100070  1
  La  La13  1  0.965165  0.821426  0.399900  1
  La  La14  1  0.534821  0.321478  0.600265  1
  La  La15  1  0.034718  0.178494  0.899726  1
  Er  Er16  1  0.286139  0.001974  0.250000  1
  Tm  Tm17  1  0.214441  0.502345  0.750000  1
  Tm  Tm18  1  0.714168  0.997672  0.750000  1
  Tm  Tm19  1  0.785466  0.497579  0.250000  1
  Pb  Pb20  1  0.281047  0.028625  0.049164  1
  Pb  Pb21  1  0.781129  0.471566  0.450690  1
  Pb  Pb22  1  0.718964  0.971415  0.549533  1
  Pb  Pb23  1  0.218674  0.528555  0.950438  1
  Pb  Pb24  1  0.718964  0.971415  0.950467  1
  Pb  Pb25  1  0.218674  0.528555  0.549562  1
  Pb  Pb26  1  0.281047  0.028625  0.450836  1
  Pb  Pb27  1  0.781129  0.471566  0.049310  1
  Pb  Pb28  1  0.569318  0.624329  0.750000  1
  Pb  Pb29  1  0.069376  0.876161  0.750000  1
  Pb  Pb30  1  0.430712  0.375961  0.250000  1
  Pb  Pb31  1  0.930356  0.123702  0.250000  1
  Pb  Pb32  1  0.343601  0.155524  0.750000  1
  Pb  Pb33  1  0.843231  0.344319  0.750000  1
  Pb  Pb34  1  0.656477  0.844711  0.250000  1
  Pb  Pb35  1  0.156737  0.655258  0.250000  1
