# generated using pymatgen
data_TbHo9Co2Br15
_symmetry_space_group_name_H-M   'P 1'
_cell_length_a   9.20076372
_cell_length_b   10.04014458
_cell_length_c   10.82855771
_cell_angle_alpha   92.31920190
_cell_angle_beta   114.17363551
_cell_angle_gamma   110.53142255
_symmetry_Int_Tables_number   1
_chemical_formula_structural   TbHo9Co2Br15
_chemical_formula_sum   'Tb1 Ho9 Co2 Br15'
_cell_volume   834.54876930
_cell_formula_units_Z   1
loop_
 _symmetry_equiv_pos_site_id
 _symmetry_equiv_pos_as_xyz
  1  'x, y, z'
loop_
 _atom_site_type_symbol
 _atom_site_label
 _atom_site_symmetry_multiplicity
 _atom_site_fract_x
 _atom_site_fract_y
 _atom_site_fract_z
 _atom_site_occupancy
  Tb  Tb0  1  0.268936  0.921678  0.950510  1
  Ho  Ho1  1  0.796811  0.398747  0.269447  1
  Ho  Ho2  1  0.203013  0.600899  0.730312  1
  Ho  Ho3  1  0.666941  0.751983  0.822982  1
  Ho  Ho4  1  0.333101  0.248275  0.177195  1
  Ho  Ho5  1  0.527840  0.707863  0.099585  1
  Ho  Ho6  1  0.472887  0.292362  0.900613  1
  Ho  Ho7  1  0.592366  0.047269  0.334422  1
  Ho  Ho8  1  0.408181  0.952953  0.665644  1
  Ho  Ho9  1  0.730168  0.078207  0.049376  1
  Co  Co10  1  0.468284  0.830834  0.883041  1
  Co  Co11  1  0.532594  0.169509  0.117172  1
  Br  Br12  1  0.999328  0.000307  0.000203  1
  Br  Br13  1  0.639119  0.886089  0.585024  1
  Br  Br14  1  0.360925  0.113902  0.414959  1
  Br  Br15  1  0.889442  0.306692  0.527498  1
  Br  Br16  1  0.110611  0.693336  0.472544  1
  Br  Br17  1  0.299765  0.764355  0.189603  1
  Br  Br18  1  0.700623  0.235482  0.810805  1
  Br  Br19  1  0.062328  0.340305  0.224800  1
  Br  Br20  1  0.166931  0.059648  0.696251  1
  Br  Br21  1  0.833254  0.940625  0.303515  1
  Br  Br22  1  0.243210  0.414274  0.946596  1
  Br  Br23  1  0.756847  0.585758  0.053413  1
  Br  Br24  1  0.408207  0.467053  0.669300  1
  Br  Br25  1  0.591789  0.532963  0.330696  1
  Br  Br26  1  0.936497  0.658631  0.774496  1
