# generated using pymatgen
data_Ce5NiPb2Cl
_symmetry_space_group_name_H-M   'P 1'
_cell_length_a   9.43605258
_cell_length_b   9.43922696
_cell_length_c   6.35668614
_cell_angle_alpha   89.98324094
_cell_angle_beta   90.02331503
_cell_angle_gamma   120.78252363
_symmetry_Int_Tables_number   1
_chemical_formula_structural   Ce5NiPb2Cl
_chemical_formula_sum   'Ce10 Ni2 Pb4 Cl2'
_cell_volume   486.41766521
_cell_formula_units_Z   2
loop_
 _symmetry_equiv_pos_site_id
 _symmetry_equiv_pos_as_xyz
  1  'x, y, z'
loop_
 _atom_site_type_symbol
 _atom_site_label
 _atom_site_symmetry_multiplicity
 _atom_site_fract_x
 _atom_site_fract_y
 _atom_site_fract_z
 _atom_site_occupancy
  Ce  Ce0  1  0.244604  0.244073  0.749975  1
  Ce  Ce1  1  0.755443  0.755591  0.250033  1
  Ce  Ce2  1  0.249037  0.007854  0.249989  1
  Ce  Ce3  1  0.750708  0.991842  0.750036  1
  Ce  Ce4  1  0.337432  0.663647  0.501556  1
  Ce  Ce5  1  0.662757  0.336847  0.501134  1
  Ce  Ce6  1  0.008155  0.248989  0.249948  1
  Ce  Ce7  1  0.992347  0.750790  0.749983  1
  Ce  Ce8  1  0.337411  0.663633  0.998421  1
  Ce  Ce9  1  0.662862  0.336840  0.998839  1
  Ni  Ni10  1  0.000182  0.000486  0.000526  1
  Ni  Ni11  1  0.999911  0.000404  0.499639  1
  Pb  Pb12  1  0.995671  0.388711  0.749840  1
  Pb  Pb13  1  0.611051  0.004364  0.250113  1
  Pb  Pb14  1  0.388968  0.995770  0.749873  1
  Pb  Pb15  1  0.004238  0.610911  0.250114  1
  Cl  Cl16  1  0.391096  0.391148  0.249978  1
  Cl  Cl17  1  0.608127  0.608100  0.750001  1
