# generated using pymatgen
data_KRb3Al6(GaAu6)2
_symmetry_space_group_name_H-M   'P 1'
_cell_length_a   5.62796200
_cell_length_b   7.18793320
_cell_length_c   13.50269307
_cell_angle_alpha   89.75380652
_cell_angle_beta   90.00067932
_cell_angle_gamma   89.95913883
_symmetry_Int_Tables_number   1
_chemical_formula_structural   KRb3Al6(GaAu6)2
_chemical_formula_sum   'K1 Rb3 Al6 Ga2 Au12'
_cell_volume   546.22486388
_cell_formula_units_Z   1
loop_
 _symmetry_equiv_pos_site_id
 _symmetry_equiv_pos_as_xyz
  1  'x, y, z'
loop_
 _atom_site_type_symbol
 _atom_site_label
 _atom_site_symmetry_multiplicity
 _atom_site_fract_x
 _atom_site_fract_y
 _atom_site_fract_z
 _atom_site_occupancy
  K  K0  1  0.248083  0.109816  0.077373  1
  Rb  Rb1  1  0.252193  0.397560  0.571957  1
  Rb  Rb2  1  0.749887  0.898752  0.929388  1
  Rb  Rb3  1  0.750220  0.602299  0.427775  1
  Al  Al4  1  0.999341  0.903759  0.657702  1
  Al  Al5  1  0.500614  0.597586  0.157130  1
  Al  Al6  1  0.497937  0.099042  0.342654  1
  Al  Al7  1  0.002156  0.399469  0.844062  1
  Al  Al8  1  0.000443  0.097636  0.342463  1
  Al  Al9  1  0.499396  0.400867  0.843975  1
  Ga  Ga10  1  0.501649  0.898086  0.655648  1
  Ga  Ga11  1  0.998468  0.603461  0.155189  1
  Au  Au12  1  0.249448  0.115893  0.789126  1
  Au  Au13  1  0.250484  0.382554  0.286384  1
  Au  Au14  1  0.744516  0.889400  0.211628  1
  Au  Au15  1  0.755161  0.611640  0.714157  1
  Au  Au16  1  0.246271  0.698771  0.789474  1
  Au  Au17  1  0.253688  0.803136  0.287245  1
  Au  Au18  1  0.747339  0.296436  0.209795  1
  Au  Au19  1  0.752505  0.201593  0.712199  1
  Au  Au20  1  0.257211  0.574270  0.994069  1
  Au  Au21  1  0.242618  0.923251  0.493252  1
  Au  Au22  1  0.750791  0.414385  0.004133  1
  Au  Au23  1  0.749579  0.080339  0.503227  1
