# generated using pymatgen
data_RbHo2ErF10
_symmetry_space_group_name_H-M   'P 1'
_cell_length_a   8.23154913
_cell_length_b   8.22800812
_cell_length_c   8.22800954
_cell_angle_alpha   60.02847479
_cell_angle_beta   59.98577739
_cell_angle_gamma   59.98576709
_symmetry_Int_Tables_number   1
_chemical_formula_structural   RbHo2ErF10
_chemical_formula_sum   'Rb2 Ho4 Er2 F20'
_cell_volume   394.05421503
_cell_formula_units_Z   2
loop_
 _symmetry_equiv_pos_site_id
 _symmetry_equiv_pos_as_xyz
  1  'x, y, z'
loop_
 _atom_site_type_symbol
 _atom_site_label
 _atom_site_symmetry_multiplicity
 _atom_site_fract_x
 _atom_site_fract_y
 _atom_site_fract_z
 _atom_site_occupancy
  Rb  Rb0  1  0.250000  0.250000  0.250000  1
  Rb  Rb1  1  0.750000  0.750000  0.750000  1
  Ho  Ho2  1  0.240424  0.759576  0.240424  1
  Ho  Ho3  1  0.759576  0.240424  0.759576  1
  Ho  Ho4  1  0.240424  0.240424  0.759576  1
  Ho  Ho5  1  0.759576  0.759576  0.240424  1
  Er  Er6  1  0.759320  0.240680  0.240680  1
  Er  Er7  1  0.240680  0.759320  0.759320  1
  F  F8  1  0.829497  0.500000  0.500000  1
  F  F9  1  0.170503  0.500000  0.500000  1
  F  F10  1  0.500000  0.829497  0.170503  1
  F  F11  1  0.500000  0.170503  0.829497  1
  F  F12  1  0.499078  0.829445  0.500922  1
  F  F13  1  0.170555  0.500922  0.829445  1
  F  F14  1  0.500922  0.170555  0.499078  1
  F  F15  1  0.829445  0.499078  0.170555  1
  F  F16  1  0.499078  0.500922  0.829445  1
  F  F17  1  0.500922  0.499078  0.170555  1
  F  F18  1  0.170555  0.829445  0.500922  1
  F  F19  1  0.829445  0.170555  0.499078  1
  F  F20  1  0.109814  0.110879  0.110879  1
  F  F21  1  0.890186  0.889121  0.889121  1
  F  F22  1  0.110879  0.109814  0.668429  1
  F  F23  1  0.110879  0.668429  0.109814  1
  F  F24  1  0.889121  0.890186  0.331571  1
  F  F25  1  0.889121  0.331571  0.890186  1
  F  F26  1  0.668429  0.110879  0.110879  1
  F  F27  1  0.331571  0.889121  0.889121  1
