# generated using pymatgen
data_Ho8Ti8Si16Mo3W
_symmetry_space_group_name_H-M   'P 1'
_cell_length_a   6.96219443
_cell_length_b   6.96219366
_cell_length_c   12.80292993
_cell_angle_alpha   90.00232452
_cell_angle_beta   89.99767666
_cell_angle_gamma   90.03075258
_symmetry_Int_Tables_number   1
_chemical_formula_structural   Ho8Ti8Si16Mo3W
_chemical_formula_sum   'Ho8 Ti8 Si16 Mo3 W1'
_cell_volume   620.58539793
_cell_formula_units_Z   1
loop_
 _symmetry_equiv_pos_site_id
 _symmetry_equiv_pos_as_xyz
  1  'x, y, z'
loop_
 _atom_site_type_symbol
 _atom_site_label
 _atom_site_symmetry_multiplicity
 _atom_site_fract_x
 _atom_site_fract_y
 _atom_site_fract_z
 _atom_site_occupancy
  Ho  Ho0  1  0.341382  0.000663  0.467268  1
  Ho  Ho1  1  0.499381  0.840996  0.717415  1
  Ho  Ho2  1  0.500363  0.158576  0.217237  1
  Ho  Ho3  1  0.840996  0.499381  0.282585  1
  Ho  Ho4  1  0.158576  0.500363  0.782763  1
  Ho  Ho5  1  0.658871  0.999253  0.967262  1
  Ho  Ho6  1  0.000663  0.341382  0.532732  1
  Ho  Ho7  1  0.999253  0.658871  0.032738  1
  Ti  Ti8  1  0.152844  0.008718  0.876097  1
  Ti  Ti9  1  0.491348  0.652366  0.125593  1
  Ti  Ti10  1  0.508408  0.347795  0.625961  1
  Ti  Ti11  1  0.652366  0.491348  0.874407  1
  Ti  Ti12  1  0.347795  0.508408  0.374039  1
  Ti  Ti13  1  0.847523  0.991373  0.375935  1
  Ti  Ti14  1  0.008718  0.152844  0.123903  1
  Ti  Ti15  1  0.991373  0.847523  0.624065  1
  Si  Si16  1  0.201432  0.130940  0.684440  1
  Si  Si17  1  0.368863  0.701018  0.934293  1
  Si  Si18  1  0.631010  0.298609  0.434348  1
  Si  Si19  1  0.701018  0.368863  0.065707  1
  Si  Si20  1  0.298609  0.631010  0.565652  1
  Si  Si21  1  0.798643  0.869239  0.184232  1
  Si  Si22  1  0.130940  0.201432  0.315560  1
  Si  Si23  1  0.869239  0.798643  0.815768  1
  Si  Si24  1  0.291646  0.952721  0.065078  1
  Si  Si25  1  0.547536  0.791736  0.314973  1
  Si  Si26  1  0.452433  0.208249  0.815367  1
  Si  Si27  1  0.791736  0.547536  0.685027  1
  Si  Si28  1  0.208249  0.452433  0.184633  1
  Si  Si29  1  0.708404  0.047624  0.565332  1
  Si  Si30  1  0.952721  0.291646  0.934922  1
  Si  Si31  1  0.047624  0.708404  0.434668  1
  Mo  Mo32  1  0.173574  0.826673  0.249822  1
  Mo  Mo33  1  0.826673  0.173574  0.750178  1
  Mo  Mo34  1  0.673423  0.673423  0.500000  1
  W  W35  1  0.326365  0.326365  0.000000  1
