# generated using pymatgen
data_Ho3Er6Lu7(CdPt)4
_symmetry_space_group_name_H-M   'P 1'
_cell_length_a   9.55662908
_cell_length_b   9.54403050
_cell_length_c   9.54403000
_cell_angle_alpha   60.00000173
_cell_angle_beta   60.04360143
_cell_angle_gamma   60.04360486
_symmetry_Int_Tables_number   1
_chemical_formula_structural   Ho3Er6Lu7(CdPt)4
_chemical_formula_sum   'Ho3 Er6 Lu7 Cd4 Pt4'
_cell_volume   615.94121414
_cell_formula_units_Z   1
loop_
 _symmetry_equiv_pos_site_id
 _symmetry_equiv_pos_as_xyz
  1  'x, y, z'
loop_
 _atom_site_type_symbol
 _atom_site_label
 _atom_site_symmetry_multiplicity
 _atom_site_fract_x
 _atom_site_fract_y
 _atom_site_fract_z
 _atom_site_occupancy
  Ho  Ho0  1  0.353397  0.353505  0.353505  1
  Ho  Ho1  1  0.353397  0.353505  0.939593  1
  Ho  Ho2  1  0.353397  0.939593  0.353505  1
  Er  Er3  1  0.935664  0.564491  0.564491  1
  Er  Er4  1  0.565479  0.934614  0.934614  1
  Er  Er5  1  0.565479  0.934614  0.565294  1
  Er  Er6  1  0.935664  0.564491  0.935355  1
  Er  Er7  1  0.565479  0.565294  0.934614  1
  Er  Er8  1  0.935664  0.935355  0.564491  1
  Lu  Lu9  1  0.940979  0.353008  0.353008  1
  Lu  Lu10  1  0.812240  0.187695  0.187695  1
  Lu  Lu11  1  0.186775  0.813150  0.813150  1
  Lu  Lu12  1  0.186775  0.813150  0.186926  1
  Lu  Lu13  1  0.812240  0.187695  0.812371  1
  Lu  Lu14  1  0.186775  0.186926  0.813150  1
  Lu  Lu15  1  0.812240  0.812371  0.187695  1
  Cd  Cd16  1  0.584164  0.581596  0.581596  1
  Cd  Cd17  1  0.584164  0.581596  0.252644  1
  Cd  Cd18  1  0.584164  0.252644  0.581596  1
  Cd  Cd19  1  0.252965  0.582345  0.582345  1
  Pt  Pt20  1  0.140133  0.144240  0.144240  1
  Pt  Pt21  1  0.140133  0.144240  0.571387  1
  Pt  Pt22  1  0.140133  0.571387  0.144240  1
  Pt  Pt23  1  0.572499  0.142500  0.142500  1
