# generated using pymatgen
data_Yb3Ho(Al3Pd)6
_symmetry_space_group_name_H-M   'P 1'
_cell_length_a   7.63568201
_cell_length_b   7.63213386
_cell_length_c   9.45782700
_cell_angle_alpha   90.00000000
_cell_angle_beta   90.00000000
_cell_angle_gamma   119.56255061
_symmetry_Int_Tables_number   1
_chemical_formula_structural   Yb3Ho(Al3Pd)6
_chemical_formula_sum   'Yb3 Ho1 Al18 Pd6'
_cell_volume   479.41692823
_cell_formula_units_Z   1
loop_
 _symmetry_equiv_pos_site_id
 _symmetry_equiv_pos_as_xyz
  1  'x, y, z'
loop_
 _atom_site_type_symbol
 _atom_site_label
 _atom_site_symmetry_multiplicity
 _atom_site_fract_x
 _atom_site_fract_y
 _atom_site_fract_z
 _atom_site_occupancy
  Yb  Yb0  1  0.995092  0.669473  0.250000  1
  Yb  Yb1  1  0.003638  0.330160  0.750000  1
  Yb  Yb2  1  0.671623  0.996776  0.250000  1
  Ho  Ho3  1  0.330005  0.002989  0.750000  1
  Al  Al4  1  0.131943  0.131612  0.250000  1
  Al  Al5  1  0.872011  0.869977  0.750000  1
  Al  Al6  1  0.001049  0.334913  0.075607  1
  Al  Al7  1  0.999682  0.665172  0.921806  1
  Al  Al8  1  0.999682  0.665172  0.578194  1
  Al  Al9  1  0.334680  0.000164  0.424451  1
  Al  Al10  1  0.001049  0.334913  0.424393  1
  Al  Al11  1  0.665186  0.999879  0.577946  1
  Al  Al12  1  0.665186  0.999879  0.922054  1
  Al  Al13  1  0.334680  0.000164  0.075549  1
  Al  Al14  1  0.332532  0.331927  0.559019  1
  Al  Al15  1  0.666595  0.666657  0.445298  1
  Al  Al16  1  0.666595  0.666657  0.054702  1
  Al  Al17  1  0.332532  0.331927  0.940981  1
  Al  Al18  1  0.340000  0.546942  0.250000  1
  Al  Al19  1  0.656753  0.451936  0.750000  1
  Al  Al20  1  0.544564  0.339887  0.250000  1
  Al  Al21  1  0.455251  0.663427  0.750000  1
  Pd  Pd22  1  0.671672  0.327696  0.999535  1
  Pd  Pd23  1  0.327761  0.671834  0.998975  1
  Pd  Pd24  1  0.327761  0.671834  0.501025  1
  Pd  Pd25  1  0.671672  0.327696  0.500465  1
  Pd  Pd26  1  0.000404  0.000168  0.999350  1
  Pd  Pd27  1  0.000404  0.000168  0.500650  1
