# generated using pymatgen
data_Zr2InBr9
_symmetry_space_group_name_H-M   'P 1'
_cell_length_a   8.11946200
_cell_length_b   11.09720519
_cell_length_c   12.87419815
_cell_angle_alpha   59.34110468
_cell_angle_beta   90.00000000
_cell_angle_gamma   90.00000000
_symmetry_Int_Tables_number   1
_chemical_formula_structural   Zr2InBr9
_chemical_formula_sum   'Zr4 In2 Br18'
_cell_volume   997.86030422
_cell_formula_units_Z   2
loop_
 _symmetry_equiv_pos_site_id
 _symmetry_equiv_pos_as_xyz
  1  'x, y, z'
loop_
 _atom_site_type_symbol
 _atom_site_label
 _atom_site_symmetry_multiplicity
 _atom_site_fract_x
 _atom_site_fract_y
 _atom_site_fract_z
 _atom_site_occupancy
  Zr  Zr0  1  0.284510  0.812199  0.872144  1
  Zr  Zr1  1  0.715490  0.187801  0.127856  1
  Zr  Zr2  1  0.284510  0.187801  0.627856  1
  Zr  Zr3  1  0.715490  0.812199  0.372144  1
  In  In4  1  0.550972  0.500000  0.750000  1
  In  In5  1  0.449028  0.500000  0.250000  1
  Br  Br6  1  0.162880  0.735481  0.080973  1
  Br  Br7  1  0.837120  0.264519  0.919027  1
  Br  Br8  1  0.162880  0.264519  0.419027  1
  Br  Br9  1  0.837120  0.735481  0.580973  1
  Br  Br10  1  0.159135  0.625127  0.839483  1
  Br  Br11  1  0.840865  0.374873  0.160517  1
  Br  Br12  1  0.159135  0.374873  0.660517  1
  Br  Br13  1  0.840865  0.625127  0.339483  1
  Br  Br14  1  0.031356  0.000000  0.750000  1
  Br  Br15  1  0.968644  0.000000  0.250000  1
  Br  Br16  1  0.410853  0.055316  0.857297  1
  Br  Br17  1  0.589147  0.944684  0.142703  1
  Br  Br18  1  0.410853  0.944684  0.642703  1
  Br  Br19  1  0.589147  0.055316  0.357297  1
  Br  Br20  1  0.564608  0.693014  0.954755  1
  Br  Br21  1  0.435392  0.306986  0.045245  1
  Br  Br22  1  0.564608  0.306986  0.545245  1
  Br  Br23  1  0.435392  0.693014  0.454755  1
