# generated using pymatgen
data_Rb2SrTa6Cl18
_symmetry_space_group_name_H-M   'P 1'
_cell_length_a   10.50427688
_cell_length_b   10.50427701
_cell_length_c   10.50427622
_cell_angle_alpha   54.83313713
_cell_angle_beta   54.83313680
_cell_angle_gamma   54.83313851
_symmetry_Int_Tables_number   1
_chemical_formula_structural   Rb2SrTa6Cl18
_chemical_formula_sum   'Rb2 Sr1 Ta6 Cl18'
_cell_volume   720.97243646
_cell_formula_units_Z   1
loop_
 _symmetry_equiv_pos_site_id
 _symmetry_equiv_pos_as_xyz
  1  'x, y, z'
loop_
 _atom_site_type_symbol
 _atom_site_label
 _atom_site_symmetry_multiplicity
 _atom_site_fract_x
 _atom_site_fract_y
 _atom_site_fract_z
 _atom_site_occupancy
  Rb  Rb0  1  0.276593  0.276593  0.276593  1
  Rb  Rb1  1  0.723407  0.723407  0.723407  1
  Sr  Sr2  1  0.000000  0.000000  0.000000  1
  Ta  Ta3  1  0.420590  0.302469  0.644052  1
  Ta  Ta4  1  0.355948  0.579410  0.697531  1
  Ta  Ta5  1  0.697531  0.355948  0.579410  1
  Ta  Ta6  1  0.644052  0.420590  0.302469  1
  Ta  Ta7  1  0.579410  0.697531  0.355948  1
  Ta  Ta8  1  0.302469  0.644052  0.420590  1
  Cl  Cl9  1  0.639761  0.094244  0.767014  1
  Cl  Cl10  1  0.767014  0.639761  0.094244  1
  Cl  Cl11  1  0.094244  0.767014  0.639761  1
  Cl  Cl12  1  0.824534  0.323351  0.045263  1
  Cl  Cl13  1  0.169423  0.435579  0.577071  1
  Cl  Cl14  1  0.676649  0.954737  0.175466  1
  Cl  Cl15  1  0.905756  0.232986  0.360239  1
  Cl  Cl16  1  0.564421  0.422929  0.830577  1
  Cl  Cl17  1  0.422929  0.830577  0.564421  1
  Cl  Cl18  1  0.954737  0.175466  0.676649  1
  Cl  Cl19  1  0.175466  0.676649  0.954737  1
  Cl  Cl20  1  0.045263  0.824534  0.323351  1
  Cl  Cl21  1  0.323351  0.045263  0.824534  1
  Cl  Cl22  1  0.232986  0.360239  0.905756  1
  Cl  Cl23  1  0.577071  0.169423  0.435579  1
  Cl  Cl24  1  0.435579  0.577071  0.169423  1
  Cl  Cl25  1  0.360239  0.905756  0.232986  1
  Cl  Cl26  1  0.830577  0.564421  0.422929  1
