# generated using pymatgen
data_YEr3Al18CuIr5
_symmetry_space_group_name_H-M   'P 1'
_cell_length_a   7.55632576
_cell_length_b   7.55518692
_cell_length_c   9.42383736
_cell_angle_alpha   90.12154558
_cell_angle_beta   90.10220800
_cell_angle_gamma   119.71011228
_symmetry_Int_Tables_number   1
_chemical_formula_structural   YEr3Al18CuIr5
_chemical_formula_sum   'Y1 Er3 Al18 Cu1 Ir5'
_cell_volume   467.27465918
_cell_formula_units_Z   1
loop_
 _symmetry_equiv_pos_site_id
 _symmetry_equiv_pos_as_xyz
  1  'x, y, z'
loop_
 _atom_site_type_symbol
 _atom_site_label
 _atom_site_symmetry_multiplicity
 _atom_site_fract_x
 _atom_site_fract_y
 _atom_site_fract_z
 _atom_site_occupancy
  Y  Y0  1  0.329077  0.004898  0.749901  1
  Er  Er1  1  0.995099  0.670935  0.250264  1
  Er  Er2  1  0.004900  0.329015  0.749821  1
  Er  Er3  1  0.671131  0.995133  0.250197  1
  Al  Al4  1  0.127902  0.127988  0.250445  1
  Al  Al5  1  0.871488  0.871970  0.749435  1
  Al  Al6  1  0.000585  0.337707  0.077133  1
  Al  Al7  1  0.998962  0.661716  0.923315  1
  Al  Al8  1  0.999805  0.665445  0.573664  1
  Al  Al9  1  0.334093  0.999716  0.425308  1
  Al  Al10  1  0.999758  0.334095  0.425814  1
  Al  Al11  1  0.666405  0.000296  0.573665  1
  Al  Al12  1  0.662825  0.999430  0.923362  1
  Al  Al13  1  0.337811  0.000560  0.077646  1
  Al  Al14  1  0.332891  0.333279  0.552214  1
  Al  Al15  1  0.667099  0.667105  0.447185  1
  Al  Al16  1  0.664539  0.664545  0.055229  1
  Al  Al17  1  0.335580  0.335993  0.945363  1
  Al  Al18  1  0.339046  0.548540  0.250300  1
  Al  Al19  1  0.661611  0.452125  0.749654  1
  Al  Al20  1  0.548585  0.339113  0.250308  1
  Al  Al21  1  0.451511  0.660501  0.749639  1
  Cu  Cu22  1  0.999111  0.999851  0.000666  1
  Ir  Ir23  1  0.672672  0.327976  0.000325  1
  Ir  Ir24  1  0.327660  0.672117  0.000329  1
  Ir  Ir25  1  0.327901  0.671962  0.499650  1
  Ir  Ir26  1  0.672444  0.328122  0.499606  1
  Ir  Ir27  1  0.999509  0.999868  0.499562  1
