# generated using pymatgen
data_YbPa3(ZnRh)4
_symmetry_space_group_name_H-M   'P 1'
_cell_length_a   3.90495400
_cell_length_b   7.02541327
_cell_length_c   8.29907225
_cell_angle_alpha   90.24285500
_cell_angle_beta   90.00000000
_cell_angle_gamma   90.00000000
_symmetry_Int_Tables_number   1
_chemical_formula_structural   YbPa3(ZnRh)4
_chemical_formula_sum   'Yb1 Pa3 Zn4 Rh4'
_cell_volume   227.67400279
_cell_formula_units_Z   1
loop_
 _symmetry_equiv_pos_site_id
 _symmetry_equiv_pos_as_xyz
  1  'x, y, z'
loop_
 _atom_site_type_symbol
 _atom_site_label
 _atom_site_symmetry_multiplicity
 _atom_site_fract_x
 _atom_site_fract_y
 _atom_site_fract_z
 _atom_site_occupancy
  Yb  Yb0  1  0.250000  0.057029  0.312390  1
  Pa  Pa1  1  0.250000  0.559344  0.189610  1
  Pa  Pa2  1  0.750000  0.448357  0.816365  1
  Pa  Pa3  1  0.750000  0.948437  0.682317  1
  Zn  Zn4  1  0.250000  0.617779  0.556652  1
  Zn  Zn5  1  0.750000  0.364864  0.442003  1
  Zn  Zn6  1  0.750000  0.887101  0.061967  1
  Zn  Zn7  1  0.250000  0.117536  0.947057  1
  Rh  Rh8  1  0.250000  0.732019  0.864739  1
  Rh  Rh9  1  0.750000  0.288236  0.117315  1
  Rh  Rh10  1  0.750000  0.746934  0.365219  1
  Rh  Rh11  1  0.250000  0.232364  0.644364  1
