# generated using pymatgen
data_Yb3Pr8Tm9Si16
_symmetry_space_group_name_H-M   'P 1'
_cell_length_a   7.45384311
_cell_length_b   7.81467004
_cell_length_c   14.81952700
_cell_angle_alpha   90.00000000
_cell_angle_beta   90.00000000
_cell_angle_gamma   90.05789834
_symmetry_Int_Tables_number   1
_chemical_formula_structural   Yb3Pr8Tm9Si16
_chemical_formula_sum   'Yb3 Pr8 Tm9 Si16'
_cell_volume   863.22699557
_cell_formula_units_Z   1
loop_
 _symmetry_equiv_pos_site_id
 _symmetry_equiv_pos_as_xyz
  1  'x, y, z'
loop_
 _atom_site_type_symbol
 _atom_site_label
 _atom_site_symmetry_multiplicity
 _atom_site_fract_x
 _atom_site_fract_y
 _atom_site_fract_z
 _atom_site_occupancy
  Yb  Yb0  1  0.842356  0.488977  0.250000  1
  Yb  Yb1  1  0.343188  0.010910  0.250000  1
  Yb  Yb2  1  0.157910  0.511925  0.750000  1
  Pr  Pr3  1  0.021772  0.179413  0.400955  1
  Pr  Pr4  1  0.521952  0.320006  0.401180  1
  Pr  Pr5  1  0.478924  0.676342  0.901696  1
  Pr  Pr6  1  0.478924  0.676342  0.598304  1
  Pr  Pr7  1  0.980780  0.820010  0.599740  1
  Pr  Pr8  1  0.980780  0.820010  0.900260  1
  Pr  Pr9  1  0.521952  0.320006  0.098820  1
  Pr  Pr10  1  0.021772  0.179413  0.099045  1
  Tm  Tm11  1  0.323932  0.181931  0.623355  1
  Tm  Tm12  1  0.674131  0.819225  0.377519  1
  Tm  Tm13  1  0.656184  0.990742  0.750000  1
  Tm  Tm14  1  0.174353  0.681836  0.377074  1
  Tm  Tm15  1  0.826210  0.319881  0.876216  1
  Tm  Tm16  1  0.826210  0.319881  0.623784  1
  Tm  Tm17  1  0.323932  0.181931  0.876645  1
  Tm  Tm18  1  0.174353  0.681836  0.122926  1
  Tm  Tm19  1  0.674131  0.819225  0.122481  1
  Si  Si20  1  0.279069  0.891797  0.750000  1
  Si  Si21  1  0.464066  0.614236  0.250000  1
  Si  Si22  1  0.029273  0.109611  0.750000  1
  Si  Si23  1  0.536208  0.381203  0.750000  1
  Si  Si24  1  0.149686  0.465282  0.534557  1
  Si  Si25  1  0.963834  0.886849  0.250000  1
  Si  Si26  1  0.730208  0.109141  0.250000  1
  Si  Si27  1  0.848893  0.535293  0.034671  1
  Si  Si28  1  0.349943  0.966501  0.034706  1
  Si  Si29  1  0.149686  0.465282  0.965443  1
  Si  Si30  1  0.649131  0.031941  0.539724  1
  Si  Si31  1  0.349943  0.966501  0.465294  1
  Si  Si32  1  0.848893  0.535293  0.465329  1
  Si  Si33  1  0.767479  0.618184  0.750000  1
  Si  Si34  1  0.230811  0.391106  0.250000  1
  Si  Si35  1  0.649131  0.031941  0.960276  1
