# generated using pymatgen
data_YbZr3As4
_symmetry_space_group_name_H-M   'P 1'
_cell_length_a   3.90317500
_cell_length_b   3.90317601
_cell_length_c   13.40842400
_cell_angle_alpha   90.00000000
_cell_angle_beta   90.00000000
_cell_angle_gamma   120.00001691
_symmetry_Int_Tables_number   1
_chemical_formula_structural   YbZr3As4
_chemical_formula_sum   'Yb1 Zr3 As4'
_cell_volume   176.90676919
_cell_formula_units_Z   1
loop_
 _symmetry_equiv_pos_site_id
 _symmetry_equiv_pos_as_xyz
  1  'x, y, z'
loop_
 _atom_site_type_symbol
 _atom_site_label
 _atom_site_symmetry_multiplicity
 _atom_site_fract_x
 _atom_site_fract_y
 _atom_site_fract_z
 _atom_site_occupancy
  Yb  Yb0  1  0.333333  0.666667  0.122088  1
  Zr  Zr1  1  0.666667  0.333333  0.619782  1
  Zr  Zr2  1  0.666667  0.333333  0.869045  1
  Zr  Zr3  1  0.333333  0.666667  0.389383  1
  As  As4  1  0.000000  0.000000  0.983632  1
  As  As5  1  0.000000  0.000000  0.504564  1
  As  As6  1  0.333333  0.666667  0.743910  1
  As  As7  1  0.666667  0.333333  0.267595  1
