# generated using pymatgen
data_Nd12Si7Ni4Au
_symmetry_space_group_name_H-M   'P 1'
_cell_length_a   4.21719700
_cell_length_b   11.66826504
_cell_length_c   11.77394684
_cell_angle_alpha   89.65269649
_cell_angle_beta   90.00000000
_cell_angle_gamma   90.00000000
_symmetry_Int_Tables_number   1
_chemical_formula_structural   Nd12Si7Ni4Au
_chemical_formula_sum   'Nd12 Si7 Ni4 Au1'
_cell_volume   579.35434217
_cell_formula_units_Z   1
loop_
 _symmetry_equiv_pos_site_id
 _symmetry_equiv_pos_as_xyz
  1  'x, y, z'
loop_
 _atom_site_type_symbol
 _atom_site_label
 _atom_site_symmetry_multiplicity
 _atom_site_fract_x
 _atom_site_fract_y
 _atom_site_fract_z
 _atom_site_occupancy
  Nd  Nd0  1  0.250000  0.375826  0.061913  1
  Nd  Nd1  1  0.750000  0.628174  0.948847  1
  Nd  Nd2  1  0.750000  0.878446  0.440783  1
  Nd  Nd3  1  0.250000  0.120053  0.559359  1
  Nd  Nd4  1  0.250000  0.701390  0.215155  1
  Nd  Nd5  1  0.750000  0.295396  0.782492  1
  Nd  Nd6  1  0.750000  0.198022  0.287428  1
  Nd  Nd7  1  0.250000  0.799795  0.713725  1
  Nd  Nd8  1  0.250000  0.443149  0.381897  1
  Nd  Nd9  1  0.750000  0.555886  0.614060  1
  Nd  Nd10  1  0.750000  0.943148  0.116965  1
  Nd  Nd11  1  0.250000  0.058936  0.883612  1
  Si  Si12  1  0.250000  0.688396  0.471300  1
  Si  Si13  1  0.750000  0.310788  0.525599  1
  Si  Si14  1  0.750000  0.186422  0.029416  1
  Si  Si15  1  0.250000  0.817348  0.971725  1
  Si  Si16  1  0.250000  0.008860  0.299151  1
  Si  Si17  1  0.750000  0.989849  0.701169  1
  Si  Si18  1  0.750000  0.513091  0.199912  1
  Ni  Ni19  1  0.250000  0.134049  0.129115  1
  Ni  Ni20  1  0.750000  0.865228  0.870660  1
  Ni  Ni21  1  0.750000  0.636398  0.372693  1
  Ni  Ni22  1  0.250000  0.356687  0.616235  1
  Au  Au23  1  0.250000  0.494661  0.806792  1
