# generated using pymatgen
data_Dy3Ho(Er2Ni)4
_symmetry_space_group_name_H-M   'P 1'
_cell_length_a   6.31541604
_cell_length_b   6.78159974
_cell_length_c   9.45695800
_cell_angle_alpha   90.00000000
_cell_angle_beta   90.00000000
_cell_angle_gamma   90.02033729
_symmetry_Int_Tables_number   1
_chemical_formula_structural   Dy3Ho(Er2Ni)4
_chemical_formula_sum   'Dy3 Ho1 Er8 Ni4'
_cell_volume   405.02847098
_cell_formula_units_Z   1
loop_
 _symmetry_equiv_pos_site_id
 _symmetry_equiv_pos_as_xyz
  1  'x, y, z'
loop_
 _atom_site_type_symbol
 _atom_site_label
 _atom_site_symmetry_multiplicity
 _atom_site_fract_x
 _atom_site_fract_y
 _atom_site_fract_z
 _atom_site_occupancy
  Dy  Dy0  1  0.862235  0.529939  0.250000  1
  Dy  Dy1  1  0.637263  0.030596  0.250000  1
  Dy  Dy2  1  0.138267  0.469827  0.750000  1
  Ho  Ho3  1  0.362388  0.968536  0.750000  1
  Er  Er4  1  0.320351  0.677730  0.065537  1
  Er  Er5  1  0.179838  0.177158  0.434745  1
  Er  Er6  1  0.679553  0.322412  0.565900  1
  Er  Er7  1  0.820109  0.822770  0.934410  1
  Er  Er8  1  0.679553  0.322412  0.934100  1
  Er  Er9  1  0.820109  0.822770  0.565590  1
  Er  Er10  1  0.320351  0.677730  0.434463  1
  Er  Er11  1  0.179838  0.177158  0.065255  1
  Ni  Ni12  1  0.053615  0.890895  0.250000  1
  Ni  Ni13  1  0.444120  0.391350  0.250000  1
  Ni  Ni14  1  0.948229  0.108852  0.750000  1
  Ni  Ni15  1  0.554183  0.609867  0.750000  1
