# generated using pymatgen
data_CaGaFeBr8
_symmetry_space_group_name_H-M   'P 1'
_cell_length_a   7.60307500
_cell_length_b   7.84820710
_cell_length_c   14.32686375
_cell_angle_alpha   88.10607339
_cell_angle_beta   90.00000000
_cell_angle_gamma   90.00000000
_symmetry_Int_Tables_number   1
_chemical_formula_structural   CaGaFeBr8
_chemical_formula_sum   'Ca2 Ga2 Fe2 Br16'
_cell_volume   854.42422027
_cell_formula_units_Z   2
loop_
 _symmetry_equiv_pos_site_id
 _symmetry_equiv_pos_as_xyz
  1  'x, y, z'
loop_
 _atom_site_type_symbol
 _atom_site_label
 _atom_site_symmetry_multiplicity
 _atom_site_fract_x
 _atom_site_fract_y
 _atom_site_fract_z
 _atom_site_occupancy
  Ca  Ca0  1  0.752357  0.075661  0.813625  1
  Ca  Ca1  1  0.247643  0.075661  0.313625  1
  Ga  Ga2  1  0.933889  0.223198  0.578429  1
  Ga  Ga3  1  0.066111  0.223198  0.078429  1
  Fe  Fe4  1  0.572586  0.639354  0.780021  1
  Fe  Fe5  1  0.427414  0.639354  0.280021  1
  Br  Br6  1  0.425812  0.615788  0.641419  1
  Br  Br7  1  0.574188  0.615788  0.141419  1
  Br  Br8  1  0.868364  0.733479  0.758892  1
  Br  Br9  1  0.131636  0.733479  0.258892  1
  Br  Br10  1  0.938408  0.479148  0.495627  1
  Br  Br11  1  0.061592  0.479148  0.995627  1
  Br  Br12  1  0.919375  0.998211  0.999471  1
  Br  Br13  1  0.080625  0.998211  0.499471  1
  Br  Br14  1  0.642096  0.127194  0.616621  1
  Br  Br15  1  0.357904  0.127194  0.116621  1
  Br  Br16  1  0.564027  0.379642  0.872201  1
  Br  Br17  1  0.435973  0.379642  0.372201  1
  Br  Br18  1  0.445399  0.865886  0.865506  1
  Br  Br19  1  0.554601  0.865886  0.365506  1
  Br  Br20  1  0.931846  0.229842  0.230388  1
  Br  Br21  1  0.068154  0.229842  0.730388  1
