# generated using pymatgen
data_Nd12Zr5Mo3(WN4)12
_symmetry_space_group_name_H-M   'P 1'
_cell_length_a   11.37835719
_cell_length_b   11.37455513
_cell_length_c   11.37463039
_cell_angle_alpha   109.39015083
_cell_angle_beta   109.43883389
_cell_angle_gamma   109.35397331
_symmetry_Int_Tables_number   1
_chemical_formula_structural   Nd12Zr5Mo3(WN4)12
_chemical_formula_sum   'Nd12 Zr5 Mo3 W12 N48'
_cell_volume   1136.47423283
_cell_formula_units_Z   1
loop_
 _symmetry_equiv_pos_site_id
 _symmetry_equiv_pos_as_xyz
  1  'x, y, z'
loop_
 _atom_site_type_symbol
 _atom_site_label
 _atom_site_symmetry_multiplicity
 _atom_site_fract_x
 _atom_site_fract_y
 _atom_site_fract_z
 _atom_site_occupancy
  Nd  Nd0  1  0.251173  0.374405  0.126772  1
  Nd  Nd1  1  0.373862  0.747943  0.122890  1
  Nd  Nd2  1  0.379210  0.124188  0.253427  1
  Nd  Nd3  1  0.871186  0.626025  0.247604  1
  Nd  Nd4  1  0.752018  0.123579  0.378960  1
  Nd  Nd5  1  0.123259  0.248019  0.374385  1
  Nd  Nd6  1  0.876741  0.751981  0.625615  1
  Nd  Nd7  1  0.247982  0.876422  0.621040  1
  Nd  Nd8  1  0.128815  0.373975  0.752396  1
  Nd  Nd9  1  0.620790  0.875811  0.746573  1
  Nd  Nd10  1  0.626138  0.252057  0.877111  1
  Nd  Nd11  1  0.748827  0.625595  0.873227  1
  Zr  Zr12  1  0.000000  0.000000  0.000000  1
  Zr  Zr13  1  0.500000  0.000000  0.000000  1
  Zr  Zr14  1  0.000000  0.500000  0.000000  1
  Zr  Zr15  1  0.000000  0.500000  0.500000  1
  Zr  Zr16  1  0.500000  0.500000  0.500000  1
  Mo  Mo17  1  0.500000  0.500001  0.000000  1
  Mo  Mo18  1  0.000000  0.000000  0.500000  1
  Mo  Mo19  1  0.500000  0.000000  0.500000  1
  W  W20  1  0.874568  0.249404  0.125146  1
  W  W21  1  0.750666  0.872217  0.128010  1
  W  W22  1  0.622868  0.374790  0.247882  1
  W  W23  1  0.127251  0.876570  0.254608  1
  W  W24  1  0.253516  0.628431  0.375162  1
  W  W25  1  0.626485  0.751729  0.374636  1
  W  W26  1  0.373516  0.248271  0.625364  1
  W  W27  1  0.746484  0.371568  0.624838  1
  W  W28  1  0.872750  0.123430  0.745391  1
  W  W29  1  0.377132  0.625210  0.752117  1
  W  W30  1  0.249333  0.127783  0.871989  1
  W  W31  1  0.125431  0.750595  0.874854  1
  N  N32  1  0.206979  0.119115  0.014536  1
  N  N33  1  0.312342  0.899321  0.023327  1
  N  N34  1  0.877698  0.399937  0.088976  1
  N  N35  1  0.695076  0.679035  0.081148  1
  N  N36  1  0.611827  0.416041  0.096461  1
  N  N37  1  0.982568  0.691085  0.104098  1
  N  N38  1  0.021745  0.209511  0.122081  1
  N  N39  1  0.603908  0.912589  0.123862  1
  N  N40  1  0.211374  0.588166  0.187912  1
  N  N41  1  0.492143  0.601422  0.181303  1
  N  N42  1  0.122854  0.018596  0.209596  1
  N  N43  1  0.588793  0.189355  0.209195  1
  N  N44  1  0.478396  0.377285  0.290631  1
  N  N45  1  0.320024  0.917235  0.308799  1
  N  N46  1  0.902929  0.011359  0.320123  1
  N  N47  1  0.911623  0.288486  0.312199  1
  N  N48  1  0.292532  0.482449  0.380750  1
  N  N49  1  0.580284  0.898303  0.386793  1
  N  N50  1  0.809715  0.521094  0.396464  1
  N  N51  1  0.081810  0.885759  0.401249  1
  N  N52  1  0.103459  0.622843  0.411768  1
  N  N53  1  0.818023  0.809015  0.418726  1
  N  N54  1  0.597059  0.177955  0.483251  1
  N  N55  1  0.380208  0.293079  0.484426  1
  N  N56  1  0.619792  0.706921  0.515575  1
  N  N57  1  0.402941  0.822045  0.516748  1
  N  N58  1  0.181977  0.190985  0.581275  1
  N  N59  1  0.896541  0.377157  0.588233  1
  N  N60  1  0.918191  0.114241  0.598751  1
  N  N61  1  0.190285  0.478906  0.603536  1
  N  N62  1  0.419716  0.101697  0.613207  1
  N  N63  1  0.707468  0.517551  0.619251  1
  N  N64  1  0.088377  0.711513  0.687801  1
  N  N65  1  0.097070  0.988640  0.679876  1
  N  N66  1  0.679976  0.082764  0.691200  1
  N  N67  1  0.521605  0.622716  0.709369  1
  N  N68  1  0.411207  0.810646  0.790805  1
  N  N69  1  0.877146  0.981404  0.790404  1
  N  N70  1  0.507857  0.398578  0.818697  1
  N  N71  1  0.788626  0.411834  0.812088  1
  N  N72  1  0.396092  0.087412  0.876137  1
  N  N73  1  0.978254  0.790488  0.877919  1
  N  N74  1  0.017431  0.308914  0.895902  1
  N  N75  1  0.388173  0.583960  0.903539  1
  N  N76  1  0.304924  0.320965  0.918852  1
  N  N77  1  0.122302  0.600063  0.911025  1
  N  N78  1  0.687658  0.100679  0.976673  1
  N  N79  1  0.793021  0.880884  0.985463  1
