# generated using pymatgen
data_LaNdTc2F14
_symmetry_space_group_name_H-M   'P 1'
_cell_length_a   5.79329800
_cell_length_b   9.27741662
_cell_length_c   12.43795241
_cell_angle_alpha   62.07992736
_cell_angle_beta   90.00000000
_cell_angle_gamma   90.00000000
_symmetry_Int_Tables_number   1
_chemical_formula_structural   LaNdTc2F14
_chemical_formula_sum   'La2 Nd2 Tc4 F28'
_cell_volume   590.68825361
_cell_formula_units_Z   2
loop_
 _symmetry_equiv_pos_site_id
 _symmetry_equiv_pos_as_xyz
  1  'x, y, z'
loop_
 _atom_site_type_symbol
 _atom_site_label
 _atom_site_symmetry_multiplicity
 _atom_site_fract_x
 _atom_site_fract_y
 _atom_site_fract_z
 _atom_site_occupancy
  La  La0  1  0.241691  0.190175  0.734525  1
  La  La1  1  0.741691  0.809825  0.765475  1
  Nd  Nd2  1  0.759047  0.811839  0.264716  1
  Nd  Nd3  1  0.259047  0.188161  0.235284  1
  Tc  Tc4  1  0.243909  0.727649  0.540679  1
  Tc  Tc5  1  0.743909  0.272351  0.959321  1
  Tc  Tc6  1  0.756080  0.275710  0.454247  1
  Tc  Tc7  1  0.256080  0.724290  0.045753  1
  F  F8  1  0.963397  0.716598  0.454159  1
  F  F9  1  0.463397  0.283402  0.045841  1
  F  F10  1  0.034022  0.285618  0.541636  1
  F  F11  1  0.534022  0.714382  0.958364  1
  F  F12  1  0.057831  0.708445  0.923951  1
  F  F13  1  0.557831  0.291555  0.576049  1
  F  F14  1  0.946700  0.289996  0.079235  1
  F  F15  1  0.446700  0.710004  0.420765  1
  F  F16  1  0.735787  0.510872  0.862156  1
  F  F17  1  0.235787  0.489128  0.637844  1
  F  F18  1  0.263758  0.484625  0.140335  1
  F  F19  1  0.763758  0.515375  0.359665  1
  F  F20  1  0.740767  0.033407  0.052718  1
  F  F21  1  0.240767  0.966593  0.447282  1
  F  F22  1  0.259282  0.962506  0.950822  1
  F  F23  1  0.759282  0.037494  0.549178  1
  F  F24  1  0.049936  0.742829  0.665251  1
  F  F25  1  0.549936  0.257171  0.834749  1
  F  F26  1  0.955379  0.256915  0.332449  1
  F  F27  1  0.455379  0.743085  0.167551  1
  F  F28  1  0.014302  0.268261  0.865853  1
  F  F29  1  0.514302  0.731739  0.634147  1
  F  F30  1  0.982870  0.732184  0.137116  1
  F  F31  1  0.482870  0.267816  0.362884  1
  F  F32  1  0.083599  0.970315  0.232016  1
  F  F33  1  0.583599  0.029685  0.267984  1
  F  F34  1  0.911644  0.031841  0.768751  1
  F  F35  1  0.411644  0.968159  0.731249  1
