# generated using pymatgen
data_Yb6Ir2Au
_symmetry_space_group_name_H-M   'P 1'
_cell_length_a   7.74563100
_cell_length_b   7.74563056
_cell_length_c   4.18983300
_cell_angle_alpha   90.00000000
_cell_angle_beta   90.00000000
_cell_angle_gamma   119.99999759
_symmetry_Int_Tables_number   1
_chemical_formula_structural   Yb6Ir2Au
_chemical_formula_sum   'Yb6 Ir2 Au1'
_cell_volume   217.69123228
_cell_formula_units_Z   1
loop_
 _symmetry_equiv_pos_site_id
 _symmetry_equiv_pos_as_xyz
  1  'x, y, z'
loop_
 _atom_site_type_symbol
 _atom_site_label
 _atom_site_symmetry_multiplicity
 _atom_site_fract_x
 _atom_site_fract_y
 _atom_site_fract_z
 _atom_site_occupancy
  Yb  Yb0  1  0.971536  0.577651  0.500000  1
  Yb  Yb1  1  0.606115  0.028464  0.500000  1
  Yb  Yb2  1  0.422349  0.393885  0.500000  1
  Yb  Yb3  1  0.998964  0.251935  0.000000  1
  Yb  Yb4  1  0.252972  0.001036  0.000000  1
  Yb  Yb5  1  0.748065  0.747028  0.000000  1
  Ir  Ir6  1  0.000000  0.000000  0.500000  1
  Ir  Ir7  1  0.666667  0.333333  0.000000  1
  Au  Au8  1  0.333333  0.666667  0.000000  1
