# generated using pymatgen
data_Tb3Nd17Si15As
_symmetry_space_group_name_H-M   'P 1'
_cell_length_a   7.88322532
_cell_length_b   7.87178514
_cell_length_c   15.34620600
_cell_angle_alpha   89.91052381
_cell_angle_beta   89.67308801
_cell_angle_gamma   89.96362099
_symmetry_Int_Tables_number   1
_chemical_formula_structural   Tb3Nd17Si15As
_chemical_formula_sum   'Tb3 Nd17 Si15 As1'
_cell_volume   952.29282265
_cell_formula_units_Z   1
loop_
 _symmetry_equiv_pos_site_id
 _symmetry_equiv_pos_as_xyz
  1  'x, y, z'
loop_
 _atom_site_type_symbol
 _atom_site_label
 _atom_site_symmetry_multiplicity
 _atom_site_fract_x
 _atom_site_fract_y
 _atom_site_fract_z
 _atom_site_occupancy
  Tb  Tb0  1  0.312128  0.310012  0.999974  1
  Tb  Tb1  1  0.189614  0.809063  0.249110  1
  Tb  Tb2  1  0.804869  0.190428  0.751719  1
  Nd  Nd3  1  0.689032  0.691115  0.498119  1
  Nd  Nd4  1  0.380274  0.008997  0.443207  1
  Nd  Nd5  1  0.488860  0.879245  0.696604  1
  Nd  Nd6  1  0.511062  0.120244  0.194455  1
  Nd  Nd7  1  0.878780  0.487234  0.302995  1
  Nd  Nd8  1  0.121982  0.511267  0.805950  1
  Nd  Nd9  1  0.624207  0.987565  0.946259  1
  Nd  Nd10  1  0.005497  0.380227  0.553417  1
  Nd  Nd11  1  0.989401  0.619358  0.054949  1
  Nd  Nd12  1  0.130620  0.981730  0.876932  1
  Nd  Nd13  1  0.521795  0.626826  0.126712  1
  Nd  Nd14  1  0.477140  0.373998  0.630047  1
  Nd  Nd15  1  0.628725  0.521975  0.873701  1
  Nd  Nd16  1  0.372953  0.477140  0.372002  1
  Nd  Nd17  1  0.873510  0.022182  0.377375  1
  Nd  Nd18  1  0.979177  0.126311  0.122520  1
  Nd  Nd19  1  0.019721  0.872715  0.622252  1
  Si  Si20  1  0.328391  0.690425  0.955646  1
  Si  Si21  1  0.667308  0.307275  0.456581  1
  Si  Si22  1  0.693320  0.329535  0.044986  1
  Si  Si23  1  0.306216  0.669780  0.545057  1
  Si  Si24  1  0.810495  0.828885  0.205263  1
  Si  Si25  1  0.171284  0.189403  0.293118  1
  Si  Si26  1  0.833116  0.810123  0.794817  1
  Si  Si27  1  0.286342  0.921938  0.061928  1
  Si  Si28  1  0.575466  0.787250  0.309217  1
  Si  Si29  1  0.434982  0.212540  0.818351  1
  Si  Si30  1  0.788432  0.577098  0.689301  1
  Si  Si31  1  0.213298  0.422311  0.187399  1
  Si  Si32  1  0.708479  0.078625  0.564114  1
  Si  Si33  1  0.925599  0.287354  0.937926  1
  Si  Si34  1  0.079807  0.714188  0.436490  1
  As  As35  1  0.178123  0.175632  0.701507  1
