# generated using pymatgen
data_Ce4Zr6Si5Ge3
_symmetry_space_group_name_H-M   'P 1'
_cell_length_a   7.41596839
_cell_length_b   7.23175359
_cell_length_c   7.45044456
_cell_angle_alpha   70.96017565
_cell_angle_beta   89.97640531
_cell_angle_gamma   89.93028649
_symmetry_Int_Tables_number   1
_chemical_formula_structural   Ce4Zr6Si5Ge3
_chemical_formula_sum   'Ce4 Zr6 Si5 Ge3'
_cell_volume   377.71076609
_cell_formula_units_Z   1
loop_
 _symmetry_equiv_pos_site_id
 _symmetry_equiv_pos_as_xyz
  1  'x, y, z'
loop_
 _atom_site_type_symbol
 _atom_site_label
 _atom_site_symmetry_multiplicity
 _atom_site_fract_x
 _atom_site_fract_y
 _atom_site_fract_z
 _atom_site_occupancy
  Ce  Ce0  1  0.669979  0.930810  0.692894  1
  Ce  Ce1  1  0.330928  0.072775  0.307622  1
  Ce  Ce2  1  0.172517  0.569031  0.305983  1
  Ce  Ce3  1  0.827942  0.429360  0.693245  1
  Zr  Zr4  1  0.674871  0.746200  0.244078  1
  Zr  Zr5  1  0.326289  0.251238  0.754272  1
  Zr  Zr6  1  0.175370  0.751257  0.755754  1
  Zr  Zr7  1  0.822372  0.249960  0.245978  1
  Zr  Zr8  1  0.999908  0.999797  0.000196  1
  Zr  Zr9  1  0.499721  0.498967  0.003103  1
  Si  Si10  1  0.536234  0.366132  0.415627  1
  Si  Si11  1  0.876376  0.627846  0.992952  1
  Si  Si12  1  0.123277  0.371633  0.005944  1
  Si  Si13  1  0.375943  0.872511  0.006597  1
  Si  Si14  1  0.624346  0.127332  0.993860  1
  Ge  Ge15  1  0.963852  0.860791  0.415689  1
  Ge  Ge16  1  0.036360  0.138666  0.583982  1
  Ge  Ge17  1  0.463715  0.635695  0.582224  1
