# generated using pymatgen
data_Ho6BeSi12Pt7
_symmetry_space_group_name_H-M   'P 1'
_cell_length_a   4.21539400
_cell_length_b   8.47671901
_cell_length_c   12.96622800
_cell_angle_alpha   80.32010565
_cell_angle_beta   90.00000000
_cell_angle_gamma   90.00000000
_symmetry_Int_Tables_number   1
_chemical_formula_structural   Ho6BeSi12Pt7
_chemical_formula_sum   'Ho6 Be1 Si12 Pt7'
_cell_volume   456.72198922
_cell_formula_units_Z   1
loop_
 _symmetry_equiv_pos_site_id
 _symmetry_equiv_pos_as_xyz
  1  'x, y, z'
loop_
 _atom_site_type_symbol
 _atom_site_label
 _atom_site_symmetry_multiplicity
 _atom_site_fract_x
 _atom_site_fract_y
 _atom_site_fract_z
 _atom_site_occupancy
  Ho  Ho0  1  0.250000  0.767673  0.436983  1
  Ho  Ho1  1  0.250000  0.569229  0.184893  1
  Ho  Ho2  1  0.750000  0.233650  0.559308  1
  Ho  Ho3  1  0.750000  0.423407  0.805006  1
  Ho  Ho4  1  0.750000  0.922668  0.814066  1
  Ho  Ho5  1  0.250000  0.088632  0.184817  1
  Be  Be6  1  0.750000  0.348590  0.105877  1
  Si  Si7  1  0.750000  0.588532  0.566776  1
  Si  Si8  1  0.750000  0.141792  0.008032  1
  Si  Si9  1  0.750000  0.873158  0.571991  1
  Si  Si10  1  0.250000  0.695385  0.718409  1
  Si  Si11  1  0.750000  0.305245  0.281154  1
  Si  Si12  1  0.750000  0.807349  0.273808  1
  Si  Si13  1  0.250000  0.873859  0.995512  1
  Si  Si14  1  0.250000  0.192952  0.723933  1
  Si  Si15  1  0.250000  0.374321  0.007145  1
  Si  Si16  1  0.250000  0.122247  0.430461  1
  Si  Si17  1  0.750000  0.607908  0.003963  1
  Si  Si18  1  0.250000  0.413383  0.430764  1
  Pt  Pt19  1  0.250000  0.970013  0.624214  1
  Pt  Pt20  1  0.750000  0.851325  0.087194  1
  Pt  Pt21  1  0.750000  0.030913  0.372648  1
  Pt  Pt22  1  0.250000  0.643547  0.905823  1
  Pt  Pt23  1  0.250000  0.152943  0.911522  1
  Pt  Pt24  1  0.750000  0.533713  0.372522  1
  Pt  Pt25  1  0.250000  0.467565  0.623181  1
