# generated using pymatgen
data_Tb9Pr6Th(CdIr)4
_symmetry_space_group_name_H-M   'P 1'
_cell_length_a   9.81191762
_cell_length_b   9.81191631
_cell_length_c   9.81191737
_cell_angle_alpha   60.17950098
_cell_angle_beta   60.17950636
_cell_angle_gamma   60.17950329
_symmetry_Int_Tables_number   1
_chemical_formula_structural   Tb9Pr6Th(CdIr)4
_chemical_formula_sum   'Tb9 Pr6 Th1 Cd4 Ir4'
_cell_volume   670.66943165
_cell_formula_units_Z   1
loop_
 _symmetry_equiv_pos_site_id
 _symmetry_equiv_pos_as_xyz
  1  'x, y, z'
loop_
 _atom_site_type_symbol
 _atom_site_label
 _atom_site_symmetry_multiplicity
 _atom_site_fract_x
 _atom_site_fract_y
 _atom_site_fract_z
 _atom_site_occupancy
  Tb  Tb0  1  0.348457  0.348457  0.954601  1
  Tb  Tb1  1  0.348457  0.954601  0.348457  1
  Tb  Tb2  1  0.954601  0.348457  0.348457  1
  Tb  Tb3  1  0.813393  0.187114  0.187114  1
  Tb  Tb4  1  0.186988  0.811715  0.811715  1
  Tb  Tb5  1  0.187114  0.813393  0.187114  1
  Tb  Tb6  1  0.811715  0.186988  0.811715  1
  Tb  Tb7  1  0.187114  0.187114  0.813393  1
  Tb  Tb8  1  0.811715  0.811715  0.186988  1
  Pr  Pr9  1  0.940579  0.560846  0.560846  1
  Pr  Pr10  1  0.558098  0.942026  0.942026  1
  Pr  Pr11  1  0.560846  0.940579  0.560846  1
  Pr  Pr12  1  0.942026  0.558098  0.942026  1
  Pr  Pr13  1  0.560846  0.560846  0.940579  1
  Pr  Pr14  1  0.942026  0.942026  0.558098  1
  Th  Th15  1  0.345431  0.345431  0.345431  1
  Cd  Cd16  1  0.578764  0.578764  0.578764  1
  Cd  Cd17  1  0.579527  0.579527  0.261309  1
  Cd  Cd18  1  0.579527  0.261309  0.579527  1
  Cd  Cd19  1  0.261309  0.579527  0.579527  1
  Ir  Ir20  1  0.142011  0.142011  0.142011  1
  Ir  Ir21  1  0.142729  0.142729  0.573991  1
  Ir  Ir22  1  0.142729  0.573991  0.142729  1
  Ir  Ir23  1  0.573991  0.142729  0.142729  1
