# generated using pymatgen
data_Pr4Nd6C4Cl15
_symmetry_space_group_name_H-M   'P 1'
_cell_length_a   8.88758274
_cell_length_b   9.98981911
_cell_length_c   10.77880964
_cell_angle_alpha   70.17029975
_cell_angle_beta   66.73074484
_cell_angle_gamma   70.51707241
_symmetry_Int_Tables_number   1
_chemical_formula_structural   Pr4Nd6C4Cl15
_chemical_formula_sum   'Pr4 Nd6 C4 Cl15'
_cell_volume   804.68465647
_cell_formula_units_Z   1
loop_
 _symmetry_equiv_pos_site_id
 _symmetry_equiv_pos_as_xyz
  1  'x, y, z'
loop_
 _atom_site_type_symbol
 _atom_site_label
 _atom_site_symmetry_multiplicity
 _atom_site_fract_x
 _atom_site_fract_y
 _atom_site_fract_z
 _atom_site_occupancy
  Pr  Pr0  1  0.344544  0.752295  0.828015  1
  Pr  Pr1  1  0.655456  0.247705  0.171985  1
  Pr  Pr2  1  0.177649  0.428371  0.046310  1
  Pr  Pr3  1  0.822351  0.571629  0.953690  1
  Nd  Nd4  1  0.080667  0.175824  0.884141  1
  Nd  Nd5  1  0.919333  0.824176  0.115859  1
  Nd  Nd6  1  0.246773  0.542744  0.636504  1
  Nd  Nd7  1  0.753227  0.457256  0.363496  1
  Nd  Nd8  1  0.033873  0.097796  0.267917  1
  Nd  Nd9  1  0.966127  0.902204  0.732083  1
  C  C10  1  0.879458  0.356940  0.175478  1
  C  C11  1  0.120542  0.643060  0.824522  1
  C  C12  1  0.956624  0.292581  0.061481  1
  C  C13  1  0.043376  0.707419  0.938519  1
  Cl  Cl14  1  0.500000  0.500000  0.000000  1
  Cl  Cl15  1  0.126626  0.816434  0.473755  1
  Cl  Cl16  1  0.873374  0.183566  0.526245  1
  Cl  Cl17  1  0.248523  0.022239  0.650202  1
  Cl  Cl18  1  0.751477  0.977761  0.349798  1
  Cl  Cl19  1  0.333744  0.165969  0.221829  1
  Cl  Cl20  1  0.666256  0.834031  0.778171  1
  Cl  Cl21  1  0.458996  0.372433  0.412555  1
  Cl  Cl22  1  0.541004  0.627567  0.587445  1
  Cl  Cl23  1  0.955690  0.439785  0.704637  1
  Cl  Cl24  1  0.044310  0.560215  0.295363  1
  Cl  Cl25  1  0.227501  0.910445  0.060593  1
  Cl  Cl26  1  0.772499  0.089555  0.939407  1
  Cl  Cl27  1  0.375754  0.277683  0.812303  1
  Cl  Cl28  1  0.624246  0.722317  0.187697  1
