# generated using pymatgen
data_PrY(Si7Ir3)2
_symmetry_space_group_name_H-M   'P 1'
_cell_length_a   8.09237121
_cell_length_b   8.09237087
_cell_length_c   8.09237207
_cell_angle_alpha   56.51480530
_cell_angle_beta   56.51480381
_cell_angle_gamma   56.51480491
_symmetry_Int_Tables_number   1
_chemical_formula_structural   PrY(Si7Ir3)2
_chemical_formula_sum   'Pr1 Y1 Si14 Ir6'
_cell_volume   344.54083516
_cell_formula_units_Z   1
loop_
 _symmetry_equiv_pos_site_id
 _symmetry_equiv_pos_as_xyz
  1  'x, y, z'
loop_
 _atom_site_type_symbol
 _atom_site_label
 _atom_site_symmetry_multiplicity
 _atom_site_fract_x
 _atom_site_fract_y
 _atom_site_fract_z
 _atom_site_occupancy
  Pr  Pr0  1  0.500000  0.500000  0.500000  1
  Y  Y1  1  0.000000  0.000000  0.000000  1
  Si  Si2  1  0.749349  0.749349  0.749349  1
  Si  Si3  1  0.250651  0.250651  0.250651  1
  Si  Si4  1  0.851929  0.061881  0.673496  1
  Si  Si5  1  0.673496  0.851929  0.061881  1
  Si  Si6  1  0.061881  0.673496  0.851929  1
  Si  Si7  1  0.651050  0.828063  0.434803  1
  Si  Si8  1  0.434803  0.651050  0.828063  1
  Si  Si9  1  0.828063  0.434803  0.651050  1
  Si  Si10  1  0.171937  0.565197  0.348950  1
  Si  Si11  1  0.565197  0.348950  0.171937  1
  Si  Si12  1  0.348950  0.171937  0.565197  1
  Si  Si13  1  0.938119  0.326504  0.148071  1
  Si  Si14  1  0.326504  0.148071  0.938119  1
  Si  Si15  1  0.148071  0.938119  0.326504  1
  Ir  Ir16  1  0.067360  0.429365  0.752283  1
  Ir  Ir17  1  0.247717  0.932640  0.570635  1
  Ir  Ir18  1  0.570635  0.247717  0.932640  1
  Ir  Ir19  1  0.932640  0.570635  0.247717  1
  Ir  Ir20  1  0.429365  0.752283  0.067360  1
  Ir  Ir21  1  0.752283  0.067360  0.429365  1
