# generated using pymatgen
data_LaCe2ZrBi5
_symmetry_space_group_name_H-M   'P 1'
_cell_length_a   9.86935600
_cell_length_b   9.78324906
_cell_length_c   6.53536500
_cell_angle_alpha   90.00000000
_cell_angle_beta   90.00000000
_cell_angle_gamma   120.29157979
_symmetry_Int_Tables_number   1
_chemical_formula_structural   LaCe2ZrBi5
_chemical_formula_sum   'La2 Ce4 Zr2 Bi10'
_cell_volume   544.86494578
_cell_formula_units_Z   2
loop_
 _symmetry_equiv_pos_site_id
 _symmetry_equiv_pos_as_xyz
  1  'x, y, z'
loop_
 _atom_site_type_symbol
 _atom_site_label
 _atom_site_symmetry_multiplicity
 _atom_site_fract_x
 _atom_site_fract_y
 _atom_site_fract_z
 _atom_site_occupancy
  La  La0  1  0.619916  0.000000  0.250000  1
  La  La1  1  0.380084  0.000000  0.750000  1
  Ce  Ce2  1  0.000621  0.617564  0.250000  1
  Ce  Ce3  1  0.999379  0.382436  0.750000  1
  Ce  Ce4  1  0.383057  0.382436  0.250000  1
  Ce  Ce5  1  0.616943  0.617564  0.750000  1
  Zr  Zr6  1  0.000000  0.000000  0.000000  1
  Zr  Zr7  1  0.000000  0.000000  0.500000  1
  Bi  Bi8  1  0.262332  0.000000  0.250000  1
  Bi  Bi9  1  0.737668  0.000000  0.750000  1
  Bi  Bi10  1  0.004408  0.268056  0.250000  1
  Bi  Bi11  1  0.995592  0.731944  0.750000  1
  Bi  Bi12  1  0.736353  0.731944  0.250000  1
  Bi  Bi13  1  0.263647  0.268056  0.750000  1
  Bi  Bi14  1  0.331201  0.662404  0.000000  1
  Bi  Bi15  1  0.668799  0.337596  0.000000  1
  Bi  Bi16  1  0.668799  0.337596  0.500000  1
  Bi  Bi17  1  0.331201  0.662404  0.500000  1
