# generated using pymatgen
data_LaPrAs2(RuO)2
_symmetry_space_group_name_H-M   'P 1'
_cell_length_a   4.13656000
_cell_length_b   4.13656000
_cell_length_c   8.53999600
_cell_angle_alpha   90.00000000
_cell_angle_beta   90.00000000
_cell_angle_gamma   90.00000000
_symmetry_Int_Tables_number   1
_chemical_formula_structural   LaPrAs2(RuO)2
_chemical_formula_sum   'La1 Pr1 As2 Ru2 O2'
_cell_volume   146.12897009
_cell_formula_units_Z   1
loop_
 _symmetry_equiv_pos_site_id
 _symmetry_equiv_pos_as_xyz
  1  'x, y, z'
loop_
 _atom_site_type_symbol
 _atom_site_label
 _atom_site_symmetry_multiplicity
 _atom_site_fract_x
 _atom_site_fract_y
 _atom_site_fract_z
 _atom_site_occupancy
  La  La0  1  0.500000  0.000000  0.136958  1
  Pr  Pr1  1  0.000000  0.500000  0.859954  1
  As  As2  1  0.000000  0.500000  0.347392  1
  As  As3  1  0.500000  0.000000  0.655153  1
  Ru  Ru4  1  0.000000  0.000000  0.501730  1
  Ru  Ru5  1  0.500000  0.500000  0.501730  1
  O  O6  1  0.000000  0.000000  0.998542  1
  O  O7  1  0.500000  0.500000  0.998542  1
