# generated using pymatgen
data_Hf18VFeRe7P
_symmetry_space_group_name_H-M   'P 1'
_cell_length_a   8.53116906
_cell_length_b   8.54045659
_cell_length_c   8.54053905
_cell_angle_alpha   120.00019277
_cell_angle_beta   90.00071858
_cell_angle_gamma   89.99983876
_symmetry_Int_Tables_number   1
_chemical_formula_structural   Hf18VFeRe7P
_chemical_formula_sum   'Hf18 V1 Fe1 Re7 P1'
_cell_volume   538.89568813
_cell_formula_units_Z   1
loop_
 _symmetry_equiv_pos_site_id
 _symmetry_equiv_pos_as_xyz
  1  'x, y, z'
loop_
 _atom_site_type_symbol
 _atom_site_label
 _atom_site_symmetry_multiplicity
 _atom_site_fract_x
 _atom_site_fract_y
 _atom_site_fract_z
 _atom_site_occupancy
  Hf  Hf0  1  0.549429  0.804924  0.609843  1
  Hf  Hf1  1  0.549431  0.804920  0.195082  1
  Hf  Hf2  1  0.549419  0.390192  0.195094  1
  Hf  Hf3  1  0.443184  0.200253  0.400492  1
  Hf  Hf4  1  0.443175  0.200264  0.799747  1
  Hf  Hf5  1  0.443132  0.599495  0.799745  1
  Hf  Hf6  1  0.057934  0.201356  0.402718  1
  Hf  Hf7  1  0.057956  0.201377  0.798623  1
  Hf  Hf8  1  0.057956  0.597228  0.798616  1
  Hf  Hf9  1  0.950681  0.806004  0.612011  1
  Hf  Hf10  1  0.950691  0.805994  0.194006  1
  Hf  Hf11  1  0.950675  0.388004  0.194002  1
  Hf  Hf12  1  0.750266  0.459308  0.918593  1
  Hf  Hf13  1  0.750269  0.459310  0.540728  1
  Hf  Hf14  1  0.750280  0.081420  0.540716  1
  Hf  Hf15  1  0.250086  0.540567  0.081140  1
  Hf  Hf16  1  0.250082  0.540546  0.459425  1
  Hf  Hf17  1  0.250103  0.918894  0.459438  1
  V  V18  1  0.497098  0.999995  0.000002  1
  Fe  Fe19  1  0.250003  0.333256  0.666591  1
  Re  Re20  1  0.745685  0.109755  0.219493  1
  Re  Re21  1  0.745686  0.109747  0.890300  1
  Re  Re22  1  0.745676  0.780554  0.890299  1
  Re  Re23  1  0.253408  0.889891  0.779790  1
  Re  Re24  1  0.253411  0.889883  0.110085  1
  Re  Re25  1  0.253414  0.220183  0.110082  1
  Re  Re26  1  0.999407  0.999988  0.999995  1
  P  P27  1  0.751459  0.666689  0.333343  1
