# generated using pymatgen
data_NdHo4(In2Rh)2
_symmetry_space_group_name_H-M   'P 1'
_cell_length_a   3.64953200
_cell_length_b   8.03538600
_cell_length_c   18.41013300
_cell_angle_alpha   90.00000000
_cell_angle_beta   90.00000000
_cell_angle_gamma   90.00000000
_symmetry_Int_Tables_number   1
_chemical_formula_structural   NdHo4(In2Rh)2
_chemical_formula_sum   'Nd2 Ho8 In8 Rh4'
_cell_volume   539.88448371
_cell_formula_units_Z   2
loop_
 _symmetry_equiv_pos_site_id
 _symmetry_equiv_pos_as_xyz
  1  'x, y, z'
loop_
 _atom_site_type_symbol
 _atom_site_label
 _atom_site_symmetry_multiplicity
 _atom_site_fract_x
 _atom_site_fract_y
 _atom_site_fract_z
 _atom_site_occupancy
  Nd  Nd0  1  0.000000  0.000000  0.000000  1
  Nd  Nd1  1  0.000000  0.500000  0.500000  1
  Ho  Ho2  1  0.000000  0.118058  0.410746  1
  Ho  Ho3  1  0.000000  0.881942  0.589254  1
  Ho  Ho4  1  0.000000  0.381942  0.910746  1
  Ho  Ho5  1  0.000000  0.618058  0.089254  1
  Ho  Ho6  1  0.000000  0.243919  0.220391  1
  Ho  Ho7  1  0.000000  0.756081  0.779609  1
  Ho  Ho8  1  0.000000  0.256081  0.720391  1
  Ho  Ho9  1  0.000000  0.743919  0.279609  1
  In  In10  1  0.500000  0.424043  0.347185  1
  In  In11  1  0.500000  0.575957  0.652815  1
  In  In12  1  0.500000  0.075957  0.847185  1
  In  In13  1  0.500000  0.924043  0.152815  1
  In  In14  1  0.500000  0.299366  0.069012  1
  In  In15  1  0.500000  0.700634  0.930988  1
  In  In16  1  0.500000  0.200634  0.569012  1
  In  In17  1  0.500000  0.799366  0.430988  1
  Rh  Rh18  1  0.500000  0.023230  0.305004  1
  Rh  Rh19  1  0.500000  0.976770  0.694996  1
  Rh  Rh20  1  0.500000  0.476770  0.805004  1
  Rh  Rh21  1  0.500000  0.523230  0.194996  1
