# generated using pymatgen
data_TbLu2BiO7
_symmetry_space_group_name_H-M   'P 1'
_cell_length_a   6.49852804
_cell_length_b   6.46817844
_cell_length_c   7.61168563
_cell_angle_alpha   106.96690516
_cell_angle_beta   89.78961730
_cell_angle_gamma   99.16943847
_symmetry_Int_Tables_number   1
_chemical_formula_structural   TbLu2BiO7
_chemical_formula_sum   'Tb2 Lu4 Bi2 O14'
_cell_volume   301.79920174
_cell_formula_units_Z   2
loop_
 _symmetry_equiv_pos_site_id
 _symmetry_equiv_pos_as_xyz
  1  'x, y, z'
loop_
 _atom_site_type_symbol
 _atom_site_label
 _atom_site_symmetry_multiplicity
 _atom_site_fract_x
 _atom_site_fract_y
 _atom_site_fract_z
 _atom_site_occupancy
  Tb  Tb0  1  0.734883  0.476953  0.614784  1
  Tb  Tb1  1  0.265117  0.523047  0.385216  1
  Lu  Lu2  1  0.464279  0.006248  0.250647  1
  Lu  Lu3  1  0.535721  0.993752  0.749353  1
  Lu  Lu4  1  0.276651  0.538555  0.884227  1
  Lu  Lu5  1  0.723349  0.461445  0.115773  1
  Bi  Bi6  1  0.000000  0.000000  0.500000  1
  Bi  Bi7  1  0.000000  0.000000  0.000000  1
  O  O8  1  0.451262  0.653658  0.163388  1
  O  O9  1  0.548738  0.346342  0.836612  1
  O  O10  1  0.304300  0.919380  0.950435  1
  O  O11  1  0.695700  0.080620  0.049565  1
  O  O12  1  0.302628  0.926395  0.514085  1
  O  O13  1  0.697372  0.073605  0.485915  1
  O  O14  1  0.545058  0.359561  0.339433  1
  O  O15  1  0.454942  0.640439  0.660567  1
  O  O16  1  0.924497  0.662228  0.962149  1
  O  O17  1  0.075503  0.337772  0.037851  1
  O  O18  1  0.073739  0.353687  0.625510  1
  O  O19  1  0.926261  0.646313  0.374490  1
  O  O20  1  0.866870  0.898653  0.724041  1
  O  O21  1  0.133130  0.101347  0.275959  1
