# generated using pymatgen
data_Yb2SmDy(Pt2O7)2
_symmetry_space_group_name_H-M   'P 1'
_cell_length_a   7.27865207
_cell_length_b   7.28545503
_cell_length_c   7.27865170
_cell_angle_alpha   60.06672672
_cell_angle_beta   60.04796553
_cell_angle_gamma   60.06673551
_symmetry_Int_Tables_number   1
_chemical_formula_structural   Yb2SmDy(Pt2O7)2
_chemical_formula_sum   'Yb2 Sm1 Dy1 Pt4 O14'
_cell_volume   273.29922149
_cell_formula_units_Z   1
loop_
 _symmetry_equiv_pos_site_id
 _symmetry_equiv_pos_as_xyz
  1  'x, y, z'
loop_
 _atom_site_type_symbol
 _atom_site_label
 _atom_site_symmetry_multiplicity
 _atom_site_fract_x
 _atom_site_fract_y
 _atom_site_fract_z
 _atom_site_occupancy
  Yb  Yb0  1  0.125000  0.125000  0.625000  1
  Yb  Yb1  1  0.625000  0.125000  0.125000  1
  Sm  Sm2  1  0.125000  0.625000  0.125000  1
  Dy  Dy3  1  0.125000  0.125000  0.125000  1
  Pt  Pt4  1  0.625000  0.625000  0.625000  1
  Pt  Pt5  1  0.125000  0.625000  0.625000  1
  Pt  Pt6  1  0.625000  0.125000  0.625000  1
  Pt  Pt7  1  0.625000  0.625000  0.125000  1
  O  O8  1  0.290355  0.708702  0.709656  1
  O  O9  1  0.535245  0.959690  0.960026  1
  O  O10  1  0.707862  0.291562  0.707862  1
  O  O11  1  0.289974  0.290310  0.714755  1
  O  O12  1  0.709656  0.708702  0.290355  1
  O  O13  1  0.002445  0.001887  0.002445  1
  O  O14  1  0.288703  0.715280  0.288703  1
  O  O15  1  0.961297  0.534720  0.961297  1
  O  O16  1  0.960026  0.959690  0.535245  1
  O  O17  1  0.540344  0.541298  0.959645  1
  O  O18  1  0.247555  0.248113  0.247555  1
  O  O19  1  0.542138  0.958438  0.542138  1
  O  O20  1  0.714755  0.290310  0.289974  1
  O  O21  1  0.959645  0.541298  0.540344  1
