# generated using pymatgen
data_BaGa2GeAu
_symmetry_space_group_name_H-M   'P 1'
_cell_length_a   6.37716255
_cell_length_b   6.37716216
_cell_length_c   6.37716231
_cell_angle_alpha   137.40217195
_cell_angle_beta   137.40217372
_cell_angle_gamma   61.81984181
_symmetry_Int_Tables_number   1
_chemical_formula_structural   BaGa2GeAu
_chemical_formula_sum   'Ba1 Ga2 Ge1 Au1'
_cell_volume   117.43281713
_cell_formula_units_Z   1
loop_
 _symmetry_equiv_pos_site_id
 _symmetry_equiv_pos_as_xyz
  1  'x, y, z'
loop_
 _atom_site_type_symbol
 _atom_site_label
 _atom_site_symmetry_multiplicity
 _atom_site_fract_x
 _atom_site_fract_y
 _atom_site_fract_z
 _atom_site_occupancy
  Ba  Ba0  1  0.998480  0.998480  0.000000  1
  Ga  Ga1  1  0.746500  0.246500  0.500000  1
  Ga  Ga2  1  0.246500  0.746500  0.500000  1
  Ge  Ge3  1  0.381952  0.381952  0.000000  1
  Au  Au4  1  0.626568  0.626568  0.000000  1
