# generated using pymatgen
data_Zr6In4BI18
_symmetry_space_group_name_H-M   'P 1'
_cell_length_a   10.98871999
_cell_length_b   11.25178228
_cell_length_c   11.35920803
_cell_angle_alpha   118.75885387
_cell_angle_beta   99.60980902
_cell_angle_gamma   104.22493002
_symmetry_Int_Tables_number   1
_chemical_formula_structural   Zr6In4BI18
_chemical_formula_sum   'Zr6 In4 B1 I18'
_cell_volume   1124.28461875
_cell_formula_units_Z   1
loop_
 _symmetry_equiv_pos_site_id
 _symmetry_equiv_pos_as_xyz
  1  'x, y, z'
loop_
 _atom_site_type_symbol
 _atom_site_label
 _atom_site_symmetry_multiplicity
 _atom_site_fract_x
 _atom_site_fract_y
 _atom_site_fract_z
 _atom_site_occupancy
  Zr  Zr0  1  0.358257  0.448867  0.780678  1
  Zr  Zr1  1  0.368213  0.623118  0.130195  1
  Zr  Zr2  1  0.638070  0.728659  0.040988  1
  Zr  Zr3  1  0.641743  0.551133  0.219322  1
  Zr  Zr4  1  0.361930  0.271341  0.959012  1
  Zr  Zr5  1  0.631787  0.376882  0.869805  1
  In  In6  1  0.175646  0.722302  0.561006  1
  In  In7  1  0.858251  0.962443  0.777423  1
  In  In8  1  0.141749  0.037557  0.222577  1
  In  In9  1  0.824354  0.277698  0.438994  1
  B  B10  1  0.500000  0.500000  0.000000  1
  I  I11  1  0.824453  0.421247  0.108892  1
  I  I12  1  0.515551  0.707594  0.414739  1
  I  I13  1  0.168165  0.971142  0.898214  1
  I  I14  1  0.175547  0.578753  0.891108  1
  I  I15  1  0.831615  0.835027  0.311652  1
  I  I16  1  0.503029  0.291237  0.212229  1
  I  I17  1  0.801201  0.220785  0.705221  1
  I  I18  1  0.168385  0.164973  0.688348  1
  I  I19  1  0.509383  0.916874  0.200946  1
  I  I20  1  0.822937  0.629404  0.901976  1
  I  I21  1  0.198799  0.779215  0.294779  1
  I  I22  1  0.156923  0.375646  0.491442  1
  I  I23  1  0.496971  0.708763  0.787771  1
  I  I24  1  0.831835  0.028858  0.101786  1
  I  I25  1  0.484449  0.292406  0.585261  1
  I  I26  1  0.177063  0.370596  0.098024  1
  I  I27  1  0.843077  0.624354  0.508558  1
  I  I28  1  0.490617  0.083126  0.799054  1
