# generated using pymatgen
data_Cd2CuAg2AuO8
_symmetry_space_group_name_H-M   'P 1'
_cell_length_a   6.49400615
_cell_length_b   6.69908654
_cell_length_c   6.51775805
_cell_angle_alpha   126.24159840
_cell_angle_beta   126.00845648
_cell_angle_gamma   80.64894633
_symmetry_Int_Tables_number   1
_chemical_formula_structural   Cd2CuAg2AuO8
_chemical_formula_sum   'Cd2 Cu1 Ag2 Au1 O8'
_cell_volume   177.39470472
_cell_formula_units_Z   1
loop_
 _symmetry_equiv_pos_site_id
 _symmetry_equiv_pos_as_xyz
  1  'x, y, z'
loop_
 _atom_site_type_symbol
 _atom_site_label
 _atom_site_symmetry_multiplicity
 _atom_site_fract_x
 _atom_site_fract_y
 _atom_site_fract_z
 _atom_site_occupancy
  Cd  Cd0  1  0.754143  0.259331  0.509011  1
  Cd  Cd1  1  0.995857  0.990669  0.990989  1
  Cu  Cu2  1  0.375000  0.625000  0.250000  1
  Ag  Ag3  1  0.375000  0.625000  0.750000  1
  Ag  Ag4  1  0.875000  0.625000  0.250000  1
  Au  Au5  1  0.375000  0.125000  0.750000  1
  O  O6  1  0.166493  0.612368  0.887632  1
  O  O7  1  0.759756  0.290534  0.147392  1
  O  O8  1  0.349649  0.996565  0.950380  1
  O  O9  1  0.684760  0.832778  0.437920  1
  O  O10  1  0.065240  0.417222  0.062080  1
  O  O11  1  0.400351  0.253435  0.549620  1
  O  O12  1  0.990244  0.959466  0.352608  1
  O  O13  1  0.583507  0.637632  0.612368  1
