# generated using pymatgen
data_Tm6ReB14Os
_symmetry_space_group_name_H-M   'P 1'
_cell_length_a   7.96438365
_cell_length_b   7.96438402
_cell_length_c   9.25113900
_cell_angle_alpha   90.00000000
_cell_angle_beta   90.00000000
_cell_angle_gamma   154.61937489
_symmetry_Int_Tables_number   1
_chemical_formula_structural   Tm6ReB14Os
_chemical_formula_sum   'Tm6 Re1 B14 Os1'
_cell_volume   251.52535536
_cell_formula_units_Z   1
loop_
 _symmetry_equiv_pos_site_id
 _symmetry_equiv_pos_as_xyz
  1  'x, y, z'
loop_
 _atom_site_type_symbol
 _atom_site_label
 _atom_site_symmetry_multiplicity
 _atom_site_fract_x
 _atom_site_fract_y
 _atom_site_fract_z
 _atom_site_occupancy
  Tm  Tm0  1  0.894113  0.105887  0.059344  1
  Tm  Tm1  1  0.105936  0.894064  0.560569  1
  Tm  Tm2  1  0.105936  0.894064  0.939431  1
  Tm  Tm3  1  0.894113  0.105887  0.440656  1
  Tm  Tm4  1  0.243906  0.756094  0.250000  1
  Tm  Tm5  1  0.756530  0.243470  0.750000  1
  Re  Re6  1  0.947755  0.052245  0.750000  1
  B  B7  1  0.454309  0.545691  0.250000  1
  B  B8  1  0.546232  0.453768  0.750000  1
  B  B9  1  0.727197  0.272803  0.034692  1
  B  B10  1  0.272198  0.727802  0.533645  1
  B  B11  1  0.272198  0.727802  0.966355  1
  B  B12  1  0.727197  0.272803  0.465308  1
  B  B13  1  0.632045  0.367955  0.349368  1
  B  B14  1  0.367419  0.632581  0.849527  1
  B  B15  1  0.367419  0.632581  0.650473  1
  B  B16  1  0.632045  0.367955  0.150632  1
  B  B17  1  0.519832  0.480168  0.404525  1
  B  B18  1  0.480197  0.519803  0.905551  1
  B  B19  1  0.480197  0.519803  0.594449  1
  B  B20  1  0.519832  0.480168  0.095475  1
  Os  Os21  1  0.053395  0.946605  0.250000  1
