# generated using pymatgen
data_Tb3Zn3IrPd2
_symmetry_space_group_name_H-M   'P 1'
_cell_length_a   7.28969300
_cell_length_b   7.28969334
_cell_length_c   3.89534200
_cell_angle_alpha   90.00000000
_cell_angle_beta   90.00000000
_cell_angle_gamma   119.99999394
_symmetry_Int_Tables_number   1
_chemical_formula_structural   Tb3Zn3IrPd2
_chemical_formula_sum   'Tb3 Zn3 Ir1 Pd2'
_cell_volume   179.26468782
_cell_formula_units_Z   1
loop_
 _symmetry_equiv_pos_site_id
 _symmetry_equiv_pos_as_xyz
  1  'x, y, z'
loop_
 _atom_site_type_symbol
 _atom_site_label
 _atom_site_symmetry_multiplicity
 _atom_site_fract_x
 _atom_site_fract_y
 _atom_site_fract_z
 _atom_site_occupancy
  Tb  Tb0  1  0.010475  0.412882  0.000000  1
  Tb  Tb1  1  0.587118  0.597594  0.000000  1
  Tb  Tb2  1  0.402406  0.989525  0.000000  1
  Zn  Zn3  1  0.001947  0.747852  0.500000  1
  Zn  Zn4  1  0.252148  0.254095  0.500000  1
  Zn  Zn5  1  0.745905  0.998053  0.500000  1
  Ir  Ir6  1  0.333333  0.666667  0.500000  1
  Pd  Pd7  1  0.000000  0.000000  0.000000  1
  Pd  Pd8  1  0.666667  0.333333  0.500000  1
