# generated using pymatgen
data_Tm16Lu4GaBi11
_symmetry_space_group_name_H-M   'P 1'
_cell_length_a   8.10430511
_cell_length_b   9.39499300
_cell_length_c   11.85322519
_cell_angle_alpha   90.00000000
_cell_angle_beta   89.69702134
_cell_angle_gamma   90.00000000
_symmetry_Int_Tables_number   1
_chemical_formula_structural   Tm16Lu4GaBi11
_chemical_formula_sum   'Tm16 Lu4 Ga1 Bi11'
_cell_volume   902.49064138
_cell_formula_units_Z   1
loop_
 _symmetry_equiv_pos_site_id
 _symmetry_equiv_pos_as_xyz
  1  'x, y, z'
loop_
 _atom_site_type_symbol
 _atom_site_label
 _atom_site_symmetry_multiplicity
 _atom_site_fract_x
 _atom_site_fract_y
 _atom_site_fract_z
 _atom_site_occupancy
  Tm  Tm0  1  0.356105  0.250000  0.293928  1
  Tm  Tm1  1  0.646588  0.750000  0.716692  1
  Tm  Tm2  1  0.147689  0.750000  0.782519  1
  Tm  Tm3  1  0.854024  0.250000  0.216238  1
  Tm  Tm4  1  0.192751  0.250000  0.777203  1
  Tm  Tm5  1  0.810401  0.750000  0.218009  1
  Tm  Tm6  1  0.312617  0.750000  0.281226  1
  Tm  Tm7  1  0.674554  0.250000  0.710599  1
  Tm  Tm8  1  0.193942  0.065948  0.060590  1
  Tm  Tm9  1  0.806276  0.934619  0.940556  1
  Tm  Tm10  1  0.308418  0.949453  0.559258  1
  Tm  Tm11  1  0.806276  0.565381  0.940556  1
  Tm  Tm12  1  0.684615  0.072452  0.444839  1
  Tm  Tm13  1  0.193942  0.434052  0.060590  1
  Tm  Tm14  1  0.684615  0.427548  0.444839  1
  Tm  Tm15  1  0.308418  0.550547  0.559258  1
  Lu  Lu16  1  0.038000  0.250000  0.509942  1
  Lu  Lu17  1  0.978784  0.750000  0.489906  1
  Lu  Lu18  1  0.475353  0.750000  0.010844  1
  Lu  Lu19  1  0.525608  0.250000  0.988888  1
  Ga  Ga20  1  0.408316  0.250000  0.539741  1
  Bi  Bi21  1  0.593886  0.750000  0.457486  1
  Bi  Bi22  1  0.094210  0.750000  0.042600  1
  Bi  Bi23  1  0.907406  0.250000  0.954806  1
  Bi  Bi24  1  0.063863  0.002695  0.324838  1
  Bi  Bi25  1  0.934672  0.997682  0.674737  1
  Bi  Bi26  1  0.435066  0.996282  0.825570  1
  Bi  Bi27  1  0.934672  0.502318  0.674737  1
  Bi  Bi28  1  0.565003  0.004315  0.174295  1
  Bi  Bi29  1  0.063863  0.497305  0.324838  1
  Bi  Bi30  1  0.565003  0.495685  0.174295  1
  Bi  Bi31  1  0.435066  0.503718  0.825570  1
