# generated using pymatgen
data_Pr2Cu9Rh
_symmetry_space_group_name_H-M   'P 1'
_cell_length_a   5.25883103
_cell_length_b   5.25883028
_cell_length_c   8.15509500
_cell_angle_alpha   90.00000000
_cell_angle_beta   90.00000000
_cell_angle_gamma   122.65736948
_symmetry_Int_Tables_number   1
_chemical_formula_structural   Pr2Cu9Rh
_chemical_formula_sum   'Pr2 Cu9 Rh1'
_cell_volume   189.87787359
_cell_formula_units_Z   1
loop_
 _symmetry_equiv_pos_site_id
 _symmetry_equiv_pos_as_xyz
  1  'x, y, z'
loop_
 _atom_site_type_symbol
 _atom_site_label
 _atom_site_symmetry_multiplicity
 _atom_site_fract_x
 _atom_site_fract_y
 _atom_site_fract_z
 _atom_site_occupancy
  Pr  Pr0  1  0.000000  0.000000  0.737705  1
  Pr  Pr1  1  0.000000  0.000000  0.262295  1
  Cu  Cu2  1  0.672383  0.327617  0.752958  1
  Cu  Cu3  1  0.672383  0.327617  0.247042  1
  Cu  Cu4  1  0.500000  0.500000  0.000000  1
  Cu  Cu5  1  0.327617  0.672383  0.752958  1
  Cu  Cu6  1  0.500000  0.000000  0.500000  1
  Cu  Cu7  1  0.000000  0.500000  0.000000  1
  Cu  Cu8  1  0.500000  0.000000  0.000000  1
  Cu  Cu9  1  0.327617  0.672383  0.247042  1
  Cu  Cu10  1  0.000000  0.500000  0.500000  1
  Rh  Rh11  1  0.500000  0.500000  0.500000  1
