# generated using pymatgen
data_Er8Zn3Si12Pt
_symmetry_space_group_name_H-M   'P 1'
_cell_length_a   8.09976500
_cell_length_b   8.09976540
_cell_length_c   7.98043800
_cell_angle_alpha   90.00000000
_cell_angle_beta   90.00000000
_cell_angle_gamma   119.99999430
_symmetry_Int_Tables_number   1
_chemical_formula_structural   Er8Zn3Si12Pt
_chemical_formula_sum   'Er8 Zn3 Si12 Pt1'
_cell_volume   453.42163992
_cell_formula_units_Z   1
loop_
 _symmetry_equiv_pos_site_id
 _symmetry_equiv_pos_as_xyz
  1  'x, y, z'
loop_
 _atom_site_type_symbol
 _atom_site_label
 _atom_site_symmetry_multiplicity
 _atom_site_fract_x
 _atom_site_fract_y
 _atom_site_fract_z
 _atom_site_occupancy
  Er  Er0  1  0.000000  0.000000  0.249162  1
  Er  Er1  1  0.000000  0.000000  0.751078  1
  Er  Er2  1  0.497712  0.502288  0.248994  1
  Er  Er3  1  0.497712  0.995424  0.248994  1
  Er  Er4  1  0.004576  0.502288  0.248994  1
  Er  Er5  1  0.501880  0.498120  0.750889  1
  Er  Er6  1  0.996240  0.498120  0.750889  1
  Er  Er7  1  0.501880  0.003760  0.750889  1
  Zn  Zn8  1  0.666667  0.333333  0.494138  1
  Zn  Zn9  1  0.666667  0.333333  0.006052  1
  Zn  Zn10  1  0.333333  0.666667  0.993775  1
  Si  Si11  1  0.834533  0.165467  0.498832  1
  Si  Si12  1  0.834533  0.669067  0.498832  1
  Si  Si13  1  0.330933  0.165467  0.498832  1
  Si  Si14  1  0.832793  0.167207  0.001208  1
  Si  Si15  1  0.832793  0.665589  0.001208  1
  Si  Si16  1  0.334411  0.167207  0.001208  1
  Si  Si17  1  0.166631  0.833369  0.999014  1
  Si  Si18  1  0.666740  0.833369  0.999014  1
  Si  Si19  1  0.166631  0.333260  0.999014  1
  Si  Si20  1  0.166753  0.833247  0.501398  1
  Si  Si21  1  0.666495  0.833247  0.501398  1
  Si  Si22  1  0.166753  0.333505  0.501398  1
  Pt  Pt23  1  0.333333  0.666667  0.504788  1
