# generated using pymatgen
data_HoTm7(GeI6)2
_symmetry_space_group_name_H-M   'P 1'
_cell_length_a   4.18053000
_cell_length_b   13.86449918
_cell_length_c   14.60122900
_cell_angle_alpha   89.81640688
_cell_angle_beta   90.00000000
_cell_angle_gamma   90.00000000
_symmetry_Int_Tables_number   1
_chemical_formula_structural   HoTm7(GeI6)2
_chemical_formula_sum   'Ho1 Tm7 Ge2 I12'
_cell_volume   846.29682858
_cell_formula_units_Z   1
loop_
 _symmetry_equiv_pos_site_id
 _symmetry_equiv_pos_as_xyz
  1  'x, y, z'
loop_
 _atom_site_type_symbol
 _atom_site_label
 _atom_site_symmetry_multiplicity
 _atom_site_fract_x
 _atom_site_fract_y
 _atom_site_fract_z
 _atom_site_occupancy
  Ho  Ho0  1  0.000000  0.110203  0.575827  1
  Tm  Tm1  1  0.500000  0.115021  0.347202  1
  Tm  Tm2  1  0.500000  0.884006  0.652293  1
  Tm  Tm3  1  0.500000  0.615384  0.152251  1
  Tm  Tm4  1  0.500000  0.385263  0.848249  1
  Tm  Tm5  1  0.000000  0.890224  0.424588  1
  Tm  Tm6  1  0.000000  0.609271  0.925308  1
  Tm  Tm7  1  0.000000  0.390937  0.075233  1
  Ge  Ge8  1  0.500000  0.999176  0.499504  1
  Ge  Ge9  1  0.500000  0.500219  0.000334  1
  I  I10  1  0.500000  0.250285  0.164893  1
  I  I11  1  0.500000  0.748803  0.834456  1
  I  I12  1  0.500000  0.749875  0.334197  1
  I  I13  1  0.500000  0.252592  0.666360  1
  I  I14  1  0.000000  0.258640  0.414185  1
  I  I15  1  0.000000  0.741037  0.583514  1
  I  I16  1  0.000000  0.758452  0.083154  1
  I  I17  1  0.000000  0.241918  0.917052  1
  I  I18  1  0.000000  0.002018  0.239280  1
  I  I19  1  0.000000  0.995597  0.761491  1
  I  I20  1  0.000000  0.501914  0.259996  1
  I  I21  1  0.000000  0.499164  0.740633  1
