# generated using pymatgen
data_Tm5Zn(InRh2)6
_symmetry_space_group_name_H-M   'P 1'
_cell_length_a   4.68023727
_cell_length_b   6.50207500
_cell_length_c   13.88488426
_cell_angle_alpha   90.00000000
_cell_angle_beta   89.99154843
_cell_angle_gamma   90.00000000
_symmetry_Int_Tables_number   1
_chemical_formula_structural   Tm5Zn(InRh2)6
_chemical_formula_sum   'Tm5 Zn1 In6 Rh12'
_cell_volume   422.53443138
_cell_formula_units_Z   1
loop_
 _symmetry_equiv_pos_site_id
 _symmetry_equiv_pos_as_xyz
  1  'x, y, z'
loop_
 _atom_site_type_symbol
 _atom_site_label
 _atom_site_symmetry_multiplicity
 _atom_site_fract_x
 _atom_site_fract_y
 _atom_site_fract_z
 _atom_site_occupancy
  Tm  Tm0  1  0.999974  0.000000  0.995892  1
  Tm  Tm1  1  0.499995  0.499999  0.164595  1
  Tm  Tm2  1  0.999976  0.000000  0.333331  1
  Tm  Tm3  1  0.500004  0.499999  0.502076  1
  Tm  Tm4  1  0.000000  0.000000  0.670778  1
  Zn  Zn5  1  0.499994  0.499999  0.833341  1
  In  In6  1  0.999977  0.499999  0.999196  1
  In  In7  1  0.499989  0.000000  0.160940  1
  In  In8  1  0.999964  0.499999  0.333319  1
  In  In9  1  0.499990  0.000000  0.505736  1
  In  In10  1  0.000055  0.499999  0.667470  1
  In  In11  1  0.499751  0.000000  0.833353  1
  Rh  Rh12  1  0.500025  0.260052  0.991610  1
  Rh  Rh13  1  0.500025  0.739948  0.991610  1
  Rh  Rh14  1  0.000034  0.249542  0.165725  1
  Rh  Rh15  1  0.000034  0.750456  0.165725  1
  Rh  Rh16  1  0.500015  0.250409  0.333328  1
  Rh  Rh17  1  0.500015  0.749591  0.333328  1
  Rh  Rh18  1  0.000004  0.249541  0.500927  1
  Rh  Rh19  1  0.000004  0.750457  0.500927  1
  Rh  Rh20  1  0.500033  0.260064  0.675067  1
  Rh  Rh21  1  0.500033  0.739936  0.675067  1
  Rh  Rh22  1  0.000054  0.263183  0.833329  1
  Rh  Rh23  1  0.000054  0.736815  0.833329  1
