# generated using pymatgen
data_Er3Tm5Cd2RuPt
_symmetry_space_group_name_H-M   'P 1'
_cell_length_a   9.53523370
_cell_length_b   9.53523393
_cell_length_c   9.58782400
_cell_angle_alpha   59.81738565
_cell_angle_beta   59.81738483
_cell_angle_gamma   59.63227352
_symmetry_Int_Tables_number   1
_chemical_formula_structural   Er3Tm5Cd2RuPt
_chemical_formula_sum   'Er6 Tm10 Cd4 Ru2 Pt2'
_cell_volume   612.98329034
_cell_formula_units_Z   2
loop_
 _symmetry_equiv_pos_site_id
 _symmetry_equiv_pos_as_xyz
  1  'x, y, z'
loop_
 _atom_site_type_symbol
 _atom_site_label
 _atom_site_symmetry_multiplicity
 _atom_site_fract_x
 _atom_site_fract_y
 _atom_site_fract_z
 _atom_site_occupancy
  Er  Er0  1  0.937096  0.559710  0.566425  1
  Er  Er1  1  0.559710  0.937096  0.936769  1
  Er  Er2  1  0.559710  0.937096  0.566425  1
  Er  Er3  1  0.937096  0.559710  0.936769  1
  Er  Er4  1  0.564031  0.564031  0.935969  1
  Er  Er5  1  0.938609  0.938609  0.561391  1
  Tm  Tm6  1  0.349281  0.349281  0.352224  1
  Tm  Tm7  1  0.349281  0.349281  0.949215  1
  Tm  Tm8  1  0.346945  0.953561  0.349747  1
  Tm  Tm9  1  0.953561  0.346945  0.349747  1
  Tm  Tm10  1  0.815480  0.187804  0.189040  1
  Tm  Tm11  1  0.187804  0.815480  0.807676  1
  Tm  Tm12  1  0.187804  0.815480  0.189040  1
  Tm  Tm13  1  0.815480  0.187804  0.807676  1
  Tm  Tm14  1  0.187317  0.187317  0.812683  1
  Tm  Tm15  1  0.809513  0.809513  0.190487  1
  Cd  Cd16  1  0.579786  0.579786  0.581811  1
  Cd  Cd17  1  0.579786  0.579786  0.258618  1
  Cd  Cd18  1  0.581092  0.254860  0.582024  1
  Cd  Cd19  1  0.254860  0.581092  0.582024  1
  Ru  Ru20  1  0.143940  0.143940  0.139219  1
  Ru  Ru21  1  0.143940  0.143940  0.572900  1
  Pt  Pt22  1  0.144142  0.573736  0.141060  1
  Pt  Pt23  1  0.573736  0.144142  0.141060  1
