# generated using pymatgen
data_Ac2Yb(PrPb2)2
_symmetry_space_group_name_H-M   'P 1'
_cell_length_a   8.60306800
_cell_length_b   8.65928800
_cell_length_c   16.58084100
_cell_angle_alpha   90.00000000
_cell_angle_beta   90.00000000
_cell_angle_gamma   90.00000000
_symmetry_Int_Tables_number   1
_chemical_formula_structural   Ac2Yb(PrPb2)2
_chemical_formula_sum   'Ac8 Yb4 Pr8 Pb16'
_cell_volume   1235.21368467
_cell_formula_units_Z   4
loop_
 _symmetry_equiv_pos_site_id
 _symmetry_equiv_pos_as_xyz
  1  'x, y, z'
loop_
 _atom_site_type_symbol
 _atom_site_label
 _atom_site_symmetry_multiplicity
 _atom_site_fract_x
 _atom_site_fract_y
 _atom_site_fract_z
 _atom_site_occupancy
  Ac  Ac0  1  0.511892  0.317459  0.904703  1
  Ac  Ac1  1  0.011892  0.182541  0.595297  1
  Ac  Ac2  1  0.488108  0.682541  0.404703  1
  Ac  Ac3  1  0.988108  0.817459  0.095297  1
  Ac  Ac4  1  0.488108  0.682541  0.095297  1
  Ac  Ac5  1  0.988108  0.817459  0.404703  1
  Ac  Ac6  1  0.511892  0.317459  0.595297  1
  Ac  Ac7  1  0.011892  0.182541  0.904703  1
  Yb  Yb8  1  0.198914  0.504812  0.750000  1
  Yb  Yb9  1  0.698914  0.995188  0.750000  1
  Yb  Yb10  1  0.801086  0.495188  0.250000  1
  Yb  Yb11  1  0.301086  0.004812  0.250000  1
  Pr  Pr12  1  0.363613  0.839161  0.877981  1
  Pr  Pr13  1  0.863613  0.660839  0.622019  1
  Pr  Pr14  1  0.636387  0.160839  0.377981  1
  Pr  Pr15  1  0.136387  0.339161  0.122019  1
  Pr  Pr16  1  0.636387  0.160839  0.122019  1
  Pr  Pr17  1  0.136387  0.339161  0.377981  1
  Pr  Pr18  1  0.363613  0.839161  0.622019  1
  Pr  Pr19  1  0.863613  0.660839  0.877981  1
  Pb  Pb20  1  0.300870  0.043497  0.041813  1
  Pb  Pb21  1  0.800870  0.456503  0.458187  1
  Pb  Pb22  1  0.699130  0.956503  0.541813  1
  Pb  Pb23  1  0.199130  0.543497  0.958187  1
  Pb  Pb24  1  0.699130  0.956503  0.958187  1
  Pb  Pb25  1  0.199130  0.543497  0.541813  1
  Pb  Pb26  1  0.300870  0.043497  0.458187  1
  Pb  Pb27  1  0.800870  0.456503  0.041813  1
  Pb  Pb28  1  0.560311  0.620145  0.750000  1
  Pb  Pb29  1  0.060311  0.879855  0.750000  1
  Pb  Pb30  1  0.439689  0.379855  0.250000  1
  Pb  Pb31  1  0.939689  0.120145  0.250000  1
  Pb  Pb32  1  0.322468  0.139806  0.750000  1
  Pb  Pb33  1  0.822468  0.360194  0.750000  1
  Pb  Pb34  1  0.677532  0.860194  0.250000  1
  Pb  Pb35  1  0.177532  0.639806  0.250000  1
