# generated using pymatgen
data_LaCeU4(Co3Sb4)2
_symmetry_space_group_name_H-M   'P 1'
_cell_length_a   8.11905471
_cell_length_b   8.11905499
_cell_length_c   8.11905577
_cell_angle_alpha   109.21410461
_cell_angle_beta   109.98668473
_cell_angle_gamma   109.21409725
_symmetry_Int_Tables_number   1
_chemical_formula_structural   LaCeU4(Co3Sb4)2
_chemical_formula_sum   'La1 Ce1 U4 Co6 Sb8'
_cell_volume   411.97250935
_cell_formula_units_Z   1
loop_
 _symmetry_equiv_pos_site_id
 _symmetry_equiv_pos_as_xyz
  1  'x, y, z'
loop_
 _atom_site_type_symbol
 _atom_site_label
 _atom_site_symmetry_multiplicity
 _atom_site_fract_x
 _atom_site_fract_y
 _atom_site_fract_z
 _atom_site_occupancy
  La  La0  1  0.625000  0.750000  0.375000  1
  Ce  Ce1  1  0.875000  0.250000  0.125000  1
  U  U2  1  0.249846  0.129616  0.878354  1
  U  U3  1  0.748738  0.370384  0.620230  1
  U  U4  1  0.121646  0.871492  0.251262  1
  U  U5  1  0.379770  0.628508  0.750154  1
  Co  Co6  1  0.375000  0.250000  0.625000  1
  Co  Co7  1  0.125000  0.750000  0.875000  1
  Co  Co8  1  0.241813  0.629029  0.380775  1
  Co  Co9  1  0.751746  0.870971  0.112784  1
  Co  Co10  1  0.619225  0.361039  0.248254  1
  Co  Co11  1  0.887216  0.138961  0.758187  1
  Sb  Sb12  1  0.662155  0.498413  0.997637  1
  Sb  Sb13  1  0.499225  0.001587  0.663742  1
  Sb  Sb14  1  0.999689  0.661244  0.502918  1
  Sb  Sb15  1  0.841674  0.838756  0.838446  1
  Sb  Sb16  1  0.497082  0.996772  0.158326  1
  Sb  Sb17  1  0.161554  0.503228  0.000311  1
  Sb  Sb18  1  0.002363  0.164517  0.500775  1
  Sb  Sb19  1  0.336258  0.335483  0.337845  1
