# generated using pymatgen
data_Dy6Y4(SnBi)3
_symmetry_space_group_name_H-M   'P 1'
_cell_length_a   9.07508292
_cell_length_b   9.09898356
_cell_length_c   6.48551000
_cell_angle_alpha   90.00000000
_cell_angle_beta   90.00000000
_cell_angle_gamma   119.95552673
_symmetry_Int_Tables_number   1
_chemical_formula_structural   Dy6Y4(SnBi)3
_chemical_formula_sum   'Dy6 Y4 Sn3 Bi3'
_cell_volume   463.99435684
_cell_formula_units_Z   1
loop_
 _symmetry_equiv_pos_site_id
 _symmetry_equiv_pos_as_xyz
  1  'x, y, z'
loop_
 _atom_site_type_symbol
 _atom_site_label
 _atom_site_symmetry_multiplicity
 _atom_site_fract_x
 _atom_site_fract_y
 _atom_site_fract_z
 _atom_site_occupancy
  Dy  Dy0  1  0.759481  0.753823  0.250000  1
  Dy  Dy1  1  0.005185  0.245801  0.250000  1
  Dy  Dy2  1  0.325583  0.659167  0.498413  1
  Dy  Dy3  1  0.671963  0.338096  0.498338  1
  Dy  Dy4  1  0.325583  0.659167  0.001587  1
  Dy  Dy5  1  0.671963  0.338096  0.001662  1
  Y  Y6  1  0.764787  0.005635  0.750000  1
  Y  Y7  1  0.236272  0.999756  0.250000  1
  Y  Y8  1  0.999919  0.755759  0.750000  1
  Y  Y9  1  0.237751  0.243311  0.750000  1
  Sn  Sn10  1  0.997923  0.392916  0.750000  1
  Sn  Sn11  1  0.393397  0.390632  0.250000  1
  Sn  Sn12  1  0.001021  0.608027  0.250000  1
  Bi  Bi13  1  0.608316  0.610873  0.750000  1
  Bi  Bi14  1  0.392218  0.000555  0.750000  1
  Bi  Bi15  1  0.608639  0.998386  0.250000  1
