# generated using pymatgen
data_Nd5Sm3(Sc3Sn4)4
_symmetry_space_group_name_H-M   'P 1'
_cell_length_a   7.83594057
_cell_length_b   8.00106238
_cell_length_c   15.04019137
_cell_angle_alpha   89.99363833
_cell_angle_beta   89.93603336
_cell_angle_gamma   90.06717605
_symmetry_Int_Tables_number   1
_chemical_formula_structural   Nd5Sm3(Sc3Sn4)4
_chemical_formula_sum   'Nd5 Sm3 Sc12 Sn16'
_cell_volume   942.95633031
_cell_formula_units_Z   1
loop_
 _symmetry_equiv_pos_site_id
 _symmetry_equiv_pos_as_xyz
  1  'x, y, z'
loop_
 _atom_site_type_symbol
 _atom_site_label
 _atom_site_symmetry_multiplicity
 _atom_site_fract_x
 _atom_site_fract_y
 _atom_site_fract_z
 _atom_site_occupancy
  Nd  Nd0  1  0.512581  0.325212  0.904763  1
  Nd  Nd1  1  0.012894  0.174688  0.595010  1
  Nd  Nd2  1  0.486743  0.674725  0.404996  1
  Nd  Nd3  1  0.987034  0.825863  0.094877  1
  Nd  Nd4  1  0.487464  0.675189  0.095332  1
  Sm  Sm5  1  0.986708  0.824667  0.404760  1
  Sm  Sm6  1  0.513620  0.324440  0.595855  1
  Sm  Sm7  1  0.013892  0.175135  0.903766  1
  Sc  Sc8  1  0.352967  0.837247  0.873919  1
  Sc  Sc9  1  0.853298  0.663150  0.626123  1
  Sc  Sc10  1  0.646686  0.163459  0.374474  1
  Sc  Sc11  1  0.147069  0.336351  0.126351  1
  Sc  Sc12  1  0.647224  0.162828  0.125822  1
  Sc  Sc13  1  0.146833  0.336914  0.374255  1
  Sc  Sc14  1  0.353006  0.836937  0.625956  1
  Sc  Sc15  1  0.852209  0.663349  0.873615  1
  Sc  Sc16  1  0.184862  0.505696  0.749735  1
  Sc  Sc17  1  0.685127  0.994535  0.749906  1
  Sc  Sc18  1  0.815013  0.493862  0.250280  1
  Sc  Sc19  1  0.314715  0.005565  0.250304  1
  Sn  Sn20  1  0.313828  0.045707  0.042492  1
  Sn  Sn21  1  0.814176  0.455749  0.457379  1
  Sn  Sn22  1  0.685672  0.955365  0.542893  1
  Sn  Sn23  1  0.183338  0.543725  0.956578  1
  Sn  Sn24  1  0.686744  0.956375  0.956208  1
  Sn  Sn25  1  0.186134  0.544295  0.543387  1
  Sn  Sn26  1  0.313955  0.044446  0.456832  1
  Sn  Sn27  1  0.816452  0.454400  0.042791  1
  Sn  Sn28  1  0.549066  0.630784  0.749698  1
  Sn  Sn29  1  0.049489  0.869411  0.750122  1
  Sn  Sn30  1  0.450581  0.368631  0.249967  1
  Sn  Sn31  1  0.950447  0.130507  0.250556  1
  Sn  Sn32  1  0.322444  0.142418  0.749748  1
  Sn  Sn33  1  0.822159  0.357575  0.750251  1
  Sn  Sn34  1  0.678626  0.858413  0.250467  1
  Sn  Sn35  1  0.176945  0.642390  0.250534  1
