# generated using pymatgen
data_Sm6Ho2Sc12Si15Pb
_symmetry_space_group_name_H-M   'P 1'
_cell_length_a   7.20082545
_cell_length_b   7.46915056
_cell_length_c   14.18150100
_cell_angle_alpha   89.91465879
_cell_angle_beta   89.68138362
_cell_angle_gamma   90.20429036
_symmetry_Int_Tables_number   1
_chemical_formula_structural   Sm6Ho2Sc12Si15Pb
_chemical_formula_sum   'Sm6 Ho2 Sc12 Si15 Pb1'
_cell_volume   762.72104061
_cell_formula_units_Z   1
loop_
 _symmetry_equiv_pos_site_id
 _symmetry_equiv_pos_as_xyz
  1  'x, y, z'
loop_
 _atom_site_type_symbol
 _atom_site_label
 _atom_site_symmetry_multiplicity
 _atom_site_fract_x
 _atom_site_fract_y
 _atom_site_fract_z
 _atom_site_occupancy
  Sm  Sm0  1  0.011116  0.174384  0.097806  1
  Sm  Sm1  1  0.988443  0.826511  0.903082  1
  Sm  Sm2  1  0.489494  0.673798  0.904283  1
  Sm  Sm3  1  0.988327  0.832163  0.598338  1
  Sm  Sm4  1  0.510574  0.326389  0.097056  1
  Sm  Sm5  1  0.005229  0.167935  0.398976  1
  Ho  Ho6  1  0.513220  0.319882  0.397303  1
  Ho  Ho7  1  0.504975  0.686232  0.601294  1
  Sc  Sc8  1  0.162728  0.501575  0.756354  1
  Sc  Sc9  1  0.836372  0.498899  0.249558  1
  Sc  Sc10  1  0.337318  0.000774  0.249804  1
  Sc  Sc11  1  0.664420  0.999530  0.751404  1
  Sc  Sc12  1  0.345652  0.160151  0.631582  1
  Sc  Sc13  1  0.662276  0.823903  0.372297  1
  Sc  Sc14  1  0.163456  0.682116  0.369409  1
  Sc  Sc15  1  0.667950  0.823618  0.124864  1
  Sc  Sc16  1  0.820345  0.325995  0.625400  1
  Sc  Sc17  1  0.330418  0.174759  0.874912  1
  Sc  Sc18  1  0.830839  0.324278  0.875473  1
  Sc  Sc19  1  0.168576  0.676065  0.125543  1
  Si  Si20  1  0.035084  0.125186  0.750361  1
  Si  Si21  1  0.962026  0.879769  0.247595  1
  Si  Si22  1  0.463717  0.618309  0.249214  1
  Si  Si23  1  0.533748  0.382405  0.751447  1
  Si  Si24  1  0.289783  0.871915  0.751455  1
  Si  Si25  1  0.709094  0.122810  0.248428  1
  Si  Si26  1  0.211677  0.376848  0.250462  1
  Si  Si27  1  0.790139  0.624394  0.750261  1
  Si  Si28  1  0.825146  0.539418  0.457452  1
  Si  Si29  1  0.343611  0.963476  0.460074  1
  Si  Si30  1  0.845633  0.536083  0.040010  1
  Si  Si31  1  0.657215  0.038601  0.536882  1
  Si  Si32  1  0.153999  0.463545  0.961620  1
  Si  Si33  1  0.654087  0.036659  0.961123  1
  Si  Si34  1  0.344415  0.964231  0.039764  1
  Pb  Pb35  1  0.178897  0.457396  0.539115  1
