# generated using pymatgen
data_LaTb3Nd2OsI10
_symmetry_space_group_name_H-M   'P 1'
_cell_length_a   7.93314190
_cell_length_b   9.94924065
_cell_length_c   9.90602859
_cell_angle_alpha   106.87282419
_cell_angle_beta   96.30976844
_cell_angle_gamma   105.62255757
_symmetry_Int_Tables_number   1
_chemical_formula_structural   LaTb3Nd2OsI10
_chemical_formula_sum   'La1 Tb3 Nd2 Os1 I10'
_cell_volume   705.40745588
_cell_formula_units_Z   1
loop_
 _symmetry_equiv_pos_site_id
 _symmetry_equiv_pos_as_xyz
  1  'x, y, z'
loop_
 _atom_site_type_symbol
 _atom_site_label
 _atom_site_symmetry_multiplicity
 _atom_site_fract_x
 _atom_site_fract_y
 _atom_site_fract_z
 _atom_site_occupancy
  La  La0  1  0.616584  0.044266  0.271943  1
  Tb  Tb1  1  0.472797  0.290400  0.589147  1
  Tb  Tb2  1  0.530843  0.711146  0.414601  1
  Tb  Tb3  1  0.851892  0.129306  0.669588  1
  Nd  Nd4  1  0.139341  0.866277  0.324709  1
  Nd  Nd5  1  0.387521  0.957894  0.729808  1
  Os  Os6  1  0.503647  0.001855  0.494524  1
  I  I7  1  0.417305  0.627796  0.676733  1
  I  I8  1  0.583117  0.379035  0.328849  1
  I  I9  1  0.283478  0.259483  0.842153  1
  I  I10  1  0.703715  0.730032  0.152107  1
  I  I11  1  0.851795  0.450305  0.770798  1
  I  I12  1  0.154216  0.542313  0.230958  1
  I  I13  1  0.052516  0.186642  0.418361  1
  I  I14  1  0.236661  0.913267  0.038635  1
  I  I15  1  0.762693  0.087877  0.953561  1
  I  I16  1  0.951881  0.822106  0.593527  1
