# generated using pymatgen
data_Ba5Tm2Al2TcO13
_symmetry_space_group_name_H-M   'P 1'
_cell_length_a   5.94192500
_cell_length_b   5.94192475
_cell_length_c   24.91470100
_cell_angle_alpha   90.00000000
_cell_angle_beta   90.00000000
_cell_angle_gamma   119.99999581
_symmetry_Int_Tables_number   1
_chemical_formula_structural   Ba5Tm2Al2TcO13
_chemical_formula_sum   'Ba10 Tm4 Al4 Tc2 O26'
_cell_volume   761.79942941
_cell_formula_units_Z   2
loop_
 _symmetry_equiv_pos_site_id
 _symmetry_equiv_pos_as_xyz
  1  'x, y, z'
loop_
 _atom_site_type_symbol
 _atom_site_label
 _atom_site_symmetry_multiplicity
 _atom_site_fract_x
 _atom_site_fract_y
 _atom_site_fract_z
 _atom_site_occupancy
  Ba  Ba0  1  0.333333  0.666667  0.540662  1
  Ba  Ba1  1  0.666667  0.333333  0.459338  1
  Ba  Ba2  1  0.666667  0.333333  0.040662  1
  Ba  Ba3  1  0.333333  0.666667  0.959338  1
  Ba  Ba4  1  0.000000  0.000000  0.136268  1
  Ba  Ba5  1  0.000000  0.000000  0.863732  1
  Ba  Ba6  1  0.000000  0.000000  0.636268  1
  Ba  Ba7  1  0.000000  0.000000  0.363732  1
  Ba  Ba8  1  0.333333  0.666667  0.250000  1
  Ba  Ba9  1  0.666667  0.333333  0.750000  1
  Tm  Tm10  1  0.333333  0.666667  0.101904  1
  Tm  Tm11  1  0.666667  0.333333  0.898096  1
  Tm  Tm12  1  0.666667  0.333333  0.601904  1
  Tm  Tm13  1  0.333333  0.666667  0.398096  1
  Al  Al14  1  0.333333  0.666667  0.680089  1
  Al  Al15  1  0.666667  0.333333  0.319911  1
  Al  Al16  1  0.666667  0.333333  0.180089  1
  Al  Al17  1  0.333333  0.666667  0.819911  1
  Tc  Tc18  1  0.000000  0.000000  0.000000  1
  Tc  Tc19  1  0.000000  0.000000  0.500000  1
  O  O20  1  0.503580  0.007160  0.156885  1
  O  O21  1  0.496420  0.992840  0.843115  1
  O  O22  1  0.992840  0.496420  0.156885  1
  O  O23  1  0.496420  0.992840  0.656885  1
  O  O24  1  0.007160  0.503580  0.843115  1
  O  O25  1  0.503580  0.007160  0.343115  1
  O  O26  1  0.503580  0.496420  0.156885  1
  O  O27  1  0.007160  0.503580  0.656885  1
  O  O28  1  0.496420  0.503580  0.843115  1
  O  O29  1  0.992840  0.496420  0.343115  1
  O  O30  1  0.496420  0.503580  0.656885  1
  O  O31  1  0.503580  0.496420  0.343115  1
  O  O32  1  0.160448  0.320897  0.048871  1
  O  O33  1  0.839552  0.679103  0.951129  1
  O  O34  1  0.679103  0.839552  0.048871  1
  O  O35  1  0.839552  0.679103  0.548871  1
  O  O36  1  0.320897  0.160448  0.951129  1
  O  O37  1  0.160448  0.320897  0.451129  1
  O  O38  1  0.160448  0.839552  0.048871  1
  O  O39  1  0.320897  0.160448  0.548871  1
  O  O40  1  0.839552  0.160448  0.951129  1
  O  O41  1  0.679103  0.839552  0.451129  1
  O  O42  1  0.839552  0.160448  0.548871  1
  O  O43  1  0.160448  0.839552  0.451129  1
  O  O44  1  0.333333  0.666667  0.750000  1
  O  O45  1  0.666667  0.333333  0.250000  1
