# generated using pymatgen
data_Sc5Si7Pd9
_symmetry_space_group_name_H-M   'P 1'
_cell_length_a   10.00795600
_cell_length_b   10.00795588
_cell_length_c   3.93188200
_cell_angle_alpha   90.00000000
_cell_angle_beta   90.00000000
_cell_angle_gamma   120.00000039
_symmetry_Int_Tables_number   1
_chemical_formula_structural   Sc5Si7Pd9
_chemical_formula_sum   'Sc5 Si7 Pd9'
_cell_volume   341.05300091
_cell_formula_units_Z   1
loop_
 _symmetry_equiv_pos_site_id
 _symmetry_equiv_pos_as_xyz
  1  'x, y, z'
loop_
 _atom_site_type_symbol
 _atom_site_label
 _atom_site_symmetry_multiplicity
 _atom_site_fract_x
 _atom_site_fract_y
 _atom_site_fract_z
 _atom_site_occupancy
  Sc  Sc0  1  0.000000  0.000000  0.000000  1
  Sc  Sc1  1  0.333333  0.666667  0.500000  1
  Sc  Sc2  1  0.893386  0.456914  0.500000  1
  Sc  Sc3  1  0.563529  0.106614  0.500000  1
  Sc  Sc4  1  0.543086  0.436471  0.500000  1
  Si  Si5  1  0.239930  0.190445  0.500000  1
  Si  Si6  1  0.809555  0.049486  0.500000  1
  Si  Si7  1  0.950514  0.760070  0.500000  1
  Si  Si8  1  0.547684  0.644274  0.000000  1
  Si  Si9  1  0.355726  0.903409  0.000000  1
  Si  Si10  1  0.096591  0.452316  0.000000  1
  Si  Si11  1  0.666667  0.333333  0.000000  1
  Pd  Pd12  1  0.221324  0.935693  0.500000  1
  Pd  Pd13  1  0.064307  0.285632  0.500000  1
  Pd  Pd14  1  0.714368  0.778676  0.500000  1
  Pd  Pd15  1  0.306571  0.403018  0.000000  1
  Pd  Pd16  1  0.596982  0.903553  0.000000  1
  Pd  Pd17  1  0.096447  0.693429  0.000000  1
  Pd  Pd18  1  0.379025  0.165677  0.000000  1
  Pd  Pd19  1  0.834323  0.213348  0.000000  1
  Pd  Pd20  1  0.786652  0.620975  0.000000  1
