# generated using pymatgen
data_TaIn2GaPt12
_symmetry_space_group_name_H-M   'P 1'
_cell_length_a   5.69551756
_cell_length_b   5.69551880
_cell_length_c   7.97761900
_cell_angle_alpha   90.00000000
_cell_angle_beta   90.00000000
_cell_angle_gamma   90.02184994
_symmetry_Int_Tables_number   1
_chemical_formula_structural   TaIn2GaPt12
_chemical_formula_sum   'Ta1 In2 Ga1 Pt12'
_cell_volume   258.78538425
_cell_formula_units_Z   1
loop_
 _symmetry_equiv_pos_site_id
 _symmetry_equiv_pos_as_xyz
  1  'x, y, z'
loop_
 _atom_site_type_symbol
 _atom_site_label
 _atom_site_symmetry_multiplicity
 _atom_site_fract_x
 _atom_site_fract_y
 _atom_site_fract_z
 _atom_site_occupancy
  Ta  Ta0  1  0.000000  0.500000  0.749964  1
  In  In1  1  0.500000  0.000000  0.250441  1
  In  In2  1  0.500000  0.000000  0.749207  1
  Ga  Ga3  1  0.000000  0.500000  0.250337  1
  Pt  Pt4  1  0.240279  0.259721  0.997819  1
  Pt  Pt5  1  0.759573  0.259573  0.502132  1
  Pt  Pt6  1  0.753590  0.253590  0.997696  1
  Pt  Pt7  1  0.759721  0.740279  0.997819  1
  Pt  Pt8  1  0.500000  0.500000  0.750216  1
  Pt  Pt9  1  0.245625  0.254375  0.502228  1
  Pt  Pt10  1  0.754375  0.745625  0.502228  1
  Pt  Pt11  1  0.240427  0.740427  0.502132  1
  Pt  Pt12  1  0.500000  0.500000  0.249936  1
  Pt  Pt13  1  0.000000  0.000000  0.750216  1
  Pt  Pt14  1  0.000000  0.000000  0.249936  1
  Pt  Pt15  1  0.246410  0.746410  0.997696  1
