# generated using pymatgen
data_Hf3Zr(TlBr9)2
_symmetry_space_group_name_H-M   'P 1'
_cell_length_a   7.03305805
_cell_length_b   10.25691942
_cell_length_c   13.35943000
_cell_angle_alpha   65.67427129
_cell_angle_beta   90.03132383
_cell_angle_gamma   90.03218052
_symmetry_Int_Tables_number   1
_chemical_formula_structural   Hf3Zr(TlBr9)2
_chemical_formula_sum   'Hf3 Zr1 Tl2 Br18'
_cell_volume   878.15556459
_cell_formula_units_Z   1
loop_
 _symmetry_equiv_pos_site_id
 _symmetry_equiv_pos_as_xyz
  1  'x, y, z'
loop_
 _atom_site_type_symbol
 _atom_site_label
 _atom_site_symmetry_multiplicity
 _atom_site_fract_x
 _atom_site_fract_y
 _atom_site_fract_z
 _atom_site_occupancy
  Hf  Hf0  1  0.709802  0.183735  0.137169  1
  Hf  Hf1  1  0.285746  0.179944  0.638803  1
  Hf  Hf2  1  0.711882  0.820655  0.359981  1
  Zr  Zr3  1  0.289214  0.815513  0.863910  1
  Tl  Tl4  1  0.557686  0.492233  0.740187  1
  Tl  Tl5  1  0.451998  0.486253  0.277070  1
  Br  Br6  1  0.146323  0.762212  0.050495  1
  Br  Br7  1  0.853852  0.238978  0.951643  1
  Br  Br8  1  0.143800  0.238238  0.451551  1
  Br  Br9  1  0.849954  0.760747  0.547840  1
  Br  Br10  1  0.135201  0.615305  0.826443  1
  Br  Br11  1  0.863609  0.383382  0.172353  1
  Br  Br12  1  0.136995  0.386692  0.668462  1
  Br  Br13  1  0.864567  0.616979  0.328416  1
  Br  Br14  1  0.997247  0.002851  0.747546  1
  Br  Br15  1  0.999686  0.000395  0.250113  1
  Br  Br16  1  0.429114  0.076823  0.848629  1
  Br  Br17  1  0.570397  0.929476  0.148893  1
  Br  Br18  1  0.431985  0.932087  0.647593  1
  Br  Br19  1  0.568939  0.071566  0.350424  1
  Br  Br20  1  0.612185  0.698817  0.923433  1
  Br  Br21  1  0.392924  0.303709  0.074532  1
  Br  Br22  1  0.604548  0.305661  0.571388  1
  Br  Br23  1  0.392345  0.697751  0.423125  1
