# generated using pymatgen
data_Nb2S17Cl12
_symmetry_space_group_name_H-M   'P 1'
_cell_length_a   11.08618604
_cell_length_b   12.74255601
_cell_length_c   12.75609900
_cell_angle_alpha   111.71002866
_cell_angle_beta   97.60038611
_cell_angle_gamma   99.79885484
_symmetry_Int_Tables_number   1
_chemical_formula_structural   Nb2S17Cl12
_chemical_formula_sum   'Nb4 S34 Cl24'
_cell_volume   1611.82068572
_cell_formula_units_Z   2
loop_
 _symmetry_equiv_pos_site_id
 _symmetry_equiv_pos_as_xyz
  1  'x, y, z'
loop_
 _atom_site_type_symbol
 _atom_site_label
 _atom_site_symmetry_multiplicity
 _atom_site_fract_x
 _atom_site_fract_y
 _atom_site_fract_z
 _atom_site_occupancy
  Nb  Nb0  1  0.689667  0.276353  0.479057  1
  Nb  Nb1  1  0.310333  0.723647  0.520943  1
  Nb  Nb2  1  0.843160  0.720959  0.990551  1
  Nb  Nb3  1  0.156840  0.279041  0.009449  1
  S  S4  1  0.472682  0.824826  0.979300  1
  S  S5  1  0.527318  0.175174  0.020700  1
  S  S6  1  0.331323  0.904942  0.977894  1
  S  S7  1  0.668677  0.095058  0.022106  1
  S  S8  1  0.341195  0.011021  0.151567  1
  S  S9  1  0.658805  0.988979  0.848433  1
  S  S10  1  0.282119  0.900363  0.224274  1
  S  S11  1  0.717881  0.099637  0.775726  1
  S  S12  1  0.444615  0.835059  0.242412  1
  S  S13  1  0.555385  0.164941  0.757588  1
  S  S14  1  0.388811  0.667526  0.148936  1
  S  S15  1  0.611189  0.332474  0.851064  1
  S  S16  1  0.391142  0.652044  0.961750  1
  S  S17  1  0.608858  0.347956  0.038250  1
  S  S18  1  0.197931  0.628266  0.921325  1
  S  S19  1  0.802069  0.371734  0.078675  1
  S  S20  1  0.163457  0.580506  0.745322  1
  S  S21  1  0.836543  0.419494  0.254678  1
  S  S22  1  0.126969  0.402231  0.673915  1
  S  S23  1  0.873031  0.597769  0.326085  1
  S  S24  1  0.300487  0.367622  0.650191  1
  S  S25  1  0.699513  0.632378  0.349809  1
  S  S26  1  0.246576  0.189041  0.660944  1
  S  S27  1  0.753424  0.810959  0.339056  1
  S  S28  1  0.240927  0.071937  0.506603  1
  S  S29  1  0.759073  0.928063  0.493397  1
  S  S30  1  0.057459  0.036443  0.408964  1
  S  S31  1  0.942541  0.963557  0.591036  1
  S  S32  1  0.089563  0.109755  0.295251  1
  S  S33  1  0.910437  0.890245  0.704749  1
  S  S34  1  0.127098  0.288541  0.388938  1
  S  S35  1  0.872902  0.711459  0.611062  1
  S  S36  1  0.308162  0.332418  0.474773  1
  S  S37  1  0.691838  0.667582  0.525227  1
  Cl  Cl38  1  0.855035  0.440025  0.514084  1
  Cl  Cl39  1  0.144965  0.559975  0.485916  1
  Cl  Cl40  1  0.600296  0.396519  0.628747  1
  Cl  Cl41  1  0.399704  0.603481  0.371253  1
  Cl  Cl42  1  0.533407  0.111346  0.450278  1
  Cl  Cl43  1  0.466593  0.888654  0.549722  1
  Cl  Cl44  1  0.774234  0.160773  0.328374  1
  Cl  Cl45  1  0.225766  0.839227  0.671626  1
  Cl  Cl46  1  0.563739  0.324746  0.347975  1
  Cl  Cl47  1  0.436261  0.675254  0.652025  1
  Cl  Cl48  1  0.818391  0.240172  0.619887  1
  Cl  Cl49  1  0.181609  0.759828  0.380113  1
  Cl  Cl50  1  0.794145  0.893992  0.114220  1
  Cl  Cl51  1  0.205855  0.106008  0.885780  1
  Cl  Cl52  1  0.985421  0.728259  0.147889  1
  Cl  Cl53  1  0.014579  0.271741  0.852111  1
  Cl  Cl54  1  0.887042  0.544170  0.874089  1
  Cl  Cl55  1  0.112958  0.455830  0.125911  1
  Cl  Cl56  1  0.687780  0.704634  0.835795  1
  Cl  Cl57  1  0.312220  0.295366  0.164205  1
  Cl  Cl58  1  0.675649  0.611172  0.045843  1
  Cl  Cl59  1  0.324351  0.388828  0.954157  1
  Cl  Cl60  1  0.996283  0.831974  0.937653  1
  Cl  Cl61  1  0.003717  0.168026  0.062347  1
