# generated using pymatgen
data_NdY2(GaRh)2
_symmetry_space_group_name_H-M   'P 1'
_cell_length_a   5.62380500
_cell_length_b   8.02110800
_cell_length_c   13.59297600
_cell_angle_alpha   90.00000000
_cell_angle_beta   90.00000000
_cell_angle_gamma   90.00000000
_symmetry_Int_Tables_number   1
_chemical_formula_structural   NdY2(GaRh)2
_chemical_formula_sum   'Nd4 Y8 Ga8 Rh8'
_cell_volume   613.16755630
_cell_formula_units_Z   4
loop_
 _symmetry_equiv_pos_site_id
 _symmetry_equiv_pos_as_xyz
  1  'x, y, z'
loop_
 _atom_site_type_symbol
 _atom_site_label
 _atom_site_symmetry_multiplicity
 _atom_site_fract_x
 _atom_site_fract_y
 _atom_site_fract_z
 _atom_site_occupancy
  Nd  Nd0  1  0.629507  0.260695  0.250000  1
  Nd  Nd1  1  0.370493  0.739305  0.750000  1
  Nd  Nd2  1  0.370493  0.760695  0.250000  1
  Nd  Nd3  1  0.629507  0.239305  0.750000  1
  Y  Y4  1  0.146506  0.397782  0.097310  1
  Y  Y5  1  0.853494  0.602218  0.902690  1
  Y  Y6  1  0.853494  0.602218  0.597310  1
  Y  Y7  1  0.853494  0.897782  0.402690  1
  Y  Y8  1  0.146506  0.397782  0.402690  1
  Y  Y9  1  0.146506  0.102218  0.597310  1
  Y  Y10  1  0.146506  0.102218  0.902690  1
  Y  Y11  1  0.853494  0.897782  0.097310  1
  Ga  Ga12  1  0.125120  0.108909  0.250000  1
  Ga  Ga13  1  0.874880  0.891091  0.750000  1
  Ga  Ga14  1  0.874880  0.608909  0.250000  1
  Ga  Ga15  1  0.125120  0.391091  0.750000  1
  Ga  Ga16  1  0.636212  0.250000  0.000000  1
  Ga  Ga17  1  0.363788  0.750000  0.000000  1
  Ga  Ga18  1  0.363788  0.750000  0.500000  1
  Ga  Ga19  1  0.636212  0.250000  0.500000  1
  Rh  Rh20  1  0.353738  0.036551  0.090617  1
  Rh  Rh21  1  0.646262  0.963449  0.909383  1
  Rh  Rh22  1  0.646262  0.963449  0.590617  1
  Rh  Rh23  1  0.646262  0.536551  0.409383  1
  Rh  Rh24  1  0.353738  0.036551  0.409383  1
  Rh  Rh25  1  0.353738  0.463449  0.590617  1
  Rh  Rh26  1  0.353738  0.463449  0.909383  1
  Rh  Rh27  1  0.646262  0.536551  0.090617  1
