# generated using pymatgen
data_Nd3SmCo8(PRu)12
_symmetry_space_group_name_H-M   'P 1'
_cell_length_a   3.80976100
_cell_length_b   10.68707204
_cell_length_c   12.19742605
_cell_angle_alpha   89.98970088
_cell_angle_beta   90.00000000
_cell_angle_gamma   90.00000000
_symmetry_Int_Tables_number   1
_chemical_formula_structural   Nd3SmCo8(PRu)12
_chemical_formula_sum   'Nd3 Sm1 Co8 P12 Ru12'
_cell_volume   496.62051443
_cell_formula_units_Z   1
loop_
 _symmetry_equiv_pos_site_id
 _symmetry_equiv_pos_as_xyz
  1  'x, y, z'
loop_
 _atom_site_type_symbol
 _atom_site_label
 _atom_site_symmetry_multiplicity
 _atom_site_fract_x
 _atom_site_fract_y
 _atom_site_fract_z
 _atom_site_occupancy
  Nd  Nd0  1  0.250000  0.915448  0.206635  1
  Nd  Nd1  1  0.750000  0.415797  0.293289  1
  Nd  Nd2  1  0.750000  0.084335  0.793130  1
  Sm  Sm3  1  0.250000  0.584411  0.706724  1
  Co  Co4  1  0.250000  0.886395  0.694433  1
  Co  Co5  1  0.250000  0.613059  0.193962  1
  Co  Co6  1  0.750000  0.113119  0.305753  1
  Co  Co7  1  0.750000  0.387766  0.805078  1
  Co  Co8  1  0.250000  0.463425  0.934795  1
  Co  Co9  1  0.250000  0.036660  0.435838  1
  Co  Co10  1  0.750000  0.536928  0.063759  1
  Co  Co11  1  0.750000  0.962734  0.564768  1
  P  P12  1  0.250000  0.425435  0.110017  1
  P  P13  1  0.250000  0.074769  0.610702  1
  P  P14  1  0.750000  0.574392  0.888304  1
  P  P15  1  0.750000  0.925134  0.389643  1
  P  P16  1  0.250000  0.274863  0.871547  1
  P  P17  1  0.250000  0.225558  0.371673  1
  P  P18  1  0.750000  0.724992  0.128449  1
  P  P19  1  0.750000  0.773613  0.628995  1
  P  P20  1  0.250000  0.604225  0.388936  1
  P  P21  1  0.250000  0.895745  0.888772  1
  P  P22  1  0.750000  0.396929  0.611906  1
  P  P23  1  0.750000  0.104217  0.111139  1
  Ru  Ru24  1  0.250000  0.705331  0.985857  1
  Ru  Ru25  1  0.250000  0.794421  0.486319  1
  Ru  Ru26  1  0.750000  0.294826  0.013797  1
  Ru  Ru27  1  0.750000  0.205658  0.514342  1
  Ru  Ru28  1  0.250000  0.405075  0.487733  1
  Ru  Ru29  1  0.250000  0.095493  0.987395  1
  Ru  Ru30  1  0.750000  0.595534  0.513872  1
  Ru  Ru31  1  0.750000  0.904458  0.012322  1
  Ru  Ru32  1  0.250000  0.222847  0.179478  1
  Ru  Ru33  1  0.250000  0.277694  0.679618  1
  Ru  Ru34  1  0.750000  0.776348  0.820226  1
  Ru  Ru35  1  0.750000  0.722365  0.320795  1
