# generated using pymatgen
data_Y8Ho8Cd4Ir3Os
_symmetry_space_group_name_H-M   'P 1'
_cell_length_a   9.67001577
_cell_length_b   9.66994685
_cell_length_c   9.69145975
_cell_angle_alpha   59.42554268
_cell_angle_beta   59.42545415
_cell_angle_gamma   59.58749613
_symmetry_Int_Tables_number   1
_chemical_formula_structural   Y8Ho8Cd4Ir3Os
_chemical_formula_sum   'Y8 Ho8 Cd4 Ir3 Os1'
_cell_volume   633.21440085
_cell_formula_units_Z   1
loop_
 _symmetry_equiv_pos_site_id
 _symmetry_equiv_pos_as_xyz
  1  'x, y, z'
loop_
 _atom_site_type_symbol
 _atom_site_label
 _atom_site_symmetry_multiplicity
 _atom_site_fract_x
 _atom_site_fract_y
 _atom_site_fract_z
 _atom_site_occupancy
  Y  Y0  1  0.188362  0.188363  0.812020  1
  Y  Y1  1  0.810402  0.810412  0.187142  1
  Y  Y2  1  0.938389  0.561406  0.561665  1
  Y  Y3  1  0.558333  0.938805  0.938985  1
  Y  Y4  1  0.561419  0.938387  0.561662  1
  Y  Y5  1  0.938804  0.558324  0.938993  1
  Y  Y6  1  0.560391  0.560389  0.939667  1
  Y  Y7  1  0.940049  0.940046  0.556748  1
  Ho  Ho8  1  0.348485  0.348493  0.349495  1
  Ho  Ho9  1  0.347821  0.347829  0.957527  1
  Ho  Ho10  1  0.349266  0.957476  0.347834  1
  Ho  Ho11  1  0.957480  0.349265  0.347830  1
  Ho  Ho12  1  0.811351  0.188854  0.188937  1
  Ho  Ho13  1  0.187814  0.809949  0.809830  1
  Ho  Ho14  1  0.188845  0.811352  0.188941  1
  Ho  Ho15  1  0.809957  0.187818  0.809828  1
  Cd  Cd16  1  0.579654  0.579658  0.579280  1
  Cd  Cd17  1  0.580448  0.580446  0.257713  1
  Cd  Cd18  1  0.579978  0.257683  0.580524  1
  Cd  Cd19  1  0.257686  0.579975  0.580526  1
  Ir  Ir20  1  0.142042  0.142039  0.576235  1
  Ir  Ir21  1  0.146365  0.576232  0.141924  1
  Ir  Ir22  1  0.576230  0.146371  0.141924  1
  Os  Os23  1  0.140431  0.140429  0.144772  1
