# generated using pymatgen
data_Hf3Cr2P3Os
_symmetry_space_group_name_H-M   'P 1'
_cell_length_a   6.59919469
_cell_length_b   6.60736307
_cell_length_c   3.48918200
_cell_angle_alpha   90.00000000
_cell_angle_beta   90.00000000
_cell_angle_gamma   120.04096747
_symmetry_Int_Tables_number   1
_chemical_formula_structural   Hf3Cr2P3Os
_chemical_formula_sum   'Hf3 Cr2 P3 Os1'
_cell_volume   131.70247486
_cell_formula_units_Z   1
loop_
 _symmetry_equiv_pos_site_id
 _symmetry_equiv_pos_as_xyz
  1  'x, y, z'
loop_
 _atom_site_type_symbol
 _atom_site_label
 _atom_site_symmetry_multiplicity
 _atom_site_fract_x
 _atom_site_fract_y
 _atom_site_fract_z
 _atom_site_occupancy
  Hf  Hf0  1  0.409836  0.409645  0.500000  1
  Hf  Hf1  1  0.590164  0.999809  0.500000  1
  Hf  Hf2  1  0.000000  0.594183  0.500000  1
  Cr  Cr3  1  0.752342  0.752932  0.000000  1
  Cr  Cr4  1  0.247658  0.000590  0.000000  1
  P  P5  1  0.662818  0.335209  0.000000  1
  P  P6  1  0.337182  0.672392  0.000000  1
  P  P7  1  0.000000  0.992101  0.500000  1
  Os  Os8  1  0.000000  0.243139  0.000000  1
