# generated using pymatgen
data_Tb12Pr8Si15Au
_symmetry_space_group_name_H-M   'P 1'
_cell_length_a   7.54207101
_cell_length_b   7.87930267
_cell_length_c   15.03627000
_cell_angle_alpha   90.00000000
_cell_angle_beta   90.00000000
_cell_angle_gamma   90.53525788
_symmetry_Int_Tables_number   1
_chemical_formula_structural   Tb12Pr8Si15Au
_chemical_formula_sum   'Tb12 Pr8 Si15 Au1'
_cell_volume   893.51030247
_cell_formula_units_Z   1
loop_
 _symmetry_equiv_pos_site_id
 _symmetry_equiv_pos_as_xyz
  1  'x, y, z'
loop_
 _atom_site_type_symbol
 _atom_site_label
 _atom_site_symmetry_multiplicity
 _atom_site_fract_x
 _atom_site_fract_y
 _atom_site_fract_z
 _atom_site_occupancy
  Tb  Tb0  1  0.321318  0.184216  0.620651  1
  Tb  Tb1  1  0.678330  0.822577  0.375625  1
  Tb  Tb2  1  0.649136  0.976896  0.750000  1
  Tb  Tb3  1  0.178256  0.678976  0.376343  1
  Tb  Tb4  1  0.822529  0.318958  0.878372  1
  Tb  Tb5  1  0.822529  0.318958  0.621628  1
  Tb  Tb6  1  0.844755  0.489118  0.250000  1
  Tb  Tb7  1  0.344583  0.014010  0.250000  1
  Tb  Tb8  1  0.321318  0.184216  0.879349  1
  Tb  Tb9  1  0.178256  0.678976  0.123657  1
  Tb  Tb10  1  0.678330  0.822577  0.124375  1
  Tb  Tb11  1  0.160508  0.515318  0.750000  1
  Pr  Pr12  1  0.022733  0.183027  0.401089  1
  Pr  Pr13  1  0.522463  0.320019  0.400405  1
  Pr  Pr14  1  0.484247  0.669723  0.909189  1
  Pr  Pr15  1  0.484247  0.669723  0.590811  1
  Pr  Pr16  1  0.976625  0.821732  0.593767  1
  Pr  Pr17  1  0.976625  0.821732  0.906233  1
  Pr  Pr18  1  0.522463  0.320019  0.099595  1
  Pr  Pr19  1  0.022733  0.183027  0.098911  1
  Si  Si20  1  0.470334  0.610960  0.250000  1
  Si  Si21  1  0.024855  0.116364  0.750000  1
  Si  Si22  1  0.533410  0.387751  0.750000  1
  Si  Si23  1  0.144520  0.471301  0.538641  1
  Si  Si24  1  0.972097  0.889807  0.250000  1
  Si  Si25  1  0.729241  0.120976  0.250000  1
  Si  Si26  1  0.851772  0.531443  0.040216  1
  Si  Si27  1  0.354655  0.969187  0.039401  1
  Si  Si28  1  0.144520  0.471301  0.961359  1
  Si  Si29  1  0.643838  0.030681  0.538072  1
  Si  Si30  1  0.354655  0.969187  0.460599  1
  Si  Si31  1  0.851772  0.531443  0.459784  1
  Si  Si32  1  0.770162  0.614887  0.750000  1
  Si  Si33  1  0.229557  0.382193  0.250000  1
  Si  Si34  1  0.643838  0.030681  0.961928  1
  Au  Au35  1  0.268794  0.878043  0.750000  1
