# generated using pymatgen
data_La2Tc3B5
_symmetry_space_group_name_H-M   'P 1'
_cell_length_a   5.79055716
_cell_length_b   5.79055660
_cell_length_c   8.30642133
_cell_angle_alpha   123.81164165
_cell_angle_beta   123.81163488
_cell_angle_gamma   41.78121325
_symmetry_Int_Tables_number   1
_chemical_formula_structural   La2Tc3B5
_chemical_formula_sum   'La2 Tc3 B5'
_cell_volume   149.06536167
_cell_formula_units_Z   1
loop_
 _symmetry_equiv_pos_site_id
 _symmetry_equiv_pos_as_xyz
  1  'x, y, z'
loop_
 _atom_site_type_symbol
 _atom_site_label
 _atom_site_symmetry_multiplicity
 _atom_site_fract_x
 _atom_site_fract_y
 _atom_site_fract_z
 _atom_site_occupancy
  La  La0  1  0.382810  0.962226  0.266859  1
  La  La1  1  0.037773  0.617189  0.733139  1
  Tc  Tc2  1  0.597737  0.138864  0.097488  1
  Tc  Tc3  1  0.992363  0.007637  0.499999  1
  Tc  Tc4  1  0.861136  0.402263  0.902513  1
  B  B5  1  0.709199  0.290801  0.000000  1
  B  B6  1  0.080836  0.641658  0.188828  1
  B  B7  1  0.464731  0.489536  0.382558  1
  B  B8  1  0.510464  0.535269  0.617442  1
  B  B9  1  0.358342  0.919164  0.811173  1
