# generated using pymatgen
data_Ho2ThCu4(SiSn)2
_symmetry_space_group_name_H-M   'P 1'
_cell_length_a   8.29977651
_cell_length_b   8.29977723
_cell_length_c   8.29977571
_cell_angle_alpha   149.77239084
_cell_angle_beta   132.31601478
_cell_angle_gamma   57.50325781
_symmetry_Int_Tables_number   1
_chemical_formula_structural   Ho2ThCu4(SiSn)2
_chemical_formula_sum   'Ho2 Th1 Cu4 Si2 Sn2'
_cell_volume   211.31619472
_cell_formula_units_Z   1
loop_
 _symmetry_equiv_pos_site_id
 _symmetry_equiv_pos_as_xyz
  1  'x, y, z'
loop_
 _atom_site_type_symbol
 _atom_site_label
 _atom_site_symmetry_multiplicity
 _atom_site_fract_x
 _atom_site_fract_y
 _atom_site_fract_z
 _atom_site_occupancy
  Ho  Ho0  1  0.122797  0.122797  0.000000  1
  Ho  Ho1  1  0.877203  0.877203  0.000000  1
  Th  Th2  1  0.500000  0.000000  0.500000  1
  Cu  Cu3  1  0.462168  0.652569  0.809599  1
  Cu  Cu4  1  0.842969  0.652569  0.190401  1
  Cu  Cu5  1  0.157031  0.347431  0.809599  1
  Cu  Cu6  1  0.537832  0.347431  0.190401  1
  Si  Si7  1  0.180117  0.500000  0.680117  1
  Si  Si8  1  0.819883  0.500000  0.319883  1
  Sn  Sn9  1  0.720969  0.220969  0.500000  1
  Sn  Sn10  1  0.279031  0.779031  0.500000  1
