# generated using pymatgen
data_Ac2Zn19Au3
_symmetry_space_group_name_H-M   'P 1'
_cell_length_a   8.46024810
_cell_length_b   8.46851951
_cell_length_c   8.45113076
_cell_angle_alpha   100.01725203
_cell_angle_beta   99.73093401
_cell_angle_gamma   130.84129567
_symmetry_Int_Tables_number   1
_chemical_formula_structural   Ac2Zn19Au3
_chemical_formula_sum   'Ac2 Zn19 Au3'
_cell_volume   417.32549647
_cell_formula_units_Z   1
loop_
 _symmetry_equiv_pos_site_id
 _symmetry_equiv_pos_as_xyz
  1  'x, y, z'
loop_
 _atom_site_type_symbol
 _atom_site_label
 _atom_site_symmetry_multiplicity
 _atom_site_fract_x
 _atom_site_fract_y
 _atom_site_fract_z
 _atom_site_occupancy
  Ac  Ac0  1  0.503781  0.498036  0.000206  1
  Ac  Ac1  1  0.747899  0.253743  0.499970  1
  Zn  Zn2  1  0.845274  0.431249  0.172258  1
  Zn  Zn3  1  0.261755  0.676663  0.828255  1
  Zn  Zn4  1  0.677735  0.007849  0.087114  1
  Zn  Zn5  1  0.398854  0.070198  0.083708  1
  Zn  Zn6  1  0.992496  0.321397  0.914688  1
  Zn  Zn7  1  0.563990  0.150728  0.828800  1
  Zn  Zn8  1  0.323410  0.741354  0.171073  1
  Zn  Zn9  1  0.319194  0.148535  0.582730  1
  Zn  Zn10  1  0.406305  0.318349  0.329446  1
  Zn  Zn11  1  0.991754  0.074725  0.670852  1
  Zn  Zn12  1  0.571872  0.741497  0.412891  1
  Zn  Zn13  1  0.851515  0.679931  0.416539  1
  Zn  Zn14  1  0.258153  0.427088  0.586644  1
  Zn  Zn15  1  0.678603  0.593885  0.665328  1
  Zn  Zn16  1  0.924920  0.007703  0.329077  1
  Zn  Zn17  1  0.129519  0.878952  0.254721  1
  Zn  Zn18  1  0.126371  0.878128  0.748808  1
  Zn  Zn19  1  0.249618  0.750781  0.500089  1
  Zn  Zn20  1  0.001532  0.000538  0.001140  1
  Au  Au21  1  0.923676  0.599113  0.915454  1
  Au  Au22  1  0.125612  0.374094  0.250402  1
  Au  Au23  1  0.626165  0.875464  0.749810  1
