# generated using pymatgen
data_Er4Ge3Sb3Rh7
_symmetry_space_group_name_H-M   'P 1'
_cell_length_a   7.41254327
_cell_length_b   7.41254346
_cell_length_c   7.43479300
_cell_angle_alpha   109.53204141
_cell_angle_beta   109.53204193
_cell_angle_gamma   109.41033813
_symmetry_Int_Tables_number   1
_chemical_formula_structural   Er4Ge3Sb3Rh7
_chemical_formula_sum   'Er4 Ge3 Sb3 Rh7'
_cell_volume   314.23525637
_cell_formula_units_Z   1
loop_
 _symmetry_equiv_pos_site_id
 _symmetry_equiv_pos_as_xyz
  1  'x, y, z'
loop_
 _atom_site_type_symbol
 _atom_site_label
 _atom_site_symmetry_multiplicity
 _atom_site_fract_x
 _atom_site_fract_y
 _atom_site_fract_z
 _atom_site_occupancy
  Er  Er0  1  0.000000  0.000000  0.545252  1
  Er  Er1  1  0.000000  0.478984  0.987868  1
  Er  Er2  1  0.478984  0.000000  0.987868  1
  Er  Er3  1  0.521016  0.521016  0.508884  1
  Ge  Ge4  1  0.332950  0.332950  0.005961  1
  Ge  Ge5  1  0.667050  0.000000  0.673012  1
  Ge  Ge6  1  0.000000  0.667050  0.673012  1
  Sb  Sb7  1  0.697019  0.697019  0.009578  1
  Sb  Sb8  1  0.302981  0.000000  0.312559  1
  Sb  Sb9  1  0.000000  0.302981  0.312559  1
  Rh  Rh10  1  0.749543  0.249454  0.503276  1
  Rh  Rh11  1  0.750546  0.500089  0.253822  1
  Rh  Rh12  1  0.499911  0.250457  0.753733  1
  Rh  Rh13  1  0.250457  0.499911  0.753733  1
  Rh  Rh14  1  0.249454  0.749543  0.503276  1
  Rh  Rh15  1  0.500089  0.750546  0.253822  1
  Rh  Rh16  1  0.000000  0.000000  0.961785  1
