# generated using pymatgen
data_SrEu3(AlH5)4
_symmetry_space_group_name_H-M   'P 1'
_cell_length_a   4.46807878
_cell_length_b   5.14773850
_cell_length_c   12.59220352
_cell_angle_alpha   90.09373065
_cell_angle_beta   90.02542795
_cell_angle_gamma   90.06290989
_symmetry_Int_Tables_number   1
_chemical_formula_structural   SrEu3(AlH5)4
_chemical_formula_sum   'Sr1 Eu3 Al4 H20'
_cell_volume   289.62640098
_cell_formula_units_Z   1
loop_
 _symmetry_equiv_pos_site_id
 _symmetry_equiv_pos_as_xyz
  1  'x, y, z'
loop_
 _atom_site_type_symbol
 _atom_site_label
 _atom_site_symmetry_multiplicity
 _atom_site_fract_x
 _atom_site_fract_y
 _atom_site_fract_z
 _atom_site_occupancy
  Sr  Sr0  1  0.714224  0.645373  0.841874  1
  Eu  Eu1  1  0.289777  0.145072  0.658024  1
  Eu  Eu2  1  0.789527  0.354943  0.341278  1
  Eu  Eu3  1  0.210146  0.854943  0.159010  1
  Al  Al4  1  0.320043  0.131393  0.915129  1
  Al  Al5  1  0.819546  0.368343  0.086084  1
  Al  Al6  1  0.180449  0.869513  0.414576  1
  Al  Al7  1  0.680106  0.630595  0.584291  1
  H  H8  1  0.523031  0.386858  0.511443  1
  H  H9  1  0.023660  0.112764  0.487812  1
  H  H10  1  0.978280  0.611504  0.014255  1
  H  H11  1  0.472609  0.889819  0.989240  1
  H  H12  1  0.169927  0.911341  0.826120  1
  H  H13  1  0.666944  0.592209  0.173905  1
  H  H14  1  0.332958  0.092415  0.326488  1
  H  H15  1  0.833045  0.406436  0.671494  1
  H  H16  1  0.194194  0.389194  0.840548  1
  H  H17  1  0.692428  0.107135  0.160135  1
  H  H18  1  0.307294  0.607794  0.340166  1
  H  H19  1  0.807449  0.893071  0.657957  1
  H  H20  1  0.625175  0.136061  0.827951  1
  H  H21  1  0.126753  0.364714  0.173152  1
  H  H22  1  0.873233  0.865398  0.327344  1
  H  H23  1  0.371996  0.634382  0.671026  1
  H  H24  1  0.014216  0.128848  0.005488  1
  H  H25  1  0.515410  0.369686  0.995899  1
  H  H26  1  0.483568  0.872000  0.505428  1
  H  H27  1  0.984011  0.628197  0.493882  1
