# generated using pymatgen
data_Ho2Er2LuInAu4
_symmetry_space_group_name_H-M   'P 1'
_cell_length_a   8.03877641
_cell_length_b   8.04156841
_cell_length_c   3.72011400
_cell_angle_alpha   90.00000000
_cell_angle_beta   90.00000000
_cell_angle_gamma   89.96342127
_symmetry_Int_Tables_number   1
_chemical_formula_structural   Ho2Er2LuInAu4
_chemical_formula_sum   'Ho2 Er2 Lu1 In1 Au4'
_cell_volume   240.48437844
_cell_formula_units_Z   1
loop_
 _symmetry_equiv_pos_site_id
 _symmetry_equiv_pos_as_xyz
  1  'x, y, z'
loop_
 _atom_site_type_symbol
 _atom_site_label
 _atom_site_symmetry_multiplicity
 _atom_site_fract_x
 _atom_site_fract_y
 _atom_site_fract_z
 _atom_site_occupancy
  Ho  Ho0  1  0.682960  0.145535  0.500000  1
  Ho  Ho1  1  0.317040  0.854465  0.500000  1
  Er  Er2  1  0.145357  0.317624  0.500000  1
  Er  Er3  1  0.854643  0.682376  0.500000  1
  Lu  Lu4  1  0.500000  0.500000  0.000000  1
  In  In5  1  0.000000  0.000000  0.000000  1
  Au  Au6  1  0.145620  0.618642  0.000000  1
  Au  Au7  1  0.854380  0.381358  0.000000  1
  Au  Au8  1  0.619578  0.853585  0.000000  1
  Au  Au9  1  0.380422  0.146415  0.000000  1
