# generated using pymatgen
data_Ho5Er11Cd4NiIr3
_symmetry_space_group_name_H-M   'P 1'
_cell_length_a   9.52102861
_cell_length_b   9.51786576
_cell_length_c   9.51786705
_cell_angle_alpha   60.22178497
_cell_angle_beta   60.21235717
_cell_angle_gamma   60.21235855
_symmetry_Int_Tables_number   1
_chemical_formula_structural   Ho5Er11Cd4NiIr3
_chemical_formula_sum   'Ho5 Er11 Cd4 Ni1 Ir3'
_cell_volume   612.86095200
_cell_formula_units_Z   1
loop_
 _symmetry_equiv_pos_site_id
 _symmetry_equiv_pos_as_xyz
  1  'x, y, z'
loop_
 _atom_site_type_symbol
 _atom_site_label
 _atom_site_symmetry_multiplicity
 _atom_site_fract_x
 _atom_site_fract_y
 _atom_site_fract_z
 _atom_site_occupancy
  Ho  Ho0  1  0.813809  0.187498  0.187498  1
  Ho  Ho1  1  0.811944  0.188695  0.811658  1
  Ho  Ho2  1  0.187463  0.813851  0.187195  1
  Ho  Ho3  1  0.811944  0.811658  0.188695  1
  Ho  Ho4  1  0.187463  0.187195  0.813851  1
  Er  Er5  1  0.598861  0.598870  0.598870  1
  Er  Er6  1  0.598003  0.598186  0.203372  1
  Er  Er7  1  0.598003  0.203372  0.598186  1
  Er  Er8  1  0.203225  0.598155  0.598155  1
  Er  Er9  1  0.061411  0.439736  0.439736  1
  Er  Er10  1  0.438275  0.060500  0.060500  1
  Er  Er11  1  0.439570  0.061443  0.439867  1
  Er  Er12  1  0.060507  0.438426  0.060392  1
  Er  Er13  1  0.439570  0.439867  0.061443  1
  Er  Er14  1  0.060507  0.060392  0.438426  1
  Er  Er15  1  0.189200  0.811546  0.811546  1
  Cd  Cd16  1  0.830667  0.830244  0.830244  1
  Cd  Cd17  1  0.831585  0.831659  0.506364  1
  Cd  Cd18  1  0.831585  0.506364  0.831659  1
  Cd  Cd19  1  0.506057  0.831621  0.831621  1
  Ni  Ni20  1  0.391836  0.391976  0.391976  1
  Ir  Ir21  1  0.391931  0.392167  0.824573  1
  Ir  Ir22  1  0.391931  0.824573  0.392167  1
  Ir  Ir23  1  0.824653  0.392007  0.392007  1
