# generated using pymatgen
data_Sm2HoEr3(Co3P2)6
_symmetry_space_group_name_H-M   'P 1'
_cell_length_a   3.69236500
_cell_length_b   10.49520003
_cell_length_c   12.16856504
_cell_angle_alpha   90.00883876
_cell_angle_beta   90.00025595
_cell_angle_gamma   90.00072180
_symmetry_Int_Tables_number   1
_chemical_formula_structural   Sm2HoEr3(Co3P2)6
_chemical_formula_sum   'Sm2 Ho1 Er3 Co18 P12'
_cell_volume   471.55755623
_cell_formula_units_Z   1
loop_
 _symmetry_equiv_pos_site_id
 _symmetry_equiv_pos_as_xyz
  1  'x, y, z'
loop_
 _atom_site_type_symbol
 _atom_site_label
 _atom_site_symmetry_multiplicity
 _atom_site_fract_x
 _atom_site_fract_y
 _atom_site_fract_z
 _atom_site_occupancy
  Sm  Sm0  1  0.000001  0.500172  0.521985  1
  Sm  Sm1  1  0.499999  0.999799  0.477854  1
  Ho  Ho2  1  0.000000  0.317925  0.794396  1
  Er  Er3  1  0.500005  0.818033  0.205856  1
  Er  Er4  1  0.500003  0.181928  0.205692  1
  Er  Er5  1  0.000011  0.682153  0.794218  1
  Co  Co6  1  0.999998  0.500183  0.987157  1
  Co  Co7  1  0.500000  0.999849  0.013264  1
  Co  Co8  1  0.500001  0.296630  0.429383  1
  Co  Co9  1  0.499997  0.703428  0.429600  1
  Co  Co10  1  0.000000  0.203303  0.570154  1
  Co  Co11  1  0.999997  0.796591  0.570360  1
  Co  Co12  1  0.499996  0.878996  0.711376  1
  Co  Co13  1  0.500002  0.120582  0.711202  1
  Co  Co14  1  0.999999  0.620980  0.288686  1
  Co  Co15  1  0.000002  0.379106  0.288578  1
  Co  Co16  1  0.500001  0.332979  0.995153  1
  Co  Co17  1  0.499997  0.667218  0.995013  1
  Co  Co18  1  0.000001  0.166835  0.005227  1
  Co  Co19  1  0.999996  0.833034  0.005065  1
  Co  Co20  1  0.500003  0.500106  0.157490  1
  Co  Co21  1  0.000000  0.999953  0.842373  1
  Co  Co22  1  0.499998  0.500343  0.706211  1
  Co  Co23  1  0.000000  0.999931  0.293706  1
  P  P24  1  0.500001  0.309496  0.617106  1
  P  P25  1  0.499998  0.690551  0.617450  1
  P  P26  1  0.999999  0.190429  0.382334  1
  P  P27  1  0.999998  0.809456  0.382484  1
  P  P28  1  0.499998  0.500319  0.883618  1
  P  P29  1  0.000003  0.999923  0.116644  1
  P  P30  1  0.499997  0.846539  0.893062  1
  P  P31  1  0.500002  0.153161  0.893277  1
  P  P32  1  0.999997  0.653765  0.107036  1
  P  P33  1  0.000001  0.346330  0.106923  1
  P  P34  1  0.500001  0.500002  0.341797  1
  P  P35  1  0.999999  0.999972  0.658270  1
