# generated using pymatgen
data_Hf4MnOs2Ru
_symmetry_space_group_name_H-M   'P 1'
_cell_length_a   6.45268900
_cell_length_b   4.58115500
_cell_length_c   9.14986200
_cell_angle_alpha   90.00000000
_cell_angle_beta   90.00059985
_cell_angle_gamma   90.00000000
_symmetry_Int_Tables_number   1
_chemical_formula_structural   Hf4MnOs2Ru
_chemical_formula_sum   'Hf8 Mn2 Os4 Ru2'
_cell_volume   270.47695216
_cell_formula_units_Z   2
loop_
 _symmetry_equiv_pos_site_id
 _symmetry_equiv_pos_as_xyz
  1  'x, y, z'
loop_
 _atom_site_type_symbol
 _atom_site_label
 _atom_site_symmetry_multiplicity
 _atom_site_fract_x
 _atom_site_fract_y
 _atom_site_fract_z
 _atom_site_occupancy
  Hf  Hf0  1  0.497910  0.750000  0.127647  1
  Hf  Hf1  1  0.002162  0.750000  0.127648  1
  Hf  Hf2  1  0.502186  0.250001  0.372352  1
  Hf  Hf3  1  0.997918  0.250001  0.372355  1
  Hf  Hf4  1  0.997633  0.750000  0.622044  1
  Hf  Hf5  1  0.502257  0.750000  0.622055  1
  Hf  Hf6  1  0.002276  0.250001  0.877933  1
  Hf  Hf7  1  0.497651  0.250001  0.877943  1
  Mn  Mn8  1  0.250037  0.250001  0.124123  1
  Mn  Mn9  1  0.750046  0.750000  0.375920  1
  Os  Os10  1  0.750031  0.250001  0.125717  1
  Os  Os11  1  0.250035  0.750000  0.374277  1
  Os  Os12  1  0.749963  0.250001  0.624592  1
  Os  Os13  1  0.249967  0.750000  0.875406  1
  Ru  Ru14  1  0.249963  0.250001  0.625267  1
  Ru  Ru15  1  0.749966  0.750000  0.874721  1
