# generated using pymatgen
data_Eu5HgRh2
_symmetry_space_group_name_H-M   'P 1'
_cell_length_a   8.99098282
_cell_length_b   8.99098258
_cell_length_c   8.99098300
_cell_angle_alpha   126.93505686
_cell_angle_beta   126.93506369
_cell_angle_gamma   78.35665954
_symmetry_Int_Tables_number   1
_chemical_formula_structural   Eu5HgRh2
_chemical_formula_sum   'Eu10 Hg2 Rh4'
_cell_volume   449.70471755
_cell_formula_units_Z   2
loop_
 _symmetry_equiv_pos_site_id
 _symmetry_equiv_pos_as_xyz
  1  'x, y, z'
loop_
 _atom_site_type_symbol
 _atom_site_label
 _atom_site_symmetry_multiplicity
 _atom_site_fract_x
 _atom_site_fract_y
 _atom_site_fract_z
 _atom_site_occupancy
  Eu  Eu0  1  0.000000  0.000000  0.000000  1
  Eu  Eu1  1  0.500000  0.500000  0.000000  1
  Eu  Eu2  1  0.792920  0.292920  0.818065  1
  Eu  Eu3  1  0.207080  0.707080  0.181935  1
  Eu  Eu4  1  0.474854  0.974854  0.181935  1
  Eu  Eu5  1  0.292920  0.474854  0.500000  1
  Eu  Eu6  1  0.025146  0.207080  0.500000  1
  Eu  Eu7  1  0.525146  0.025146  0.818065  1
  Eu  Eu8  1  0.707080  0.525146  0.500000  1
  Eu  Eu9  1  0.974854  0.792920  0.500000  1
  Hg  Hg10  1  0.250000  0.250000  0.000000  1
  Hg  Hg11  1  0.750000  0.750000  0.000000  1
  Rh  Rh12  1  0.138919  0.638919  0.777837  1
  Rh  Rh13  1  0.861081  0.361081  0.222163  1
  Rh  Rh14  1  0.638919  0.861081  0.500000  1
  Rh  Rh15  1  0.361081  0.138919  0.500000  1
