# generated using pymatgen
data_Ta7Nb9(Ni2N)4
_symmetry_space_group_name_H-M   'P 1'
_cell_length_a   8.23522354
_cell_length_b   8.23078113
_cell_length_c   8.23869795
_cell_angle_alpha   60.00091111
_cell_angle_beta   60.08303487
_cell_angle_gamma   60.05061498
_symmetry_Int_Tables_number   1
_chemical_formula_structural   Ta7Nb9(Ni2N)4
_chemical_formula_sum   'Ta7 Nb9 Ni8 N4'
_cell_volume   395.27639511
_cell_formula_units_Z   1
loop_
 _symmetry_equiv_pos_site_id
 _symmetry_equiv_pos_as_xyz
  1  'x, y, z'
loop_
 _atom_site_type_symbol
 _atom_site_label
 _atom_site_symmetry_multiplicity
 _atom_site_fract_x
 _atom_site_fract_y
 _atom_site_fract_z
 _atom_site_occupancy
  Ta  Ta0  1  0.125249  0.625822  0.625092  1
  Ta  Ta1  1  0.626055  0.125158  0.624076  1
  Ta  Ta2  1  0.625090  0.623863  0.125208  1
  Ta  Ta3  1  0.624086  0.624678  0.626049  1
  Ta  Ta4  1  0.067076  0.432905  0.067121  1
  Ta  Ta5  1  0.066944  0.433083  0.433590  1
  Ta  Ta6  1  0.433607  0.066371  0.066942  1
  Nb  Nb7  1  0.816449  0.816922  0.183367  1
  Nb  Nb8  1  0.183387  0.183275  0.816417  1
  Nb  Nb9  1  0.816954  0.183064  0.816927  1
  Nb  Nb10  1  0.181922  0.818095  0.181886  1
  Nb  Nb11  1  0.181906  0.818421  0.817859  1
  Nb  Nb12  1  0.817904  0.181795  0.181858  1
  Nb  Nb13  1  0.432936  0.432596  0.067547  1
  Nb  Nb14  1  0.067542  0.066954  0.432927  1
  Nb  Nb15  1  0.433062  0.066955  0.433053  1
  Ni  Ni16  1  0.740934  0.421144  0.419385  1
  Ni  Ni17  1  0.421204  0.739485  0.418403  1
  Ni  Ni18  1  0.419195  0.418536  0.741089  1
  Ni  Ni19  1  0.418465  0.420884  0.421256  1
  Ni  Ni20  1  0.511721  0.830365  0.829670  1
  Ni  Ni21  1  0.830747  0.511405  0.828915  1
  Ni  Ni22  1  0.829800  0.828106  0.511776  1
  Ni  Ni23  1  0.828858  0.828971  0.830801  1
  N  N24  1  0.622737  0.124754  0.124646  1
  N  N25  1  0.124221  0.621168  0.127242  1
  N  N26  1  0.124677  0.127858  0.622706  1
  N  N27  1  0.127271  0.127368  0.124192  1
