# generated using pymatgen
data_TbPr6InO12
_symmetry_space_group_name_H-M   'P 1'
_cell_length_a   6.98753737
_cell_length_b   6.98753673
_cell_length_c   6.98753600
_cell_angle_alpha   92.81309785
_cell_angle_beta   92.81309759
_cell_angle_gamma   92.81310067
_symmetry_Int_Tables_number   1
_chemical_formula_structural   TbPr6InO12
_chemical_formula_sum   'Tb1 Pr6 In1 O12'
_cell_volume   339.89579220
_cell_formula_units_Z   1
loop_
 _symmetry_equiv_pos_site_id
 _symmetry_equiv_pos_as_xyz
  1  'x, y, z'
loop_
 _atom_site_type_symbol
 _atom_site_label
 _atom_site_symmetry_multiplicity
 _atom_site_fract_x
 _atom_site_fract_y
 _atom_site_fract_z
 _atom_site_occupancy
  Tb  Tb0  1  0.000000  0.000000  0.000000  1
  Pr  Pr1  1  0.560942  0.069498  0.256496  1
  Pr  Pr2  1  0.069498  0.256496  0.560942  1
  Pr  Pr3  1  0.743504  0.439058  0.930502  1
  Pr  Pr4  1  0.256496  0.560942  0.069498  1
  Pr  Pr5  1  0.930502  0.743504  0.439058  1
  Pr  Pr6  1  0.439058  0.930502  0.743504  1
  In  In7  1  0.500000  0.500000  0.500000  1
  O  O8  1  0.689678  0.089361  0.935394  1
  O  O9  1  0.910639  0.064606  0.310322  1
  O  O10  1  0.407638  0.195544  0.536092  1
  O  O11  1  0.064606  0.310322  0.910639  1
  O  O12  1  0.536092  0.407638  0.195544  1
  O  O13  1  0.804456  0.463908  0.592362  1
  O  O14  1  0.195544  0.536092  0.407638  1
  O  O15  1  0.463908  0.592362  0.804456  1
  O  O16  1  0.935394  0.689678  0.089361  1
  O  O17  1  0.592362  0.804456  0.463908  1
  O  O18  1  0.089361  0.935394  0.689678  1
  O  O19  1  0.310322  0.910639  0.064606  1
