# generated using pymatgen
data_CsRb7Na4(TaSe4)4
_symmetry_space_group_name_H-M   'P 1'
_cell_length_a   7.76328506
_cell_length_b   7.72558725
_cell_length_c   20.10401880
_cell_angle_alpha   87.02129100
_cell_angle_beta   87.04295768
_cell_angle_gamma   77.19167498
_symmetry_Int_Tables_number   1
_chemical_formula_structural   CsRb7Na4(TaSe4)4
_chemical_formula_sum   'Cs1 Rb7 Na4 Ta4 Se16'
_cell_volume   1173.17181743
_cell_formula_units_Z   1
loop_
 _symmetry_equiv_pos_site_id
 _symmetry_equiv_pos_as_xyz
  1  'x, y, z'
loop_
 _atom_site_type_symbol
 _atom_site_label
 _atom_site_symmetry_multiplicity
 _atom_site_fract_x
 _atom_site_fract_y
 _atom_site_fract_z
 _atom_site_occupancy
  Cs  Cs0  1  0.843373  0.891291  0.927384  1
  Rb  Rb1  1  0.893788  0.836594  0.427338  1
  Rb  Rb2  1  0.320786  0.680200  0.748962  1
  Rb  Rb3  1  0.499394  0.475919  0.500443  1
  Rb  Rb4  1  0.680266  0.320576  0.250261  1
  Rb  Rb5  1  0.475895  0.498825  0.001196  1
  Rb  Rb6  1  0.100477  0.153537  0.573370  1
  Rb  Rb7  1  0.153900  0.100854  0.074243  1
  Na  Na8  1  0.882305  0.402317  0.786777  1
  Na  Na9  1  0.401860  0.882396  0.287704  1
  Na  Na10  1  0.597885  0.117232  0.713057  1
  Na  Na11  1  0.117025  0.599323  0.214010  1
  Ta  Ta12  1  0.817630  0.698557  0.641655  1
  Ta  Ta13  1  0.698001  0.817212  0.144474  1
  Ta  Ta14  1  0.300684  0.184522  0.856535  1
  Ta  Ta15  1  0.182846  0.300524  0.357154  1
  Se  Se16  1  0.839865  0.786568  0.754176  1
  Se  Se17  1  0.605802  0.923111  0.584083  1
  Se  Se18  1  0.785157  0.837812  0.257176  1
  Se  Se19  1  0.921605  0.604652  0.086791  1
  Se  Se20  1  0.341852  0.898805  0.914577  1
  Se  Se21  1  0.898995  0.333179  0.415359  1
  Se  Se22  1  0.716204  0.421865  0.649302  1
  Se  Se23  1  0.422523  0.715607  0.150412  1
  Se  Se24  1  0.572082  0.292609  0.849615  1
  Se  Se25  1  0.282838  0.577771  0.351196  1
  Se  Se26  1  0.102082  0.663609  0.583769  1
  Se  Se27  1  0.662712  0.103703  0.087179  1
  Se  Se28  1  0.076306  0.392020  0.915941  1
  Se  Se29  1  0.213348  0.162850  0.743825  1
  Se  Se30  1  0.395317  0.078508  0.415530  1
  Se  Se31  1  0.163302  0.213552  0.244189  1
