# generated using pymatgen
data_Li4Ac3CeSn4
_symmetry_space_group_name_H-M   'P 1'
_cell_length_a   9.97009600
_cell_length_b   9.95975759
_cell_length_c   8.31003100
_cell_angle_alpha   90.00000000
_cell_angle_beta   90.00000000
_cell_angle_gamma   120.03434996
_symmetry_Int_Tables_number   1
_chemical_formula_structural   Li4Ac3CeSn4
_chemical_formula_sum   'Li8 Ac6 Ce2 Sn8'
_cell_volume   714.38274487
_cell_formula_units_Z   2
loop_
 _symmetry_equiv_pos_site_id
 _symmetry_equiv_pos_as_xyz
  1  'x, y, z'
loop_
 _atom_site_type_symbol
 _atom_site_label
 _atom_site_symmetry_multiplicity
 _atom_site_fract_x
 _atom_site_fract_y
 _atom_site_fract_z
 _atom_site_occupancy
  Li  Li0  1  0.335909  0.164973  0.714344  1
  Li  Li1  1  0.829063  0.164973  0.714344  1
  Li  Li2  1  0.170937  0.835027  0.214344  1
  Li  Li3  1  0.664091  0.835027  0.214344  1
  Li  Li4  1  0.832809  0.665620  0.714974  1
  Li  Li5  1  0.167191  0.334380  0.214974  1
  Li  Li6  1  0.664871  0.329742  0.329093  1
  Li  Li7  1  0.335129  0.670258  0.829093  1
  Ac  Ac8  1  0.000545  0.001091  0.498967  1
  Ac  Ac9  1  0.999455  0.998909  0.998967  1
  Ac  Ac10  1  0.026243  0.514263  0.503850  1
  Ac  Ac11  1  0.488019  0.514263  0.503850  1
  Ac  Ac12  1  0.511981  0.485737  0.003850  1
  Ac  Ac13  1  0.973757  0.485737  0.003850  1
  Ce  Ce14  1  0.489848  0.979696  0.504105  1
  Ce  Ce15  1  0.510152  0.020304  0.004105  1
  Sn  Sn16  1  0.337850  0.162266  0.272107  1
  Sn  Sn17  1  0.824416  0.162266  0.272107  1
  Sn  Sn18  1  0.175584  0.837734  0.772107  1
  Sn  Sn19  1  0.662150  0.837734  0.772107  1
  Sn  Sn20  1  0.833212  0.666424  0.273731  1
  Sn  Sn21  1  0.166788  0.333576  0.773731  1
  Sn  Sn22  1  0.662473  0.324946  0.727539  1
  Sn  Sn23  1  0.337527  0.675054  0.227539  1
