# generated using pymatgen
data_CaSc4As7Rh9
_symmetry_space_group_name_H-M   'P 1'
_cell_length_a   3.90929100
_cell_length_b   10.19415544
_cell_length_c   10.19415300
_cell_angle_alpha   119.99999532
_cell_angle_beta   90.00000000
_cell_angle_gamma   90.00000000
_symmetry_Int_Tables_number   1
_chemical_formula_structural   CaSc4As7Rh9
_chemical_formula_sum   'Ca1 Sc4 As7 Rh9'
_cell_volume   351.82852762
_cell_formula_units_Z   1
loop_
 _symmetry_equiv_pos_site_id
 _symmetry_equiv_pos_as_xyz
  1  'x, y, z'
loop_
 _atom_site_type_symbol
 _atom_site_label
 _atom_site_symmetry_multiplicity
 _atom_site_fract_x
 _atom_site_fract_y
 _atom_site_fract_z
 _atom_site_occupancy
  Ca  Ca0  1  0.500000  0.333333  0.666667  1
  Sc  Sc1  1  0.500000  0.771509  0.895032  1
  Sc  Sc2  1  0.500000  0.123523  0.228491  1
  Sc  Sc3  1  0.500000  0.104968  0.876477  1
  Sc  Sc4  1  0.000000  0.666667  0.333333  1
  As  As5  1  0.500000  0.711401  0.132215  1
  As  As6  1  0.500000  0.420815  0.288599  1
  As  As7  1  0.500000  0.867785  0.579185  1
  As  As8  1  0.000000  0.000000  0.000000  1
  As  As9  1  0.000000  0.575130  0.691417  1
  As  As10  1  0.000000  0.116286  0.424870  1
  As  As11  1  0.000000  0.308583  0.883714  1
  Rh  Rh12  1  0.000000  0.571550  0.934976  1
  Rh  Rh13  1  0.000000  0.363425  0.428450  1
  Rh  Rh14  1  0.000000  0.065024  0.636575  1
  Rh  Rh15  1  0.000000  0.880574  0.163735  1
  Rh  Rh16  1  0.000000  0.283162  0.119426  1
  Rh  Rh17  1  0.000000  0.836265  0.716838  1
  Rh  Rh18  1  0.500000  0.942351  0.388941  1
  Rh  Rh19  1  0.500000  0.446591  0.057649  1
  Rh  Rh20  1  0.500000  0.611059  0.553409  1
