# generated using pymatgen
data_Tm10IrOs2Pt3
_symmetry_space_group_name_H-M   'P 1'
_cell_length_a   10.81328853
_cell_length_b   10.80554500
_cell_length_c   6.37728632
_cell_angle_alpha   90.00000000
_cell_angle_beta   89.96382516
_cell_angle_gamma   90.00000000
_symmetry_Int_Tables_number   1
_chemical_formula_structural   Tm10IrOs2Pt3
_chemical_formula_sum   'Tm20 Ir2 Os4 Pt6'
_cell_volume   745.14415169
_cell_formula_units_Z   2
loop_
 _symmetry_equiv_pos_site_id
 _symmetry_equiv_pos_as_xyz
  1  'x, y, z'
loop_
 _atom_site_type_symbol
 _atom_site_label
 _atom_site_symmetry_multiplicity
 _atom_site_fract_x
 _atom_site_fract_y
 _atom_site_fract_z
 _atom_site_occupancy
  Tm  Tm0  1  0.297196  0.087927  0.372730  1
  Tm  Tm1  1  0.297196  0.912073  0.872730  1
  Tm  Tm2  1  0.702452  0.084718  0.871868  1
  Tm  Tm3  1  0.702452  0.915282  0.371868  1
  Tm  Tm4  1  0.582098  0.794738  0.871787  1
  Tm  Tm5  1  0.582098  0.205262  0.371787  1
  Tm  Tm6  1  0.413457  0.795438  0.376241  1
  Tm  Tm7  1  0.413457  0.204562  0.876241  1
  Tm  Tm8  1  0.206627  0.416182  0.625371  1
  Tm  Tm9  1  0.206627  0.583818  0.125371  1
  Tm  Tm10  1  0.797092  0.414930  0.126578  1
  Tm  Tm11  1  0.797092  0.585070  0.626578  1
  Tm  Tm12  1  0.915794  0.702654  0.127483  1
  Tm  Tm13  1  0.915794  0.297346  0.627483  1
  Tm  Tm14  1  0.088530  0.702650  0.628109  1
  Tm  Tm15  1  0.088530  0.297350  0.128109  1
  Tm  Tm16  1  0.999945  0.999795  0.499896  1
  Tm  Tm17  1  0.999945  0.000205  0.999896  1
  Tm  Tm18  1  0.496643  0.499656  0.999892  1
  Tm  Tm19  1  0.496643  0.500344  0.499892  1
  Ir  Ir20  1  0.347871  0.346821  0.250189  1
  Ir  Ir21  1  0.347871  0.653179  0.750189  1
  Os  Os22  1  0.500068  0.999983  0.125390  1
  Os  Os23  1  0.500068  0.000017  0.625390  1
  Os  Os24  1  0.999825  0.499985  0.874502  1
  Os  Os25  1  0.999825  0.500015  0.374502  1
  Pt  Pt26  1  0.846999  0.152525  0.250226  1
  Pt  Pt27  1  0.846999  0.847475  0.750226  1
  Pt  Pt28  1  0.151966  0.152390  0.749802  1
  Pt  Pt29  1  0.151966  0.847610  0.249802  1
  Pt  Pt30  1  0.653438  0.347400  0.749935  1
  Pt  Pt31  1  0.653438  0.652600  0.249935  1
