# generated using pymatgen
data_TiAlCr3Se8
_symmetry_space_group_name_H-M   'P 1'
_cell_length_a   7.36064581
_cell_length_b   7.36064567
_cell_length_c   7.36064700
_cell_angle_alpha   60.88515200
_cell_angle_beta   60.88515262
_cell_angle_gamma   60.88514531
_symmetry_Int_Tables_number   1
_chemical_formula_structural   TiAlCr3Se8
_chemical_formula_sum   'Ti1 Al1 Cr3 Se8'
_cell_volume   287.61605623
_cell_formula_units_Z   1
loop_
 _symmetry_equiv_pos_site_id
 _symmetry_equiv_pos_as_xyz
  1  'x, y, z'
loop_
 _atom_site_type_symbol
 _atom_site_label
 _atom_site_symmetry_multiplicity
 _atom_site_fract_x
 _atom_site_fract_y
 _atom_site_fract_z
 _atom_site_occupancy
  Ti  Ti0  1  0.397089  0.397089  0.397089  1
  Al  Al1  1  0.995638  0.995638  0.995638  1
  Cr  Cr2  1  0.853862  0.380157  0.380157  1
  Cr  Cr3  1  0.380157  0.853862  0.380157  1
  Cr  Cr4  1  0.380157  0.380157  0.853862  1
  Se  Se5  1  0.131231  0.131231  0.131231  1
  Se  Se6  1  0.593229  0.134434  0.134434  1
  Se  Se7  1  0.134434  0.593229  0.134434  1
  Se  Se8  1  0.134434  0.134434  0.593229  1
  Se  Se9  1  0.617024  0.617024  0.617024  1
  Se  Se10  1  0.127650  0.627549  0.627549  1
  Se  Se11  1  0.627549  0.127650  0.627549  1
  Se  Se12  1  0.627549  0.627549  0.127650  1
