# generated using pymatgen
data_TmLu2Pa(Ga3Rh)6
_symmetry_space_group_name_H-M   'P 1'
_cell_length_a   7.57842286
_cell_length_b   7.57405373
_cell_length_c   9.43982400
_cell_angle_alpha   90.00000000
_cell_angle_beta   90.00000000
_cell_angle_gamma   119.80036686
_symmetry_Int_Tables_number   1
_chemical_formula_structural   TmLu2Pa(Ga3Rh)6
_chemical_formula_sum   'Tm1 Lu2 Pa1 Ga18 Rh6'
_cell_volume   470.18836334
_cell_formula_units_Z   1
loop_
 _symmetry_equiv_pos_site_id
 _symmetry_equiv_pos_as_xyz
  1  'x, y, z'
loop_
 _atom_site_type_symbol
 _atom_site_label
 _atom_site_symmetry_multiplicity
 _atom_site_fract_x
 _atom_site_fract_y
 _atom_site_fract_z
 _atom_site_occupancy
  Tm  Tm0  1  0.003120  0.330813  0.750000  1
  Lu  Lu1  1  0.671329  0.997290  0.250000  1
  Lu  Lu2  1  0.329773  0.002007  0.750000  1
  Pa  Pa3  1  0.997632  0.669413  0.250000  1
  Ga  Ga4  1  0.338405  0.546491  0.250000  1
  Ga  Ga5  1  0.660720  0.450106  0.750000  1
  Ga  Ga6  1  0.545789  0.339695  0.250000  1
  Ga  Ga7  1  0.451503  0.662028  0.750000  1
  Ga  Ga8  1  0.998577  0.330288  0.079469  1
  Ga  Ga9  1  0.001229  0.665860  0.915587  1
  Ga  Ga10  1  0.001229  0.665860  0.584413  1
  Ga  Ga11  1  0.339420  0.002865  0.420498  1
  Ga  Ga12  1  0.998577  0.330288  0.420531  1
  Ga  Ga13  1  0.664991  0.001704  0.581639  1
  Ga  Ga14  1  0.664991  0.001704  0.918361  1
  Ga  Ga15  1  0.339420  0.002865  0.079502  1
  Ga  Ga16  1  0.331274  0.330896  0.570422  1
  Ga  Ga17  1  0.663720  0.668060  0.434507  1
  Ga  Ga18  1  0.663720  0.668060  0.065493  1
  Ga  Ga19  1  0.331274  0.330896  0.929578  1
  Ga  Ga20  1  0.129861  0.129291  0.250000  1
  Ga  Ga21  1  0.874330  0.875296  0.750000  1
  Rh  Rh22  1  0.673151  0.330884  0.001346  1
  Rh  Rh23  1  0.326796  0.670933  0.001293  1
  Rh  Rh24  1  0.326796  0.670933  0.498707  1
  Rh  Rh25  1  0.673151  0.330884  0.498654  1
  Rh  Rh26  1  0.999609  0.997297  0.001796  1
  Rh  Rh27  1  0.999609  0.997297  0.498204  1
