# generated using pymatgen
data_ScAl6(ZnCu2)2
_symmetry_space_group_name_H-M   'P 1'
_cell_length_a   5.07917364
_cell_length_b   6.58590909
_cell_length_c   6.58591000
_cell_angle_alpha   98.90998994
_cell_angle_beta   112.68155211
_cell_angle_gamma   67.31843784
_symmetry_Int_Tables_number   1
_chemical_formula_structural   ScAl6(ZnCu2)2
_chemical_formula_sum   'Sc1 Al6 Zn2 Cu4'
_cell_volume   187.54203435
_cell_formula_units_Z   1
loop_
 _symmetry_equiv_pos_site_id
 _symmetry_equiv_pos_as_xyz
  1  'x, y, z'
loop_
 _atom_site_type_symbol
 _atom_site_label
 _atom_site_symmetry_multiplicity
 _atom_site_fract_x
 _atom_site_fract_y
 _atom_site_fract_z
 _atom_site_occupancy
  Sc  Sc0  1  0.000000  0.000000  0.000000  1
  Al  Al1  1  0.655931  0.344069  0.655931  1
  Al  Al2  1  0.344069  0.655931  0.344069  1
  Al  Al3  1  0.000000  0.344077  0.344077  1
  Al  Al4  1  0.000000  0.655923  0.655923  1
  Al  Al5  1  0.710969  0.789031  0.210969  1
  Al  Al6  1  0.289031  0.210969  0.789031  1
  Zn  Zn7  1  0.500000  0.780310  0.780310  1
  Zn  Zn8  1  0.500000  0.219690  0.219690  1
  Cu  Cu9  1  0.500000  0.000000  0.500000  1
  Cu  Cu10  1  0.000000  0.000000  0.500000  1
  Cu  Cu11  1  0.500000  0.500000  0.000000  1
  Cu  Cu12  1  0.000000  0.500000  0.000000  1
