# generated using pymatgen
data_Tm2AlFeOs2
_symmetry_space_group_name_H-M   'P 1'
_cell_length_a   5.25755764
_cell_length_b   5.27210919
_cell_length_c   5.27210908
_cell_angle_alpha   60.53024808
_cell_angle_beta   60.48759624
_cell_angle_gamma   60.48761793
_symmetry_Int_Tables_number   1
_chemical_formula_structural   Tm2AlFeOs2
_chemical_formula_sum   'Tm2 Al1 Fe1 Os2'
_cell_volume   104.50456623
_cell_formula_units_Z   1
loop_
 _symmetry_equiv_pos_site_id
 _symmetry_equiv_pos_as_xyz
  1  'x, y, z'
loop_
 _atom_site_type_symbol
 _atom_site_label
 _atom_site_symmetry_multiplicity
 _atom_site_fract_x
 _atom_site_fract_y
 _atom_site_fract_z
 _atom_site_occupancy
  Tm  Tm0  1  0.625382  0.620604  0.620604  1
  Tm  Tm1  1  0.374618  0.379396  0.379396  1
  Al  Al2  1  0.000000  0.000000  0.000000  1
  Fe  Fe3  1  0.500000  0.000000  0.000000  1
  Os  Os4  1  0.000000  0.500000  0.000000  1
  Os  Os5  1  0.000000  0.000000  0.500000  1
