# generated using pymatgen
data_Nd4TaIO12
_symmetry_space_group_name_H-M   'P 1'
_cell_length_a   5.46174200
_cell_length_b   9.43754341
_cell_length_c   10.28371200
_cell_angle_alpha   88.98001612
_cell_angle_beta   90.00000000
_cell_angle_gamma   90.00000000
_symmetry_Int_Tables_number   1
_chemical_formula_structural   Nd4TaIO12
_chemical_formula_sum   'Nd8 Ta2 I2 O24'
_cell_volume   529.99433577
_cell_formula_units_Z   2
loop_
 _symmetry_equiv_pos_site_id
 _symmetry_equiv_pos_as_xyz
  1  'x, y, z'
loop_
 _atom_site_type_symbol
 _atom_site_label
 _atom_site_symmetry_multiplicity
 _atom_site_fract_x
 _atom_site_fract_y
 _atom_site_fract_z
 _atom_site_occupancy
  Nd  Nd0  1  0.019924  0.105632  0.452557  1
  Nd  Nd1  1  0.519924  0.394368  0.547443  1
  Nd  Nd2  1  0.973439  0.602708  0.032835  1
  Nd  Nd3  1  0.473439  0.897292  0.967165  1
  Nd  Nd4  1  0.038383  0.226298  0.873152  1
  Nd  Nd5  1  0.538383  0.273702  0.126848  1
  Nd  Nd6  1  0.965944  0.709242  0.644521  1
  Nd  Nd7  1  0.465944  0.790758  0.355479  1
  Ta  Ta8  1  0.459569  0.504339  0.854444  1
  Ta  Ta9  1  0.959569  0.995661  0.145556  1
  I  I10  1  0.540746  0.002722  0.643709  1
  I  I11  1  0.040746  0.497278  0.356291  1
  O  O12  1  0.251054  0.409660  0.994192  1
  O  O13  1  0.751054  0.090340  0.005808  1
  O  O14  1  0.743592  0.915097  0.510659  1
  O  O15  1  0.243592  0.584903  0.489341  1
  O  O16  1  0.230993  0.111575  0.058777  1
  O  O17  1  0.730993  0.388425  0.941223  1
  O  O18  1  0.783387  0.611472  0.428097  1
  O  O19  1  0.283387  0.888528  0.571903  1
  O  O20  1  0.302907  0.368133  0.325110  1
  O  O21  1  0.802907  0.131867  0.674890  1
  O  O22  1  0.678846  0.861824  0.176917  1
  O  O23  1  0.178846  0.638176  0.823083  1
  O  O24  1  0.172692  0.953765  0.297002  1
  O  O25  1  0.672692  0.546235  0.702998  1
  O  O26  1  0.838636  0.445488  0.218711  1
  O  O27  1  0.338636  0.054512  0.781289  1
  O  O28  1  0.173309  0.637998  0.244880  1
  O  O29  1  0.673309  0.862002  0.755120  1
  O  O30  1  0.808246  0.137606  0.262532  1
  O  O31  1  0.308246  0.362394  0.737468  1
  O  O32  1  0.083915  0.841797  0.033227  1
  O  O33  1  0.583915  0.658203  0.966773  1
  O  O34  1  0.934417  0.355392  0.478841  1
  O  O35  1  0.434417  0.144608  0.521159  1
