# generated using pymatgen
data_Dy8Lu2IrRu3
_symmetry_space_group_name_H-M   'P 1'
_cell_length_a   6.34049299
_cell_length_b   7.29283759
_cell_length_c   8.45857375
_cell_angle_alpha   96.94247699
_cell_angle_beta   112.18627772
_cell_angle_gamma   90.04348973
_symmetry_Int_Tables_number   1
_chemical_formula_structural   Dy8Lu2IrRu3
_chemical_formula_sum   'Dy8 Lu2 Ir1 Ru3'
_cell_volume   359.05363701
_cell_formula_units_Z   1
loop_
 _symmetry_equiv_pos_site_id
 _symmetry_equiv_pos_as_xyz
  1  'x, y, z'
loop_
 _atom_site_type_symbol
 _atom_site_label
 _atom_site_symmetry_multiplicity
 _atom_site_fract_x
 _atom_site_fract_y
 _atom_site_fract_z
 _atom_site_occupancy
  Dy  Dy0  1  0.523131  0.083786  0.814778  1
  Dy  Dy1  1  0.477426  0.918254  0.184804  1
  Dy  Dy2  1  0.709666  0.415456  0.184679  1
  Dy  Dy3  1  0.291169  0.584151  0.813785  1
  Dy  Dy4  1  0.296079  0.311470  0.433657  1
  Dy  Dy5  1  0.704587  0.687070  0.568503  1
  Dy  Dy6  1  0.863612  0.187437  0.567870  1
  Dy  Dy7  1  0.135792  0.813562  0.432905  1
  Lu  Lu8  1  0.076468  0.249103  0.999255  1
  Lu  Lu9  1  0.923141  0.750128  0.000193  1
  Ir  Ir10  1  0.318022  0.575391  0.217683  1
  Ru  Ru11  1  0.679266  0.425101  0.781825  1
  Ru  Ru12  1  0.103139  0.923920  0.782348  1
  Ru  Ru13  1  0.898502  0.075173  0.217715  1
