# generated using pymatgen
data_RbCaPaF7
_symmetry_space_group_name_H-M   'P 1'
_cell_length_a   6.92989848
_cell_length_b   6.92989680
_cell_length_c   8.96097000
_cell_angle_alpha   90.00000000
_cell_angle_beta   90.00000000
_cell_angle_gamma   117.13988518
_symmetry_Int_Tables_number   1
_chemical_formula_structural   RbCaPaF7
_chemical_formula_sum   'Rb2 Ca2 Pa2 F14'
_cell_volume   382.95492550
_cell_formula_units_Z   2
loop_
 _symmetry_equiv_pos_site_id
 _symmetry_equiv_pos_as_xyz
  1  'x, y, z'
loop_
 _atom_site_type_symbol
 _atom_site_label
 _atom_site_symmetry_multiplicity
 _atom_site_fract_x
 _atom_site_fract_y
 _atom_site_fract_z
 _atom_site_occupancy
  Rb  Rb0  1  0.000000  0.000000  0.000000  1
  Rb  Rb1  1  0.000000  0.000000  0.500000  1
  Ca  Ca2  1  0.308361  0.691639  0.750000  1
  Ca  Ca3  1  0.691639  0.308361  0.250000  1
  Pa  Pa4  1  0.690142  0.309858  0.750000  1
  Pa  Pa5  1  0.309858  0.690142  0.250000  1
  F  F6  1  0.502075  0.497925  0.750000  1
  F  F7  1  0.497925  0.502075  0.250000  1
  F  F8  1  0.700428  0.299572  0.997381  1
  F  F9  1  0.299572  0.700428  0.002619  1
  F  F10  1  0.299572  0.700428  0.497381  1
  F  F11  1  0.700428  0.299572  0.502619  1
  F  F12  1  0.668063  0.965374  0.750000  1
  F  F13  1  0.331937  0.034626  0.250000  1
  F  F14  1  0.034626  0.331937  0.750000  1
  F  F15  1  0.965374  0.668063  0.250000  1
  F  F16  1  0.337139  0.048371  0.750000  1
  F  F17  1  0.662861  0.951629  0.250000  1
  F  F18  1  0.951629  0.662861  0.750000  1
  F  F19  1  0.048371  0.337139  0.250000  1
