# generated using pymatgen
data_Tb3Y9InCo4Ni
_symmetry_space_group_name_H-M   'P 1'
_cell_length_a   8.35537488
_cell_length_b   8.35683360
_cell_length_c   8.35537287
_cell_angle_alpha   110.67906020
_cell_angle_beta   110.61746804
_cell_angle_gamma   107.13516545
_symmetry_Int_Tables_number   1
_chemical_formula_structural   Tb3Y9InCo4Ni
_chemical_formula_sum   'Tb3 Y9 In1 Co4 Ni1'
_cell_volume   448.59086593
_cell_formula_units_Z   1
loop_
 _symmetry_equiv_pos_site_id
 _symmetry_equiv_pos_as_xyz
  1  'x, y, z'
loop_
 _atom_site_type_symbol
 _atom_site_label
 _atom_site_symmetry_multiplicity
 _atom_site_fract_x
 _atom_site_fract_y
 _atom_site_fract_z
 _atom_site_occupancy
  Tb  Tb0  1  0.685794  0.380763  0.694970  1
  Tb  Tb1  1  0.313938  0.007926  0.693987  1
  Tb  Tb2  1  0.685610  0.990807  0.305198  1
  Y  Y3  1  0.404775  0.209468  0.194492  1
  Y  Y4  1  0.595461  0.790333  0.805004  1
  Y  Y5  1  0.014976  0.209468  0.804692  1
  Y  Y6  1  0.985329  0.790333  0.194873  1
  Y  Y7  1  0.187555  0.294605  0.481950  1
  Y  Y8  1  0.812408  0.704972  0.517603  1
  Y  Y9  1  0.187369  0.704972  0.892565  1
  Y  Y10  1  0.812654  0.294605  0.107048  1
  Y  Y11  1  0.314438  0.618707  0.304269  1
  In  In12  1  0.499574  0.500102  0.000526  1
  Co  Co13  1  0.381270  0.001273  0.381818  1
  Co  Co14  1  0.619455  0.001273  0.620003  1
  Co  Co15  1  0.110808  0.611181  0.500372  1
  Co  Co16  1  0.887951  0.387706  0.499755  1
  Ni  Ni17  1  0.000633  0.001510  0.000877  1
