# generated using pymatgen
data_Nd2Si(NiPt3)2
_symmetry_space_group_name_H-M   'P 1'
_cell_length_a   4.09157400
_cell_length_b   9.20500977
_cell_length_c   9.20500922
_cell_angle_alpha   145.87249332
_cell_angle_beta   90.00000000
_cell_angle_gamma   90.00000000
_symmetry_Int_Tables_number   1
_chemical_formula_structural   Nd2Si(NiPt3)2
_chemical_formula_sum   'Nd2 Si1 Ni2 Pt6'
_cell_volume   194.50464750
_cell_formula_units_Z   1
loop_
 _symmetry_equiv_pos_site_id
 _symmetry_equiv_pos_as_xyz
  1  'x, y, z'
loop_
 _atom_site_type_symbol
 _atom_site_label
 _atom_site_symmetry_multiplicity
 _atom_site_fract_x
 _atom_site_fract_y
 _atom_site_fract_z
 _atom_site_occupancy
  Nd  Nd0  1  0.500000  0.620297  0.370419  1
  Nd  Nd1  1  0.500000  0.370419  0.620297  1
  Si  Si2  1  0.000000  0.226128  0.226128  1
  Ni  Ni3  1  0.500000  0.785881  0.194624  1
  Ni  Ni4  1  0.500000  0.194624  0.785881  1
  Pt  Pt5  1  0.000000  0.879969  0.110493  1
  Pt  Pt6  1  0.000000  0.991074  0.490718  1
  Pt  Pt7  1  0.000000  0.643884  0.643884  1
  Pt  Pt8  1  0.000000  0.110493  0.879969  1
  Pt  Pt9  1  0.000000  0.490718  0.991074  1
  Pt  Pt10  1  0.500000  0.000098  0.000098  1
