# generated using pymatgen
data_HoPa(Al3Rh)3
_symmetry_space_group_name_H-M   'P 1'
_cell_length_a   7.60314803
_cell_length_b   7.61086269
_cell_length_c   9.38399900
_cell_angle_alpha   90.00000000
_cell_angle_beta   90.00000000
_cell_angle_gamma   119.61765607
_symmetry_Int_Tables_number   1
_chemical_formula_structural   HoPa(Al3Rh)3
_chemical_formula_sum   'Ho2 Pa2 Al18 Rh6'
_cell_volume   472.06987421
_cell_formula_units_Z   2
loop_
 _symmetry_equiv_pos_site_id
 _symmetry_equiv_pos_as_xyz
  1  'x, y, z'
loop_
 _atom_site_type_symbol
 _atom_site_label
 _atom_site_symmetry_multiplicity
 _atom_site_fract_x
 _atom_site_fract_y
 _atom_site_fract_z
 _atom_site_occupancy
  Ho  Ho0  1  0.670270  0.993074  0.250000  1
  Ho  Ho1  1  0.329730  0.006926  0.750000  1
  Pa  Pa2  1  0.997647  0.671075  0.250000  1
  Pa  Pa3  1  0.002353  0.328925  0.750000  1
  Al  Al4  1  0.130278  0.126116  0.250000  1
  Al  Al5  1  0.869722  0.873884  0.750000  1
  Al  Al6  1  0.999922  0.331435  0.078338  1
  Al  Al7  1  0.000078  0.668565  0.921662  1
  Al  Al8  1  0.000078  0.668565  0.578338  1
  Al  Al9  1  0.338509  0.002811  0.425029  1
  Al  Al10  1  0.999922  0.331435  0.421662  1
  Al  Al11  1  0.661491  0.997189  0.574971  1
  Al  Al12  1  0.661491  0.997189  0.925029  1
  Al  Al13  1  0.338509  0.002811  0.074971  1
  Al  Al14  1  0.334669  0.332948  0.552900  1
  Al  Al15  1  0.665331  0.667052  0.447100  1
  Al  Al16  1  0.665331  0.667052  0.052900  1
  Al  Al17  1  0.334669  0.332948  0.947100  1
  Al  Al18  1  0.340681  0.549077  0.250000  1
  Al  Al19  1  0.659319  0.450923  0.750000  1
  Al  Al20  1  0.550282  0.341546  0.250000  1
  Al  Al21  1  0.449718  0.658454  0.750000  1
  Rh  Rh22  1  0.675779  0.329481  0.999564  1
  Rh  Rh23  1  0.324221  0.670519  0.000436  1
  Rh  Rh24  1  0.324221  0.670519  0.499564  1
  Rh  Rh25  1  0.675779  0.329481  0.500436  1
  Rh  Rh26  1  0.000000  0.000000  0.000000  1
  Rh  Rh27  1  0.000000  0.000000  0.500000  1
