# generated using pymatgen
data_Hf3Zr3Al5(SiNi8)2
_symmetry_space_group_name_H-M   'P 1'
_cell_length_a   8.18905164
_cell_length_b   8.18905156
_cell_length_c   8.23171695
_cell_angle_alpha   59.78258100
_cell_angle_beta   59.78258279
_cell_angle_gamma   60.11202725
_symmetry_Int_Tables_number   1
_chemical_formula_structural   Hf3Zr3Al5(SiNi8)2
_chemical_formula_sum   'Hf3 Zr3 Al5 Si2 Ni16'
_cell_volume   389.37807426
_cell_formula_units_Z   1
loop_
 _symmetry_equiv_pos_site_id
 _symmetry_equiv_pos_as_xyz
  1  'x, y, z'
loop_
 _atom_site_type_symbol
 _atom_site_label
 _atom_site_symmetry_multiplicity
 _atom_site_fract_x
 _atom_site_fract_y
 _atom_site_fract_z
 _atom_site_occupancy
  Hf  Hf0  1  0.794119  0.205359  0.793962  1
  Hf  Hf1  1  0.792953  0.792953  0.206466  1
  Hf  Hf2  1  0.205359  0.794119  0.793962  1
  Zr  Zr3  1  0.206072  0.206072  0.793409  1
  Zr  Zr4  1  0.794329  0.205179  0.205283  1
  Zr  Zr5  1  0.205179  0.794329  0.205283  1
  Al  Al6  1  0.999970  0.500127  0.999821  1
  Al  Al7  1  0.499958  0.499958  0.499889  1
  Al  Al8  1  0.499799  0.999416  0.499851  1
  Al  Al9  1  0.999416  0.499799  0.499851  1
  Al  Al10  1  0.500127  0.999970  0.999821  1
  Si  Si11  1  0.499754  0.499754  0.999114  1
  Si  Si12  1  0.999802  0.999802  0.500173  1
  Ni  Ni13  1  0.166691  0.166691  0.175044  1
  Ni  Ni14  1  0.619715  0.619715  0.139409  1
  Ni  Ni15  1  0.381024  0.381024  0.377286  1
  Ni  Ni16  1  0.173135  0.495107  0.165263  1
  Ni  Ni17  1  0.164980  0.164980  0.495290  1
  Ni  Ni18  1  0.139315  0.623447  0.619680  1
  Ni  Ni19  1  0.623447  0.139315  0.619680  1
  Ni  Ni20  1  0.834994  0.834994  0.826911  1
  Ni  Ni21  1  0.860524  0.378240  0.381473  1
  Ni  Ni22  1  0.381773  0.381773  0.860326  1
  Ni  Ni23  1  0.378240  0.860524  0.381473  1
  Ni  Ni24  1  0.506536  0.825493  0.833362  1
  Ni  Ni25  1  0.619012  0.619012  0.622195  1
  Ni  Ni26  1  0.833177  0.833177  0.507099  1
  Ni  Ni27  1  0.495107  0.173135  0.165263  1
  Ni  Ni28  1  0.825493  0.506536  0.833362  1
