# generated using pymatgen
data_HoPa7Ir8
_symmetry_space_group_name_H-M   'P 1'
_cell_length_a   10.93861395
_cell_length_b   5.62832337
_cell_length_c   5.63124326
_cell_angle_alpha   84.21073550
_cell_angle_beta   90.07947258
_cell_angle_gamma   90.11876359
_symmetry_Int_Tables_number   1
_chemical_formula_structural   HoPa7Ir8
_chemical_formula_sum   'Ho1 Pa7 Ir8'
_cell_volume   344.92419194
_cell_formula_units_Z   1
loop_
 _symmetry_equiv_pos_site_id
 _symmetry_equiv_pos_as_xyz
  1  'x, y, z'
loop_
 _atom_site_type_symbol
 _atom_site_label
 _atom_site_symmetry_multiplicity
 _atom_site_fract_x
 _atom_site_fract_y
 _atom_site_fract_z
 _atom_site_occupancy
  Ho  Ho0  1  0.858410  0.351780  0.857817  1
  Pa  Pa1  1  0.363079  0.138830  0.133938  1
  Pa  Pa2  1  0.865638  0.908125  0.392728  1
  Pa  Pa3  1  0.362779  0.602654  0.614926  1
  Pa  Pa4  1  0.134063  0.634024  0.125987  1
  Pa  Pa5  1  0.643113  0.859660  0.877372  1
  Pa  Pa6  1  0.134568  0.104613  0.621424  1
  Pa  Pa7  1  0.644020  0.398196  0.374655  1
  Ir  Ir8  1  0.588913  0.362661  0.877788  1
  Ir  Ir9  1  0.101082  0.132738  0.120600  1
  Ir  Ir10  1  0.603786  0.895539  0.373404  1
  Ir  Ir11  1  0.101582  0.607532  0.627666  1
  Ir  Ir12  1  0.399882  0.641018  0.116046  1
  Ir  Ir13  1  0.901797  0.847858  0.902227  1
  Ir  Ir14  1  0.396892  0.100961  0.633625  1
  Ir  Ir15  1  0.900395  0.413811  0.349797  1
