# generated using pymatgen
data_CeNd3(In2Br5)4
_symmetry_space_group_name_H-M   'P 1'
_cell_length_a   8.65087615
_cell_length_b   9.21219300
_cell_length_c   13.63068895
_cell_angle_alpha   90.00000000
_cell_angle_beta   89.90225511
_cell_angle_gamma   90.00000000
_symmetry_Int_Tables_number   1
_chemical_formula_structural   CeNd3(In2Br5)4
_chemical_formula_sum   'Ce1 Nd3 In8 Br20'
_cell_volume   1086.27628440
_cell_formula_units_Z   1
loop_
 _symmetry_equiv_pos_site_id
 _symmetry_equiv_pos_as_xyz
  1  'x, y, z'
loop_
 _atom_site_type_symbol
 _atom_site_label
 _atom_site_symmetry_multiplicity
 _atom_site_fract_x
 _atom_site_fract_y
 _atom_site_fract_z
 _atom_site_occupancy
  Ce  Ce0  1  0.923255  0.750000  0.505638  1
  Nd  Nd1  1  0.077171  0.250000  0.494567  1
  Nd  Nd2  1  0.422677  0.250000  0.994579  1
  Nd  Nd3  1  0.577391  0.750000  0.005462  1
  In  In4  1  0.950901  0.005142  0.826111  1
  In  In5  1  0.049054  0.994937  0.173924  1
  In  In6  1  0.451013  0.994972  0.673811  1
  In  In7  1  0.049054  0.505063  0.173924  1
  In  In8  1  0.548935  0.005163  0.326137  1
  In  In9  1  0.950901  0.494858  0.826111  1
  In  In10  1  0.548935  0.494837  0.326137  1
  In  In11  1  0.451013  0.505028  0.673811  1
  Br  Br12  1  0.122259  0.750000  0.682462  1
  Br  Br13  1  0.878479  0.250000  0.318501  1
  Br  Br14  1  0.621497  0.250000  0.818534  1
  Br  Br15  1  0.378453  0.750000  0.181486  1
  Br  Br16  1  0.834170  0.046494  0.577008  1
  Br  Br17  1  0.166603  0.956861  0.422897  1
  Br  Br18  1  0.334645  0.955531  0.923497  1
  Br  Br19  1  0.166603  0.543139  0.422897  1
  Br  Br20  1  0.665384  0.044479  0.076491  1
  Br  Br21  1  0.834170  0.453506  0.577008  1
  Br  Br22  1  0.665384  0.455521  0.076491  1
  Br  Br23  1  0.334645  0.544469  0.923497  1
  Br  Br24  1  0.574484  0.750000  0.507130  1
  Br  Br25  1  0.423326  0.250000  0.492969  1
  Br  Br26  1  0.076862  0.250000  0.992925  1
  Br  Br27  1  0.923119  0.750000  0.007012  1
  Br  Br28  1  0.661976  0.750000  0.795268  1
  Br  Br29  1  0.338103  0.250000  0.204628  1
  Br  Br30  1  0.161996  0.250000  0.704683  1
  Br  Br31  1  0.837543  0.750000  0.294404  1
