# generated using pymatgen
data_Pr9HoTlSi5
_symmetry_space_group_name_H-M   'P 1'
_cell_length_a   7.80034197
_cell_length_b   7.80034349
_cell_length_c   9.20401900
_cell_angle_alpha   115.07136088
_cell_angle_beta   115.07134990
_cell_angle_gamma   90.00000378
_symmetry_Int_Tables_number   1
_chemical_formula_structural   Pr9HoTlSi5
_chemical_formula_sum   'Pr9 Ho1 Tl1 Si5'
_cell_volume   448.32443114
_cell_formula_units_Z   1
loop_
 _symmetry_equiv_pos_site_id
 _symmetry_equiv_pos_as_xyz
  1  'x, y, z'
loop_
 _atom_site_type_symbol
 _atom_site_label
 _atom_site_symmetry_multiplicity
 _atom_site_fract_x
 _atom_site_fract_y
 _atom_site_fract_z
 _atom_site_occupancy
  Pr  Pr0  1  0.977153  0.974690  0.950048  1
  Pr  Pr1  1  0.975034  0.828034  0.281216  1
  Pr  Pr2  1  0.305570  0.453542  0.282984  1
  Pr  Pr3  1  0.828556  0.305895  0.281587  1
  Pr  Pr4  1  0.450550  0.974829  0.281652  1
  Pr  Pr5  1  0.044958  0.196516  0.718244  1
  Pr  Pr6  1  0.674456  0.523816  0.720067  1
  Pr  Pr7  1  0.196075  0.672228  0.719988  1
  Pr  Pr8  1  0.525800  0.049554  0.720437  1
  Ho  Ho9  1  0.515420  0.513776  0.030819  1
  Tl  Tl10  1  0.746059  0.745114  0.490384  1
  Si  Si11  1  0.253711  0.255195  0.509102  1
  Si  Si12  1  0.615241  0.881321  0.002922  1
  Si  Si13  1  0.387817  0.122240  0.003213  1
  Si  Si14  1  0.882420  0.387300  0.003805  1
  Si  Si15  1  0.121178  0.615950  0.003533  1
