# generated using pymatgen
data_KSr(PaBr6)2
_symmetry_space_group_name_H-M   'P 1'
_cell_length_a   7.27832100
_cell_length_b   7.27832100
_cell_length_c   11.75637600
_cell_angle_alpha   90.00000000
_cell_angle_beta   90.00000000
_cell_angle_gamma   90.00000000
_symmetry_Int_Tables_number   1
_chemical_formula_structural   KSr(PaBr6)2
_chemical_formula_sum   'K1 Sr1 Pa2 Br12'
_cell_volume   622.78175175
_cell_formula_units_Z   1
loop_
 _symmetry_equiv_pos_site_id
 _symmetry_equiv_pos_as_xyz
  1  'x, y, z'
loop_
 _atom_site_type_symbol
 _atom_site_label
 _atom_site_symmetry_multiplicity
 _atom_site_fract_x
 _atom_site_fract_y
 _atom_site_fract_z
 _atom_site_occupancy
  K  K0  1  0.000000  0.000000  0.250000  1
  Sr  Sr1  1  0.000000  0.000000  0.750000  1
  Pa  Pa2  1  0.500000  0.000000  0.502176  1
  Pa  Pa3  1  0.000000  0.500000  0.997824  1
  Br  Br4  1  0.790037  0.181259  0.984312  1
  Br  Br5  1  0.818741  0.790037  0.515688  1
  Br  Br6  1  0.181259  0.209963  0.515688  1
  Br  Br7  1  0.209963  0.818741  0.984312  1
  Br  Br8  1  0.226361  0.358870  0.160199  1
  Br  Br9  1  0.661563  0.222684  0.666934  1
  Br  Br10  1  0.338437  0.777316  0.666934  1
  Br  Br11  1  0.773639  0.641130  0.160199  1
  Br  Br12  1  0.777316  0.661563  0.833066  1
  Br  Br13  1  0.358870  0.773639  0.339801  1
  Br  Br14  1  0.641130  0.226361  0.339801  1
  Br  Br15  1  0.222684  0.338437  0.833066  1
