# generated using pymatgen
data_Tm2Si2IrRu
_symmetry_space_group_name_H-M   'P 1'
_cell_length_a   4.26150300
_cell_length_b   6.85253308
_cell_length_c   7.23500988
_cell_angle_alpha   89.71037100
_cell_angle_beta   90.00000000
_cell_angle_gamma   90.00000000
_symmetry_Int_Tables_number   1
_chemical_formula_structural   Tm2Si2IrRu
_chemical_formula_sum   'Tm4 Si4 Ir2 Ru2'
_cell_volume   211.27471244
_cell_formula_units_Z   2
loop_
 _symmetry_equiv_pos_site_id
 _symmetry_equiv_pos_as_xyz
  1  'x, y, z'
loop_
 _atom_site_type_symbol
 _atom_site_label
 _atom_site_symmetry_multiplicity
 _atom_site_fract_x
 _atom_site_fract_y
 _atom_site_fract_z
 _atom_site_occupancy
  Tm  Tm0  1  0.250000  0.989494  0.813420  1
  Tm  Tm1  1  0.750000  0.010506  0.186580  1
  Tm  Tm2  1  0.250000  0.496353  0.687787  1
  Tm  Tm3  1  0.750000  0.503647  0.312213  1
  Si  Si4  1  0.250000  0.300477  0.103932  1
  Si  Si5  1  0.750000  0.699523  0.896068  1
  Si  Si6  1  0.250000  0.799372  0.384492  1
  Si  Si7  1  0.750000  0.200628  0.615508  1
  Ir  Ir8  1  0.750000  0.842658  0.565883  1
  Ir  Ir9  1  0.250000  0.157342  0.434117  1
  Ru  Ru10  1  0.750000  0.344029  0.934463  1
  Ru  Ru11  1  0.250000  0.655971  0.065537  1
