# generated using pymatgen
data_Sc3Si2PRu3
_symmetry_space_group_name_H-M   'P 1'
_cell_length_a   6.74613400
_cell_length_b   6.74613500
_cell_length_c   3.53281600
_cell_angle_alpha   90.00000000
_cell_angle_beta   90.00000000
_cell_angle_gamma   120.00000490
_symmetry_Int_Tables_number   1
_chemical_formula_structural   Sc3Si2PRu3
_chemical_formula_sum   'Sc3 Si2 P1 Ru3'
_cell_volume   139.23923232
_cell_formula_units_Z   1
loop_
 _symmetry_equiv_pos_site_id
 _symmetry_equiv_pos_as_xyz
  1  'x, y, z'
loop_
 _atom_site_type_symbol
 _atom_site_label
 _atom_site_symmetry_multiplicity
 _atom_site_fract_x
 _atom_site_fract_y
 _atom_site_fract_z
 _atom_site_occupancy
  Sc  Sc0  1  0.406230  0.412796  0.500000  1
  Sc  Sc1  1  0.587204  0.993434  0.500000  1
  Sc  Sc2  1  0.006566  0.593770  0.500000  1
  Si  Si3  1  0.666667  0.333333  0.000000  1
  Si  Si4  1  0.000000  0.000000  0.500000  1
  P  P5  1  0.333333  0.666667  0.000000  1
  Ru  Ru6  1  0.002007  0.250105  0.000000  1
  Ru  Ru7  1  0.248098  0.997993  0.000000  1
  Ru  Ru8  1  0.749895  0.751902  0.000000  1
