# generated using pymatgen
data_Zr10Ti3Al9RuRh7
_symmetry_space_group_name_H-M   'P 1'
_cell_length_a   9.08436466
_cell_length_b   9.08436425
_cell_length_c   9.08436547
_cell_angle_alpha   59.74818922
_cell_angle_beta   59.74818627
_cell_angle_gamma   59.74820228
_symmetry_Int_Tables_number   1
_chemical_formula_structural   Zr10Ti3Al9RuRh7
_chemical_formula_sum   'Zr10 Ti3 Al9 Ru1 Rh7'
_cell_volume   527.08206813
_cell_formula_units_Z   1
loop_
 _symmetry_equiv_pos_site_id
 _symmetry_equiv_pos_as_xyz
  1  'x, y, z'
loop_
 _atom_site_type_symbol
 _atom_site_label
 _atom_site_symmetry_multiplicity
 _atom_site_fract_x
 _atom_site_fract_y
 _atom_site_fract_z
 _atom_site_occupancy
  Zr  Zr0  1  0.205736  0.205736  0.793695  1
  Zr  Zr1  1  0.793695  0.205736  0.205736  1
  Zr  Zr2  1  0.205736  0.793695  0.205736  1
  Zr  Zr3  1  0.799317  0.799317  0.189932  1
  Zr  Zr4  1  0.189932  0.799317  0.799317  1
  Zr  Zr5  1  0.799317  0.189932  0.799317  1
  Zr  Zr6  1  0.378922  0.378922  0.378922  1
  Zr  Zr7  1  0.379721  0.863964  0.379721  1
  Zr  Zr8  1  0.863964  0.379721  0.379721  1
  Zr  Zr9  1  0.379721  0.379721  0.863964  1
  Ti  Ti10  1  0.836989  0.494747  0.836989  1
  Ti  Ti11  1  0.494747  0.836989  0.836989  1
  Ti  Ti12  1  0.836989  0.836989  0.494747  1
  Al  Al13  1  0.158346  0.158346  0.158346  1
  Al  Al14  1  0.162112  0.516741  0.162112  1
  Al  Al15  1  0.516741  0.162112  0.162112  1
  Al  Al16  1  0.162112  0.162112  0.516741  1
  Al  Al17  1  0.621321  0.621321  0.621321  1
  Al  Al18  1  0.620833  0.138601  0.620833  1
  Al  Al19  1  0.138601  0.620833  0.620833  1
  Al  Al20  1  0.620833  0.620833  0.138601  1
  Al  Al21  1  0.827081  0.827081  0.827081  1
  Ru  Ru22  1  0.002057  0.002057  0.002057  1
  Rh  Rh23  1  0.000904  0.000904  0.499509  1
  Rh  Rh24  1  0.499509  0.000904  0.000904  1
  Rh  Rh25  1  0.000904  0.499509  0.000904  1
  Rh  Rh26  1  0.502032  0.502032  0.999273  1
  Rh  Rh27  1  0.999273  0.502032  0.502032  1
  Rh  Rh28  1  0.502032  0.999273  0.502032  1
  Rh  Rh29  1  0.500517  0.500517  0.500517  1
