# generated using pymatgen
data_Ho3Er5Cd2NiIr
_symmetry_space_group_name_H-M   'P 1'
_cell_length_a   9.52349300
_cell_length_b   9.52349284
_cell_length_c   9.57866000
_cell_angle_alpha   59.80819880
_cell_angle_beta   59.80819936
_cell_angle_gamma   59.56138049
_symmetry_Int_Tables_number   1
_chemical_formula_structural   Ho3Er5Cd2NiIr
_chemical_formula_sum   'Ho6 Er10 Cd4 Ni2 Ir2'
_cell_volume   610.47113864
_cell_formula_units_Z   2
loop_
 _symmetry_equiv_pos_site_id
 _symmetry_equiv_pos_as_xyz
  1  'x, y, z'
loop_
 _atom_site_type_symbol
 _atom_site_label
 _atom_site_symmetry_multiplicity
 _atom_site_fract_x
 _atom_site_fract_y
 _atom_site_fract_z
 _atom_site_occupancy
  Ho  Ho0  1  0.937445  0.560758  0.566083  1
  Ho  Ho1  1  0.560758  0.937445  0.935713  1
  Ho  Ho2  1  0.560758  0.937445  0.566083  1
  Ho  Ho3  1  0.937445  0.560758  0.935713  1
  Ho  Ho4  1  0.565712  0.565712  0.934288  1
  Ho  Ho5  1  0.939361  0.939361  0.560639  1
  Er  Er6  1  0.350390  0.350390  0.343866  1
  Er  Er7  1  0.350390  0.350390  0.955354  1
  Er  Er8  1  0.353867  0.951854  0.347138  1
  Er  Er9  1  0.951854  0.353867  0.347138  1
  Er  Er10  1  0.809167  0.186960  0.190544  1
  Er  Er11  1  0.186960  0.809167  0.813327  1
  Er  Er12  1  0.186960  0.809167  0.190544  1
  Er  Er13  1  0.809167  0.186960  0.813327  1
  Er  Er14  1  0.188825  0.188825  0.811175  1
  Er  Er15  1  0.811442  0.811442  0.188558  1
  Cd  Cd16  1  0.579731  0.579731  0.582955  1
  Cd  Cd17  1  0.579731  0.579731  0.257584  1
  Cd  Cd18  1  0.579848  0.255494  0.582329  1
  Cd  Cd19  1  0.255494  0.579848  0.582329  1
  Ni  Ni20  1  0.142758  0.576142  0.140550  1
  Ni  Ni21  1  0.576142  0.142758  0.140550  1
  Ir  Ir22  1  0.142896  0.142896  0.141714  1
  Ir  Ir23  1  0.142896  0.142896  0.572494  1
