# generated using pymatgen
data_Tm2Al2Ga7Ir3
_symmetry_space_group_name_H-M   'P 1'
_cell_length_a   7.54904008
_cell_length_b   7.54904091
_cell_length_c   9.48445400
_cell_angle_alpha   90.00000000
_cell_angle_beta   90.00000000
_cell_angle_gamma   119.79823442
_symmetry_Int_Tables_number   1
_chemical_formula_structural   Tm2Al2Ga7Ir3
_chemical_formula_sum   'Tm4 Al4 Ga14 Ir6'
_cell_volume   469.03566327
_cell_formula_units_Z   2
loop_
 _symmetry_equiv_pos_site_id
 _symmetry_equiv_pos_as_xyz
  1  'x, y, z'
loop_
 _atom_site_type_symbol
 _atom_site_label
 _atom_site_symmetry_multiplicity
 _atom_site_fract_x
 _atom_site_fract_y
 _atom_site_fract_z
 _atom_site_occupancy
  Tm  Tm0  1  0.000474  0.669201  0.250000  1
  Tm  Tm1  1  0.999526  0.330799  0.750000  1
  Tm  Tm2  1  0.669201  0.000474  0.250000  1
  Tm  Tm3  1  0.330799  0.999526  0.750000  1
  Al  Al4  1  0.331875  0.331875  0.554275  1
  Al  Al5  1  0.668125  0.668125  0.445725  1
  Al  Al6  1  0.668125  0.668125  0.054275  1
  Al  Al7  1  0.331875  0.331875  0.945725  1
  Ga  Ga8  1  0.126158  0.126158  0.250000  1
  Ga  Ga9  1  0.873842  0.873842  0.750000  1
  Ga  Ga10  1  0.999900  0.334991  0.079508  1
  Ga  Ga11  1  0.000100  0.665009  0.920492  1
  Ga  Ga12  1  0.000100  0.665009  0.579508  1
  Ga  Ga13  1  0.334991  0.999900  0.420492  1
  Ga  Ga14  1  0.999900  0.334991  0.420492  1
  Ga  Ga15  1  0.665009  0.000100  0.579508  1
  Ga  Ga16  1  0.665009  0.000100  0.920492  1
  Ga  Ga17  1  0.334991  0.999900  0.079508  1
  Ga  Ga18  1  0.345622  0.549334  0.250000  1
  Ga  Ga19  1  0.654378  0.450666  0.750000  1
  Ga  Ga20  1  0.549334  0.345622  0.250000  1
  Ga  Ga21  1  0.450666  0.654378  0.750000  1
  Ir  Ir22  1  0.669622  0.330378  0.000000  1
  Ir  Ir23  1  0.330378  0.669622  0.000000  1
  Ir  Ir24  1  0.330378  0.669622  0.500000  1
  Ir  Ir25  1  0.669622  0.330378  0.500000  1
  Ir  Ir26  1  0.000000  0.000000  0.000000  1
  Ir  Ir27  1  0.000000  0.000000  0.500000  1
