# generated using pymatgen
data_SrAc(CoO2)6
_symmetry_space_group_name_H-M   'P 1'
_cell_length_a   4.94115300
_cell_length_b   5.90043675
_cell_length_c   8.54666600
_cell_angle_alpha   89.99996116
_cell_angle_beta   90.00044063
_cell_angle_gamma   74.06675929
_symmetry_Int_Tables_number   1
_chemical_formula_structural   SrAc(CoO2)6
_chemical_formula_sum   'Sr1 Ac1 Co6 O12'
_cell_volume   239.60485433
_cell_formula_units_Z   1
loop_
 _symmetry_equiv_pos_site_id
 _symmetry_equiv_pos_as_xyz
  1  'x, y, z'
loop_
 _atom_site_type_symbol
 _atom_site_label
 _atom_site_symmetry_multiplicity
 _atom_site_fract_x
 _atom_site_fract_y
 _atom_site_fract_z
 _atom_site_occupancy
  Sr  Sr0  1  0.000002  0.500001  0.166693  1
  Ac  Ac1  1  0.499999  0.500000  0.666670  1
  Co  Co2  1  0.500000  0.000001  0.166661  1
  Co  Co3  1  0.500001  0.999999  0.835080  1
  Co  Co4  1  0.499999  0.000001  0.498244  1
  Co  Co5  1  0.000000  0.000000  0.666664  1
  Co  Co6  1  0.999999  0.000002  0.333404  1
  Co  Co7  1  0.000001  0.999999  0.999931  1
  O  O8  1  0.772341  0.171792  0.166666  1
  O  O9  1  0.272811  0.175884  0.666673  1
  O  O10  1  0.227659  0.828210  0.166669  1
  O  O11  1  0.727189  0.824115  0.666673  1
  O  O12  1  0.278765  0.173534  0.001582  1
  O  O13  1  0.776468  0.176841  0.498436  1
  O  O14  1  0.278766  0.173524  0.331745  1
  O  O15  1  0.776477  0.176834  0.834891  1
  O  O16  1  0.721232  0.826480  0.331745  1
  O  O17  1  0.223524  0.823164  0.834892  1
  O  O18  1  0.721238  0.826464  0.001583  1
  O  O19  1  0.223530  0.823161  0.498436  1
