# generated using pymatgen
data_Sm6TmFeI12
_symmetry_space_group_name_H-M   'P 1'
_cell_length_a   9.91104702
_cell_length_b   9.82628744
_cell_length_c   9.91750656
_cell_angle_alpha   106.81070238
_cell_angle_beta   106.80907343
_cell_angle_gamma   106.87146460
_symmetry_Int_Tables_number   1
_chemical_formula_structural   Sm6TmFeI12
_chemical_formula_sum   'Sm6 Tm1 Fe1 I12'
_cell_volume   808.06449373
_cell_formula_units_Z   1
loop_
 _symmetry_equiv_pos_site_id
 _symmetry_equiv_pos_as_xyz
  1  'x, y, z'
loop_
 _atom_site_type_symbol
 _atom_site_label
 _atom_site_symmetry_multiplicity
 _atom_site_fract_x
 _atom_site_fract_y
 _atom_site_fract_z
 _atom_site_occupancy
  Sm  Sm0  1  0.978699  0.906009  0.704364  1
  Sm  Sm1  1  0.498816  0.500313  0.499718  1
  Sm  Sm2  1  0.087812  0.280632  0.020774  1
  Sm  Sm3  1  0.297262  0.021443  0.094822  1
  Sm  Sm4  1  0.909046  0.719158  0.978432  1
  Sm  Sm5  1  0.021074  0.093947  0.295470  1
  Tm  Tm6  1  0.715439  0.979173  0.908607  1
  Fe  Fe7  1  0.000555  0.999646  0.000081  1
  I  I8  1  0.073110  0.228610  0.681287  1
  I  I9  1  0.384783  0.158039  0.463385  1
  I  I10  1  0.615214  0.845451  0.544488  1
  I  I11  1  0.223097  0.679059  0.071239  1
  I  I12  1  0.769591  0.311301  0.926742  1
  I  I13  1  0.677223  0.069385  0.217299  1
  I  I14  1  0.539640  0.622533  0.841905  1
  I  I15  1  0.839605  0.536727  0.616397  1
  I  I16  1  0.925751  0.771249  0.318482  1
  I  I17  1  0.324636  0.928896  0.774857  1
  I  I18  1  0.460271  0.385519  0.158303  1
  I  I19  1  0.158375  0.462911  0.383346  1
