# generated using pymatgen
data_Sm2Ho8Tl7InPt4
_symmetry_space_group_name_H-M   'P 1'
_cell_length_a   3.63146100
_cell_length_b   8.23681166
_cell_length_c   18.46437997
_cell_angle_alpha   89.79803292
_cell_angle_beta   90.00000000
_cell_angle_gamma   90.00000000
_symmetry_Int_Tables_number   1
_chemical_formula_structural   Sm2Ho8Tl7InPt4
_chemical_formula_sum   'Sm2 Ho8 Tl7 In1 Pt4'
_cell_volume   552.29683041
_cell_formula_units_Z   1
loop_
 _symmetry_equiv_pos_site_id
 _symmetry_equiv_pos_as_xyz
  1  'x, y, z'
loop_
 _atom_site_type_symbol
 _atom_site_label
 _atom_site_symmetry_multiplicity
 _atom_site_fract_x
 _atom_site_fract_y
 _atom_site_fract_z
 _atom_site_occupancy
  Sm  Sm0  1  0.000000  0.999990  0.000158  1
  Sm  Sm1  1  0.000000  0.502649  0.499694  1
  Ho  Ho2  1  0.000000  0.116882  0.412010  1
  Ho  Ho3  1  0.000000  0.883054  0.587079  1
  Ho  Ho4  1  0.000000  0.383126  0.911431  1
  Ho  Ho5  1  0.000000  0.616814  0.088651  1
  Ho  Ho6  1  0.000000  0.242845  0.219739  1
  Ho  Ho7  1  0.000000  0.757401  0.780732  1
  Ho  Ho8  1  0.000000  0.256350  0.718814  1
  Ho  Ho9  1  0.000000  0.742252  0.281272  1
  Tl  Tl10  1  0.500000  0.421857  0.351478  1
  Tl  Tl11  1  0.500000  0.581039  0.649062  1
  Tl  Tl12  1  0.500000  0.080019  0.850700  1
  Tl  Tl13  1  0.500000  0.920251  0.149663  1
  Tl  Tl14  1  0.500000  0.297883  0.064995  1
  Tl  Tl15  1  0.500000  0.701878  0.935215  1
  Tl  Tl16  1  0.500000  0.202590  0.564539  1
  In  In17  1  0.500000  0.799354  0.433713  1
  Pt  Pt18  1  0.500000  0.022758  0.304095  1
  Pt  Pt19  1  0.500000  0.972291  0.696884  1
  Pt  Pt20  1  0.500000  0.472869  0.802441  1
  Pt  Pt21  1  0.500000  0.525851  0.197635  1
