# generated using pymatgen
data_Th4Re15Si8Mo
_symmetry_space_group_name_H-M   'P 1'
_cell_length_a   4.18226700
_cell_length_b   7.27165206
_cell_length_c   15.71423613
_cell_angle_alpha   89.98545951
_cell_angle_beta   90.00000000
_cell_angle_gamma   90.00000000
_symmetry_Int_Tables_number   1
_chemical_formula_structural   Th4Re15Si8Mo
_chemical_formula_sum   'Th4 Re15 Si8 Mo1'
_cell_volume   477.90118346
_cell_formula_units_Z   1
loop_
 _symmetry_equiv_pos_site_id
 _symmetry_equiv_pos_as_xyz
  1  'x, y, z'
loop_
 _atom_site_type_symbol
 _atom_site_label
 _atom_site_symmetry_multiplicity
 _atom_site_fract_x
 _atom_site_fract_y
 _atom_site_fract_z
 _atom_site_occupancy
  Th  Th0  1  0.000000  0.588164  0.117685  1
  Th  Th1  1  0.000000  0.414889  0.881751  1
  Th  Th2  1  0.500000  0.085428  0.382248  1
  Th  Th3  1  0.500000  0.914406  0.618028  1
  Re  Re4  1  0.000000  0.857322  0.948033  1
  Re  Re5  1  0.500000  0.641715  0.449201  1
  Re  Re6  1  0.500000  0.357930  0.550920  1
  Re  Re7  1  0.000000  0.738757  0.321591  1
  Re  Re8  1  0.000000  0.261623  0.678513  1
  Re  Re9  1  0.500000  0.237844  0.179456  1
  Re  Re10  1  0.500000  0.761489  0.820957  1
  Re  Re11  1  0.000000  0.429466  0.419625  1
  Re  Re12  1  0.000000  0.570566  0.580449  1
  Re  Re13  1  0.500000  0.929312  0.080684  1
  Re  Re14  1  0.500000  0.069264  0.918844  1
  Re  Re15  1  0.000000  0.997419  0.206741  1
  Re  Re16  1  0.000000  0.002401  0.793962  1
  Re  Re17  1  0.500000  0.497231  0.294185  1
  Re  Re18  1  0.500000  0.502976  0.705882  1
  Si  Si19  1  0.000000  0.828818  0.475061  1
  Si  Si20  1  0.000000  0.171270  0.524981  1
  Si  Si21  1  0.500000  0.330744  0.024587  1
  Si  Si22  1  0.500000  0.671115  0.974916  1
  Si  Si23  1  0.000000  0.302194  0.272837  1
  Si  Si24  1  0.000000  0.697774  0.726964  1
  Si  Si25  1  0.500000  0.802059  0.227358  1
  Si  Si26  1  0.500000  0.198329  0.772768  1
  Mo  Mo27  1  0.000000  0.139494  0.051771  1
