# generated using pymatgen
data_LiZr2(Co3B2)3
_symmetry_space_group_name_H-M   'P 1'
_cell_length_a   5.68534476
_cell_length_b   5.68534572
_cell_length_c   5.68534548
_cell_angle_alpha   95.67884308
_cell_angle_beta   95.67884073
_cell_angle_gamma   95.67885097
_symmetry_Int_Tables_number   1
_chemical_formula_structural   LiZr2(Co3B2)3
_chemical_formula_sum   'Li1 Zr2 Co9 B6'
_cell_volume   180.86827357
_cell_formula_units_Z   1
loop_
 _symmetry_equiv_pos_site_id
 _symmetry_equiv_pos_as_xyz
  1  'x, y, z'
loop_
 _atom_site_type_symbol
 _atom_site_label
 _atom_site_symmetry_multiplicity
 _atom_site_fract_x
 _atom_site_fract_y
 _atom_site_fract_z
 _atom_site_occupancy
  Li  Li0  1  0.000000  0.000000  0.000000  1
  Zr  Zr1  1  0.681399  0.681399  0.681399  1
  Zr  Zr2  1  0.318601  0.318601  0.318601  1
  Co  Co3  1  0.000000  0.000000  0.500000  1
  Co  Co4  1  0.500000  0.000000  0.000000  1
  Co  Co5  1  0.000000  0.500000  0.000000  1
  Co  Co6  1  0.702219  0.200899  0.702219  1
  Co  Co7  1  0.702219  0.702219  0.200899  1
  Co  Co8  1  0.200899  0.702219  0.702219  1
  Co  Co9  1  0.297781  0.799101  0.297781  1
  Co  Co10  1  0.297781  0.297781  0.799101  1
  Co  Co11  1  0.799101  0.297781  0.297781  1
  B  B12  1  0.617395  0.382605  0.000000  1
  B  B13  1  0.000000  0.617395  0.382605  1
  B  B14  1  0.382605  0.000000  0.617395  1
  B  B15  1  0.000000  0.382605  0.617395  1
  B  B16  1  0.617395  0.000000  0.382605  1
  B  B17  1  0.382605  0.617395  0.000000  1
