# generated using pymatgen
data_Dy5HfZrP12Ir17
_symmetry_space_group_name_H-M   'P 1'
_cell_length_a   12.65789436
_cell_length_b   12.88815931
_cell_length_c   3.98480200
_cell_angle_alpha   90.00000000
_cell_angle_beta   90.00000000
_cell_angle_gamma   119.38328605
_symmetry_Int_Tables_number   1
_chemical_formula_structural   Dy5HfZrP12Ir17
_chemical_formula_sum   'Dy5 Hf1 Zr1 P12 Ir17'
_cell_volume   566.44170623
_cell_formula_units_Z   1
loop_
 _symmetry_equiv_pos_site_id
 _symmetry_equiv_pos_as_xyz
  1  'x, y, z'
loop_
 _atom_site_type_symbol
 _atom_site_label
 _atom_site_symmetry_multiplicity
 _atom_site_fract_x
 _atom_site_fract_y
 _atom_site_fract_z
 _atom_site_occupancy
  Dy  Dy0  1  0.330212  0.661548  0.500000  1
  Dy  Dy1  1  0.668562  0.338409  0.500000  1
  Dy  Dy2  1  0.000074  0.815307  0.000000  1
  Dy  Dy3  1  0.184831  0.184523  0.000000  1
  Dy  Dy4  1  0.812975  0.999851  0.000000  1
  Hf  Hf5  1  0.550722  0.553226  0.500000  1
  Zr  Zr6  1  0.997656  0.447327  0.500000  1
  P  P7  1  0.005429  0.651131  0.500000  1
  P  P8  1  0.354821  0.349140  0.500000  1
  P  P9  1  0.645096  0.999809  0.500000  1
  P  P10  1  0.515025  0.686124  0.000000  1
  P  P11  1  0.309892  0.825173  0.000000  1
  P  P12  1  0.165147  0.481104  0.000000  1
  P  P13  1  0.484668  0.175115  0.000000  1
  P  P14  1  0.683103  0.518954  0.000000  1
  P  P15  1  0.828414  0.313691  0.000000  1
  P  P16  1  0.999472  0.174217  0.500000  1
  P  P17  1  0.825478  0.826062  0.500000  1
  P  P18  1  0.181689  0.000071  0.500000  1
  Ir  Ir19  1  0.505020  0.864511  0.000000  1
  Ir  Ir20  1  0.128066  0.644133  0.000000  1
  Ir  Ir21  1  0.356399  0.495971  0.000000  1
  Ir  Ir22  1  0.484236  0.357208  0.000000  1
  Ir  Ir23  1  0.859101  0.504642  0.000000  1
  Ir  Ir24  1  0.640101  0.135159  0.000000  1
  Ir  Ir25  1  0.464857  0.999893  0.500000  1
  Ir  Ir26  1  0.996836  0.277559  0.000000  1
  Ir  Ir27  1  0.717385  0.720507  0.000000  1
  Ir  Ir28  1  0.290340  0.000113  0.000000  1
  Ir  Ir29  1  0.623935  0.807593  0.500000  1
  Ir  Ir30  1  0.204018  0.825857  0.500000  1
  Ir  Ir31  1  0.178215  0.366486  0.500000  1
  Ir  Ir32  1  0.378562  0.174630  0.500000  1
  Ir  Ir33  1  0.810309  0.633410  0.500000  1
  Ir  Ir34  1  0.815637  0.191460  0.500000  1
  Ir  Ir35  1  0.003717  0.000084  0.500000  1
