# generated using pymatgen
data_LaPr5(Ir5Rh)3
_symmetry_space_group_name_H-M   'P 1'
_cell_length_a   5.39377800
_cell_length_b   5.39377683
_cell_length_c   17.68984600
_cell_angle_alpha   90.00000000
_cell_angle_beta   90.00000000
_cell_angle_gamma   119.99999489
_symmetry_Int_Tables_number   1
_chemical_formula_structural   LaPr5(Ir5Rh)3
_chemical_formula_sum   'La1 Pr5 Ir15 Rh3'
_cell_volume   445.69806371
_cell_formula_units_Z   1
loop_
 _symmetry_equiv_pos_site_id
 _symmetry_equiv_pos_as_xyz
  1  'x, y, z'
loop_
 _atom_site_type_symbol
 _atom_site_label
 _atom_site_symmetry_multiplicity
 _atom_site_fract_x
 _atom_site_fract_y
 _atom_site_fract_z
 _atom_site_occupancy
  La  La0  1  0.333333  0.666667  0.750000  1
  Pr  Pr1  1  0.333333  0.666667  0.541362  1
  Pr  Pr2  1  0.666667  0.333333  0.041226  1
  Pr  Pr3  1  0.666667  0.333333  0.458774  1
  Pr  Pr4  1  0.333333  0.666667  0.958638  1
  Pr  Pr5  1  0.666667  0.333333  0.250000  1
  Ir  Ir6  1  0.166612  0.333223  0.128106  1
  Ir  Ir7  1  0.833311  0.666624  0.627523  1
  Ir  Ir8  1  0.666777  0.833388  0.128106  1
  Ir  Ir9  1  0.166612  0.833388  0.128106  1
  Ir  Ir10  1  0.833311  0.166689  0.627523  1
  Ir  Ir11  1  0.333376  0.166689  0.627523  1
  Ir  Ir12  1  0.833311  0.666624  0.872477  1
  Ir  Ir13  1  0.833311  0.166689  0.872477  1
  Ir  Ir14  1  0.333376  0.166689  0.872477  1
  Ir  Ir15  1  0.666777  0.833388  0.371894  1
  Ir  Ir16  1  0.166612  0.833388  0.371894  1
  Ir  Ir17  1  0.166612  0.333223  0.371894  1
  Ir  Ir18  1  0.000000  0.000000  0.250000  1
  Ir  Ir19  1  0.000000  0.000000  0.999895  1
  Ir  Ir20  1  0.000000  0.000000  0.500105  1
  Rh  Rh21  1  0.000000  0.000000  0.750000  1
  Rh  Rh22  1  0.333333  0.666667  0.250000  1
  Rh  Rh23  1  0.666667  0.333333  0.750000  1
