# generated using pymatgen
data_LiTb3Ga(SiAg)2
_symmetry_space_group_name_H-M   'P 1'
_cell_length_a   7.15628989
_cell_length_b   7.11792751
_cell_length_c   4.19729900
_cell_angle_alpha   90.00000000
_cell_angle_beta   90.00000000
_cell_angle_gamma   119.82283747
_symmetry_Int_Tables_number   1
_chemical_formula_structural   LiTb3Ga(SiAg)2
_chemical_formula_sum   'Li1 Tb3 Ga1 Si2 Ag2'
_cell_volume   185.48746490
_cell_formula_units_Z   1
loop_
 _symmetry_equiv_pos_site_id
 _symmetry_equiv_pos_as_xyz
  1  'x, y, z'
loop_
 _atom_site_type_symbol
 _atom_site_label
 _atom_site_symmetry_multiplicity
 _atom_site_fract_x
 _atom_site_fract_y
 _atom_site_fract_z
 _atom_site_occupancy
  Li  Li0  1  0.000000  0.240475  0.500000  1
  Tb  Tb1  1  0.426056  0.425142  0.000000  1
  Tb  Tb2  1  0.573944  0.999086  0.000000  1
  Tb  Tb3  1  0.000000  0.575845  0.000000  1
  Ga  Ga4  1  0.000000  0.009625  0.000000  1
  Si  Si5  1  0.670734  0.333742  0.500000  1
  Si  Si6  1  0.329266  0.663010  0.500000  1
  Ag  Ag7  1  0.750648  0.751860  0.500000  1
  Ag  Ag8  1  0.249352  0.001212  0.500000  1
