# generated using pymatgen
data_Y2Ho2Se3N2
_symmetry_space_group_name_H-M   'P 1'
_cell_length_a   6.95444727
_cell_length_b   6.95444702
_cell_length_c   10.26591243
_cell_angle_alpha   52.26319859
_cell_angle_beta   52.26319859
_cell_angle_gamma   32.80167934
_symmetry_Int_Tables_number   1
_chemical_formula_structural   Y2Ho2Se3N2
_chemical_formula_sum   'Y2 Ho2 Se3 N2'
_cell_volume   207.11969541
_cell_formula_units_Z   1
loop_
 _symmetry_equiv_pos_site_id
 _symmetry_equiv_pos_as_xyz
  1  'x, y, z'
loop_
 _atom_site_type_symbol
 _atom_site_label
 _atom_site_symmetry_multiplicity
 _atom_site_fract_x
 _atom_site_fract_y
 _atom_site_fract_z
 _atom_site_occupancy
  Y  Y0  1  0.558829  0.558829  0.151376  1
  Y  Y1  1  0.441171  0.441171  0.848624  1
  Ho  Ho2  1  0.240922  0.240922  0.640389  1
  Ho  Ho3  1  0.759077  0.759078  0.359611  1
  Se  Se4  1  0.000000  0.000000  0.000000  1
  Se  Se5  1  0.831343  0.831343  0.772938  1
  Se  Se6  1  0.168657  0.168657  0.227062  1
  N  N7  1  0.352169  0.352169  0.362876  1
  N  N8  1  0.647831  0.647831  0.637124  1
