# generated using pymatgen
data_LiDy8Er8Cd3Pt4
_symmetry_space_group_name_H-M   'P 1'
_cell_length_a   9.65236285
_cell_length_b   9.65236325
_cell_length_c   9.65856388
_cell_angle_alpha   59.88218981
_cell_angle_beta   59.88218726
_cell_angle_gamma   59.96511706
_symmetry_Int_Tables_number   1
_chemical_formula_structural   LiDy8Er8Cd3Pt4
_chemical_formula_sum   'Li1 Dy8 Er8 Cd3 Pt4'
_cell_volume   635.00184274
_cell_formula_units_Z   1
loop_
 _symmetry_equiv_pos_site_id
 _symmetry_equiv_pos_as_xyz
  1  'x, y, z'
loop_
 _atom_site_type_symbol
 _atom_site_label
 _atom_site_symmetry_multiplicity
 _atom_site_fract_x
 _atom_site_fract_y
 _atom_site_fract_z
 _atom_site_occupancy
  Li  Li0  1  0.571778  0.571778  0.572204  1
  Dy  Dy1  1  0.191512  0.191512  0.810056  1
  Dy  Dy2  1  0.812881  0.812881  0.187225  1
  Dy  Dy3  1  0.936364  0.564762  0.564682  1
  Dy  Dy4  1  0.562998  0.936254  0.936415  1
  Dy  Dy5  1  0.564762  0.936364  0.564682  1
  Dy  Dy6  1  0.936254  0.562997  0.936415  1
  Dy  Dy7  1  0.564775  0.564775  0.935874  1
  Dy  Dy8  1  0.936345  0.936345  0.562954  1
  Er  Er9  1  0.351391  0.351391  0.350930  1
  Er  Er10  1  0.351804  0.351804  0.945652  1
  Er  Er11  1  0.351273  0.945599  0.351967  1
  Er  Er12  1  0.945599  0.351273  0.351967  1
  Er  Er13  1  0.809522  0.192107  0.191935  1
  Er  Er14  1  0.187497  0.812362  0.812261  1
  Er  Er15  1  0.192107  0.809522  0.191935  1
  Er  Er16  1  0.812362  0.187497  0.812261  1
  Cd  Cd17  1  0.582327  0.582327  0.254670  1
  Cd  Cd18  1  0.582701  0.254698  0.582400  1
  Cd  Cd19  1  0.254698  0.582701  0.582400  1
  Pt  Pt20  1  0.143224  0.143224  0.144597  1
  Pt  Pt21  1  0.142928  0.142928  0.570588  1
  Pt  Pt22  1  0.144325  0.570571  0.142964  1
  Pt  Pt23  1  0.570571  0.144325  0.142964  1
