# generated using pymatgen
data_Y4TmOs2
_symmetry_space_group_name_H-M   'P 1'
_cell_length_a   6.37502769
_cell_length_b   7.36867980
_cell_length_c   8.45434972
_cell_angle_alpha   96.73721101
_cell_angle_beta   112.14961207
_cell_angle_gamma   90.00000074
_symmetry_Int_Tables_number   1
_chemical_formula_structural   Y4TmOs2
_chemical_formula_sum   'Y8 Tm2 Os4'
_cell_volume   364.87647347
_cell_formula_units_Z   2
loop_
 _symmetry_equiv_pos_site_id
 _symmetry_equiv_pos_as_xyz
  1  'x, y, z'
loop_
 _atom_site_type_symbol
 _atom_site_label
 _atom_site_symmetry_multiplicity
 _atom_site_fract_x
 _atom_site_fract_y
 _atom_site_fract_z
 _atom_site_occupancy
  Y  Y0  1  0.792251  0.083174  0.817501  1
  Y  Y1  1  0.974750  0.416826  0.182499  1
  Y  Y2  1  0.207749  0.916826  0.182499  1
  Y  Y3  1  0.025250  0.583174  0.817501  1
  Y  Y4  1  0.203889  0.182656  0.565261  1
  Y  Y5  1  0.638628  0.317344  0.434739  1
  Y  Y6  1  0.796111  0.817344  0.434739  1
  Y  Y7  1  0.361372  0.682656  0.565261  1
  Tm  Tm8  1  0.422242  0.250000  0.000000  1
  Tm  Tm9  1  0.577758  0.750000  0.000000  1
  Os  Os10  1  0.601300  0.423441  0.784473  1
  Os  Os11  1  0.816826  0.076559  0.215527  1
  Os  Os12  1  0.398700  0.576559  0.215527  1
  Os  Os13  1  0.183174  0.923441  0.784473  1
