# generated using pymatgen
data_CsRb3(AlI4)4
_symmetry_space_group_name_H-M   'P 1'
_cell_length_a   8.38441437
_cell_length_b   9.00472967
_cell_length_c   17.00945134
_cell_angle_alpha   85.62151935
_cell_angle_beta   89.74330789
_cell_angle_gamma   90.03766360
_symmetry_Int_Tables_number   1
_chemical_formula_structural   CsRb3(AlI4)4
_chemical_formula_sum   'Cs1 Rb3 Al4 I16'
_cell_volume   1280.44166758
_cell_formula_units_Z   1
loop_
 _symmetry_equiv_pos_site_id
 _symmetry_equiv_pos_as_xyz
  1  'x, y, z'
loop_
 _atom_site_type_symbol
 _atom_site_label
 _atom_site_symmetry_multiplicity
 _atom_site_fract_x
 _atom_site_fract_y
 _atom_site_fract_z
 _atom_site_occupancy
  Cs  Cs0  1  0.994931  0.257620  0.140949  1
  Rb  Rb1  1  0.502955  0.256889  0.639878  1
  Rb  Rb2  1  0.003208  0.743248  0.859821  1
  Rb  Rb3  1  0.497178  0.742977  0.360218  1
  Al  Al4  1  0.358613  0.246731  0.361340  1
  Al  Al5  1  0.855151  0.752791  0.139333  1
  Al  Al6  1  0.642576  0.753422  0.639197  1
  Al  Al7  1  0.143875  0.246914  0.859950  1
  I  I8  1  0.870811  0.146439  0.907713  1
  I  I9  1  0.370677  0.854084  0.592145  1
  I  I10  1  0.130174  0.847428  0.091689  1
  I  I11  1  0.630369  0.145397  0.408179  1
  I  I12  1  0.395955  0.405686  0.230386  1
  I  I13  1  0.890932  0.599844  0.272010  1
  I  I14  1  0.608995  0.596136  0.770820  1
  I  I15  1  0.108302  0.404109  0.728576  1
  I  I16  1  0.655440  0.962791  0.159115  1
  I  I17  1  0.163433  0.031974  0.342601  1
  I  I18  1  0.338247  0.032014  0.841285  1
  I  I19  1  0.838150  0.967199  0.658794  1
  I  I20  1  0.242261  0.413761  0.463467  1
  I  I21  1  0.739914  0.590399  0.035273  1
  I  I22  1  0.757097  0.586241  0.536646  1
  I  I23  1  0.260755  0.415904  0.960616  1
