# generated using pymatgen
data_Hf8ScMo3PW
_symmetry_space_group_name_H-M   'P 1'
_cell_length_a   8.68219189
_cell_length_b   8.67536930
_cell_length_c   8.63259700
_cell_angle_alpha   90.00000000
_cell_angle_beta   90.00000000
_cell_angle_gamma   119.97401490
_symmetry_Int_Tables_number   1
_chemical_formula_structural   Hf8ScMo3PW
_chemical_formula_sum   'Hf16 Sc2 Mo6 P2 W2'
_cell_volume   563.25247379
_cell_formula_units_Z   2
loop_
 _symmetry_equiv_pos_site_id
 _symmetry_equiv_pos_as_xyz
  1  'x, y, z'
loop_
 _atom_site_type_symbol
 _atom_site_label
 _atom_site_symmetry_multiplicity
 _atom_site_fract_x
 _atom_site_fract_y
 _atom_site_fract_z
 _atom_site_occupancy
  Hf  Hf0  1  0.197538  0.802957  0.453162  1
  Hf  Hf1  1  0.197538  0.394581  0.453162  1
  Hf  Hf2  1  0.604205  0.802102  0.453568  1
  Hf  Hf3  1  0.802847  0.197227  0.548232  1
  Hf  Hf4  1  0.802847  0.605620  0.548232  1
  Hf  Hf5  1  0.394119  0.197059  0.549215  1
  Hf  Hf6  1  0.802847  0.197227  0.951768  1
  Hf  Hf7  1  0.802847  0.605620  0.951768  1
  Hf  Hf8  1  0.394119  0.197059  0.950785  1
  Hf  Hf9  1  0.197538  0.802957  0.046838  1
  Hf  Hf10  1  0.197538  0.394581  0.046838  1
  Hf  Hf11  1  0.604205  0.802102  0.046432  1
  Hf  Hf12  1  0.925412  0.462706  0.250000  1
  Hf  Hf13  1  0.458499  0.541004  0.750000  1
  Hf  Hf14  1  0.458499  0.917495  0.750000  1
  Hf  Hf15  1  0.081401  0.540700  0.750000  1
  Sc  Sc16  1  0.540204  0.460276  0.250000  1
  Sc  Sc17  1  0.540204  0.079928  0.250000  1
  Mo  Mo18  1  0.889384  0.111378  0.250000  1
  Mo  Mo19  1  0.889384  0.778005  0.250000  1
  Mo  Mo20  1  0.221306  0.110652  0.250000  1
  Mo  Mo21  1  0.110342  0.889646  0.750000  1
  Mo  Mo22  1  0.110342  0.220696  0.750000  1
  Mo  Mo23  1  0.779160  0.889581  0.750000  1
  P  P24  1  0.330280  0.665140  0.250000  1
  P  P25  1  0.667178  0.333589  0.750000  1
  W  W26  1  0.000111  0.000055  0.497280  1
  W  W27  1  0.000111  0.000055  0.002720  1
