# generated using pymatgen
data_Rb4Na2YInAs4
_symmetry_space_group_name_H-M   'P 1'
_cell_length_a   10.69301112
_cell_length_b   10.69709816
_cell_length_c   6.98242500
_cell_angle_alpha   90.00000000
_cell_angle_beta   90.00000000
_cell_angle_gamma   100.56425378
_symmetry_Int_Tables_number   1
_chemical_formula_structural   Rb4Na2YInAs4
_chemical_formula_sum   'Rb8 Na4 Y2 In2 As8'
_cell_volume   785.14135369
_cell_formula_units_Z   2
loop_
 _symmetry_equiv_pos_site_id
 _symmetry_equiv_pos_as_xyz
  1  'x, y, z'
loop_
 _atom_site_type_symbol
 _atom_site_label
 _atom_site_symmetry_multiplicity
 _atom_site_fract_x
 _atom_site_fract_y
 _atom_site_fract_z
 _atom_site_occupancy
  Rb  Rb0  1  0.573554  0.926457  0.749984  1
  Rb  Rb1  1  0.926446  0.573543  0.249984  1
  Rb  Rb2  1  0.431867  0.068127  0.250030  1
  Rb  Rb3  1  0.068133  0.431873  0.750030  1
  Rb  Rb4  1  0.680916  0.326000  0.783265  1
  Rb  Rb5  1  0.819084  0.174000  0.283265  1
  Rb  Rb6  1  0.326016  0.680925  0.216764  1
  Rb  Rb7  1  0.173984  0.819075  0.716764  1
  Na  Na8  1  0.621623  0.621625  0.999985  1
  Na  Na9  1  0.878377  0.878375  0.499985  1
  Na  Na10  1  0.385337  0.385332  0.999950  1
  Na  Na11  1  0.114663  0.114668  0.499950  1
  Y  Y12  1  0.126535  0.126524  0.000024  1
  Y  Y13  1  0.373465  0.373476  0.500024  1
  In  In14  1  0.868710  0.868661  0.999987  1
  In  In15  1  0.631290  0.631339  0.499987  1
  As  As16  1  0.343371  0.156647  0.749995  1
  As  As17  1  0.156629  0.343353  0.249995  1
  As  As18  1  0.655275  0.844707  0.250004  1
  As  As19  1  0.844725  0.655293  0.750004  1
  As  As20  1  0.895690  0.094697  0.791628  1
  As  As21  1  0.604310  0.405303  0.291628  1
  As  As22  1  0.094706  0.895730  0.208384  1
  As  As23  1  0.405294  0.604270  0.708384  1
