# generated using pymatgen
data_ErPa3(SiNi)4
_symmetry_space_group_name_H-M   'P 1'
_cell_length_a   4.14976600
_cell_length_b   7.05677695
_cell_length_c   7.01702900
_cell_angle_alpha   89.52119731
_cell_angle_beta   90.00000000
_cell_angle_gamma   90.00000000
_symmetry_Int_Tables_number   1
_chemical_formula_structural   ErPa3(SiNi)4
_chemical_formula_sum   'Er1 Pa3 Si4 Ni4'
_cell_volume   205.47931306
_cell_formula_units_Z   1
loop_
 _symmetry_equiv_pos_site_id
 _symmetry_equiv_pos_as_xyz
  1  'x, y, z'
loop_
 _atom_site_type_symbol
 _atom_site_label
 _atom_site_symmetry_multiplicity
 _atom_site_fract_x
 _atom_site_fract_y
 _atom_site_fract_z
 _atom_site_occupancy
  Er  Er0  1  0.250000  0.992041  0.290360  1
  Pa  Pa1  1  0.250000  0.490904  0.208719  1
  Pa  Pa2  1  0.750000  0.515568  0.793874  1
  Pa  Pa3  1  0.750000  0.013125  0.707504  1
  Si  Si4  1  0.250000  0.802203  0.911303  1
  Si  Si5  1  0.750000  0.212454  0.090706  1
  Si  Si6  1  0.750000  0.708772  0.407132  1
  Si  Si7  1  0.250000  0.301745  0.592316  1
  Ni  Ni8  1  0.250000  0.691618  0.583402  1
  Ni  Ni9  1  0.750000  0.288212  0.422832  1
  Ni  Ni10  1  0.750000  0.793414  0.074962  1
  Ni  Ni11  1  0.250000  0.189946  0.916890  1
