# generated using pymatgen
data_ErSc(Si7Rh3)2
_symmetry_space_group_name_H-M   'P 1'
_cell_length_a   7.94940061
_cell_length_b   7.94940100
_cell_length_c   7.94940119
_cell_angle_alpha   57.12814299
_cell_angle_beta   57.12813711
_cell_angle_gamma   57.12813592
_symmetry_Int_Tables_number   1
_chemical_formula_structural   ErSc(Si7Rh3)2
_chemical_formula_sum   'Er1 Sc1 Si14 Rh6'
_cell_volume   331.70581866
_cell_formula_units_Z   1
loop_
 _symmetry_equiv_pos_site_id
 _symmetry_equiv_pos_as_xyz
  1  'x, y, z'
loop_
 _atom_site_type_symbol
 _atom_site_label
 _atom_site_symmetry_multiplicity
 _atom_site_fract_x
 _atom_site_fract_y
 _atom_site_fract_z
 _atom_site_occupancy
  Er  Er0  1  0.500000  0.500000  0.500000  1
  Sc  Sc1  1  0.000000  0.000000  0.000000  1
  Si  Si2  1  0.749790  0.749790  0.749790  1
  Si  Si3  1  0.250210  0.250210  0.250210  1
  Si  Si4  1  0.852487  0.064743  0.673214  1
  Si  Si5  1  0.673214  0.852487  0.064743  1
  Si  Si6  1  0.064743  0.673214  0.852487  1
  Si  Si7  1  0.649297  0.828634  0.433106  1
  Si  Si8  1  0.433106  0.649297  0.828634  1
  Si  Si9  1  0.828634  0.433106  0.649297  1
  Si  Si10  1  0.171366  0.566894  0.350703  1
  Si  Si11  1  0.566894  0.350703  0.171366  1
  Si  Si12  1  0.350703  0.171366  0.566894  1
  Si  Si13  1  0.935257  0.326786  0.147513  1
  Si  Si14  1  0.326786  0.147513  0.935257  1
  Si  Si15  1  0.147513  0.935257  0.326786  1
  Rh  Rh16  1  0.069713  0.427176  0.752134  1
  Rh  Rh17  1  0.247866  0.930287  0.572824  1
  Rh  Rh18  1  0.572824  0.247866  0.930287  1
  Rh  Rh19  1  0.930287  0.572824  0.247866  1
  Rh  Rh20  1  0.427176  0.752134  0.069713  1
  Rh  Rh21  1  0.752134  0.069713  0.427176  1
