# generated using pymatgen
data_Lu4AlReOs6
_symmetry_space_group_name_H-M   'P 1'
_cell_length_a   5.34119366
_cell_length_b   5.31113872
_cell_length_c   8.76635800
_cell_angle_alpha   90.00000000
_cell_angle_beta   90.00000000
_cell_angle_gamma   121.13092467
_symmetry_Int_Tables_number   1
_chemical_formula_structural   Lu4AlReOs6
_chemical_formula_sum   'Lu4 Al1 Re1 Os6'
_cell_volume   212.86925157
_cell_formula_units_Z   1
loop_
 _symmetry_equiv_pos_site_id
 _symmetry_equiv_pos_as_xyz
  1  'x, y, z'
loop_
 _atom_site_type_symbol
 _atom_site_label
 _atom_site_symmetry_multiplicity
 _atom_site_fract_x
 _atom_site_fract_y
 _atom_site_fract_z
 _atom_site_occupancy
  Lu  Lu0  1  0.333007  0.666528  0.438910  1
  Lu  Lu1  1  0.668449  0.337367  0.565163  1
  Lu  Lu2  1  0.668449  0.337367  0.934837  1
  Lu  Lu3  1  0.333007  0.666528  0.061090  1
  Al  Al4  1  0.339407  0.167353  0.250000  1
  Re  Re5  1  0.176343  0.340747  0.750000  1
  Os  Os6  1  0.174828  0.822678  0.750000  1
  Os  Os7  1  0.833594  0.650377  0.250000  1
  Os  Os8  1  0.662047  0.829381  0.750000  1
  Os  Os9  1  0.990429  0.005373  0.001330  1
  Os  Os10  1  0.830010  0.170934  0.250000  1
  Os  Os11  1  0.990429  0.005373  0.498670  1
