# generated using pymatgen
data_EuZn2InGe
_symmetry_space_group_name_H-M   'P 1'
_cell_length_a   4.40467400
_cell_length_b   4.40467400
_cell_length_c   11.05117600
_cell_angle_alpha   90.00000000
_cell_angle_beta   90.00000000
_cell_angle_gamma   90.00000000
_symmetry_Int_Tables_number   1
_chemical_formula_structural   EuZn2InGe
_chemical_formula_sum   'Eu2 Zn4 In2 Ge2'
_cell_volume   214.40555692
_cell_formula_units_Z   2
loop_
 _symmetry_equiv_pos_site_id
 _symmetry_equiv_pos_as_xyz
  1  'x, y, z'
loop_
 _atom_site_type_symbol
 _atom_site_label
 _atom_site_symmetry_multiplicity
 _atom_site_fract_x
 _atom_site_fract_y
 _atom_site_fract_z
 _atom_site_occupancy
  Eu  Eu0  1  0.000000  0.500000  0.268510  1
  Eu  Eu1  1  0.500000  0.000000  0.731490  1
  Zn  Zn2  1  0.500000  0.500000  0.500000  1
  Zn  Zn3  1  0.000000  0.000000  0.500000  1
  Zn  Zn4  1  0.500000  0.000000  0.151897  1
  Zn  Zn5  1  0.000000  0.500000  0.848103  1
  In  In6  1  0.000000  0.000000  0.000000  1
  In  In7  1  0.500000  0.500000  0.000000  1
  Ge  Ge8  1  0.500000  0.000000  0.372503  1
  Ge  Ge9  1  0.000000  0.500000  0.627497  1
