# generated using pymatgen
data_Tb7Sm2(SbO)5
_symmetry_space_group_name_H-M   'P 1'
_cell_length_a   9.94817129
_cell_length_b   9.94859732
_cell_length_c   8.95381506
_cell_angle_alpha   89.94603466
_cell_angle_beta   89.98687972
_cell_angle_gamma   89.97561203
_symmetry_Int_Tables_number   1
_chemical_formula_structural   Tb7Sm2(SbO)5
_chemical_formula_sum   'Tb14 Sm4 Sb10 O10'
_cell_volume   886.16171587
_cell_formula_units_Z   2
loop_
 _symmetry_equiv_pos_site_id
 _symmetry_equiv_pos_as_xyz
  1  'x, y, z'
loop_
 _atom_site_type_symbol
 _atom_site_label
 _atom_site_symmetry_multiplicity
 _atom_site_fract_x
 _atom_site_fract_y
 _atom_site_fract_z
 _atom_site_occupancy
  Tb  Tb0  1  0.705276  0.395540  0.659333  1
  Tb  Tb1  1  0.725469  0.917415  0.002435  1
  Tb  Tb2  1  0.395253  0.294067  0.341023  1
  Tb  Tb3  1  0.104747  0.205933  0.658977  1
  Tb  Tb4  1  0.604041  0.705680  0.340863  1
  Tb  Tb5  1  0.895959  0.794320  0.659137  1
  Tb  Tb6  1  0.274412  0.082481  0.001445  1
  Tb  Tb7  1  0.774531  0.582585  0.997565  1
  Tb  Tb8  1  0.225588  0.417519  0.998555  1
  Tb  Tb9  1  0.794724  0.104460  0.340667  1
  Tb  Tb10  1  0.582458  0.225417  0.002408  1
  Tb  Tb11  1  0.917542  0.274583  0.997592  1
  Tb  Tb12  1  0.082687  0.725923  0.997870  1
  Tb  Tb13  1  0.417313  0.774077  0.002130  1
  Sm  Sm14  1  0.205348  0.895527  0.344608  1
  Sm  Sm15  1  0.499541  0.999594  0.668866  1
  Sm  Sm16  1  0.294652  0.604473  0.655392  1
  Sm  Sm17  1  0.000459  0.500406  0.331134  1
  Sb  Sb18  1  0.598182  0.694317  0.698359  1
  Sb  Sb19  1  0.901818  0.805683  0.301641  1
  Sb  Sb20  1  0.693845  0.403534  0.301875  1
  Sb  Sb21  1  0.998030  0.499393  0.685138  1
  Sb  Sb22  1  0.193299  0.905182  0.701172  1
  Sb  Sb23  1  0.806155  0.096466  0.698125  1
  Sb  Sb24  1  0.306701  0.594818  0.298828  1
  Sb  Sb25  1  0.404116  0.304319  0.698438  1
  Sb  Sb26  1  0.095884  0.195681  0.301562  1
  Sb  Sb27  1  0.501970  0.000607  0.314862  1
  O  O28  1  0.225198  0.879665  0.083744  1
  O  O29  1  0.724315  0.379479  0.912708  1
  O  O30  1  0.500709  0.000117  0.938901  1
  O  O31  1  0.620626  0.724565  0.087229  1
  O  O32  1  0.999291  0.499883  0.061099  1
  O  O33  1  0.879374  0.775435  0.912771  1
  O  O34  1  0.120230  0.224911  0.912619  1
  O  O35  1  0.379770  0.275089  0.087381  1
  O  O36  1  0.775685  0.120521  0.087292  1
  O  O37  1  0.274802  0.620335  0.916256  1
