# generated using pymatgen
data_DyHf3(ZnRh2)4
_symmetry_space_group_name_H-M   'P 1'
_cell_length_a   5.98707300
_cell_length_b   5.98717900
_cell_length_c   7.01978700
_cell_angle_alpha   90.00000000
_cell_angle_beta   90.00000000
_cell_angle_gamma   90.00000000
_symmetry_Int_Tables_number   1
_chemical_formula_structural   DyHf3(ZnRh2)4
_chemical_formula_sum   'Dy1 Hf3 Zn4 Rh8'
_cell_volume   251.62902258
_cell_formula_units_Z   1
loop_
 _symmetry_equiv_pos_site_id
 _symmetry_equiv_pos_as_xyz
  1  'x, y, z'
loop_
 _atom_site_type_symbol
 _atom_site_label
 _atom_site_symmetry_multiplicity
 _atom_site_fract_x
 _atom_site_fract_y
 _atom_site_fract_z
 _atom_site_occupancy
  Dy  Dy0  1  0.749919  0.250000  0.000000  1
  Hf  Hf1  1  0.250123  0.750001  0.000000  1
  Hf  Hf2  1  0.750101  0.250000  0.500000  1
  Hf  Hf3  1  0.249899  0.750001  0.500000  1
  Zn  Zn4  1  0.249971  0.250000  0.000000  1
  Zn  Zn5  1  0.750026  0.750001  0.000000  1
  Zn  Zn6  1  0.749967  0.750001  0.499996  1
  Zn  Zn7  1  0.250019  0.250000  0.500003  1
  Rh  Rh8  1  0.003547  0.996442  0.256513  1
  Rh  Rh9  1  0.003547  0.503559  0.256513  1
  Rh  Rh10  1  0.496446  0.996454  0.256619  1
  Rh  Rh11  1  0.496446  0.503545  0.256619  1
  Rh  Rh12  1  0.496449  0.996454  0.743380  1
  Rh  Rh13  1  0.496449  0.503547  0.743380  1
  Rh  Rh14  1  0.003547  0.996442  0.743487  1
  Rh  Rh15  1  0.003547  0.503557  0.743487  1
