# generated using pymatgen
data_Tb12IrPt2Rh
_symmetry_space_group_name_H-M   'P 1'
_cell_length_a   6.40651476
_cell_length_b   7.14097460
_cell_length_c   9.59583900
_cell_angle_alpha   90.00000000
_cell_angle_beta   90.00000000
_cell_angle_gamma   90.16113631
_symmetry_Int_Tables_number   1
_chemical_formula_structural   Tb12IrPt2Rh
_chemical_formula_sum   'Tb12 Ir1 Pt2 Rh1'
_cell_volume   438.99599144
_cell_formula_units_Z   1
loop_
 _symmetry_equiv_pos_site_id
 _symmetry_equiv_pos_as_xyz
  1  'x, y, z'
loop_
 _atom_site_type_symbol
 _atom_site_label
 _atom_site_symmetry_multiplicity
 _atom_site_fract_x
 _atom_site_fract_y
 _atom_site_fract_z
 _atom_site_occupancy
  Tb  Tb0  1  0.324781  0.681616  0.060316  1
  Tb  Tb1  1  0.171959  0.177063  0.437241  1
  Tb  Tb2  1  0.673009  0.323352  0.563679  1
  Tb  Tb3  1  0.823342  0.817603  0.938163  1
  Tb  Tb4  1  0.673009  0.323352  0.936321  1
  Tb  Tb5  1  0.823342  0.817603  0.561837  1
  Tb  Tb6  1  0.324781  0.681616  0.439684  1
  Tb  Tb7  1  0.171959  0.177063  0.062759  1
  Tb  Tb8  1  0.869955  0.533375  0.250000  1
  Tb  Tb9  1  0.636056  0.029819  0.250000  1
  Tb  Tb10  1  0.137141  0.471614  0.750000  1
  Tb  Tb11  1  0.370906  0.965625  0.750000  1
  Ir  Ir12  1  0.553315  0.615300  0.750000  1
  Pt  Pt13  1  0.443954  0.386495  0.250000  1
  Pt  Pt14  1  0.947252  0.113853  0.750000  1
  Rh  Rh15  1  0.055239  0.884652  0.250000  1
