# generated using pymatgen
data_NaScGaB2Rh5
_symmetry_space_group_name_H-M   'P 1'
_cell_length_a   9.57275400
_cell_length_b   9.54020100
_cell_length_c   2.95425000
_cell_angle_alpha   90.00000000
_cell_angle_beta   90.00000000
_cell_angle_gamma   90.00000000
_symmetry_Int_Tables_number   1
_chemical_formula_structural   NaScGaB2Rh5
_chemical_formula_sum   'Na2 Sc2 Ga2 B4 Rh10'
_cell_volume   269.79982747
_cell_formula_units_Z   2
loop_
 _symmetry_equiv_pos_site_id
 _symmetry_equiv_pos_as_xyz
  1  'x, y, z'
loop_
 _atom_site_type_symbol
 _atom_site_label
 _atom_site_symmetry_multiplicity
 _atom_site_fract_x
 _atom_site_fract_y
 _atom_site_fract_z
 _atom_site_occupancy
  Na  Na0  1  0.676132  0.175822  0.000000  1
  Na  Na1  1  0.176133  0.324178  0.000000  1
  Sc  Sc2  1  0.824400  0.672974  0.000000  1
  Sc  Sc3  1  0.324400  0.827025  0.000000  1
  Ga  Ga4  1  0.998455  0.004515  0.000000  1
  Ga  Ga5  1  0.498455  0.495485  0.000000  1
  B  B6  1  0.373826  0.125953  0.000000  1
  B  B7  1  0.873825  0.374048  0.000000  1
  B  B8  1  0.123977  0.625735  0.000000  1
  B  B9  1  0.623977  0.874265  0.000000  1
  Rh  Rh10  1  0.498773  0.994134  0.500000  1
  Rh  Rh11  1  0.219681  0.059969  0.500000  1
  Rh  Rh12  1  0.930129  0.220738  0.500000  1
  Rh  Rh13  1  0.430129  0.279263  0.500000  1
  Rh  Rh14  1  0.719681  0.440031  0.500000  1
  Rh  Rh15  1  0.998773  0.505866  0.500000  1
  Rh  Rh16  1  0.285019  0.581910  0.500000  1
  Rh  Rh17  1  0.569607  0.714276  0.500000  1
  Rh  Rh18  1  0.069608  0.785724  0.500000  1
  Rh  Rh19  1  0.785018  0.918089  0.500000  1
