# generated using pymatgen
data_CePrDy6(Si3Rh)4
_symmetry_space_group_name_H-M   'P 1'
_cell_length_a   8.18090300
_cell_length_b   8.18090327
_cell_length_c   8.00479100
_cell_angle_alpha   90.00000000
_cell_angle_beta   90.00000000
_cell_angle_gamma   119.99998678
_symmetry_Int_Tables_number   1
_chemical_formula_structural   CePrDy6(Si3Rh)4
_chemical_formula_sum   'Ce1 Pr1 Dy6 Si12 Rh4'
_cell_volume   463.96282879
_cell_formula_units_Z   1
loop_
 _symmetry_equiv_pos_site_id
 _symmetry_equiv_pos_as_xyz
  1  'x, y, z'
loop_
 _atom_site_type_symbol
 _atom_site_label
 _atom_site_symmetry_multiplicity
 _atom_site_fract_x
 _atom_site_fract_y
 _atom_site_fract_z
 _atom_site_occupancy
  Ce  Ce0  1  0.000000  0.000000  0.750000  1
  Pr  Pr1  1  0.000000  0.000000  0.250000  1
  Dy  Dy2  1  0.508543  0.491457  0.250000  1
  Dy  Dy3  1  0.508543  0.017086  0.250000  1
  Dy  Dy4  1  0.982914  0.491457  0.250000  1
  Dy  Dy5  1  0.491932  0.508068  0.750000  1
  Dy  Dy6  1  0.491932  0.983863  0.750000  1
  Dy  Dy7  1  0.016137  0.508068  0.750000  1
  Si  Si8  1  0.168093  0.831907  0.503612  1
  Si  Si9  1  0.168093  0.336187  0.503612  1
  Si  Si10  1  0.663813  0.831907  0.503612  1
  Si  Si11  1  0.832353  0.167647  0.501396  1
  Si  Si12  1  0.832353  0.664705  0.501396  1
  Si  Si13  1  0.335295  0.167647  0.501396  1
  Si  Si14  1  0.832353  0.167647  0.998604  1
  Si  Si15  1  0.832353  0.664705  0.998604  1
  Si  Si16  1  0.335295  0.167647  0.998604  1
  Si  Si17  1  0.168093  0.831907  0.996388  1
  Si  Si18  1  0.168093  0.336187  0.996388  1
  Si  Si19  1  0.663813  0.831907  0.996388  1
  Rh  Rh20  1  0.333333  0.666667  0.464824  1
  Rh  Rh21  1  0.666667  0.333333  0.532380  1
  Rh  Rh22  1  0.666667  0.333333  0.967620  1
  Rh  Rh23  1  0.333333  0.666667  0.035176  1
