# generated using pymatgen
data_NaPmF4
_symmetry_space_group_name_H-M   'P 1'
_cell_length_a   6.46571824
_cell_length_b   6.46571861
_cell_length_c   6.46571800
_cell_angle_alpha   131.44902774
_cell_angle_beta   131.44903066
_cell_angle_gamma   71.10063064
_symmetry_Int_Tables_number   1
_chemical_formula_structural   NaPmF4
_chemical_formula_sum   'Na2 Pm2 F8'
_cell_volume   148.68614605
_cell_formula_units_Z   2
loop_
 _symmetry_equiv_pos_site_id
 _symmetry_equiv_pos_as_xyz
  1  'x, y, z'
loop_
 _atom_site_type_symbol
 _atom_site_label
 _atom_site_symmetry_multiplicity
 _atom_site_fract_x
 _atom_site_fract_y
 _atom_site_fract_z
 _atom_site_occupancy
  Na  Na0  1  0.500000  0.500000  0.000000  1
  Na  Na1  1  0.250000  0.750000  0.500000  1
  Pm  Pm2  1  0.000000  0.000000  0.000000  1
  Pm  Pm3  1  0.750000  0.250000  0.500000  1
  F  F4  1  0.375000  0.374722  0.499722  1
  F  F5  1  0.875000  0.875278  0.500278  1
  F  F6  1  0.124722  0.125000  0.499722  1
  F  F7  1  0.625278  0.125000  0.000278  1
  F  F8  1  0.875000  0.374722  0.999722  1
  F  F9  1  0.625278  0.625000  0.500278  1
  F  F10  1  0.124722  0.625000  0.999722  1
  F  F11  1  0.375000  0.875278  0.000278  1
