# generated using pymatgen
data_ErNb8GeSe16
_symmetry_space_group_name_H-M   'P 1'
_cell_length_a   7.03894100
_cell_length_b   7.03894236
_cell_length_c   14.24250300
_cell_angle_alpha   90.00000000
_cell_angle_beta   90.00000000
_cell_angle_gamma   119.99999832
_symmetry_Int_Tables_number   1
_chemical_formula_structural   ErNb8GeSe16
_chemical_formula_sum   'Er1 Nb8 Ge1 Se16'
_cell_volume   611.12731068
_cell_formula_units_Z   1
loop_
 _symmetry_equiv_pos_site_id
 _symmetry_equiv_pos_as_xyz
  1  'x, y, z'
loop_
 _atom_site_type_symbol
 _atom_site_label
 _atom_site_symmetry_multiplicity
 _atom_site_fract_x
 _atom_site_fract_y
 _atom_site_fract_z
 _atom_site_occupancy
  Er  Er0  1  0.000000  0.000000  0.500000  1
  Nb  Nb1  1  0.000000  0.000000  0.253088  1
  Nb  Nb2  1  0.000000  0.000000  0.746912  1
  Nb  Nb3  1  0.506548  0.013095  0.251251  1
  Nb  Nb4  1  0.493452  0.986905  0.748749  1
  Nb  Nb5  1  0.986905  0.493452  0.251251  1
  Nb  Nb6  1  0.013095  0.506548  0.748749  1
  Nb  Nb7  1  0.506548  0.493452  0.251251  1
  Nb  Nb8  1  0.493452  0.506548  0.748749  1
  Ge  Ge9  1  0.000000  0.000000  0.000000  1
  Se  Se10  1  0.333333  0.666667  0.628023  1
  Se  Se11  1  0.666667  0.333333  0.371977  1
  Se  Se12  1  0.666667  0.333333  0.131540  1
  Se  Se13  1  0.333333  0.666667  0.868460  1
  Se  Se14  1  0.167518  0.335036  0.136027  1
  Se  Se15  1  0.832482  0.664964  0.863973  1
  Se  Se16  1  0.664964  0.832482  0.136027  1
  Se  Se17  1  0.829937  0.659874  0.632149  1
  Se  Se18  1  0.335036  0.167518  0.863973  1
  Se  Se19  1  0.170063  0.340126  0.367851  1
  Se  Se20  1  0.167518  0.832482  0.136027  1
  Se  Se21  1  0.340126  0.170063  0.632149  1
  Se  Se22  1  0.832482  0.167518  0.863973  1
  Se  Se23  1  0.659874  0.829937  0.367851  1
  Se  Se24  1  0.829937  0.170063  0.632149  1
  Se  Se25  1  0.170063  0.829937  0.367851  1
