# generated using pymatgen
data_Ac2ZnAg3
_symmetry_space_group_name_H-M   'P 1'
_cell_length_a   6.35167452
_cell_length_b   6.34940818
_cell_length_c   6.34940779
_cell_angle_alpha   136.44433727
_cell_angle_beta   98.80186176
_cell_angle_gamma   97.01784530
_symmetry_Int_Tables_number   1
_chemical_formula_structural   Ac2ZnAg3
_chemical_formula_sum   'Ac2 Zn1 Ag3'
_cell_volume   163.83581380
_cell_formula_units_Z   1
loop_
 _symmetry_equiv_pos_site_id
 _symmetry_equiv_pos_as_xyz
  1  'x, y, z'
loop_
 _atom_site_type_symbol
 _atom_site_label
 _atom_site_symmetry_multiplicity
 _atom_site_fract_x
 _atom_site_fract_y
 _atom_site_fract_z
 _atom_site_occupancy
  Ac  Ac0  1  0.751005  0.999326  0.751679  1
  Ac  Ac1  1  0.247837  0.999365  0.248472  1
  Zn  Zn2  1  0.667702  0.666832  0.000869  1
  Ag  Ag3  1  0.346181  0.347288  0.998893  1
  Ag  Ag4  1  0.824714  0.324380  0.500335  1
  Ag  Ag5  1  0.162562  0.662809  0.499753  1
