# generated using pymatgen
data_Sm5Sn2BiCl
_symmetry_space_group_name_H-M   'P 1'
_cell_length_a   9.37995583
_cell_length_b   9.37995592
_cell_length_c   6.64045500
_cell_angle_alpha   90.00000000
_cell_angle_beta   90.00000000
_cell_angle_gamma   120.33697782
_symmetry_Int_Tables_number   1
_chemical_formula_structural   Sm5Sn2BiCl
_chemical_formula_sum   'Sm10 Sn4 Bi2 Cl2'
_cell_volume   504.24932711
_cell_formula_units_Z   2
loop_
 _symmetry_equiv_pos_site_id
 _symmetry_equiv_pos_as_xyz
  1  'x, y, z'
loop_
 _atom_site_type_symbol
 _atom_site_label
 _atom_site_symmetry_multiplicity
 _atom_site_fract_x
 _atom_site_fract_y
 _atom_site_fract_z
 _atom_site_occupancy
  Sm  Sm0  1  0.261934  0.995259  0.750000  1
  Sm  Sm1  1  0.738066  0.004741  0.250000  1
  Sm  Sm2  1  0.995259  0.261934  0.750000  1
  Sm  Sm3  1  0.004741  0.738066  0.250000  1
  Sm  Sm4  1  0.742244  0.742244  0.750000  1
  Sm  Sm5  1  0.257756  0.257756  0.250000  1
  Sm  Sm6  1  0.329806  0.670194  0.500000  1
  Sm  Sm7  1  0.670194  0.329806  0.500000  1
  Sm  Sm8  1  0.670194  0.329806  0.000000  1
  Sm  Sm9  1  0.329806  0.670194  0.000000  1
  Sn  Sn10  1  0.610620  0.998195  0.750000  1
  Sn  Sn11  1  0.389380  0.001805  0.250000  1
  Sn  Sn12  1  0.998195  0.610620  0.750000  1
  Sn  Sn13  1  0.001805  0.389380  0.250000  1
  Bi  Bi14  1  0.387740  0.387740  0.750000  1
  Bi  Bi15  1  0.612260  0.612260  0.250000  1
  Cl  Cl16  1  0.000000  0.000000  0.500000  1
  Cl  Cl17  1  0.000000  0.000000  0.000000  1
