# generated using pymatgen
data_Lu12GaFe3Rh
_symmetry_space_group_name_H-M   'P 1'
_cell_length_a   8.05812174
_cell_length_b   8.05812066
_cell_length_c   8.05812200
_cell_angle_alpha   111.04284580
_cell_angle_beta   106.67794593
_cell_angle_gamma   110.72862653
_symmetry_Int_Tables_number   1
_chemical_formula_structural   Lu12GaFe3Rh
_chemical_formula_sum   'Lu12 Ga1 Fe3 Rh1'
_cell_volume   402.07404701
_cell_formula_units_Z   1
loop_
 _symmetry_equiv_pos_site_id
 _symmetry_equiv_pos_as_xyz
  1  'x, y, z'
loop_
 _atom_site_type_symbol
 _atom_site_label
 _atom_site_symmetry_multiplicity
 _atom_site_fract_x
 _atom_site_fract_y
 _atom_site_fract_z
 _atom_site_occupancy
  Lu  Lu0  1  0.310477  0.308264  0.618744  1
  Lu  Lu1  1  0.689523  0.691736  0.381256  1
  Lu  Lu2  1  0.689520  0.308264  0.997788  1
  Lu  Lu3  1  0.310480  0.691736  0.002212  1
  Lu  Lu4  1  0.188796  0.461062  0.272266  1
  Lu  Lu5  1  0.811204  0.538938  0.727734  1
  Lu  Lu6  1  0.188793  0.916532  0.727739  1
  Lu  Lu7  1  0.965068  0.187159  0.777920  1
  Lu  Lu8  1  0.811207  0.083468  0.272261  1
  Lu  Lu9  1  0.034932  0.812841  0.222080  1
  Lu  Lu10  1  0.409239  0.187159  0.222090  1
  Lu  Lu11  1  0.590761  0.812841  0.777910  1
  Ga  Ga12  1  0.500000  0.000000  0.500000  1
  Fe  Fe13  1  0.380977  0.381001  0.000024  1
  Fe  Fe14  1  0.619023  0.618999  0.999976  1
  Fe  Fe15  1  0.000000  0.000000  0.000000  1
  Rh  Rh16  1  0.000000  0.500000  0.500000  1
