# generated using pymatgen
data_NdAl10ReRh
_symmetry_space_group_name_H-M   'P 1'
_cell_length_a   6.91747010
_cell_length_b   6.92581181
_cell_length_c   9.24159400
_cell_angle_alpha   90.00000000
_cell_angle_beta   90.00000000
_cell_angle_gamma   96.69898662
_symmetry_Int_Tables_number   1
_chemical_formula_structural   NdAl10ReRh
_chemical_formula_sum   'Nd2 Al20 Re2 Rh2'
_cell_volume   439.73359055
_cell_formula_units_Z   2
loop_
 _symmetry_equiv_pos_site_id
 _symmetry_equiv_pos_as_xyz
  1  'x, y, z'
loop_
 _atom_site_type_symbol
 _atom_site_label
 _atom_site_symmetry_multiplicity
 _atom_site_fract_x
 _atom_site_fract_y
 _atom_site_fract_z
 _atom_site_occupancy
  Nd  Nd0  1  0.869137  0.119740  0.750000  1
  Nd  Nd1  1  0.130863  0.880260  0.250000  1
  Al  Al2  1  0.619454  0.376172  0.548182  1
  Al  Al3  1  0.380546  0.623828  0.451818  1
  Al  Al4  1  0.380546  0.623828  0.048182  1
  Al  Al5  1  0.619454  0.376172  0.951818  1
  Al  Al6  1  0.225857  0.225531  0.498192  1
  Al  Al7  1  0.774143  0.774469  0.501808  1
  Al  Al8  1  0.774143  0.774469  0.998192  1
  Al  Al9  1  0.225857  0.225531  0.001808  1
  Al  Al10  1  0.840953  0.160143  0.101611  1
  Al  Al11  1  0.159047  0.839857  0.898389  1
  Al  Al12  1  0.159047  0.839857  0.601611  1
  Al  Al13  1  0.840953  0.160143  0.398389  1
  Al  Al14  1  0.859644  0.590060  0.750000  1
  Al  Al15  1  0.140356  0.409940  0.250000  1
  Al  Al16  1  0.407914  0.140302  0.750000  1
  Al  Al17  1  0.592086  0.859698  0.250000  1
  Al  Al18  1  0.222008  0.481447  0.750000  1
  Al  Al19  1  0.777992  0.518553  0.250000  1
  Al  Al20  1  0.517366  0.780530  0.750000  1
  Al  Al21  1  0.482634  0.219470  0.250000  1
  Re  Re22  1  0.500000  0.000000  0.000000  1
  Re  Re23  1  0.500000  0.000000  0.500000  1
  Rh  Rh24  1  0.000000  0.500000  0.500000  1
  Rh  Rh25  1  0.000000  0.500000  0.000000  1
