# generated using pymatgen
data_Ta2MnNb4B4Ru9
_symmetry_space_group_name_H-M   'P 1'
_cell_length_a   9.40935421
_cell_length_b   9.40935346
_cell_length_c   3.02434600
_cell_angle_alpha   90.00000000
_cell_angle_beta   90.00000000
_cell_angle_gamma   90.33644398
_symmetry_Int_Tables_number   1
_chemical_formula_structural   Ta2MnNb4B4Ru9
_chemical_formula_sum   'Ta2 Mn1 Nb4 B4 Ru9'
_cell_volume   267.75869837
_cell_formula_units_Z   1
loop_
 _symmetry_equiv_pos_site_id
 _symmetry_equiv_pos_as_xyz
  1  'x, y, z'
loop_
 _atom_site_type_symbol
 _atom_site_label
 _atom_site_symmetry_multiplicity
 _atom_site_fract_x
 _atom_site_fract_y
 _atom_site_fract_z
 _atom_site_occupancy
  Ta  Ta0  1  0.500000  0.500000  0.000000  1
  Ta  Ta1  1  0.000000  0.000000  0.000000  1
  Mn  Mn2  1  0.500000  0.000000  0.500000  1
  Nb  Nb3  1  0.822522  0.677478  0.000000  1
  Nb  Nb4  1  0.177478  0.322522  0.000000  1
  Nb  Nb5  1  0.331964  0.831964  0.000000  1
  Nb  Nb6  1  0.668036  0.168036  0.000000  1
  B  B7  1  0.612461  0.887539  0.000000  1
  B  B8  1  0.387539  0.112461  0.000000  1
  B  B9  1  0.122127  0.622127  0.000000  1
  B  B10  1  0.877873  0.377873  0.000000  1
  Ru  Ru11  1  0.570073  0.721669  0.500000  1
  Ru  Ru12  1  0.429927  0.278331  0.500000  1
  Ru  Ru13  1  0.072540  0.782468  0.500000  1
  Ru  Ru14  1  0.927460  0.217532  0.500000  1
  Ru  Ru15  1  0.282468  0.572540  0.500000  1
  Ru  Ru16  1  0.717532  0.427460  0.500000  1
  Ru  Ru17  1  0.221669  0.070073  0.500000  1
  Ru  Ru18  1  0.778331  0.929927  0.500000  1
  Ru  Ru19  1  0.000000  0.500000  0.500000  1
