# generated using pymatgen
data_SmDy2Tm(Si3Ni5)4
_symmetry_space_group_name_H-M   'P 1'
_cell_length_a   3.81646200
_cell_length_b   6.58835711
_cell_length_c   18.82663000
_cell_angle_alpha   89.98908203
_cell_angle_beta   90.00000000
_cell_angle_gamma   90.00000000
_symmetry_Int_Tables_number   1
_chemical_formula_structural   SmDy2Tm(Si3Ni5)4
_chemical_formula_sum   'Sm1 Dy2 Tm1 Si12 Ni20'
_cell_volume   473.38081536
_cell_formula_units_Z   1
loop_
 _symmetry_equiv_pos_site_id
 _symmetry_equiv_pos_as_xyz
  1  'x, y, z'
loop_
 _atom_site_type_symbol
 _atom_site_label
 _atom_site_symmetry_multiplicity
 _atom_site_fract_x
 _atom_site_fract_y
 _atom_site_fract_z
 _atom_site_occupancy
  Sm  Sm0  1  0.750000  0.124900  0.643310  1
  Dy  Dy1  1  0.750000  0.375775  0.144210  1
  Dy  Dy2  1  0.250000  0.623611  0.856547  1
  Tm  Tm3  1  0.250000  0.877426  0.355294  1
  Si  Si4  1  0.250000  0.077058  0.087042  1
  Si  Si5  1  0.750000  0.921953  0.914276  1
  Si  Si6  1  0.750000  0.580212  0.411848  1
  Si  Si7  1  0.250000  0.427202  0.585011  1
  Si  Si8  1  0.250000  0.656755  0.074458  1
  Si  Si9  1  0.750000  0.343244  0.927025  1
  Si  Si10  1  0.750000  0.155403  0.425703  1
  Si  Si11  1  0.250000  0.840200  0.572853  1
  Si  Si12  1  0.250000  0.380943  0.262771  1
  Si  Si13  1  0.750000  0.618497  0.737410  1
  Si  Si14  1  0.750000  0.881202  0.237790  1
  Si  Si15  1  0.250000  0.118493  0.764153  1
  Ni  Ni16  1  0.250000  0.071455  0.207860  1
  Ni  Ni17  1  0.750000  0.926955  0.793790  1
  Ni  Ni18  1  0.750000  0.572190  0.292363  1
  Ni  Ni19  1  0.250000  0.428380  0.707334  1
  Ni  Ni20  1  0.250000  0.616397  0.481122  1
  Ni  Ni21  1  0.750000  0.389809  0.514160  1
  Ni  Ni22  1  0.750000  0.113100  0.016925  1
  Ni  Ni23  1  0.250000  0.885376  0.984305  1
  Ni  Ni24  1  0.250000  0.687378  0.199472  1
  Ni  Ni25  1  0.750000  0.313446  0.801905  1
  Ni  Ni26  1  0.750000  0.185755  0.301365  1
  Ni  Ni27  1  0.250000  0.811564  0.699448  1
  Ni  Ni28  1  0.250000  0.351935  0.383817  1
  Ni  Ni29  1  0.750000  0.644413  0.615787  1
  Ni  Ni30  1  0.750000  0.853974  0.116472  1
  Ni  Ni31  1  0.250000  0.146321  0.885274  1
  Ni  Ni32  1  0.250000  0.365112  0.006307  1
  Ni  Ni33  1  0.750000  0.635109  0.995069  1
  Ni  Ni34  1  0.750000  0.864127  0.493167  1
  Ni  Ni35  1  0.250000  0.134331  0.504358  1
