# generated using pymatgen
data_Y3ErCo19P12Ru
_symmetry_space_group_name_H-M   'P 1'
_cell_length_a   3.65817500
_cell_length_b   10.30340214
_cell_length_c   11.73644119
_cell_angle_alpha   89.91541451
_cell_angle_beta   90.00000000
_cell_angle_gamma   90.00000000
_symmetry_Int_Tables_number   1
_chemical_formula_structural   Y3ErCo19P12Ru
_chemical_formula_sum   'Y3 Er1 Co19 P12 Ru1'
_cell_volume   442.36532971
_cell_formula_units_Z   1
loop_
 _symmetry_equiv_pos_site_id
 _symmetry_equiv_pos_as_xyz
  1  'x, y, z'
loop_
 _atom_site_type_symbol
 _atom_site_label
 _atom_site_symmetry_multiplicity
 _atom_site_fract_x
 _atom_site_fract_y
 _atom_site_fract_z
 _atom_site_occupancy
  Y  Y0  1  0.250000  0.916618  0.202798  1
  Y  Y1  1  0.750000  0.414369  0.295383  1
  Y  Y2  1  0.250000  0.581638  0.701818  1
  Er  Er3  1  0.750000  0.083908  0.798174  1
  Co  Co4  1  0.750000  0.215691  0.508713  1
  Co  Co5  1  0.750000  0.283467  0.007932  1
  Co  Co6  1  0.250000  0.717105  0.992105  1
  Co  Co7  1  0.250000  0.093830  0.987560  1
  Co  Co8  1  0.750000  0.907548  0.011193  1
  Co  Co9  1  0.750000  0.591000  0.509942  1
  Co  Co10  1  0.250000  0.406079  0.487803  1
  Co  Co11  1  0.250000  0.278738  0.677386  1
  Co  Co12  1  0.750000  0.721016  0.322604  1
  Co  Co13  1  0.750000  0.777925  0.824061  1
  Co  Co14  1  0.250000  0.221336  0.175712  1
  Co  Co15  1  0.250000  0.616692  0.198356  1
  Co  Co16  1  0.750000  0.382753  0.801682  1
  Co  Co17  1  0.750000  0.117415  0.300751  1
  Co  Co18  1  0.250000  0.886282  0.702257  1
  Co  Co19  1  0.250000  0.035884  0.433274  1
  Co  Co20  1  0.750000  0.967784  0.569618  1
  Co  Co21  1  0.750000  0.532106  0.068148  1
  Co  Co22  1  0.250000  0.467622  0.931722  1
  P  P23  1  0.250000  0.082374  0.613937  1
  P  P24  1  0.750000  0.921135  0.387359  1
  P  P25  1  0.750000  0.580708  0.888216  1
  P  P26  1  0.250000  0.418294  0.111156  1
  P  P27  1  0.250000  0.229704  0.369228  1
  P  P28  1  0.750000  0.771356  0.633383  1
  P  P29  1  0.750000  0.728951  0.128785  1
  P  P30  1  0.250000  0.270702  0.869915  1
  P  P31  1  0.250000  0.899542  0.892747  1
  P  P32  1  0.750000  0.102361  0.108080  1
  P  P33  1  0.750000  0.396488  0.608666  1
  P  P34  1  0.250000  0.596003  0.388831  1
  Ru  Ru35  1  0.250000  0.785575  0.490713  1
