# generated using pymatgen
data_Ho3Tm5Re3B24Rh
_symmetry_space_group_name_H-M   'P 1'
_cell_length_a   3.64941600
_cell_length_b   9.11152676
_cell_length_c   11.48753006
_cell_angle_alpha   90.14549152
_cell_angle_beta   90.00000000
_cell_angle_gamma   90.00000000
_symmetry_Int_Tables_number   1
_chemical_formula_structural   Ho3Tm5Re3B24Rh
_chemical_formula_sum   'Ho3 Tm5 Re3 B24 Rh1'
_cell_volume   381.97926377
_cell_formula_units_Z   1
loop_
 _symmetry_equiv_pos_site_id
 _symmetry_equiv_pos_as_xyz
  1  'x, y, z'
loop_
 _atom_site_type_symbol
 _atom_site_label
 _atom_site_symmetry_multiplicity
 _atom_site_fract_x
 _atom_site_fract_y
 _atom_site_fract_z
 _atom_site_occupancy
  Ho  Ho0  1  0.000000  0.317899  0.415509  1
  Ho  Ho1  1  0.000000  0.678562  0.591178  1
  Ho  Ho2  1  0.000000  0.826796  0.081420  1
  Tm  Tm3  1  0.000000  0.177745  0.912706  1
  Tm  Tm4  1  0.000000  0.943503  0.370209  1
  Tm  Tm5  1  0.000000  0.055857  0.628919  1
  Tm  Tm6  1  0.000000  0.441236  0.128510  1
  Tm  Tm7  1  0.000000  0.556526  0.871778  1
  Re  Re8  1  0.000000  0.361946  0.678478  1
  Re  Re9  1  0.000000  0.138632  0.179988  1
  Re  Re10  1  0.000000  0.861750  0.820631  1
  B  B11  1  0.500000  0.554024  0.433734  1
  B  B12  1  0.500000  0.446530  0.566631  1
  B  B13  1  0.500000  0.053716  0.066197  1
  B  B14  1  0.500000  0.947608  0.932696  1
  B  B15  1  0.500000  0.749668  0.420201  1
  B  B16  1  0.500000  0.249691  0.580989  1
  B  B17  1  0.500000  0.250048  0.080775  1
  B  B18  1  0.500000  0.751089  0.918932  1
  B  B19  1  0.500000  0.791504  0.264970  1
  B  B20  1  0.500000  0.207723  0.734556  1
  B  B21  1  0.500000  0.292305  0.235224  1
  B  B22  1  0.500000  0.707730  0.765814  1
  B  B23  1  0.500000  0.631356  0.183708  1
  B  B24  1  0.500000  0.369460  0.814960  1
  B  B25  1  0.500000  0.130318  0.315268  1
  B  B26  1  0.500000  0.869031  0.685049  1
  B  B27  1  0.500000  0.982393  0.212184  1
  B  B28  1  0.500000  0.018400  0.786921  1
  B  B29  1  0.500000  0.482800  0.287648  1
  B  B30  1  0.500000  0.518530  0.712818  1
  B  B31  1  0.500000  0.602849  0.029044  1
  B  B32  1  0.500000  0.397956  0.972277  1
  B  B33  1  0.500000  0.100422  0.471486  1
  B  B34  1  0.500000  0.896156  0.527893  1
  Rh  Rh35  1  0.000000  0.638240  0.320700  1
