# generated using pymatgen
data_Hf18Ti2BeRe6As
_symmetry_space_group_name_H-M   'P 1'
_cell_length_a   8.60971305
_cell_length_b   8.60971370
_cell_length_c   8.58032500
_cell_angle_alpha   90.00000000
_cell_angle_beta   90.00000000
_cell_angle_gamma   119.99713443
_symmetry_Int_Tables_number   1
_chemical_formula_structural   Hf18Ti2BeRe6As
_chemical_formula_sum   'Hf18 Ti2 Be1 Re6 As1'
_cell_volume   550.83851258
_cell_formula_units_Z   1
loop_
 _symmetry_equiv_pos_site_id
 _symmetry_equiv_pos_as_xyz
  1  'x, y, z'
loop_
 _atom_site_type_symbol
 _atom_site_label
 _atom_site_symmetry_multiplicity
 _atom_site_fract_x
 _atom_site_fract_y
 _atom_site_fract_z
 _atom_site_occupancy
  Hf  Hf0  1  0.800458  0.600904  0.553486  1
  Hf  Hf1  1  0.800360  0.199640  0.553375  1
  Hf  Hf2  1  0.399096  0.199542  0.553486  1
  Hf  Hf3  1  0.194028  0.388116  0.453389  1
  Hf  Hf4  1  0.194163  0.805837  0.453458  1
  Hf  Hf5  1  0.611884  0.805972  0.453389  1
  Hf  Hf6  1  0.194028  0.388116  0.046611  1
  Hf  Hf7  1  0.194163  0.805837  0.046542  1
  Hf  Hf8  1  0.611884  0.805972  0.046611  1
  Hf  Hf9  1  0.800458  0.600904  0.946514  1
  Hf  Hf10  1  0.800360  0.199640  0.946625  1
  Hf  Hf11  1  0.399096  0.199542  0.946514  1
  Hf  Hf12  1  0.459282  0.918514  0.750000  1
  Hf  Hf13  1  0.459164  0.540836  0.750000  1
  Hf  Hf14  1  0.081486  0.540718  0.750000  1
  Hf  Hf15  1  0.542382  0.084861  0.250000  1
  Hf  Hf16  1  0.542466  0.457534  0.250000  1
  Hf  Hf17  1  0.915139  0.457618  0.250000  1
  Ti  Ti18  1  0.000013  0.999987  0.500744  1
  Ti  Ti19  1  0.000013  0.999987  0.999256  1
  Be  Be20  1  0.666605  0.333395  0.750000  1
  Re  Re21  1  0.111587  0.223287  0.750000  1
  Re  Re22  1  0.111665  0.888335  0.750000  1
  Re  Re23  1  0.776713  0.888413  0.750000  1
  Re  Re24  1  0.887946  0.775722  0.250000  1
  Re  Re25  1  0.887876  0.112124  0.250000  1
  Re  Re26  1  0.224278  0.112054  0.250000  1
  As  As27  1  0.333402  0.666598  0.250000  1
