# generated using pymatgen
data_YTmCoSi5Rh2
_symmetry_space_group_name_H-M   'P 1'
_cell_length_a   8.05872562
_cell_length_b   8.02807164
_cell_length_c   8.02807142
_cell_angle_alpha   138.32003358
_cell_angle_beta   105.24463712
_cell_angle_gamma   89.38265811
_symmetry_Int_Tables_number   1
_chemical_formula_structural   YTmCoSi5Rh2
_chemical_formula_sum   'Y2 Tm2 Co2 Si10 Rh4'
_cell_volume   318.97214426
_cell_formula_units_Z   2
loop_
 _symmetry_equiv_pos_site_id
 _symmetry_equiv_pos_as_xyz
  1  'x, y, z'
loop_
 _atom_site_type_symbol
 _atom_site_label
 _atom_site_symmetry_multiplicity
 _atom_site_fract_x
 _atom_site_fract_y
 _atom_site_fract_z
 _atom_site_occupancy
  Y  Y0  1  0.363418  0.632379  0.731039  1
  Y  Y1  1  0.900434  0.133800  0.766634  1
  Tm  Tm2  1  0.098970  0.866008  0.232963  1
  Tm  Tm3  1  0.636729  0.367448  0.269281  1
  Co  Co4  1  0.251614  0.140023  0.111593  1
  Co  Co5  1  0.748903  0.860497  0.888404  1
  Si  Si6  1  0.278616  0.512733  0.244152  1
  Si  Si7  1  0.722232  0.966275  0.234149  1
  Si  Si8  1  0.999807  0.776905  0.777445  1
  Si  Si9  1  0.234500  0.393580  0.840919  1
  Si  Si10  1  0.764783  0.606032  0.158752  1
  Si  Si11  1  0.442733  0.106740  0.335992  1
  Si  Si12  1  0.999807  0.222361  0.222902  1
  Si  Si13  1  0.557082  0.892844  0.664238  1
  Si  Si14  1  0.722232  0.488083  0.755957  1
  Si  Si15  1  0.278616  0.034464  0.765884  1
  Rh  Rh16  1  0.031764  0.636855  0.394909  1
  Rh  Rh17  1  0.968529  0.363670  0.604859  1
  Rh  Rh18  1  0.499615  0.750036  0.250348  1
  Rh  Rh19  1  0.499615  0.249267  0.749580  1
