# generated using pymatgen
data_Hf4NbSi3C
_symmetry_space_group_name_H-M   'P 1'
_cell_length_a   7.83154200
_cell_length_b   7.83154209
_cell_length_c   5.50358600
_cell_angle_alpha   90.00000000
_cell_angle_beta   90.00000000
_cell_angle_gamma   119.99999119
_symmetry_Int_Tables_number   1
_chemical_formula_structural   Hf4NbSi3C
_chemical_formula_sum   'Hf8 Nb2 Si6 C2'
_cell_volume   292.32839021
_cell_formula_units_Z   2
loop_
 _symmetry_equiv_pos_site_id
 _symmetry_equiv_pos_as_xyz
  1  'x, y, z'
loop_
 _atom_site_type_symbol
 _atom_site_label
 _atom_site_symmetry_multiplicity
 _atom_site_fract_x
 _atom_site_fract_y
 _atom_site_fract_z
 _atom_site_occupancy
  Hf  Hf0  1  0.234990  0.000000  0.249551  1
  Hf  Hf1  1  0.765010  0.000000  0.750449  1
  Hf  Hf2  1  0.000000  0.234990  0.249551  1
  Hf  Hf3  1  0.000000  0.765010  0.750449  1
  Hf  Hf4  1  0.765010  0.765010  0.249551  1
  Hf  Hf5  1  0.234990  0.234990  0.750449  1
  Hf  Hf6  1  0.333333  0.666667  0.000000  1
  Hf  Hf7  1  0.666667  0.333333  0.000000  1
  Nb  Nb8  1  0.666667  0.333333  0.500000  1
  Nb  Nb9  1  0.333333  0.666667  0.500000  1
  Si  Si10  1  0.593656  0.000000  0.259843  1
  Si  Si11  1  0.406344  0.000000  0.740157  1
  Si  Si12  1  0.000000  0.593656  0.259843  1
  Si  Si13  1  0.000000  0.406344  0.740157  1
  Si  Si14  1  0.406344  0.406344  0.259843  1
  Si  Si15  1  0.593656  0.593656  0.740157  1
  C  C16  1  0.000000  0.000000  0.000000  1
  C  C17  1  0.000000  0.000000  0.500000  1
