# generated using pymatgen
data_Sr12Pr8Si15Sn
_symmetry_space_group_name_H-M   'P 1'
_cell_length_a   8.25064864
_cell_length_b   8.23457430
_cell_length_c   15.47132797
_cell_angle_alpha   90.02203003
_cell_angle_beta   89.88892320
_cell_angle_gamma   89.72764669
_symmetry_Int_Tables_number   1
_chemical_formula_structural   Sr12Pr8Si15Sn
_chemical_formula_sum   'Sr12 Pr8 Si15 Sn1'
_cell_volume   1051.11705167
_cell_formula_units_Z   1
loop_
 _symmetry_equiv_pos_site_id
 _symmetry_equiv_pos_as_xyz
  1  'x, y, z'
loop_
 _atom_site_type_symbol
 _atom_site_label
 _atom_site_symmetry_multiplicity
 _atom_site_fract_x
 _atom_site_fract_y
 _atom_site_fract_z
 _atom_site_occupancy
  Sr  Sr0  1  0.311287  0.309575  0.001143  1
  Sr  Sr1  1  0.190753  0.811167  0.250573  1
  Sr  Sr2  1  0.805723  0.188069  0.750778  1
  Sr  Sr3  1  0.684602  0.691843  0.497418  1
  Sr  Sr4  1  0.365553  0.015187  0.458055  1
  Sr  Sr5  1  0.491015  0.863324  0.707787  1
  Sr  Sr6  1  0.512184  0.130988  0.207193  1
  Sr  Sr7  1  0.869000  0.488348  0.292435  1
  Sr  Sr8  1  0.131496  0.514743  0.796339  1
  Sr  Sr9  1  0.631334  0.987597  0.957184  1
  Sr  Sr10  1  0.007341  0.374149  0.538042  1
  Sr  Sr11  1  0.988607  0.630314  0.045111  1
  Pr  Pr12  1  0.128056  0.987389  0.876861  1
  Pr  Pr13  1  0.510207  0.628587  0.124802  1
  Pr  Pr14  1  0.498633  0.378141  0.622952  1
  Pr  Pr15  1  0.632163  0.511912  0.878742  1
  Pr  Pr16  1  0.371389  0.488576  0.375087  1
  Pr  Pr17  1  0.871048  0.010935  0.372837  1
  Pr  Pr18  1  0.990632  0.128912  0.126580  1
  Pr  Pr19  1  0.999400  0.858373  0.623244  1
  Si  Si20  1  0.347930  0.710278  0.945883  1
  Si  Si21  1  0.652156  0.288039  0.443051  1
  Si  Si22  1  0.712821  0.347415  0.056652  1
  Si  Si23  1  0.289074  0.652655  0.553468  1
  Si  Si24  1  0.788627  0.847641  0.194226  1
  Si  Si25  1  0.151838  0.211921  0.305944  1
  Si  Si26  1  0.848177  0.788830  0.806493  1
  Si  Si27  1  0.276547  0.913055  0.055241  1
  Si  Si28  1  0.585983  0.776584  0.303232  1
  Si  Si29  1  0.425065  0.228411  0.808230  1
  Si  Si30  1  0.775908  0.586362  0.697023  1
  Si  Si31  1  0.223485  0.413741  0.196248  1
  Si  Si32  1  0.725447  0.087080  0.553001  1
  Si  Si33  1  0.914859  0.274310  0.947070  1
  Si  Si34  1  0.085500  0.722662  0.444410  1
  Sn  Sn35  1  0.206165  0.152892  0.686669  1
