# generated using pymatgen
data_Hf4Co20(SiAs3)3
_symmetry_space_group_name_H-M   'P 1'
_cell_length_a   3.68560300
_cell_length_b   12.05051100
_cell_length_c   10.48592789
_cell_angle_alpha   90.04690893
_cell_angle_beta   90.00000000
_cell_angle_gamma   90.00000000
_symmetry_Int_Tables_number   1
_chemical_formula_structural   Hf4Co20(SiAs3)3
_chemical_formula_sum   'Hf4 Co20 Si3 As9'
_cell_volume   465.71554822
_cell_formula_units_Z   1
loop_
 _symmetry_equiv_pos_site_id
 _symmetry_equiv_pos_as_xyz
  1  'x, y, z'
loop_
 _atom_site_type_symbol
 _atom_site_label
 _atom_site_symmetry_multiplicity
 _atom_site_fract_x
 _atom_site_fract_y
 _atom_site_fract_z
 _atom_site_occupancy
  Hf  Hf0  1  0.750000  0.711383  0.079792  1
  Hf  Hf1  1  0.250000  0.297653  0.922202  1
  Hf  Hf2  1  0.250000  0.789581  0.579726  1
  Hf  Hf3  1  0.750000  0.212038  0.420248  1
  Co  Co4  1  0.750000  0.698087  0.387999  1
  Co  Co5  1  0.250000  0.302417  0.611360  1
  Co  Co6  1  0.250000  0.800345  0.890331  1
  Co  Co7  1  0.750000  0.198876  0.115905  1
  Co  Co8  1  0.750000  0.982256  0.206300  1
  Co  Co9  1  0.250000  0.005557  0.784755  1
  Co  Co10  1  0.250000  0.518028  0.704389  1
  Co  Co11  1  0.750000  0.483481  0.296833  1
  Co  Co12  1  0.750000  0.678363  0.778956  1
  Co  Co13  1  0.250000  0.320870  0.222268  1
  Co  Co14  1  0.250000  0.820995  0.279756  1
  Co  Co15  1  0.750000  0.179826  0.715928  1
  Co  Co16  1  0.750000  0.929685  0.969359  1
  Co  Co17  1  0.250000  0.069171  0.032704  1
  Co  Co18  1  0.250000  0.569586  0.467865  1
  Co  Co19  1  0.750000  0.431500  0.531691  1
  Co  Co20  1  0.750000  0.984831  0.591231  1
  Co  Co21  1  0.250000  0.013308  0.407916  1
  Co  Co22  1  0.250000  0.512864  0.092073  1
  Co  Co23  1  0.750000  0.485977  0.908699  1
  Si  Si24  1  0.750000  0.612683  0.583291  1
  Si  Si25  1  0.250000  0.388256  0.416925  1
  Si  Si26  1  0.250000  0.887837  0.084946  1
  As  As27  1  0.750000  0.115502  0.914595  1
  As  As28  1  0.750000  0.887815  0.401628  1
  As  As29  1  0.250000  0.111578  0.596961  1
  As  As30  1  0.250000  0.611136  0.902059  1
  As  As31  1  0.750000  0.389337  0.101045  1
  As  As32  1  0.750000  0.868032  0.764710  1
  As  As33  1  0.250000  0.129832  0.236780  1
  As  As34  1  0.250000  0.630621  0.264084  1
  As  As35  1  0.750000  0.370692  0.734686  1
