# generated using pymatgen
data_Nd5TcSb2
_symmetry_space_group_name_H-M   'P 1'
_cell_length_a   8.25962000
_cell_length_b   9.14549800
_cell_length_c   12.62479500
_cell_angle_alpha   90.00000000
_cell_angle_beta   90.00000000
_cell_angle_gamma   90.00000000
_symmetry_Int_Tables_number   1
_chemical_formula_structural   Nd5TcSb2
_chemical_formula_sum   'Nd20 Tc4 Sb8'
_cell_volume   953.65603430
_cell_formula_units_Z   4
loop_
 _symmetry_equiv_pos_site_id
 _symmetry_equiv_pos_as_xyz
  1  'x, y, z'
loop_
 _atom_site_type_symbol
 _atom_site_label
 _atom_site_symmetry_multiplicity
 _atom_site_fract_x
 _atom_site_fract_y
 _atom_site_fract_z
 _atom_site_occupancy
  Nd  Nd0  1  0.158003  0.750000  0.213524  1
  Nd  Nd1  1  0.658003  0.250000  0.286476  1
  Nd  Nd2  1  0.841997  0.250000  0.786476  1
  Nd  Nd3  1  0.341997  0.750000  0.713524  1
  Nd  Nd4  1  0.449813  0.750000  0.997180  1
  Nd  Nd5  1  0.949813  0.250000  0.502820  1
  Nd  Nd6  1  0.550187  0.250000  0.002820  1
  Nd  Nd7  1  0.050187  0.750000  0.497180  1
  Nd  Nd8  1  0.626194  0.750000  0.302192  1
  Nd  Nd9  1  0.126194  0.250000  0.197808  1
  Nd  Nd10  1  0.373806  0.250000  0.697808  1
  Nd  Nd11  1  0.873806  0.750000  0.802192  1
  Nd  Nd12  1  0.823221  0.962801  0.066514  1
  Nd  Nd13  1  0.323221  0.037199  0.433486  1
  Nd  Nd14  1  0.176779  0.462801  0.933486  1
  Nd  Nd15  1  0.676779  0.537199  0.566514  1
  Nd  Nd16  1  0.176779  0.037199  0.933486  1
  Nd  Nd17  1  0.676779  0.962801  0.566514  1
  Nd  Nd18  1  0.823221  0.537199  0.066514  1
  Nd  Nd19  1  0.323221  0.462801  0.433486  1
  Tc  Tc20  1  0.415339  0.750000  0.483938  1
  Tc  Tc21  1  0.915339  0.250000  0.016062  1
  Tc  Tc22  1  0.584661  0.250000  0.516062  1
  Tc  Tc23  1  0.084661  0.750000  0.983938  1
  Sb  Sb24  1  0.928250  0.995044  0.329719  1
  Sb  Sb25  1  0.428250  0.004956  0.170281  1
  Sb  Sb26  1  0.071750  0.495044  0.670281  1
  Sb  Sb27  1  0.571750  0.504956  0.829719  1
  Sb  Sb28  1  0.071750  0.004956  0.670281  1
  Sb  Sb29  1  0.571750  0.995044  0.829719  1
  Sb  Sb30  1  0.928250  0.504956  0.329719  1
  Sb  Sb31  1  0.428250  0.495044  0.170281  1
