# generated using pymatgen
data_Er(LuCu6)2
_symmetry_space_group_name_H-M   'P 1'
_cell_length_a   4.97476586
_cell_length_b   4.97476672
_cell_length_c   10.50060154
_cell_angle_alpha   94.92370936
_cell_angle_beta   94.92371129
_cell_angle_gamma   119.93453370
_symmetry_Int_Tables_number   1
_chemical_formula_structural   Er(LuCu6)2
_chemical_formula_sum   'Er1 Lu2 Cu12'
_cell_volume   221.86794351
_cell_formula_units_Z   1
loop_
 _symmetry_equiv_pos_site_id
 _symmetry_equiv_pos_as_xyz
  1  'x, y, z'
loop_
 _atom_site_type_symbol
 _atom_site_label
 _atom_site_symmetry_multiplicity
 _atom_site_fract_x
 _atom_site_fract_y
 _atom_site_fract_z
 _atom_site_occupancy
  Er  Er0  1  0.000000  0.000000  0.000000  1
  Lu  Lu1  1  0.134322  0.134322  0.357569  1
  Lu  Lu2  1  0.865678  0.865678  0.642431  1
  Cu  Cu3  1  0.662185  0.337816  0.000000  1
  Cu  Cu4  1  0.337816  0.662185  0.000000  1
  Cu  Cu5  1  0.569982  0.067580  0.196831  1
  Cu  Cu6  1  0.067580  0.569982  0.196831  1
  Cu  Cu7  1  0.570499  0.570499  0.203397  1
  Cu  Cu8  1  0.810327  0.474970  0.406444  1
  Cu  Cu9  1  0.474970  0.810327  0.406444  1
  Cu  Cu10  1  0.525032  0.189674  0.593556  1
  Cu  Cu11  1  0.189674  0.525032  0.593556  1
  Cu  Cu12  1  0.429500  0.429500  0.796603  1
  Cu  Cu13  1  0.932419  0.430017  0.803170  1
  Cu  Cu14  1  0.430017  0.932419  0.803170  1
