# generated using pymatgen
data_Gd6TcB14Ru
_symmetry_space_group_name_H-M   'P 1'
_cell_length_a   3.54745900
_cell_length_b   8.16689175
_cell_length_c   9.39154700
_cell_angle_alpha   90.00000000
_cell_angle_beta   90.00000000
_cell_angle_gamma   102.54377408
_symmetry_Int_Tables_number   1
_chemical_formula_structural   Gd6TcB14Ru
_chemical_formula_sum   'Gd6 Tc1 B14 Ru1'
_cell_volume   265.59453936
_cell_formula_units_Z   1
loop_
 _symmetry_equiv_pos_site_id
 _symmetry_equiv_pos_as_xyz
  1  'x, y, z'
loop_
 _atom_site_type_symbol
 _atom_site_label
 _atom_site_symmetry_multiplicity
 _atom_site_fract_x
 _atom_site_fract_y
 _atom_site_fract_z
 _atom_site_occupancy
  Gd  Gd0  1  0.105452  0.210906  0.439079  1
  Gd  Gd1  1  0.894623  0.789245  0.562037  1
  Gd  Gd2  1  0.105452  0.210906  0.060921  1
  Gd  Gd3  1  0.894623  0.789245  0.937963  1
  Gd  Gd4  1  0.756420  0.512840  0.250000  1
  Gd  Gd5  1  0.243325  0.486650  0.750000  1
  Tc  Tc6  1  0.054404  0.108810  0.750000  1
  B  B7  1  0.273513  0.547029  0.466571  1
  B  B8  1  0.727148  0.454295  0.531985  1
  B  B9  1  0.273513  0.547029  0.033429  1
  B  B10  1  0.727148  0.454295  0.968015  1
  B  B11  1  0.368198  0.736395  0.151527  1
  B  B12  1  0.632400  0.264800  0.849370  1
  B  B13  1  0.368198  0.736395  0.348473  1
  B  B14  1  0.632400  0.264800  0.650630  1
  B  B15  1  0.478062  0.956124  0.097087  1
  B  B16  1  0.521646  0.043291  0.903739  1
  B  B17  1  0.478062  0.956124  0.402913  1
  B  B18  1  0.521646  0.043291  0.596261  1
  B  B19  1  0.539558  0.079118  0.250000  1
  B  B20  1  0.459475  0.918950  0.750000  1
  Ru  Ru21  1  0.944729  0.889457  0.250000  1
