# generated using pymatgen
data_Th4Sn2Pt3Au
_symmetry_space_group_name_H-M   'P 1'
_cell_length_a   7.96640829
_cell_length_b   7.96640829
_cell_length_c   3.90030000
_cell_angle_alpha   90.00000000
_cell_angle_beta   90.00000000
_cell_angle_gamma   89.53606048
_symmetry_Int_Tables_number   1
_chemical_formula_structural   Th4Sn2Pt3Au
_chemical_formula_sum   'Th4 Sn2 Pt3 Au1'
_cell_volume   247.51920257
_cell_formula_units_Z   1
loop_
 _symmetry_equiv_pos_site_id
 _symmetry_equiv_pos_as_xyz
  1  'x, y, z'
loop_
 _atom_site_type_symbol
 _atom_site_label
 _atom_site_symmetry_multiplicity
 _atom_site_fract_x
 _atom_site_fract_y
 _atom_site_fract_z
 _atom_site_occupancy
  Th  Th0  1  0.334539  0.834539  0.500000  1
  Th  Th1  1  0.816352  0.672952  0.500000  1
  Th  Th2  1  0.172952  0.316352  0.500000  1
  Th  Th3  1  0.677242  0.177242  0.500000  1
  Sn  Sn4  1  0.499921  0.497698  0.000000  1
  Sn  Sn5  1  0.997698  0.999921  0.000000  1
  Pt  Pt6  1  0.628002  0.872594  0.000000  1
  Pt  Pt7  1  0.873613  0.373613  0.000000  1
  Pt  Pt8  1  0.372594  0.128002  0.000000  1
  Au  Au9  1  0.127087  0.627087  0.000000  1
