# generated using pymatgen
data_CsTa(IO3)6
_symmetry_space_group_name_H-M   'P 1'
_cell_length_a   7.92384826
_cell_length_b   7.92384769
_cell_length_c   7.92384898
_cell_angle_alpha   97.90037812
_cell_angle_beta   97.90037372
_cell_angle_gamma   97.90037345
_symmetry_Int_Tables_number   1
_chemical_formula_structural   CsTa(IO3)6
_chemical_formula_sum   'Cs1 Ta1 I6 O18'
_cell_volume   481.88066692
_cell_formula_units_Z   1
loop_
 _symmetry_equiv_pos_site_id
 _symmetry_equiv_pos_as_xyz
  1  'x, y, z'
loop_
 _atom_site_type_symbol
 _atom_site_label
 _atom_site_symmetry_multiplicity
 _atom_site_fract_x
 _atom_site_fract_y
 _atom_site_fract_z
 _atom_site_occupancy
  Cs  Cs0  1  0.638650  0.638650  0.638650  1
  Ta  Ta1  1  0.004511  0.004511  0.004511  1
  I  I2  1  0.630069  0.835779  0.198802  1
  I  I3  1  0.198802  0.630069  0.835779  1
  I  I4  1  0.835779  0.198802  0.630069  1
  I  I5  1  0.368670  0.166374  0.792922  1
  I  I6  1  0.792922  0.368670  0.166374  1
  I  I7  1  0.166374  0.792922  0.368670  1
  O  O8  1  0.793663  0.848967  0.043592  1
  O  O9  1  0.043592  0.793663  0.848967  1
  O  O10  1  0.848967  0.043592  0.793663  1
  O  O11  1  0.203513  0.148746  0.948333  1
  O  O12  1  0.948333  0.203513  0.148746  1
  O  O13  1  0.148746  0.948333  0.203513  1
  O  O14  1  0.605187  0.602982  0.185878  1
  O  O15  1  0.185878  0.605187  0.602982  1
  O  O16  1  0.602982  0.185878  0.605187  1
  O  O17  1  0.395533  0.399691  0.814802  1
  O  O18  1  0.814802  0.395533  0.399691  1
  O  O19  1  0.399691  0.814802  0.395533  1
  O  O20  1  0.787590  0.902154  0.395925  1
  O  O21  1  0.395925  0.787590  0.902154  1
  O  O22  1  0.902154  0.395925  0.787590  1
  O  O23  1  0.209010  0.098471  0.599746  1
  O  O24  1  0.599746  0.209010  0.098471  1
  O  O25  1  0.098471  0.599746  0.209010  1
