# generated using pymatgen
data_La3Pa(Al8Pt3)3
_symmetry_space_group_name_H-M   'P 1'
_cell_length_a   7.60435120
_cell_length_b   7.60064976
_cell_length_c   13.31903468
_cell_angle_alpha   84.61278312
_cell_angle_beta   100.94191611
_cell_angle_gamma   119.85571771
_symmetry_Int_Tables_number   1
_chemical_formula_structural   La3Pa(Al8Pt3)3
_chemical_formula_sum   'La3 Pa1 Al24 Pt9'
_cell_volume   655.50749562
_cell_formula_units_Z   1
loop_
 _symmetry_equiv_pos_site_id
 _symmetry_equiv_pos_as_xyz
  1  'x, y, z'
loop_
 _atom_site_type_symbol
 _atom_site_label
 _atom_site_symmetry_multiplicity
 _atom_site_fract_x
 _atom_site_fract_y
 _atom_site_fract_z
 _atom_site_occupancy
  La  La0  1  0.562593  0.168229  0.191134  1
  La  La1  1  0.768312  0.501856  0.808223  1
  La  La2  1  0.231561  0.498195  0.190969  1
  Pa  Pa3  1  0.434025  0.831176  0.802161  1
  Al  Al4  1  0.479685  0.164659  0.943964  1
  Al  Al5  1  0.520363  0.833635  0.050452  1
  Al  Al6  1  0.021020  0.166335  0.560321  1
  Al  Al7  1  0.979346  0.833398  0.440971  1
  Al  Al8  1  0.352685  0.833313  0.558198  1
  Al  Al9  1  0.648850  0.167603  0.442951  1
  Al  Al10  1  0.620254  0.834642  0.336636  1
  Al  Al11  1  0.380472  0.167091  0.667027  1
  Al  Al12  1  0.053366  0.489908  0.666742  1
  Al  Al13  1  0.945407  0.507728  0.335956  1
  Al  Al14  1  0.732719  0.842027  0.665544  1
  Al  Al15  1  0.270087  0.158634  0.337096  1
  Al  Al16  1  0.149609  0.499742  0.944191  1
  Al  Al17  1  0.851600  0.503847  0.052999  1
  Al  Al18  1  0.816379  0.834116  0.953673  1
  Al  Al19  1  0.178587  0.164138  0.042463  1
  Al  Al20  1  0.314073  0.499079  0.442692  1
  Al  Al21  1  0.686600  0.500189  0.558401  1
  Al  Al22  1  0.099389  0.836733  0.183922  1
  Al  Al23  1  0.895354  0.155182  0.816838  1
  Al  Al24  1  0.301159  0.370478  0.815394  1
  Al  Al25  1  0.696371  0.634867  0.185133  1
  Al  Al26  1  0.109762  0.965499  0.816365  1
  Al  Al27  1  0.897783  0.037302  0.184122  1
  Pt  Pt28  1  0.386112  0.508674  0.639012  1
  Pt  Pt29  1  0.616097  0.495075  0.364586  1
  Pt  Pt30  1  0.171387  0.829202  0.997681  1
  Pt  Pt31  1  0.827743  0.170885  0.998311  1
  Pt  Pt32  1  0.293687  0.833241  0.364819  1
  Pt  Pt33  1  0.704540  0.164379  0.638826  1
  Pt  Pt34  1  0.048972  0.826903  0.638923  1
  Pt  Pt35  1  0.954476  0.172003  0.365292  1
  Pt  Pt36  1  0.499575  0.500039  0.998015  1
