# generated using pymatgen
data_Cr4As4W
_symmetry_space_group_name_H-M   'P 1'
_cell_length_a   6.76091228
_cell_length_b   6.76091226
_cell_length_c   6.76265658
_cell_angle_alpha   93.11781519
_cell_angle_beta   93.08841031
_cell_angle_gamma   153.08841381
_symmetry_Int_Tables_number   1
_chemical_formula_structural   Cr4As4W
_chemical_formula_sum   'Cr4 As4 W1'
_cell_volume   136.07398921
_cell_formula_units_Z   1
loop_
 _symmetry_equiv_pos_site_id
 _symmetry_equiv_pos_as_xyz
  1  'x, y, z'
loop_
 _atom_site_type_symbol
 _atom_site_label
 _atom_site_symmetry_multiplicity
 _atom_site_fract_x
 _atom_site_fract_y
 _atom_site_fract_z
 _atom_site_occupancy
  Cr  Cr0  1  0.383454  0.300771  0.684227  1
  Cr  Cr1  1  0.300829  0.616568  0.917397  1
  Cr  Cr2  1  0.699171  0.383432  0.082603  1
  Cr  Cr3  1  0.616546  0.699229  0.315773  1
  As  As4  1  0.285222  0.061797  0.347019  1
  As  As5  1  0.061829  0.714728  0.776557  1
  As  As6  1  0.938171  0.285272  0.223443  1
  As  As7  1  0.714778  0.938203  0.652981  1
  W  W8  1  0.000000  0.000000  0.000000  1
