# generated using pymatgen
data_Tm3Lu(Hf4Sn5)2
_symmetry_space_group_name_H-M   'P 1'
_cell_length_a   11.06108401
_cell_length_b   11.07470767
_cell_length_c   11.07470800
_cell_angle_alpha   149.02694845
_cell_angle_beta   132.09592894
_cell_angle_gamma   58.15604401
_symmetry_Int_Tables_number   1
_chemical_formula_structural   Tm3Lu(Hf4Sn5)2
_chemical_formula_sum   'Tm3 Lu1 Hf8 Sn10'
_cell_volume   514.09015091
_cell_formula_units_Z   1
loop_
 _symmetry_equiv_pos_site_id
 _symmetry_equiv_pos_as_xyz
  1  'x, y, z'
loop_
 _atom_site_type_symbol
 _atom_site_label
 _atom_site_symmetry_multiplicity
 _atom_site_fract_x
 _atom_site_fract_y
 _atom_site_fract_z
 _atom_site_occupancy
  Tm  Tm0  1  0.256292  0.143609  0.112682  1
  Tm  Tm1  1  0.744580  0.856604  0.887977  1
  Tm  Tm2  1  0.030835  0.643510  0.387325  1
  Lu  Lu3  1  0.968788  0.356458  0.612330  1
  Hf  Hf4  1  0.311463  0.561019  0.250256  1
  Hf  Hf5  1  0.689072  0.439103  0.750136  1
  Hf  Hf6  1  0.689072  0.938937  0.249969  1
  Hf  Hf7  1  0.311463  0.061207  0.750444  1
  Hf  Hf8  1  0.673426  0.435369  0.238058  1
  Hf  Hf9  1  0.326044  0.564722  0.761321  1
  Hf  Hf10  1  0.195914  0.935243  0.260671  1
  Hf  Hf11  1  0.803811  0.064688  0.739123  1
  Sn  Sn12  1  0.590496  0.289319  0.301178  1
  Sn  Sn13  1  0.411268  0.711141  0.700127  1
  Sn  Sn14  1  0.989345  0.788828  0.200517  1
  Sn  Sn15  1  0.011003  0.211272  0.799731  1
  Sn  Sn16  1  0.999854  0.249951  0.250366  1
  Sn  Sn17  1  0.999854  0.749488  0.749904  1
  Sn  Sn18  1  0.466921  0.066801  0.400119  1
  Sn  Sn19  1  0.533169  0.933221  0.599948  1
  Sn  Sn20  1  0.666416  0.566773  0.099642  1
  Sn  Sn21  1  0.330915  0.432737  0.898178  1
