# generated using pymatgen
data_DyEr3Sc6(Si5Ir2)4
_symmetry_space_group_name_H-M   'P 1'
_cell_length_a   12.46680859
_cell_length_b   12.46680797
_cell_length_c   4.14631400
_cell_angle_alpha   90.00000000
_cell_angle_beta   90.00000000
_cell_angle_gamma   90.03554445
_symmetry_Int_Tables_number   1
_chemical_formula_structural   DyEr3Sc6(Si5Ir2)4
_chemical_formula_sum   'Dy1 Er3 Sc6 Si20 Ir8'
_cell_volume   644.42542364
_cell_formula_units_Z   1
loop_
 _symmetry_equiv_pos_site_id
 _symmetry_equiv_pos_as_xyz
  1  'x, y, z'
loop_
 _atom_site_type_symbol
 _atom_site_label
 _atom_site_symmetry_multiplicity
 _atom_site_fract_x
 _atom_site_fract_y
 _atom_site_fract_z
 _atom_site_occupancy
  Dy  Dy0  1  0.115746  0.615746  0.500000  1
  Er  Er1  1  0.884237  0.384237  0.500000  1
  Er  Er2  1  0.615710  0.884345  0.500000  1
  Er  Er3  1  0.384345  0.115710  0.500000  1
  Sc  Sc4  1  0.673909  0.173909  0.500000  1
  Sc  Sc5  1  0.326465  0.826465  0.500000  1
  Sc  Sc6  1  0.173959  0.325717  0.500000  1
  Sc  Sc7  1  0.825717  0.673959  0.500000  1
  Sc  Sc8  1  0.999985  0.000235  0.000000  1
  Sc  Sc9  1  0.500235  0.499985  0.000000  1
  Si  Si10  1  0.567371  0.067371  0.000000  1
  Si  Si11  1  0.432811  0.932811  0.000000  1
  Si  Si12  1  0.067492  0.432480  0.000000  1
  Si  Si13  1  0.932480  0.567492  0.000000  1
  Si  Si14  1  0.199257  0.165910  0.000000  1
  Si  Si15  1  0.800266  0.834068  0.000000  1
  Si  Si16  1  0.166015  0.800883  0.000000  1
  Si  Si17  1  0.699370  0.333895  0.000000  1
  Si  Si18  1  0.833895  0.199370  0.000000  1
  Si  Si19  1  0.300883  0.666015  0.000000  1
  Si  Si20  1  0.665910  0.699257  0.000000  1
  Si  Si21  1  0.334068  0.300266  0.000000  1
  Si  Si22  1  0.006368  0.151149  0.500000  1
  Si  Si23  1  0.992454  0.849392  0.500000  1
  Si  Si24  1  0.151260  0.993498  0.500000  1
  Si  Si25  1  0.506949  0.348694  0.500000  1
  Si  Si26  1  0.848694  0.006949  0.500000  1
  Si  Si27  1  0.493498  0.651260  0.500000  1
  Si  Si28  1  0.651149  0.506368  0.500000  1
  Si  Si29  1  0.349392  0.492454  0.500000  1
  Ir  Ir30  1  0.019605  0.244650  0.000000  1
  Ir  Ir31  1  0.979828  0.755869  0.000000  1
  Ir  Ir32  1  0.245025  0.980433  0.000000  1
  Ir  Ir33  1  0.519716  0.254984  0.000000  1
  Ir  Ir34  1  0.754984  0.019716  0.000000  1
  Ir  Ir35  1  0.480433  0.745025  0.000000  1
  Ir  Ir36  1  0.744650  0.519605  0.000000  1
  Ir  Ir37  1  0.255869  0.479828  0.000000  1
