# generated using pymatgen
data_Y3In3Hg2Ru
_symmetry_space_group_name_H-M   'P 1'
_cell_length_a   7.96864500
_cell_length_b   7.96864648
_cell_length_c   3.94480400
_cell_angle_alpha   90.00000000
_cell_angle_beta   90.00000000
_cell_angle_gamma   119.99998971
_symmetry_Int_Tables_number   1
_chemical_formula_structural   Y3In3Hg2Ru
_chemical_formula_sum   'Y3 In3 Hg2 Ru1'
_cell_volume   216.93276234
_cell_formula_units_Z   1
loop_
 _symmetry_equiv_pos_site_id
 _symmetry_equiv_pos_as_xyz
  1  'x, y, z'
loop_
 _atom_site_type_symbol
 _atom_site_label
 _atom_site_symmetry_multiplicity
 _atom_site_fract_x
 _atom_site_fract_y
 _atom_site_fract_z
 _atom_site_occupancy
  Y  Y0  1  0.580130  0.614986  0.000000  1
  Y  Y1  1  0.385014  0.965144  0.000000  1
  Y  Y2  1  0.034856  0.419870  0.000000  1
  In  In3  1  0.006823  0.727114  0.500000  1
  In  In4  1  0.272886  0.279709  0.500000  1
  In  In5  1  0.720291  0.993177  0.500000  1
  Hg  Hg6  1  0.000000  0.000000  0.000000  1
  Hg  Hg7  1  0.666667  0.333333  0.500000  1
  Ru  Ru8  1  0.333333  0.666667  0.500000  1
