# generated using pymatgen
data_Li2HoTm3(Co3P2)6
_symmetry_space_group_name_H-M   'P 1'
_cell_length_a   3.65132200
_cell_length_b   10.21713015
_cell_length_c   11.77688517
_cell_angle_alpha   89.98041942
_cell_angle_beta   90.00000000
_cell_angle_gamma   90.00000000
_symmetry_Int_Tables_number   1
_chemical_formula_structural   Li2HoTm3(Co3P2)6
_chemical_formula_sum   'Li2 Ho1 Tm3 Co18 P12'
_cell_volume   439.34883049
_cell_formula_units_Z   1
loop_
 _symmetry_equiv_pos_site_id
 _symmetry_equiv_pos_as_xyz
  1  'x, y, z'
loop_
 _atom_site_type_symbol
 _atom_site_label
 _atom_site_symmetry_multiplicity
 _atom_site_fract_x
 _atom_site_fract_y
 _atom_site_fract_z
 _atom_site_occupancy
  Li  Li0  1  0.250000  0.702948  0.990794  1
  Li  Li1  1  0.250000  0.796919  0.490751  1
  Ho  Ho2  1  0.750000  0.080228  0.797512  1
  Tm  Tm3  1  0.250000  0.579649  0.702215  1
  Tm  Tm4  1  0.250000  0.920353  0.202286  1
  Tm  Tm5  1  0.750000  0.419857  0.297644  1
  Co  Co6  1  0.750000  0.288468  0.008852  1
  Co  Co7  1  0.750000  0.211596  0.508797  1
  Co  Co8  1  0.250000  0.404053  0.486577  1
  Co  Co9  1  0.250000  0.095967  0.987308  1
  Co  Co10  1  0.750000  0.590959  0.515250  1
  Co  Co11  1  0.750000  0.908865  0.015420  1
  Co  Co12  1  0.250000  0.223894  0.175123  1
  Co  Co13  1  0.250000  0.276531  0.674830  1
  Co  Co14  1  0.750000  0.779938  0.826025  1
  Co  Co15  1  0.750000  0.719815  0.325950  1
  Co  Co16  1  0.250000  0.880953  0.698685  1
  Co  Co17  1  0.250000  0.618484  0.198967  1
  Co  Co18  1  0.750000  0.120418  0.299542  1
  Co  Co19  1  0.750000  0.379950  0.799619  1
  Co  Co20  1  0.250000  0.464016  0.931326  1
  Co  Co21  1  0.250000  0.036291  0.431006  1
  Co  Co22  1  0.750000  0.533118  0.066632  1
  Co  Co23  1  0.750000  0.966694  0.566263  1
  P  P24  1  0.250000  0.421925  0.112664  1
  P  P25  1  0.250000  0.078101  0.612114  1
  P  P26  1  0.750000  0.577816  0.883605  1
  P  P27  1  0.750000  0.922095  0.383485  1
  P  P28  1  0.250000  0.268008  0.867233  1
  P  P29  1  0.250000  0.232716  0.366952  1
  P  P30  1  0.750000  0.730781  0.137852  1
  P  P31  1  0.750000  0.769204  0.637833  1
  P  P32  1  0.250000  0.600353  0.392641  1
  P  P33  1  0.250000  0.899028  0.892955  1
  P  P34  1  0.750000  0.396751  0.607661  1
  P  P35  1  0.750000  0.103260  0.107630  1
