# generated using pymatgen
data_Tb2Ge5(AsRh6)2
_symmetry_space_group_name_H-M   'P 1'
_cell_length_a   9.97211678
_cell_length_b   9.98753614
_cell_length_c   3.92472869
_cell_angle_alpha   90.00699017
_cell_angle_beta   89.93521565
_cell_angle_gamma   119.90067432
_symmetry_Int_Tables_number   1
_chemical_formula_structural   Tb2Ge5(AsRh6)2
_chemical_formula_sum   'Tb2 Ge5 As2 Rh12'
_cell_volume   338.85933994
_cell_formula_units_Z   1
loop_
 _symmetry_equiv_pos_site_id
 _symmetry_equiv_pos_as_xyz
  1  'x, y, z'
loop_
 _atom_site_type_symbol
 _atom_site_label
 _atom_site_symmetry_multiplicity
 _atom_site_fract_x
 _atom_site_fract_y
 _atom_site_fract_z
 _atom_site_occupancy
  Tb  Tb0  1  0.331766  0.664353  0.749544  1
  Tb  Tb1  1  0.668418  0.333914  0.251634  1
  Ge  Ge2  1  0.999231  0.000705  0.585746  1
  Ge  Ge3  1  0.884979  0.596764  0.751792  1
  Ge  Ge4  1  0.404447  0.288296  0.751747  1
  Ge  Ge5  1  0.713813  0.116987  0.751350  1
  Ge  Ge6  1  0.113197  0.403432  0.250840  1
  As  As7  1  0.594824  0.709244  0.249245  1
  As  As8  1  0.289139  0.885921  0.249361  1
  Rh  Rh9  1  0.619646  0.555452  0.751806  1
  Rh  Rh10  1  0.445756  0.063706  0.751787  1
  Rh  Rh11  1  0.938474  0.381921  0.752083  1
  Rh  Rh12  1  0.382841  0.443676  0.249753  1
  Rh  Rh13  1  0.554308  0.936673  0.249781  1
  Rh  Rh14  1  0.062171  0.620294  0.249597  1
  Rh  Rh15  1  0.121968  0.852636  0.750080  1
  Rh  Rh16  1  0.148379  0.269300  0.750405  1
  Rh  Rh17  1  0.727205  0.876675  0.749483  1
  Rh  Rh18  1  0.883183  0.139150  0.251711  1
  Rh  Rh19  1  0.857743  0.744819  0.252972  1
  Rh  Rh20  1  0.258510  0.116082  0.253567  1
