# generated using pymatgen
data_Ho3Cd13Hg2
_symmetry_space_group_name_H-M   'P 1'
_cell_length_a   16.49803914
_cell_length_b   16.49803984
_cell_length_c   6.90670477
_cell_angle_alpha   93.28554586
_cell_angle_beta   93.28554628
_cell_angle_gamma   13.09363561
_symmetry_Int_Tables_number   1
_chemical_formula_structural   Ho3Cd13Hg2
_chemical_formula_sum   'Ho3 Cd13 Hg2'
_cell_volume   425.16997005
_cell_formula_units_Z   1
loop_
 _symmetry_equiv_pos_site_id
 _symmetry_equiv_pos_as_xyz
  1  'x, y, z'
loop_
 _atom_site_type_symbol
 _atom_site_label
 _atom_site_symmetry_multiplicity
 _atom_site_fract_x
 _atom_site_fract_y
 _atom_site_fract_z
 _atom_site_occupancy
  Ho  Ho0  1  0.000583  0.000583  0.990276  1
  Ho  Ho1  1  0.666542  0.666542  0.338530  1
  Ho  Ho2  1  0.883969  0.883969  0.451645  1
  Cd  Cd3  1  0.105918  0.105918  0.033740  1
  Cd  Cd4  1  0.228808  0.228808  0.117065  1
  Cd  Cd5  1  0.330389  0.330389  0.152995  1
  Cd  Cd6  1  0.443136  0.443136  0.225791  1
  Cd  Cd7  1  0.556727  0.556727  0.281367  1
  Cd  Cd8  1  0.779763  0.779763  0.398658  1
  Cd  Cd9  1  0.997366  0.997366  0.478625  1
  Cd  Cd10  1  0.222382  0.222382  0.616889  1
  Cd  Cd11  1  0.445286  0.445286  0.710704  1
  Cd  Cd12  1  0.555399  0.555399  0.741289  1
  Cd  Cd13  1  0.668947  0.668947  0.867609  1
  Cd  Cd14  1  0.775272  0.775272  0.876125  1
  Cd  Cd15  1  0.893214  0.893214  0.958474  1
  Hg  Hg16  1  0.112897  0.112897  0.564826  1
  Hg  Hg17  1  0.333401  0.333401  0.695388  1
