# generated using pymatgen
data_TbEr7Mg2(SiB4)4
_symmetry_space_group_name_H-M   'P 1'
_cell_length_a   7.13878101
_cell_length_b   7.13878101
_cell_length_c   7.78285400
_cell_angle_alpha   89.99741219
_cell_angle_beta   90.00258781
_cell_angle_gamma   89.99584257
_symmetry_Int_Tables_number   1
_chemical_formula_structural   TbEr7Mg2(SiB4)4
_chemical_formula_sum   'Tb1 Er7 Mg2 Si4 B16'
_cell_volume   396.63131579
_cell_formula_units_Z   1
loop_
 _symmetry_equiv_pos_site_id
 _symmetry_equiv_pos_as_xyz
  1  'x, y, z'
loop_
 _atom_site_type_symbol
 _atom_site_label
 _atom_site_symmetry_multiplicity
 _atom_site_fract_x
 _atom_site_fract_y
 _atom_site_fract_z
 _atom_site_occupancy
  Tb  Tb0  1  0.182517  0.317483  0.234322  1
  Er  Er1  1  0.682424  0.182332  0.232094  1
  Er  Er2  1  0.317636  0.817520  0.768030  1
  Er  Er3  1  0.317668  0.817576  0.232094  1
  Er  Er4  1  0.817406  0.682594  0.232064  1
  Er  Er5  1  0.817469  0.682531  0.767939  1
  Er  Er6  1  0.682480  0.182364  0.768030  1
  Er  Er7  1  0.182411  0.317589  0.767820  1
  Mg  Mg8  1  0.999798  0.999635  0.500300  1
  Mg  Mg9  1  0.500365  0.500202  0.500300  1
  Si  Si10  1  0.114850  0.616336  0.500922  1
  Si  Si11  1  0.883664  0.385150  0.500922  1
  Si  Si12  1  0.385416  0.114584  0.501210  1
  Si  Si13  1  0.615798  0.884202  0.500200  1
  B  B14  1  0.173744  0.039054  0.999647  1
  B  B15  1  0.825899  0.960343  0.999716  1
  B  B16  1  0.960086  0.173661  0.999505  1
  B  B17  1  0.326339  0.539914  0.999505  1
  B  B18  1  0.039316  0.825923  0.999660  1
  B  B19  1  0.674077  0.460684  0.999660  1
  B  B20  1  0.539657  0.674101  0.999716  1
  B  B21  1  0.460946  0.326256  0.999647  1
  B  B22  1  0.088683  0.588960  0.999274  1
  B  B23  1  0.911040  0.411317  0.999274  1
  B  B24  1  0.411342  0.088658  0.999836  1
  B  B25  1  0.588723  0.911277  0.999799  1
  B  B26  1  0.999584  0.999233  0.163748  1
  B  B27  1  0.999849  0.999952  0.835509  1
  B  B28  1  0.500048  0.500151  0.835509  1
  B  B29  1  0.500767  0.500416  0.163748  1
