# generated using pymatgen
data_Ho7Tm3(Bi3C)2
_symmetry_space_group_name_H-M   'P 1'
_cell_length_a   6.45346700
_cell_length_b   9.11016986
_cell_length_c   9.10989900
_cell_angle_alpha   120.00097503
_cell_angle_beta   90.00026524
_cell_angle_gamma   89.99946936
_symmetry_Int_Tables_number   1
_chemical_formula_structural   Ho7Tm3(Bi3C)2
_chemical_formula_sum   'Ho7 Tm3 Bi6 C2'
_cell_volume   463.83070499
_cell_formula_units_Z   1
loop_
 _symmetry_equiv_pos_site_id
 _symmetry_equiv_pos_as_xyz
  1  'x, y, z'
loop_
 _atom_site_type_symbol
 _atom_site_label
 _atom_site_symmetry_multiplicity
 _atom_site_fract_x
 _atom_site_fract_y
 _atom_site_fract_z
 _atom_site_occupancy
  Ho  Ho0  1  0.499752  0.333326  0.666652  1
  Ho  Ho1  1  0.499752  0.666674  0.333348  1
  Ho  Ho2  1  0.000246  0.666673  0.333347  1
  Ho  Ho3  1  0.000246  0.333325  0.666653  1
  Ho  Ho4  1  0.250001  0.792278  0.000000  1
  Ho  Ho5  1  0.249999  0.207791  0.207786  1
  Ho  Ho6  1  0.249999  0.000005  0.792214  1
  Tm  Tm7  1  0.750000  0.204435  0.000000  1
  Tm  Tm8  1  0.750004  0.795507  0.795514  1
  Tm  Tm9  1  0.750004  0.999993  0.204486  1
  Bi  Bi10  1  0.750001  0.599037  0.000000  1
  Bi  Bi11  1  0.749999  0.400981  0.400989  1
  Bi  Bi12  1  0.749999  0.999992  0.599011  1
  Bi  Bi13  1  0.250004  0.401241  0.000000  1
  Bi  Bi14  1  0.249998  0.598745  0.598744  1
  Bi  Bi15  1  0.249998  0.000001  0.401256  1
  C  C16  1  0.502726  0.000000  0.000000  1
  C  C17  1  0.997274  0.999998  0.000000  1
