# generated using pymatgen
data_Y5Ho15(In3Ru)2
_symmetry_space_group_name_H-M   'P 1'
_cell_length_a   9.71562326
_cell_length_b   9.71562257
_cell_length_c   9.74470800
_cell_angle_alpha   90.00000000
_cell_angle_beta   90.00000000
_cell_angle_gamma   119.97364783
_symmetry_Int_Tables_number   1
_chemical_formula_structural   Y5Ho15(In3Ru)2
_chemical_formula_sum   'Y5 Ho15 In6 Ru2'
_cell_volume   796.81229141
_cell_formula_units_Z   1
loop_
 _symmetry_equiv_pos_site_id
 _symmetry_equiv_pos_as_xyz
  1  'x, y, z'
loop_
 _atom_site_type_symbol
 _atom_site_label
 _atom_site_symmetry_multiplicity
 _atom_site_fract_x
 _atom_site_fract_y
 _atom_site_fract_z
 _atom_site_occupancy
  Y  Y0  1  0.539314  0.078943  0.250000  1
  Y  Y1  1  0.921057  0.460686  0.250000  1
  Y  Y2  1  0.460609  0.539391  0.750000  1
  Y  Y3  1  0.460787  0.921324  0.750000  1
  Y  Y4  1  0.078676  0.539213  0.750000  1
  Ho  Ho5  1  0.999996  0.000004  0.499937  1
  Ho  Ho6  1  0.999996  0.000004  0.000063  1
  Ho  Ho7  1  0.209873  0.790127  0.438344  1
  Ho  Ho8  1  0.210031  0.419730  0.438358  1
  Ho  Ho9  1  0.580270  0.789969  0.438358  1
  Ho  Ho10  1  0.790120  0.209880  0.561630  1
  Ho  Ho11  1  0.789951  0.580114  0.561333  1
  Ho  Ho12  1  0.419886  0.210049  0.561333  1
  Ho  Ho13  1  0.790120  0.209880  0.938370  1
  Ho  Ho14  1  0.789951  0.580114  0.938667  1
  Ho  Ho15  1  0.419886  0.210049  0.938667  1
  Ho  Ho16  1  0.209873  0.790127  0.061656  1
  Ho  Ho17  1  0.210031  0.419730  0.061642  1
  Ho  Ho18  1  0.580270  0.789969  0.061642  1
  Ho  Ho19  1  0.539275  0.460725  0.250000  1
  In  In20  1  0.884377  0.115623  0.250000  1
  In  In21  1  0.884098  0.768493  0.250000  1
  In  In22  1  0.231507  0.115902  0.250000  1
  In  In23  1  0.115584  0.884416  0.750000  1
  In  In24  1  0.115655  0.231302  0.750000  1
  In  In25  1  0.768698  0.884345  0.750000  1
  Ru  Ru26  1  0.333442  0.666558  0.250000  1
  Ru  Ru27  1  0.666668  0.333332  0.750000  1
