# generated using pymatgen
data_Cs3Ho(AsSe2)6
_symmetry_space_group_name_H-M   'P 1'
_cell_length_a   10.05854700
_cell_length_b   10.05854605
_cell_length_c   8.79338800
_cell_angle_alpha   90.00000000
_cell_angle_beta   90.00000000
_cell_angle_gamma   119.99999325
_symmetry_Int_Tables_number   1
_chemical_formula_structural   Cs3Ho(AsSe2)6
_chemical_formula_sum   'Cs3 Ho1 As6 Se12'
_cell_volume   770.47287892
_cell_formula_units_Z   1
loop_
 _symmetry_equiv_pos_site_id
 _symmetry_equiv_pos_as_xyz
  1  'x, y, z'
loop_
 _atom_site_type_symbol
 _atom_site_label
 _atom_site_symmetry_multiplicity
 _atom_site_fract_x
 _atom_site_fract_y
 _atom_site_fract_z
 _atom_site_occupancy
  Cs  Cs0  1  0.000000  0.000000  0.000000  1
  Cs  Cs1  1  0.333333  0.666667  0.855447  1
  Cs  Cs2  1  0.666667  0.333333  0.144553  1
  Ho  Ho3  1  0.000000  0.000000  0.500000  1
  As  As4  1  0.287414  0.836194  0.396285  1
  As  As5  1  0.163806  0.451221  0.396285  1
  As  As6  1  0.548779  0.712586  0.396285  1
  As  As7  1  0.712586  0.163806  0.603715  1
  As  As8  1  0.836194  0.548779  0.603715  1
  As  As9  1  0.451221  0.287414  0.603715  1
  Se  Se10  1  0.254992  0.044256  0.312817  1
  Se  Se11  1  0.955744  0.210737  0.312817  1
  Se  Se12  1  0.789263  0.745008  0.312817  1
  Se  Se13  1  0.745008  0.955744  0.687183  1
  Se  Se14  1  0.044256  0.789263  0.687183  1
  Se  Se15  1  0.210737  0.254992  0.687183  1
  Se  Se16  1  0.523212  0.904994  0.244775  1
  Se  Se17  1  0.095006  0.618216  0.244775  1
  Se  Se18  1  0.381784  0.476788  0.244775  1
  Se  Se19  1  0.476788  0.095006  0.755225  1
  Se  Se20  1  0.904994  0.381784  0.755225  1
  Se  Se21  1  0.618216  0.523212  0.755225  1
