# generated using pymatgen
data_Sr2Be2Cu15Si8H
_symmetry_space_group_name_H-M   'P 1'
_cell_length_a   8.10210354
_cell_length_b   8.10126708
_cell_length_c   8.12388181
_cell_angle_alpha   120.66553428
_cell_angle_beta   120.27775674
_cell_angle_gamma   89.02770680
_symmetry_Int_Tables_number   1
_chemical_formula_structural   Sr2Be2Cu15Si8H
_chemical_formula_sum   'Sr2 Be2 Cu15 Si8 H1'
_cell_volume   374.82032534
_cell_formula_units_Z   1
loop_
 _symmetry_equiv_pos_site_id
 _symmetry_equiv_pos_as_xyz
  1  'x, y, z'
loop_
 _atom_site_type_symbol
 _atom_site_label
 _atom_site_symmetry_multiplicity
 _atom_site_fract_x
 _atom_site_fract_y
 _atom_site_fract_z
 _atom_site_occupancy
  Sr  Sr0  1  0.247686  0.257157  0.006077  1
  Sr  Sr1  1  0.748996  0.758335  0.006097  1
  Be  Be2  1  0.497347  0.008810  0.506143  1
  Be  Be3  1  0.996627  0.501970  0.498589  1
  Cu  Cu4  1  0.203942  0.069148  0.273167  1
  Cu  Cu5  1  0.786120  0.958840  0.744869  1
  Cu  Cu6  1  0.438897  0.298270  0.737057  1
  Cu  Cu7  1  0.051130  0.795579  0.846720  1
  Cu  Cu8  1  0.799898  0.068147  0.509632  1
  Cu  Cu9  1  0.555702  0.303579  0.503543  1
  Cu  Cu10  1  0.200032  0.947907  0.503688  1
  Cu  Cu11  1  0.441620  0.709832  0.509878  1
  Cu  Cu12  1  0.937968  0.450823  0.745652  1
  Cu  Cu13  1  0.708159  0.207307  0.265637  1
  Cu  Cu14  1  0.058358  0.557541  0.265811  1
  Cu  Cu15  1  0.710446  0.445672  0.156087  1
  Cu  Cu16  1  0.558368  0.719400  0.277836  1
  Cu  Cu17  1  0.295090  0.807825  0.745906  1
  Cu  Cu18  1  0.289286  0.569234  0.858595  1
  Si  Si19  1  0.789307  0.303586  0.860749  1
  Si  Si20  1  0.557198  0.071436  0.860698  1
  Si  Si21  1  0.058868  0.219821  0.504932  1
  Si  Si22  1  0.285286  0.446212  0.505227  1
  Si  Si23  1  0.936008  0.794796  0.496647  1
  Si  Si24  1  0.442605  0.947608  0.155376  1
  Si  Si25  1  0.207717  0.712734  0.155315  1
  Si  Si26  1  0.701769  0.560530  0.496460  1
  H  H27  1  0.995568  0.007904  0.003613  1
