# generated using pymatgen
data_TbDy3(Ga8Pd3)3
_symmetry_space_group_name_H-M   'P 1'
_cell_length_a   7.54536632
_cell_length_b   7.57626559
_cell_length_c   13.19594600
_cell_angle_alpha   84.58694628
_cell_angle_beta   79.13212422
_cell_angle_gamma   60.02321924
_symmetry_Int_Tables_number   1
_chemical_formula_structural   TbDy3(Ga8Pd3)3
_chemical_formula_sum   'Tb1 Dy3 Ga24 Pd9'
_cell_volume   641.72401033
_cell_formula_units_Z   1
loop_
 _symmetry_equiv_pos_site_id
 _symmetry_equiv_pos_as_xyz
  1  'x, y, z'
loop_
 _atom_site_type_symbol
 _atom_site_label
 _atom_site_symmetry_multiplicity
 _atom_site_fract_x
 _atom_site_fract_y
 _atom_site_fract_z
 _atom_site_occupancy
  Tb  Tb0  1  0.393349  0.167811  0.810390  1
  Dy  Dy1  1  0.606563  0.832102  0.189843  1
  Dy  Dy2  1  0.731809  0.498483  0.810271  1
  Dy  Dy3  1  0.268152  0.501584  0.189776  1
  Ga  Ga4  1  0.684735  0.833220  0.939647  1
  Ga  Ga5  1  0.315548  0.166415  0.060908  1
  Ga  Ga6  1  0.146247  0.834009  0.559616  1
  Ga  Ga7  1  0.853807  0.165996  0.440216  1
  Ga  Ga8  1  0.479027  0.166628  0.557556  1
  Ga  Ga9  1  0.520989  0.833374  0.442304  1
  Ga  Ga10  1  0.219087  0.165291  0.326586  1
  Ga  Ga11  1  0.781093  0.834630  0.673137  1
  Ga  Ga12  1  0.436367  0.506161  0.673187  1
  Ga  Ga13  1  0.563714  0.493901  0.326538  1
  Ga  Ga14  1  0.107497  0.161435  0.672922  1
  Ga  Ga15  1  0.892491  0.838571  0.326784  1
  Ga  Ga16  1  0.356340  0.497910  0.939652  1
  Ga  Ga17  1  0.643509  0.502538  0.060617  1
  Ga  Ga18  1  0.017790  0.169920  0.945818  1
  Ga  Ga19  1  0.981772  0.830046  0.054575  1
  Ga  Ga20  1  0.186458  0.499608  0.442319  1
  Ga  Ga21  1  0.813570  0.500386  0.557546  1
  Ga  Ga22  1  0.734378  0.164468  0.183017  1
  Ga  Ga23  1  0.265688  0.835121  0.816981  1
  Ga  Ga24  1  0.060589  0.630716  0.816313  1
  Ga  Ga25  1  0.938965  0.369580  0.183699  1
  Ga  Ga26  1  0.855458  0.041049  0.816952  1
  Ga  Ga27  1  0.144790  0.959017  0.183062  1
  Pd  Pd28  1  0.118763  0.493799  0.638894  1
  Pd  Pd29  1  0.881195  0.506351  0.360937  1
  Pd  Pd30  1  0.659946  0.169668  0.999935  1
  Pd  Pd31  1  0.339936  0.830466  0.000217  1
  Pd  Pd32  1  0.538827  0.166624  0.361054  1
  Pd  Pd33  1  0.461199  0.833251  0.638797  1
  Pd  Pd34  1  0.778322  0.174200  0.637969  1
  Pd  Pd35  1  0.221883  0.825761  0.361863  1
  Pd  Pd36  1  0.000149  0.499910  0.000098  1
