# generated using pymatgen
data_Nd2Ho(CuSn)4
_symmetry_space_group_name_H-M   'P 1'
_cell_length_a   8.55308107
_cell_length_b   8.55307969
_cell_length_c   8.55308020
_cell_angle_alpha   148.90111550
_cell_angle_beta   132.15199676
_cell_angle_gamma   58.17160988
_symmetry_Int_Tables_number   1
_chemical_formula_structural   Nd2Ho(CuSn)4
_chemical_formula_sum   'Nd2 Ho1 Cu4 Sn4'
_cell_volume   237.76658068
_cell_formula_units_Z   1
loop_
 _symmetry_equiv_pos_site_id
 _symmetry_equiv_pos_as_xyz
  1  'x, y, z'
loop_
 _atom_site_type_symbol
 _atom_site_label
 _atom_site_symmetry_multiplicity
 _atom_site_fract_x
 _atom_site_fract_y
 _atom_site_fract_z
 _atom_site_occupancy
  Nd  Nd0  1  0.132192  0.132192  0.000000  1
  Nd  Nd1  1  0.867808  0.867808  0.000000  1
  Ho  Ho2  1  0.500000  0.000000  0.500000  1
  Cu  Cu3  1  0.854148  0.669037  0.185111  1
  Cu  Cu4  1  0.483926  0.669037  0.814889  1
  Cu  Cu5  1  0.516074  0.330963  0.185111  1
  Cu  Cu6  1  0.145852  0.330963  0.814889  1
  Sn  Sn7  1  0.793806  0.500000  0.293806  1
  Sn  Sn8  1  0.206194  0.500000  0.706194  1
  Sn  Sn9  1  0.714429  0.214429  0.500000  1
  Sn  Sn10  1  0.285571  0.785571  0.500000  1
