# generated using pymatgen
data_Li3Gd2LuPt3
_symmetry_space_group_name_H-M   'P 1'
_cell_length_a   7.08087100
_cell_length_b   7.10552994
_cell_length_c   4.03737400
_cell_angle_alpha   90.00000000
_cell_angle_beta   90.00000000
_cell_angle_gamma   120.11524412
_symmetry_Int_Tables_number   1
_chemical_formula_structural   Li3Gd2LuPt3
_chemical_formula_sum   'Li3 Gd2 Lu1 Pt3'
_cell_volume   175.71436273
_cell_formula_units_Z   1
loop_
 _symmetry_equiv_pos_site_id
 _symmetry_equiv_pos_as_xyz
  1  'x, y, z'
loop_
 _atom_site_type_symbol
 _atom_site_label
 _atom_site_symmetry_multiplicity
 _atom_site_fract_x
 _atom_site_fract_y
 _atom_site_fract_z
 _atom_site_occupancy
  Li  Li0  1  0.769984  0.765726  0.500000  1
  Li  Li1  1  0.230016  0.995742  0.500000  1
  Li  Li2  1  0.000000  0.233395  0.500000  1
  Gd  Gd3  1  0.411725  0.411934  0.000000  1
  Gd  Gd4  1  0.588275  0.000208  0.000000  1
  Lu  Lu5  1  0.000000  0.593961  0.000000  1
  Pt  Pt6  1  0.000000  0.993618  0.000000  1
  Pt  Pt7  1  0.679359  0.342386  0.500000  1
  Pt  Pt8  1  0.320641  0.663027  0.500000  1
