# generated using pymatgen
data_HoTh3(GaRu)4
_symmetry_space_group_name_H-M   'P 1'
_cell_length_a   4.02650800
_cell_length_b   7.16427711
_cell_length_c   8.32150859
_cell_angle_alpha   90.21911717
_cell_angle_beta   90.00000000
_cell_angle_gamma   90.00000000
_symmetry_Int_Tables_number   1
_chemical_formula_structural   HoTh3(GaRu)4
_chemical_formula_sum   'Ho1 Th3 Ga4 Ru4'
_cell_volume   240.04896191
_cell_formula_units_Z   1
loop_
 _symmetry_equiv_pos_site_id
 _symmetry_equiv_pos_as_xyz
  1  'x, y, z'
loop_
 _atom_site_type_symbol
 _atom_site_label
 _atom_site_symmetry_multiplicity
 _atom_site_fract_x
 _atom_site_fract_y
 _atom_site_fract_z
 _atom_site_occupancy
  Ho  Ho0  1  0.750000  0.544794  0.812515  1
  Th  Th1  1  0.250000  0.961126  0.312786  1
  Th  Th2  1  0.250000  0.460696  0.181757  1
  Th  Th3  1  0.750000  0.041694  0.690859  1
  Ga  Ga4  1  0.250000  0.372973  0.565353  1
  Ga  Ga5  1  0.250000  0.850818  0.937581  1
  Ga  Ga6  1  0.750000  0.632630  0.443953  1
  Ga  Ga7  1  0.750000  0.136288  0.056932  1
  Ru  Ru8  1  0.250000  0.240564  0.872274  1
  Ru  Ru9  1  0.250000  0.752183  0.624364  1
  Ru  Ru10  1  0.750000  0.752875  0.131892  1
  Ru  Ru11  1  0.750000  0.253356  0.369734  1
