# generated using pymatgen
data_LiHf7H16
_symmetry_space_group_name_H-M   'P 1'
_cell_length_a   6.64042634
_cell_length_b   6.64042594
_cell_length_c   6.64042700
_cell_angle_alpha   59.99999968
_cell_angle_beta   60.00000169
_cell_angle_gamma   59.99999912
_symmetry_Int_Tables_number   1
_chemical_formula_structural   LiHf7H16
_chemical_formula_sum   'Li1 Hf7 H16'
_cell_volume   207.04889221
_cell_formula_units_Z   1
loop_
 _symmetry_equiv_pos_site_id
 _symmetry_equiv_pos_as_xyz
  1  'x, y, z'
loop_
 _atom_site_type_symbol
 _atom_site_label
 _atom_site_symmetry_multiplicity
 _atom_site_fract_x
 _atom_site_fract_y
 _atom_site_fract_z
 _atom_site_occupancy
  Li  Li0  1  0.000000  0.000000  0.000000  1
  Hf  Hf1  1  0.500000  0.500000  0.500000  1
  Hf  Hf2  1  0.000000  0.000000  0.500000  1
  Hf  Hf3  1  0.500000  0.000000  0.500000  1
  Hf  Hf4  1  0.000000  0.500000  0.500000  1
  Hf  Hf5  1  0.500000  0.500000  0.000000  1
  Hf  Hf6  1  0.000000  0.500000  0.000000  1
  Hf  Hf7  1  0.500000  0.000000  0.000000  1
  H  H8  1  0.875674  0.875674  0.372981  1
  H  H9  1  0.875674  0.372981  0.875674  1
  H  H10  1  0.372981  0.875674  0.875674  1
  H  H11  1  0.875674  0.875674  0.875674  1
  H  H12  1  0.124326  0.124326  0.627019  1
  H  H13  1  0.124326  0.627019  0.124326  1
  H  H14  1  0.627019  0.124326  0.124326  1
  H  H15  1  0.124326  0.124326  0.124326  1
  H  H16  1  0.624807  0.624807  0.125578  1
  H  H17  1  0.624807  0.125578  0.624807  1
  H  H18  1  0.125578  0.624807  0.624807  1
  H  H19  1  0.624807  0.624807  0.624807  1
  H  H20  1  0.375193  0.375193  0.874422  1
  H  H21  1  0.375193  0.874422  0.375193  1
  H  H22  1  0.874422  0.375193  0.375193  1
  H  H23  1  0.375193  0.375193  0.375193  1
