# generated using pymatgen
data_Na4Bi2(IrO4)3
_symmetry_space_group_name_H-M   'P 1'
_cell_length_a   9.60967100
_cell_length_b   9.60967144
_cell_length_c   3.21664500
_cell_angle_alpha   90.00000000
_cell_angle_beta   90.00000000
_cell_angle_gamma   119.99999506
_symmetry_Int_Tables_number   1
_chemical_formula_structural   Na4Bi2(IrO4)3
_chemical_formula_sum   'Na4 Bi2 Ir3 O12'
_cell_volume   257.24731164
_cell_formula_units_Z   1
loop_
 _symmetry_equiv_pos_site_id
 _symmetry_equiv_pos_as_xyz
  1  'x, y, z'
loop_
 _atom_site_type_symbol
 _atom_site_label
 _atom_site_symmetry_multiplicity
 _atom_site_fract_x
 _atom_site_fract_y
 _atom_site_fract_z
 _atom_site_occupancy
  Na  Na0  1  0.000000  0.000000  0.000000  1
  Na  Na1  1  0.698489  0.000000  0.500000  1
  Na  Na2  1  0.000000  0.698489  0.500000  1
  Na  Na3  1  0.301511  0.301511  0.500000  1
  Bi  Bi4  1  0.333333  0.666667  0.500000  1
  Bi  Bi5  1  0.666667  0.333333  0.500000  1
  Ir  Ir6  1  0.329294  0.000000  0.000000  1
  Ir  Ir7  1  0.000000  0.329294  0.000000  1
  Ir  Ir8  1  0.670706  0.670706  0.000000  1
  O  O9  1  0.197290  0.000000  0.500000  1
  O  O10  1  0.000000  0.197290  0.500000  1
  O  O11  1  0.802710  0.802710  0.500000  1
  O  O12  1  0.455211  0.000000  0.500000  1
  O  O13  1  0.000000  0.455211  0.500000  1
  O  O14  1  0.544789  0.544789  0.500000  1
  O  O15  1  0.239026  0.454095  0.000000  1
  O  O16  1  0.545905  0.784930  0.000000  1
  O  O17  1  0.454095  0.239026  0.000000  1
  O  O18  1  0.215070  0.760974  0.000000  1
  O  O19  1  0.784930  0.545905  0.000000  1
  O  O20  1  0.760974  0.215070  0.000000  1
