# generated using pymatgen
data_Tb3Y7(IrRu)2
_symmetry_space_group_name_H-M   'P 1'
_cell_length_a   6.46435880
_cell_length_b   7.28766813
_cell_length_c   8.53978510
_cell_angle_alpha   96.52498467
_cell_angle_beta   112.29395938
_cell_angle_gamma   90.14772550
_symmetry_Int_Tables_number   1
_chemical_formula_structural   Tb3Y7(IrRu)2
_chemical_formula_sum   'Tb3 Y7 Ir2 Ru2'
_cell_volume   369.36910287
_cell_formula_units_Z   1
loop_
 _symmetry_equiv_pos_site_id
 _symmetry_equiv_pos_as_xyz
  1  'x, y, z'
loop_
 _atom_site_type_symbol
 _atom_site_label
 _atom_site_symmetry_multiplicity
 _atom_site_fract_x
 _atom_site_fract_y
 _atom_site_fract_z
 _atom_site_occupancy
  Tb  Tb0  1  0.786887  0.317873  0.437703  1
  Tb  Tb1  1  0.426473  0.749846  0.999980  1
  Tb  Tb2  1  0.574612  0.250143  0.999609  1
  Y  Y3  1  0.974734  0.915013  0.183691  1
  Y  Y4  1  0.790223  0.585036  0.816337  1
  Y  Y5  1  0.023913  0.082448  0.815329  1
  Y  Y6  1  0.208206  0.417878  0.184330  1
  Y  Y7  1  0.652639  0.816824  0.439323  1
  Y  Y8  1  0.213365  0.683740  0.560726  1
  Y  Y9  1  0.348901  0.181734  0.562083  1
  Ir  Ir10  1  0.174790  0.425704  0.779517  1
  Ir  Ir11  1  0.395210  0.074816  0.220196  1
  Ru  Ru12  1  0.824320  0.571194  0.220031  1
  Ru  Ru13  1  0.605726  0.927750  0.781147  1
