# generated using pymatgen
data_TbNd17(ErSn8)2
_symmetry_space_group_name_H-M   'P 1'
_cell_length_a   8.25230303
_cell_length_b   8.40552083
_cell_length_c   15.94224600
_cell_angle_alpha   90.00000000
_cell_angle_beta   90.00000000
_cell_angle_gamma   89.97973470
_symmetry_Int_Tables_number   1
_chemical_formula_structural   TbNd17(ErSn8)2
_chemical_formula_sum   'Tb1 Nd17 Er2 Sn16'
_cell_volume   1105.83231126
_cell_formula_units_Z   1
loop_
 _symmetry_equiv_pos_site_id
 _symmetry_equiv_pos_as_xyz
  1  'x, y, z'
loop_
 _atom_site_type_symbol
 _atom_site_label
 _atom_site_symmetry_multiplicity
 _atom_site_fract_x
 _atom_site_fract_y
 _atom_site_fract_z
 _atom_site_occupancy
  Tb  Tb0  1  0.198783  0.502222  0.250000  1
  Nd  Nd1  1  0.017641  0.180980  0.401162  1
  Nd  Nd2  1  0.368162  0.837642  0.120656  1
  Nd  Nd3  1  0.132843  0.336715  0.620679  1
  Nd  Nd4  1  0.481441  0.681614  0.901538  1
  Nd  Nd5  1  0.867439  0.662869  0.121538  1
  Nd  Nd6  1  0.132843  0.336715  0.879321  1
  Nd  Nd7  1  0.481441  0.681614  0.598462  1
  Nd  Nd8  1  0.631380  0.162491  0.620258  1
  Nd  Nd9  1  0.802713  0.497984  0.750000  1
  Nd  Nd10  1  0.867439  0.662869  0.378462  1
  Nd  Nd11  1  0.017641  0.180980  0.098838  1
  Nd  Nd12  1  0.982461  0.819649  0.901424  1
  Nd  Nd13  1  0.631380  0.162491  0.879742  1
  Nd  Nd14  1  0.518183  0.318846  0.099120  1
  Nd  Nd15  1  0.368162  0.837642  0.379344  1
  Nd  Nd16  1  0.982461  0.819649  0.598576  1
  Nd  Nd17  1  0.518183  0.318846  0.400880  1
  Er  Er18  1  0.699509  0.997997  0.250000  1
  Er  Er19  1  0.300751  0.002488  0.750000  1
  Sn  Sn20  1  0.791791  0.463534  0.541568  1
  Sn  Sn21  1  0.708292  0.964899  0.455831  1
  Sn  Sn22  1  0.674423  0.858222  0.750000  1
  Sn  Sn23  1  0.208056  0.534761  0.456255  1
  Sn  Sn24  1  0.291860  0.034911  0.956126  1
  Sn  Sn25  1  0.824625  0.352984  0.250000  1
  Sn  Sn26  1  0.791791  0.463534  0.958432  1
  Sn  Sn27  1  0.565058  0.617259  0.250000  1
  Sn  Sn28  1  0.208056  0.534761  0.043745  1
  Sn  Sn29  1  0.431906  0.382085  0.750000  1
  Sn  Sn30  1  0.177746  0.647832  0.750000  1
  Sn  Sn31  1  0.936698  0.114568  0.750000  1
  Sn  Sn32  1  0.291860  0.034911  0.543874  1
  Sn  Sn33  1  0.708292  0.964899  0.044169  1
  Sn  Sn34  1  0.324081  0.145287  0.250000  1
  Sn  Sn35  1  0.064609  0.883253  0.250000  1
