# generated using pymatgen
data_Ho2ScB2Ir4Rh
_symmetry_space_group_name_H-M   'P 1'
_cell_length_a   9.75961300
_cell_length_b   9.75961300
_cell_length_c   3.17032600
_cell_angle_alpha   90.00000000
_cell_angle_beta   90.00000000
_cell_angle_gamma   90.00000000
_symmetry_Int_Tables_number   1
_chemical_formula_structural   Ho2ScB2Ir4Rh
_chemical_formula_sum   'Ho4 Sc2 B4 Ir8 Rh2'
_cell_volume   301.97369705
_cell_formula_units_Z   2
loop_
 _symmetry_equiv_pos_site_id
 _symmetry_equiv_pos_as_xyz
  1  'x, y, z'
loop_
 _atom_site_type_symbol
 _atom_site_label
 _atom_site_symmetry_multiplicity
 _atom_site_fract_x
 _atom_site_fract_y
 _atom_site_fract_z
 _atom_site_occupancy
  Ho  Ho0  1  0.824728  0.324728  0.000000  1
  Ho  Ho1  1  0.324728  0.175272  0.000000  1
  Ho  Ho2  1  0.675272  0.824728  0.000000  1
  Ho  Ho3  1  0.175272  0.675272  0.000000  1
  Sc  Sc4  1  0.000000  0.000000  0.000000  1
  Sc  Sc5  1  0.500000  0.500000  0.000000  1
  B  B6  1  0.620573  0.120573  0.000000  1
  B  B7  1  0.120573  0.379427  0.000000  1
  B  B8  1  0.879427  0.620573  0.000000  1
  B  B9  1  0.379427  0.879427  0.000000  1
  Ir  Ir10  1  0.069994  0.225384  0.500000  1
  Ir  Ir11  1  0.225384  0.930006  0.500000  1
  Ir  Ir12  1  0.774616  0.069994  0.500000  1
  Ir  Ir13  1  0.930006  0.774616  0.500000  1
  Ir  Ir14  1  0.430006  0.725384  0.500000  1
  Ir  Ir15  1  0.569994  0.274616  0.500000  1
  Ir  Ir16  1  0.725384  0.569994  0.500000  1
  Ir  Ir17  1  0.274616  0.430006  0.500000  1
  Rh  Rh18  1  0.500000  0.000000  0.500000  1
  Rh  Rh19  1  0.000000  0.500000  0.500000  1
