# generated using pymatgen
data_YPu(CI)2
_symmetry_space_group_name_H-M   'P 1'
_cell_length_a   4.11184764
_cell_length_b   4.11184739
_cell_length_c   10.82992942
_cell_angle_alpha   86.89068408
_cell_angle_beta   86.89068535
_cell_angle_gamma   56.65978241
_symmetry_Int_Tables_number   1
_chemical_formula_structural   YPu(CI)2
_chemical_formula_sum   'Y1 Pu1 C2 I2'
_cell_volume   152.67899646
_cell_formula_units_Z   1
loop_
 _symmetry_equiv_pos_site_id
 _symmetry_equiv_pos_as_xyz
  1  'x, y, z'
loop_
 _atom_site_type_symbol
 _atom_site_label
 _atom_site_symmetry_multiplicity
 _atom_site_fract_x
 _atom_site_fract_y
 _atom_site_fract_z
 _atom_site_occupancy
  Y  Y0  1  0.142472  0.142472  0.869544  1
  Pu  Pu1  1  0.857824  0.857824  0.132642  1
  C  C2  1  0.426425  0.426425  0.964348  1
  C  C3  1  0.577243  0.577243  0.028834  1
  I  I4  1  0.823248  0.823248  0.674742  1
  I  I5  1  0.172789  0.172789  0.329891  1
