# generated using pymatgen
data_YHo19(CoBi2)4
_symmetry_space_group_name_H-M   'P 1'
_cell_length_a   7.96930212
_cell_length_b   8.86080300
_cell_length_c   12.36291418
_cell_angle_alpha   90.00000000
_cell_angle_beta   89.98037296
_cell_angle_gamma   90.00000000
_symmetry_Int_Tables_number   1
_chemical_formula_structural   YHo19(CoBi2)4
_chemical_formula_sum   'Y1 Ho19 Co4 Bi8'
_cell_volume   872.99991505
_cell_formula_units_Z   1
loop_
 _symmetry_equiv_pos_site_id
 _symmetry_equiv_pos_as_xyz
  1  'x, y, z'
loop_
 _atom_site_type_symbol
 _atom_site_label
 _atom_site_symmetry_multiplicity
 _atom_site_fract_x
 _atom_site_fract_y
 _atom_site_fract_z
 _atom_site_occupancy
  Y  Y0  1  0.345947  0.750000  0.700958  1
  Ho  Ho1  1  0.653536  0.250000  0.300380  1
  Ho  Ho2  1  0.846557  0.250000  0.800428  1
  Ho  Ho3  1  0.153573  0.750000  0.199651  1
  Ho  Ho4  1  0.884871  0.750000  0.810957  1
  Ho  Ho5  1  0.114789  0.250000  0.189156  1
  Ho  Ho6  1  0.385197  0.250000  0.689076  1
  Ho  Ho7  1  0.614882  0.750000  0.310648  1
  Ho  Ho8  1  0.675668  0.537773  0.562677  1
  Ho  Ho9  1  0.324567  0.461944  0.436953  1
  Ho  Ho10  1  0.175413  0.461980  0.937069  1
  Ho  Ho11  1  0.324567  0.038056  0.436953  1
  Ho  Ho12  1  0.824677  0.538098  0.063067  1
  Ho  Ho13  1  0.675668  0.962227  0.562677  1
  Ho  Ho14  1  0.824677  0.961902  0.063067  1
  Ho  Ho15  1  0.175413  0.038020  0.937069  1
  Ho  Ho16  1  0.052028  0.750000  0.497742  1
  Ho  Ho17  1  0.947471  0.250000  0.501833  1
  Ho  Ho18  1  0.552573  0.250000  0.002117  1
  Ho  Ho19  1  0.447504  0.750000  0.998367  1
  Co  Co20  1  0.066134  0.750000  0.991651  1
  Co  Co21  1  0.933933  0.250000  0.008299  1
  Co  Co22  1  0.566043  0.250000  0.508277  1
  Co  Co23  1  0.434417  0.750000  0.490630  1
  Bi  Bi24  1  0.572254  0.509358  0.826914  1
  Bi  Bi25  1  0.428066  0.490192  0.173428  1
  Bi  Bi26  1  0.071464  0.490039  0.673240  1
  Bi  Bi27  1  0.428066  0.009808  0.173428  1
  Bi  Bi28  1  0.928162  0.509626  0.326567  1
  Bi  Bi29  1  0.572254  0.990642  0.826914  1
  Bi  Bi30  1  0.928162  0.990374  0.326567  1
  Bi  Bi31  1  0.071464  0.009961  0.673240  1
