# generated using pymatgen
data_Rb4UPaTe6
_symmetry_space_group_name_H-M   'P 1'
_cell_length_a   8.24778914
_cell_length_b   8.24778870
_cell_length_c   8.98488751
_cell_angle_alpha   81.05768576
_cell_angle_beta   81.05768689
_cell_angle_gamma   120.02638471
_symmetry_Int_Tables_number   1
_chemical_formula_structural   Rb4UPaTe6
_chemical_formula_sum   'Rb4 U1 Pa1 Te6'
_cell_volume   502.93653767
_cell_formula_units_Z   1
loop_
 _symmetry_equiv_pos_site_id
 _symmetry_equiv_pos_as_xyz
  1  'x, y, z'
loop_
 _atom_site_type_symbol
 _atom_site_label
 _atom_site_symmetry_multiplicity
 _atom_site_fract_x
 _atom_site_fract_y
 _atom_site_fract_z
 _atom_site_occupancy
  Rb  Rb0  1  0.499987  0.500013  0.000000  1
  Rb  Rb1  1  0.654694  0.345306  0.500000  1
  Rb  Rb2  1  0.345309  0.654691  0.500000  1
  Rb  Rb3  1  0.999944  0.000056  0.500000  1
  U  U4  1  0.167821  0.832179  0.000000  1
  Pa  Pa5  1  0.832187  0.167813  0.000000  1
  Te  Te6  1  0.804577  0.812551  0.202070  1
  Te  Te7  1  0.187449  0.195423  0.797930  1
  Te  Te8  1  0.438518  0.056465  0.205483  1
  Te  Te9  1  0.577833  0.951854  0.794750  1
  Te  Te10  1  0.943535  0.561482  0.794517  1
  Te  Te11  1  0.048146  0.422167  0.205250  1
