# generated using pymatgen
data_La3NdGa7(GeIr2)3
_symmetry_space_group_name_H-M   'P 1'
_cell_length_a   8.64918505
_cell_length_b   8.70935007
_cell_length_c   8.70935079
_cell_angle_alpha   140.46927880
_cell_angle_beta   108.30941849
_cell_angle_gamma   85.19062346
_symmetry_Int_Tables_number   1
_chemical_formula_structural   La3NdGa7(GeIr2)3
_chemical_formula_sum   'La3 Nd1 Ga7 Ge3 Ir6'
_cell_volume   382.56632515
_cell_formula_units_Z   1
loop_
 _symmetry_equiv_pos_site_id
 _symmetry_equiv_pos_as_xyz
  1  'x, y, z'
loop_
 _atom_site_type_symbol
 _atom_site_label
 _atom_site_symmetry_multiplicity
 _atom_site_fract_x
 _atom_site_fract_y
 _atom_site_fract_z
 _atom_site_occupancy
  La  La0  1  0.863295  0.632861  0.230433  1
  La  La1  1  0.136358  0.364285  0.772073  1
  La  La2  1  0.410050  0.138118  0.271932  1
  Nd  Nd3  1  0.593229  0.864437  0.728791  1
  Ga  Ga4  1  0.499128  0.752581  0.251356  1
  Ga  Ga5  1  0.499128  0.247772  0.746546  1
  Ga  Ga6  1  0.215439  0.962331  0.749586  1
  Ga  Ga7  1  0.786844  0.535003  0.747702  1
  Ga  Ga8  1  0.786844  0.039141  0.251840  1
  Ga  Ga9  1  0.215439  0.465853  0.253109  1
  Ga  Ga10  1  0.073630  0.908376  0.165254  1
  Ge  Ge11  1  0.928514  0.092335  0.836179  1
  Ge  Ge12  1  0.735989  0.402209  0.333780  1
  Ge  Ge13  1  0.258632  0.593888  0.664744  1
  Ir  Ir14  1  0.997422  0.749249  0.746364  1
  Ir  Ir15  1  0.997422  0.251057  0.248173  1
  Ir  Ir16  1  0.252331  0.853901  0.398431  1
  Ir  Ir17  1  0.750007  0.144702  0.605304  1
  Ir  Ir18  1  0.455262  0.355985  0.099277  1
  Ir  Ir19  1  0.545040  0.645912  0.899127  1
