# generated using pymatgen
data_Ac4CdRh
_symmetry_space_group_name_H-M   'P 1'
_cell_length_a   10.56109476
_cell_length_b   10.56109542
_cell_length_c   10.56109500
_cell_angle_alpha   59.99999819
_cell_angle_beta   59.99999613
_cell_angle_gamma   59.99999587
_symmetry_Int_Tables_number   1
_chemical_formula_structural   Ac4CdRh
_chemical_formula_sum   'Ac16 Cd4 Rh4'
_cell_volume   832.93636890
_cell_formula_units_Z   4
loop_
 _symmetry_equiv_pos_site_id
 _symmetry_equiv_pos_as_xyz
  1  'x, y, z'
loop_
 _atom_site_type_symbol
 _atom_site_label
 _atom_site_symmetry_multiplicity
 _atom_site_fract_x
 _atom_site_fract_y
 _atom_site_fract_z
 _atom_site_occupancy
  Ac  Ac0  1  0.290814  0.903062  0.903062  1
  Ac  Ac1  1  0.687610  0.312390  0.687610  1
  Ac  Ac2  1  0.312390  0.687610  0.312390  1
  Ac  Ac3  1  0.060362  0.439638  0.439638  1
  Ac  Ac4  1  0.687610  0.312390  0.312390  1
  Ac  Ac5  1  0.439638  0.060362  0.439638  1
  Ac  Ac6  1  0.439638  0.060362  0.060362  1
  Ac  Ac7  1  0.903062  0.903062  0.903062  1
  Ac  Ac8  1  0.060362  0.439638  0.060362  1
  Ac  Ac9  1  0.903062  0.290814  0.903062  1
  Ac  Ac10  1  0.312390  0.687610  0.687610  1
  Ac  Ac11  1  0.903062  0.903062  0.290814  1
  Ac  Ac12  1  0.439638  0.439638  0.060362  1
  Ac  Ac13  1  0.312390  0.312390  0.687610  1
  Ac  Ac14  1  0.687610  0.687610  0.312390  1
  Ac  Ac15  1  0.060362  0.060362  0.439638  1
  Cd  Cd16  1  0.988998  0.670334  0.670334  1
  Cd  Cd17  1  0.670334  0.988998  0.670334  1
  Cd  Cd18  1  0.670334  0.670334  0.988998  1
  Cd  Cd19  1  0.670334  0.670334  0.670334  1
  Rh  Rh20  1  0.108282  0.108282  0.675154  1
  Rh  Rh21  1  0.108282  0.675154  0.108282  1
  Rh  Rh22  1  0.108282  0.108282  0.108282  1
  Rh  Rh23  1  0.675154  0.108282  0.108282  1
