# generated using pymatgen
data_Nd2Y2Al18FeCo2Pt3
_symmetry_space_group_name_H-M   'P 1'
_cell_length_a   7.54055781
_cell_length_b   7.54389996
_cell_length_c   9.46319200
_cell_angle_alpha   89.88249037
_cell_angle_beta   89.87547058
_cell_angle_gamma   119.50077246
_symmetry_Int_Tables_number   1
_chemical_formula_structural   Nd2Y2Al18FeCo2Pt3
_chemical_formula_sum   'Nd2 Y2 Al18 Fe1 Co2 Pt3'
_cell_volume   468.51844262
_cell_formula_units_Z   1
loop_
 _symmetry_equiv_pos_site_id
 _symmetry_equiv_pos_as_xyz
  1  'x, y, z'
loop_
 _atom_site_type_symbol
 _atom_site_label
 _atom_site_symmetry_multiplicity
 _atom_site_fract_x
 _atom_site_fract_y
 _atom_site_fract_z
 _atom_site_occupancy
  Nd  Nd0  1  0.991364  0.667872  0.250933  1
  Nd  Nd1  1  0.673371  0.998198  0.251032  1
  Y  Y2  1  0.000639  0.324817  0.749029  1
  Y  Y3  1  0.332181  0.009824  0.748922  1
  Al  Al4  1  0.655563  0.987747  0.921847  1
  Al  Al5  1  0.013512  0.672533  0.574088  1
  Al  Al6  1  0.131204  0.128564  0.258036  1
  Al  Al7  1  0.657180  0.665118  0.048012  1
  Al  Al8  1  0.325285  0.333910  0.549501  1
  Al  Al9  1  0.333805  0.341518  0.944522  1
  Al  Al10  1  0.664338  0.673195  0.458605  1
  Al  Al11  1  0.334042  0.990302  0.071552  1
  Al  Al12  1  0.011764  0.337791  0.431822  1
  Al  Al13  1  0.340184  0.555870  0.252858  1
  Al  Al14  1  0.014114  0.344203  0.072381  1
  Al  Al15  1  0.538656  0.338841  0.250568  1
  Al  Al16  1  0.660683  0.460249  0.749336  1
  Al  Al17  1  0.874920  0.871923  0.742063  1
  Al  Al18  1  0.012044  0.665766  0.922402  1
  Al  Al19  1  0.661572  0.990108  0.574313  1
  Al  Al20  1  0.326860  0.988850  0.432277  1
  Al  Al21  1  0.438376  0.659101  0.747135  1
  Fe  Fe22  1  0.329394  0.669632  0.501585  1
  Co  Co23  1  0.002128  0.000570  0.502191  1
  Co  Co24  1  0.330292  0.669135  0.997877  1
  Pt  Pt25  1  0.672057  0.327008  0.501951  1
  Pt  Pt26  1  0.672496  0.326818  0.997787  1
  Pt  Pt27  1  0.001974  0.000542  0.997376  1
