# generated using pymatgen
data_Y2LuZn6Pt5
_symmetry_space_group_name_H-M   'P 1'
_cell_length_a   8.21847352
_cell_length_b   8.21847346
_cell_length_c   8.21847230
_cell_angle_alpha   151.66095681
_cell_angle_beta   101.89783855
_cell_angle_gamma   85.04798462
_symmetry_Int_Tables_number   1
_chemical_formula_structural   Y2LuZn6Pt5
_chemical_formula_sum   'Y2 Lu1 Zn6 Pt5'
_cell_volume   252.37346424
_cell_formula_units_Z   1
loop_
 _symmetry_equiv_pos_site_id
 _symmetry_equiv_pos_as_xyz
  1  'x, y, z'
loop_
 _atom_site_type_symbol
 _atom_site_label
 _atom_site_symmetry_multiplicity
 _atom_site_fract_x
 _atom_site_fract_y
 _atom_site_fract_z
 _atom_site_occupancy
  Y  Y0  1  0.292152  0.292152  0.000000  1
  Y  Y1  1  0.707848  0.707848  0.000000  1
  Lu  Lu2  1  0.000000  0.000000  0.000000  1
  Zn  Zn3  1  0.676832  0.500000  0.176832  1
  Zn  Zn4  1  0.323168  0.500000  0.823168  1
  Zn  Zn5  1  0.438801  0.146879  0.291922  1
  Zn  Zn6  1  0.561199  0.853121  0.708078  1
  Zn  Zn7  1  0.854958  0.146879  0.708078  1
  Zn  Zn8  1  0.145042  0.853121  0.291922  1
  Pt  Pt9  1  0.724238  0.356440  0.367797  1
  Pt  Pt10  1  0.275762  0.643560  0.632203  1
  Pt  Pt11  1  0.988644  0.356440  0.632203  1
  Pt  Pt12  1  0.011356  0.643560  0.367797  1
  Pt  Pt13  1  0.500000  0.000000  0.500000  1
