# generated using pymatgen
data_Ca3Sm(Si3Ni5)4
_symmetry_space_group_name_H-M   'P 1'
_cell_length_a   18.78243380
_cell_length_b   3.78006500
_cell_length_c   6.68255108
_cell_angle_alpha   90.00000000
_cell_angle_beta   89.87052294
_cell_angle_gamma   90.00000000
_symmetry_Int_Tables_number   1
_chemical_formula_structural   Ca3Sm(Si3Ni5)4
_chemical_formula_sum   'Ca3 Sm1 Si12 Ni20'
_cell_volume   474.45203372
_cell_formula_units_Z   1
loop_
 _symmetry_equiv_pos_site_id
 _symmetry_equiv_pos_as_xyz
  1  'x, y, z'
loop_
 _atom_site_type_symbol
 _atom_site_label
 _atom_site_symmetry_multiplicity
 _atom_site_fract_x
 _atom_site_fract_y
 _atom_site_fract_z
 _atom_site_occupancy
  Ca  Ca0  1  0.642878  0.250000  0.622558  1
  Ca  Ca1  1  0.142561  0.250000  0.877343  1
  Ca  Ca2  1  0.357353  0.750000  0.377348  1
  Sm  Sm3  1  0.857166  0.750000  0.124429  1
  Si  Si4  1  0.914364  0.250000  0.422874  1
  Si  Si5  1  0.414105  0.250000  0.079686  1
  Si  Si6  1  0.086249  0.750000  0.579522  1
  Si  Si7  1  0.585917  0.750000  0.919913  1
  Si  Si8  1  0.736965  0.250000  0.121486  1
  Si  Si9  1  0.237870  0.250000  0.377829  1
  Si  Si10  1  0.261932  0.750000  0.877753  1
  Si  Si11  1  0.762478  0.750000  0.620530  1
  Si  Si12  1  0.926554  0.250000  0.842732  1
  Si  Si13  1  0.425573  0.250000  0.656728  1
  Si  Si14  1  0.074250  0.750000  0.156704  1
  Si  Si15  1  0.574037  0.750000  0.343475  1
  Ni  Ni16  1  0.800547  0.250000  0.812501  1
  Ni  Ni17  1  0.300202  0.250000  0.686706  1
  Ni  Ni18  1  0.200000  0.750000  0.186783  1
  Ni  Ni19  1  0.699133  0.750000  0.312292  1
  Ni  Ni20  1  0.995357  0.250000  0.134245  1
  Ni  Ni21  1  0.495658  0.250000  0.366411  1
  Ni  Ni22  1  0.004821  0.750000  0.866127  1
  Ni  Ni23  1  0.503801  0.750000  0.633873  1
  Ni  Ni24  1  0.514889  0.250000  0.885097  1
  Ni  Ni25  1  0.015626  0.250000  0.615245  1
  Ni  Ni26  1  0.484905  0.750000  0.114968  1
  Ni  Ni27  1  0.985597  0.750000  0.386589  1
  Ni  Ni28  1  0.615193  0.250000  0.141457  1
  Ni  Ni29  1  0.115661  0.250000  0.358071  1
  Ni  Ni30  1  0.384094  0.750000  0.859879  1
  Ni  Ni31  1  0.884975  0.750000  0.642354  1
  Ni  Ni32  1  0.792384  0.250000  0.431603  1
  Ni  Ni33  1  0.293188  0.250000  0.066977  1
  Ni  Ni34  1  0.207085  0.750000  0.567339  1
  Ni  Ni35  1  0.706634  0.750000  0.930572  1
