# generated using pymatgen
data_PrSm(SeO3)3
_symmetry_space_group_name_H-M   'P 1'
_cell_length_a   7.15079955
_cell_length_b   8.09088664
_cell_length_c   9.33435759
_cell_angle_alpha   69.75311139
_cell_angle_beta   76.25034389
_cell_angle_gamma   64.55910309
_symmetry_Int_Tables_number   1
_chemical_formula_structural   PrSm(SeO3)3
_chemical_formula_sum   'Pr2 Sm2 Se6 O18'
_cell_volume   455.01574898
_cell_formula_units_Z   2
loop_
 _symmetry_equiv_pos_site_id
 _symmetry_equiv_pos_as_xyz
  1  'x, y, z'
loop_
 _atom_site_type_symbol
 _atom_site_label
 _atom_site_symmetry_multiplicity
 _atom_site_fract_x
 _atom_site_fract_y
 _atom_site_fract_z
 _atom_site_occupancy
  Pr  Pr0  1  0.628866  0.350343  0.323287  1
  Pr  Pr1  1  0.371134  0.649657  0.676713  1
  Sm  Sm2  1  0.230704  0.309183  0.126746  1
  Sm  Sm3  1  0.769296  0.690817  0.873254  1
  Se  Se4  1  0.452611  0.173721  0.748037  1
  Se  Se5  1  0.191068  0.761692  0.032767  1
  Se  Se6  1  0.864383  0.780076  0.495494  1
  Se  Se7  1  0.808932  0.238308  0.967233  1
  Se  Se8  1  0.547389  0.826279  0.251963  1
  Se  Se9  1  0.135617  0.219924  0.504506  1
  O  O10  1  0.673156  0.017021  0.835472  1
  O  O11  1  0.326844  0.982979  0.164528  1
  O  O12  1  0.637671  0.790424  0.621425  1
  O  O13  1  0.362329  0.209576  0.378575  1
  O  O14  1  0.392875  0.778311  0.892625  1
  O  O15  1  0.327138  0.331282  0.860101  1
  O  O16  1  0.903722  0.346688  0.053619  1
  O  O17  1  0.535213  0.333319  0.595813  1
  O  O18  1  0.703250  0.440008  0.823178  1
  O  O19  1  0.096278  0.653312  0.946381  1
  O  O20  1  0.168944  0.990126  0.583630  1
  O  O21  1  0.023661  0.686814  0.645781  1
  O  O22  1  0.607125  0.221689  0.107375  1
  O  O23  1  0.672862  0.668718  0.139899  1
  O  O24  1  0.464787  0.666681  0.404187  1
  O  O25  1  0.296750  0.559992  0.176822  1
  O  O26  1  0.831056  0.009874  0.416370  1
  O  O27  1  0.976339  0.313186  0.354219  1
