# generated using pymatgen
data_Cs12V3SbSe16
_symmetry_space_group_name_H-M   'P 1'
_cell_length_a   10.33815202
_cell_length_b   10.52967404
_cell_length_c   12.04041800
_cell_angle_alpha   90.00000000
_cell_angle_beta   90.00000000
_cell_angle_gamma   89.66181365
_symmetry_Int_Tables_number   1
_chemical_formula_structural   Cs12V3SbSe16
_chemical_formula_sum   'Cs12 V3 Sb1 Se16'
_cell_volume   1310.66541709
_cell_formula_units_Z   1
loop_
 _symmetry_equiv_pos_site_id
 _symmetry_equiv_pos_as_xyz
  1  'x, y, z'
loop_
 _atom_site_type_symbol
 _atom_site_label
 _atom_site_symmetry_multiplicity
 _atom_site_fract_x
 _atom_site_fract_y
 _atom_site_fract_z
 _atom_site_occupancy
  Cs  Cs0  1  0.639487  0.919617  0.250000  1
  Cs  Cs1  1  0.144708  0.586591  0.250000  1
  Cs  Cs2  1  0.858259  0.419446  0.750000  1
  Cs  Cs3  1  0.361370  0.079405  0.750000  1
  Cs  Cs4  1  0.050834  0.800224  0.958758  1
  Cs  Cs5  1  0.557446  0.704278  0.541674  1
  Cs  Cs6  1  0.446149  0.293307  0.046484  1
  Cs  Cs7  1  0.945702  0.200754  0.457886  1
  Cs  Cs8  1  0.945702  0.200754  0.042114  1
  Cs  Cs9  1  0.446149  0.293307  0.453516  1
  Cs  Cs10  1  0.557446  0.704278  0.958326  1
  Cs  Cs11  1  0.050834  0.800224  0.541242  1
  V  V12  1  0.780572  0.982308  0.750000  1
  V  V13  1  0.218471  0.019233  0.250000  1
  V  V14  1  0.723832  0.480257  0.250000  1
  Sb  Sb15  1  0.275518  0.515973  0.750000  1
  Se  Se16  1  0.328860  0.959357  0.092822  1
  Se  Se17  1  0.834303  0.538398  0.407344  1
  Se  Se18  1  0.154582  0.460160  0.924228  1
  Se  Se19  1  0.670561  0.041741  0.592608  1
  Se  Se20  1  0.015301  0.928815  0.250000  1
  Se  Se21  1  0.520981  0.573578  0.250000  1
  Se  Se22  1  0.494892  0.409458  0.750000  1
  Se  Se23  1  0.983285  0.072420  0.750000  1
  Se  Se24  1  0.670561  0.041741  0.907392  1
  Se  Se25  1  0.328860  0.959357  0.407178  1
  Se  Se26  1  0.834303  0.538398  0.092656  1
  Se  Se27  1  0.154582  0.460160  0.575772  1
  Se  Se28  1  0.801335  0.764739  0.750000  1
  Se  Se29  1  0.306630  0.752280  0.750000  1
  Se  Se30  1  0.701650  0.262796  0.250000  1
  Se  Se31  1  0.196840  0.236649  0.250000  1
