# generated using pymatgen
data_CeNd3B4SbIr9
_symmetry_space_group_name_H-M   'P 1'
_cell_length_a   10.96545029
_cell_length_b   10.96545014
_cell_length_c   10.96545090
_cell_angle_alpha   29.66085850
_cell_angle_beta   29.66086090
_cell_angle_gamma   29.66086020
_symmetry_Int_Tables_number   1
_chemical_formula_structural   CeNd3B4SbIr9
_chemical_formula_sum   'Ce1 Nd3 B4 Sb1 Ir9'
_cell_volume   285.86623033
_cell_formula_units_Z   1
loop_
 _symmetry_equiv_pos_site_id
 _symmetry_equiv_pos_as_xyz
  1  'x, y, z'
loop_
 _atom_site_type_symbol
 _atom_site_label
 _atom_site_symmetry_multiplicity
 _atom_site_fract_x
 _atom_site_fract_y
 _atom_site_fract_z
 _atom_site_occupancy
  Ce  Ce0  1  0.050685  0.050685  0.050685  1
  Nd  Nd1  1  0.147594  0.147594  0.147594  1
  Nd  Nd2  1  0.950729  0.950729  0.950729  1
  Nd  Nd3  1  0.851741  0.851741  0.851741  1
  B  B4  1  0.616885  0.616885  0.616885  1
  B  B5  1  0.716344  0.716344  0.716344  1
  B  B6  1  0.382679  0.382679  0.382679  1
  B  B7  1  0.283369  0.283369  0.283369  1
  Sb  Sb8  1  0.500014  0.500014  0.500014  1
  Ir  Ir9  1  0.404383  0.907133  0.404383  1
  Ir  Ir10  1  0.907133  0.404383  0.404383  1
  Ir  Ir11  1  0.500102  0.500102  0.999956  1
  Ir  Ir12  1  0.500102  0.999956  0.500102  1
  Ir  Ir13  1  0.999956  0.500102  0.500102  1
  Ir  Ir14  1  0.595439  0.093022  0.595439  1
  Ir  Ir15  1  0.595439  0.595439  0.093022  1
  Ir  Ir16  1  0.093022  0.595439  0.595439  1
  Ir  Ir17  1  0.404383  0.404383  0.907133  1
