# generated using pymatgen
data_Hf8CrSi16Ru11
_symmetry_space_group_name_H-M   'P 1'
_cell_length_a   9.86800536
_cell_length_b   9.87597627
_cell_length_c   13.28618408
_cell_angle_alpha   54.17553226
_cell_angle_beta   54.18717117
_cell_angle_gamma   31.34411901
_symmetry_Int_Tables_number   1
_chemical_formula_structural   Hf8CrSi16Ru11
_chemical_formula_sum   'Hf8 Cr1 Si16 Ru11'
_cell_volume   534.83884359
_cell_formula_units_Z   1
loop_
 _symmetry_equiv_pos_site_id
 _symmetry_equiv_pos_as_xyz
  1  'x, y, z'
loop_
 _atom_site_type_symbol
 _atom_site_label
 _atom_site_symmetry_multiplicity
 _atom_site_fract_x
 _atom_site_fract_y
 _atom_site_fract_z
 _atom_site_occupancy
  Hf  Hf0  1  0.029928  0.297237  0.639508  1
  Hf  Hf1  1  0.706360  0.964779  0.859846  1
  Hf  Hf2  1  0.963141  0.703981  0.362675  1
  Hf  Hf3  1  0.296237  0.035685  0.137951  1
  Hf  Hf4  1  0.296130  0.558339  0.647689  1
  Hf  Hf5  1  0.441131  0.708293  0.847242  1
  Hf  Hf6  1  0.708127  0.435087  0.360840  1
  Hf  Hf7  1  0.558175  0.295909  0.145946  1
  Cr  Cr8  1  0.888831  0.153723  0.583055  1
  Si  Si9  1  0.970420  0.254570  0.894442  1
  Si  Si10  1  0.744182  0.033830  0.606973  1
  Si  Si11  1  0.031134  0.742432  0.105224  1
  Si  Si12  1  0.252401  0.974447  0.396346  1
  Si  Si13  1  0.144876  0.386583  0.895610  1
  Si  Si14  1  0.609677  0.859065  0.602483  1
  Si  Si15  1  0.856274  0.610844  0.105559  1
  Si  Si16  1  0.388333  0.141314  0.397243  1
  Si  Si17  1  0.082901  0.572248  0.566281  1
  Si  Si18  1  0.427811  0.915271  0.934131  1
  Si  Si19  1  0.916306  0.424903  0.437087  1
  Si  Si20  1  0.572904  0.083090  0.064958  1
  Si  Si21  1  0.621108  0.382571  0.747886  1
  Si  Si22  1  0.385492  0.614482  0.250270  1
  Si  Si23  1  0.114258  0.888235  0.745316  1
  Si  Si24  1  0.878039  0.122206  0.251146  1
  Ru  Ru25  1  0.860713  0.093092  0.919664  1
  Ru  Ru26  1  0.106408  0.852267  0.417055  1
  Ru  Ru27  1  0.141484  0.899837  0.085419  1
  Ru  Ru28  1  0.829724  0.645037  0.782366  1
  Ru  Ru29  1  0.353364  0.170654  0.718124  1
  Ru  Ru30  1  0.175417  0.349881  0.217903  1
  Ru  Ru31  1  0.652054  0.825085  0.280492  1
  Ru  Ru32  1  0.238827  0.520032  0.928875  1
  Ru  Ru33  1  0.476071  0.766743  0.564355  1
  Ru  Ru34  1  0.760806  0.480361  0.070736  1
  Ru  Ru35  1  0.520955  0.237890  0.429304  1
