# generated using pymatgen
data_SrTaGaO5
_symmetry_space_group_name_H-M   'P 1'
_cell_length_a   5.83302844
_cell_length_b   5.83302829
_cell_length_c   7.56902601
_cell_angle_alpha   75.51253847
_cell_angle_beta   75.51254085
_cell_angle_gamma   105.93021426
_symmetry_Int_Tables_number   1
_chemical_formula_structural   SrTaGaO5
_chemical_formula_sum   'Sr2 Ta2 Ga2 O10'
_cell_volume   225.26837160
_cell_formula_units_Z   2
loop_
 _symmetry_equiv_pos_site_id
 _symmetry_equiv_pos_as_xyz
  1  'x, y, z'
loop_
 _atom_site_type_symbol
 _atom_site_label
 _atom_site_symmetry_multiplicity
 _atom_site_fract_x
 _atom_site_fract_y
 _atom_site_fract_z
 _atom_site_occupancy
  Sr  Sr0  1  0.329177  0.670823  0.250000  1
  Sr  Sr1  1  0.670823  0.329177  0.750000  1
  Ta  Ta2  1  0.000000  0.000000  0.500000  1
  Ta  Ta3  1  0.000000  0.000000  0.000000  1
  Ga  Ga4  1  0.686289  0.313711  0.250000  1
  Ga  Ga5  1  0.313711  0.686289  0.750000  1
  O  O6  1  0.060568  0.939432  0.250000  1
  O  O7  1  0.939432  0.060568  0.750000  1
  O  O8  1  0.297250  0.893372  0.901198  1
  O  O9  1  0.106628  0.702750  0.598802  1
  O  O10  1  0.702750  0.106628  0.098802  1
  O  O11  1  0.893372  0.297250  0.401198  1
  O  O12  1  0.759817  0.643078  0.089730  1
  O  O13  1  0.356922  0.240183  0.410270  1
  O  O14  1  0.240183  0.356922  0.910270  1
  O  O15  1  0.643078  0.759817  0.589730  1
