# generated using pymatgen
data_Zr4Ga3Sb
_symmetry_space_group_name_H-M   'P 1'
_cell_length_a   5.74155000
_cell_length_b   8.79721373
_cell_length_c   9.44181361
_cell_angle_alpha   89.86189777
_cell_angle_beta   90.00000000
_cell_angle_gamma   90.00000000
_symmetry_Int_Tables_number   1
_chemical_formula_structural   Zr4Ga3Sb
_chemical_formula_sum   'Zr12 Ga9 Sb3'
_cell_volume   476.90124430
_cell_formula_units_Z   3
loop_
 _symmetry_equiv_pos_site_id
 _symmetry_equiv_pos_as_xyz
  1  'x, y, z'
loop_
 _atom_site_type_symbol
 _atom_site_label
 _atom_site_symmetry_multiplicity
 _atom_site_fract_x
 _atom_site_fract_y
 _atom_site_fract_z
 _atom_site_occupancy
  Zr  Zr0  1  0.001999  0.745995  0.118718  1
  Zr  Zr1  1  0.496970  0.252993  0.883791  1
  Zr  Zr2  1  0.003030  0.252993  0.883791  1
  Zr  Zr3  1  0.498001  0.745995  0.118718  1
  Zr  Zr4  1  0.750000  0.470150  0.611592  1
  Zr  Zr5  1  0.250000  0.528530  0.379268  1
  Zr  Zr6  1  0.750000  0.969143  0.390958  1
  Zr  Zr7  1  0.250000  0.030448  0.610415  1
  Zr  Zr8  1  0.750000  0.378896  0.197510  1
  Zr  Zr9  1  0.250000  0.617373  0.807425  1
  Zr  Zr10  1  0.750000  0.875801  0.802597  1
  Zr  Zr11  1  0.250000  0.131842  0.193981  1
  Ga  Ga12  1  0.003587  0.748077  0.571653  1
  Ga  Ga13  1  0.500028  0.250430  0.428417  1
  Ga  Ga14  1  0.999972  0.250430  0.428417  1
  Ga  Ga15  1  0.496413  0.748077  0.571653  1
  Ga  Ga16  1  0.250000  0.448446  0.085203  1
  Ga  Ga17  1  0.750000  0.140539  0.646088  1
  Ga  Ga18  1  0.250000  0.864881  0.353891  1
  Ga  Ga19  1  0.750000  0.638509  0.356437  1
  Ga  Ga20  1  0.250000  0.362289  0.642155  1
  Sb  Sb21  1  0.750000  0.052192  0.088229  1
  Sb  Sb22  1  0.250000  0.946889  0.912786  1
  Sb  Sb23  1  0.750000  0.549081  0.916305  1
