# generated using pymatgen
data_Tm4Ti3AlIr4
_symmetry_space_group_name_H-M   'P 1'
_cell_length_a   4.30379500
_cell_length_b   6.88292716
_cell_length_c   7.95651991
_cell_angle_alpha   87.32093931
_cell_angle_beta   90.00000000
_cell_angle_gamma   90.00000000
_symmetry_Int_Tables_number   1
_chemical_formula_structural   Tm4Ti3AlIr4
_chemical_formula_sum   'Tm4 Ti3 Al1 Ir4'
_cell_volume   235.43605457
_cell_formula_units_Z   1
loop_
 _symmetry_equiv_pos_site_id
 _symmetry_equiv_pos_as_xyz
  1  'x, y, z'
loop_
 _atom_site_type_symbol
 _atom_site_label
 _atom_site_symmetry_multiplicity
 _atom_site_fract_x
 _atom_site_fract_y
 _atom_site_fract_z
 _atom_site_occupancy
  Tm  Tm0  1  0.250000  0.472866  0.184902  1
  Tm  Tm1  1  0.750000  0.520696  0.816849  1
  Tm  Tm2  1  0.750000  0.028541  0.673465  1
  Tm  Tm3  1  0.250000  0.984908  0.325417  1
  Ti  Ti4  1  0.250000  0.863964  0.931759  1
  Ti  Ti5  1  0.750000  0.136065  0.068587  1
  Ti  Ti6  1  0.750000  0.635798  0.439714  1
  Al  Al7  1  0.250000  0.354546  0.567298  1
  Ir  Ir8  1  0.250000  0.727606  0.613789  1
  Ir  Ir9  1  0.750000  0.275957  0.378350  1
  Ir  Ir10  1  0.750000  0.773038  0.103602  1
  Ir  Ir11  1  0.250000  0.226017  0.896268  1
