# generated using pymatgen
data_Sm2TmRuI3
_symmetry_space_group_name_H-M   'P 1'
_cell_length_a   4.27906100
_cell_length_b   8.94263403
_cell_length_c   12.37766691
_cell_angle_alpha   85.80022599
_cell_angle_beta   90.00000000
_cell_angle_gamma   90.00000000
_symmetry_Int_Tables_number   1
_chemical_formula_structural   Sm2TmRuI3
_chemical_formula_sum   'Sm4 Tm2 Ru2 I6'
_cell_volume   472.37290254
_cell_formula_units_Z   2
loop_
 _symmetry_equiv_pos_site_id
 _symmetry_equiv_pos_as_xyz
  1  'x, y, z'
loop_
 _atom_site_type_symbol
 _atom_site_label
 _atom_site_symmetry_multiplicity
 _atom_site_fract_x
 _atom_site_fract_y
 _atom_site_fract_z
 _atom_site_occupancy
  Sm  Sm0  1  0.750000  0.095954  0.682317  1
  Sm  Sm1  1  0.250000  0.904046  0.317683  1
  Sm  Sm2  1  0.250000  0.266753  0.899628  1
  Sm  Sm3  1  0.750000  0.733247  0.100372  1
  Tm  Tm4  1  0.750000  0.124631  0.122224  1
  Tm  Tm5  1  0.250000  0.875369  0.877776  1
  Ru  Ru6  1  0.750000  0.052368  0.908269  1
  Ru  Ru7  1  0.250000  0.947632  0.091731  1
  I  I8  1  0.250000  0.354832  0.637306  1
  I  I9  1  0.750000  0.645168  0.362694  1
  I  I10  1  0.750000  0.147935  0.389096  1
  I  I11  1  0.250000  0.852065  0.610904  1
  I  I12  1  0.250000  0.421477  0.134635  1
  I  I13  1  0.750000  0.578523  0.865365  1
