# generated using pymatgen
data_Ho20Cd5InRu2
_symmetry_space_group_name_H-M   'P 1'
_cell_length_a   9.56286101
_cell_length_b   9.56286075
_cell_length_c   9.81902100
_cell_angle_alpha   90.00000000
_cell_angle_beta   90.00000000
_cell_angle_gamma   119.99391661
_symmetry_Int_Tables_number   1
_chemical_formula_structural   Ho20Cd5InRu2
_chemical_formula_sum   'Ho20 Cd5 In1 Ru2'
_cell_volume   777.68033155
_cell_formula_units_Z   1
loop_
 _symmetry_equiv_pos_site_id
 _symmetry_equiv_pos_as_xyz
  1  'x, y, z'
loop_
 _atom_site_type_symbol
 _atom_site_label
 _atom_site_symmetry_multiplicity
 _atom_site_fract_x
 _atom_site_fract_y
 _atom_site_fract_z
 _atom_site_occupancy
  Ho  Ho0  1  0.001222  0.998778  0.501839  1
  Ho  Ho1  1  0.001222  0.998778  0.998161  1
  Ho  Ho2  1  0.210009  0.789991  0.440526  1
  Ho  Ho3  1  0.209334  0.419431  0.439913  1
  Ho  Ho4  1  0.580569  0.790666  0.439913  1
  Ho  Ho5  1  0.790046  0.209954  0.558621  1
  Ho  Ho6  1  0.789403  0.579619  0.560017  1
  Ho  Ho7  1  0.420381  0.210597  0.560017  1
  Ho  Ho8  1  0.790046  0.209954  0.941379  1
  Ho  Ho9  1  0.789403  0.579619  0.939983  1
  Ho  Ho10  1  0.420381  0.210597  0.939983  1
  Ho  Ho11  1  0.210009  0.789991  0.059474  1
  Ho  Ho12  1  0.209334  0.419431  0.060087  1
  Ho  Ho13  1  0.580569  0.790666  0.060087  1
  Ho  Ho14  1  0.539792  0.460208  0.250000  1
  Ho  Ho15  1  0.537906  0.081391  0.250000  1
  Ho  Ho16  1  0.918609  0.462094  0.250000  1
  Ho  Ho17  1  0.458758  0.541242  0.750000  1
  Ho  Ho18  1  0.459596  0.918800  0.750000  1
  Ho  Ho19  1  0.081200  0.540404  0.750000  1
  Cd  Cd20  1  0.885935  0.770814  0.250000  1
  Cd  Cd21  1  0.229186  0.114065  0.250000  1
  Cd  Cd22  1  0.114723  0.885277  0.750000  1
  Cd  Cd23  1  0.114700  0.229060  0.750000  1
  Cd  Cd24  1  0.770940  0.885300  0.750000  1
  In  In25  1  0.885588  0.114412  0.250000  1
  Ru  Ru26  1  0.333745  0.666255  0.250000  1
  Ru  Ru27  1  0.667396  0.332604  0.750000  1
