# generated using pymatgen
data_Tm3Ta2Nb(B2Ru5)2
_symmetry_space_group_name_H-M   'P 1'
_cell_length_a   9.57329829
_cell_length_b   9.57329893
_cell_length_c   3.11451100
_cell_angle_alpha   90.00000000
_cell_angle_beta   90.00000000
_cell_angle_gamma   90.25414618
_symmetry_Int_Tables_number   1
_chemical_formula_structural   Tm3Ta2Nb(B2Ru5)2
_chemical_formula_sum   'Tm3 Ta2 Nb1 B4 Ru10'
_cell_volume   285.43604032
_cell_formula_units_Z   1
loop_
 _symmetry_equiv_pos_site_id
 _symmetry_equiv_pos_as_xyz
  1  'x, y, z'
loop_
 _atom_site_type_symbol
 _atom_site_label
 _atom_site_symmetry_multiplicity
 _atom_site_fract_x
 _atom_site_fract_y
 _atom_site_fract_z
 _atom_site_occupancy
  Tm  Tm0  1  0.824399  0.675145  0.000000  1
  Tm  Tm1  1  0.175145  0.324399  0.000000  1
  Tm  Tm2  1  0.325363  0.825363  0.000000  1
  Ta  Ta3  1  0.498240  0.503122  0.000000  1
  Ta  Ta4  1  0.003122  0.998240  0.000000  1
  Nb  Nb5  1  0.675462  0.175462  0.000000  1
  B  B6  1  0.623120  0.880332  0.000000  1
  B  B7  1  0.380332  0.123120  0.000000  1
  B  B8  1  0.119340  0.619340  0.000000  1
  B  B9  1  0.877008  0.377008  0.000000  1
  Ru  Ru10  1  0.571480  0.721349  0.500000  1
  Ru  Ru11  1  0.439624  0.280594  0.500000  1
  Ru  Ru12  1  0.069533  0.780627  0.500000  1
  Ru  Ru13  1  0.916935  0.213599  0.500000  1
  Ru  Ru14  1  0.280627  0.569533  0.500000  1
  Ru  Ru15  1  0.713599  0.416935  0.500000  1
  Ru  Ru16  1  0.221349  0.071480  0.500000  1
  Ru  Ru17  1  0.780594  0.939624  0.500000  1
  Ru  Ru18  1  0.508324  0.008324  0.500000  1
  Ru  Ru19  1  0.996404  0.496404  0.500000  1
