# generated using pymatgen
data_BaFe3Sb12Pt
_symmetry_space_group_name_H-M   'P 1'
_cell_length_a   8.05975566
_cell_length_b   8.05975515
_cell_length_c   8.02654700
_cell_angle_alpha   109.38778035
_cell_angle_beta   109.38777909
_cell_angle_gamma   109.55453085
_symmetry_Int_Tables_number   1
_chemical_formula_structural   BaFe3Sb12Pt
_chemical_formula_sum   'Ba1 Fe3 Sb12 Pt1'
_cell_volume   401.78783582
_cell_formula_units_Z   1
loop_
 _symmetry_equiv_pos_site_id
 _symmetry_equiv_pos_as_xyz
  1  'x, y, z'
loop_
 _atom_site_type_symbol
 _atom_site_label
 _atom_site_symmetry_multiplicity
 _atom_site_fract_x
 _atom_site_fract_y
 _atom_site_fract_z
 _atom_site_occupancy
  Ba  Ba0  1  0.000000  0.000000  0.000000  1
  Fe  Fe1  1  0.500000  0.000000  0.000000  1
  Fe  Fe2  1  0.000000  0.500000  0.000000  1
  Fe  Fe3  1  0.500000  0.500000  0.500000  1
  Sb  Sb4  1  0.353743  0.184618  0.852196  1
  Sb  Sb5  1  0.646257  0.815382  0.147804  1
  Sb  Sb6  1  0.663480  0.500102  0.835717  1
  Sb  Sb7  1  0.336520  0.499898  0.164283  1
  Sb  Sb8  1  0.184618  0.830874  0.332421  1
  Sb  Sb9  1  0.815382  0.169126  0.667579  1
  Sb  Sb10  1  0.500102  0.836622  0.664386  1
  Sb  Sb11  1  0.499898  0.163378  0.335614  1
  Sb  Sb12  1  0.836622  0.336520  0.172238  1
  Sb  Sb13  1  0.163378  0.663480  0.827762  1
  Sb  Sb14  1  0.830874  0.646257  0.498453  1
  Sb  Sb15  1  0.169126  0.353743  0.501547  1
  Pt  Pt16  1  0.000000  0.000000  0.500000  1
