# generated using pymatgen
data_Pr6Er10Cd3AgIr4
_symmetry_space_group_name_H-M   'P 1'
_cell_length_a   9.71383827
_cell_length_b   9.71383788
_cell_length_c   9.71383910
_cell_angle_alpha   59.87154856
_cell_angle_beta   59.87155743
_cell_angle_gamma   59.87154829
_symmetry_Int_Tables_number   1
_chemical_formula_structural   Pr6Er10Cd3AgIr4
_chemical_formula_sum   'Pr6 Er10 Cd3 Ag1 Ir4'
_cell_volume   646.23427226
_cell_formula_units_Z   1
loop_
 _symmetry_equiv_pos_site_id
 _symmetry_equiv_pos_as_xyz
  1  'x, y, z'
loop_
 _atom_site_type_symbol
 _atom_site_label
 _atom_site_symmetry_multiplicity
 _atom_site_fract_x
 _atom_site_fract_y
 _atom_site_fract_z
 _atom_site_occupancy
  Pr  Pr0  1  0.938070  0.558691  0.558691  1
  Pr  Pr1  1  0.557460  0.940716  0.940716  1
  Pr  Pr2  1  0.558691  0.938070  0.558691  1
  Pr  Pr3  1  0.940716  0.557460  0.940716  1
  Pr  Pr4  1  0.558691  0.558691  0.938070  1
  Pr  Pr5  1  0.940716  0.940716  0.557460  1
  Er  Er6  1  0.346501  0.346501  0.346501  1
  Er  Er7  1  0.348463  0.348463  0.958445  1
  Er  Er8  1  0.348463  0.958445  0.348463  1
  Er  Er9  1  0.958445  0.348463  0.348463  1
  Er  Er10  1  0.812069  0.187195  0.187195  1
  Er  Er11  1  0.186138  0.812599  0.812599  1
  Er  Er12  1  0.187195  0.812069  0.187195  1
  Er  Er13  1  0.812599  0.186138  0.812599  1
  Er  Er14  1  0.187195  0.187195  0.812069  1
  Er  Er15  1  0.812599  0.812599  0.186138  1
  Cd  Cd16  1  0.579737  0.579737  0.263393  1
  Cd  Cd17  1  0.579737  0.263393  0.579737  1
  Cd  Cd18  1  0.263393  0.579737  0.579737  1
  Ag  Ag19  1  0.580810  0.580810  0.580810  1
  Ir  Ir20  1  0.141322  0.141322  0.141322  1
  Ir  Ir21  1  0.141795  0.141795  0.577399  1
  Ir  Ir22  1  0.141795  0.577399  0.141795  1
  Ir  Ir23  1  0.577399  0.141795  0.141795  1
