# generated using pymatgen
data_DyHo9Si16Ge
_symmetry_space_group_name_H-M   'P 1'
_cell_length_a   11.00738893
_cell_length_b   10.99694805
_cell_length_c   11.00842796
_cell_angle_alpha   144.76187406
_cell_angle_beta   135.88891177
_cell_angle_gamma   57.69367534
_symmetry_Int_Tables_number   1
_chemical_formula_structural   DyHo9Si16Ge
_chemical_formula_sum   'Dy1 Ho9 Si16 Ge1'
_cell_volume   530.65494319
_cell_formula_units_Z   1
loop_
 _symmetry_equiv_pos_site_id
 _symmetry_equiv_pos_as_xyz
  1  'x, y, z'
loop_
 _atom_site_type_symbol
 _atom_site_label
 _atom_site_symmetry_multiplicity
 _atom_site_fract_x
 _atom_site_fract_y
 _atom_site_fract_z
 _atom_site_occupancy
  Dy  Dy0  1  0.647596  0.166823  0.015402  1
  Ho  Ho1  1  0.755651  0.759589  0.515593  1
  Ho  Ho2  1  0.448584  0.964052  0.013525  1
  Ho  Ho3  1  0.848472  0.367814  0.016460  1
  Ho  Ho4  1  0.950554  0.963997  0.515518  1
  Ho  Ho5  1  0.151376  0.166783  0.519207  1
  Ho  Ho6  1  0.351353  0.367789  0.519248  1
  Ho  Ho7  1  0.243976  0.759575  0.003875  1
  Ho  Ho8  1  0.548735  0.561738  0.509039  1
  Ho  Ho9  1  0.052680  0.561659  0.013009  1
  Si  Si10  1  0.199438  0.576108  0.376527  1
  Si  Si11  1  0.000469  0.081122  0.081023  1
  Si  Si12  1  0.698692  0.290202  0.591594  1
  Si  Si13  1  0.800706  0.179121  0.379215  1
  Si  Si14  1  0.895813  0.504271  0.608980  1
  Si  Si15  1  0.417927  0.873591  0.454853  1
  Si  Si16  1  0.104549  0.713531  0.609075  1
  Si  Si17  1  0.300539  0.896084  0.595047  1
  Si  Si18  1  0.580598  0.038098  0.457431  1
  Si  Si19  1  0.000139  0.430904  0.431161  1
  Si  Si20  1  0.880795  0.842753  0.962809  1
  Si  Si21  1  0.399560  0.500532  0.100319  1
  Si  Si22  1  0.120847  0.086006  0.965278  1
  Si  Si23  1  0.285062  0.241248  0.955943  1
  Si  Si24  1  0.499422  0.386779  0.886571  1
  Si  Si25  1  0.598712  0.702119  0.103318  1
  Ge  Ge26  1  0.717754  0.679209  0.961479  1
