# generated using pymatgen
data_Dy2Y2Ga3SiRu4
_symmetry_space_group_name_H-M   'P 1'
_cell_length_a   4.46195500
_cell_length_b   7.12744645
_cell_length_c   7.16181691
_cell_angle_alpha   90.26001238
_cell_angle_beta   90.00000000
_cell_angle_gamma   90.00000000
_symmetry_Int_Tables_number   1
_chemical_formula_structural   Dy2Y2Ga3SiRu4
_chemical_formula_sum   'Dy2 Y2 Ga3 Si1 Ru4'
_cell_volume   227.76022921
_cell_formula_units_Z   1
loop_
 _symmetry_equiv_pos_site_id
 _symmetry_equiv_pos_as_xyz
  1  'x, y, z'
loop_
 _atom_site_type_symbol
 _atom_site_label
 _atom_site_symmetry_multiplicity
 _atom_site_fract_x
 _atom_site_fract_y
 _atom_site_fract_z
 _atom_site_occupancy
  Dy  Dy0  1  0.250000  0.985963  0.806634  1
  Dy  Dy1  1  0.250000  0.477866  0.694681  1
  Y  Y2  1  0.750000  0.014603  0.194611  1
  Y  Y3  1  0.750000  0.514095  0.308030  1
  Ga  Ga4  1  0.250000  0.303645  0.107160  1
  Ga  Ga5  1  0.750000  0.693115  0.892568  1
  Ga  Ga6  1  0.250000  0.801125  0.397721  1
  Si  Si7  1  0.750000  0.197135  0.600377  1
  Ru  Ru8  1  0.750000  0.857836  0.566992  1
  Ru  Ru9  1  0.250000  0.162967  0.447071  1
  Ru  Ru10  1  0.750000  0.330229  0.919726  1
  Ru  Ru11  1  0.250000  0.661421  0.064430  1
