# generated using pymatgen
data_Rb4PaTe6Rh
_symmetry_space_group_name_H-M   'P 1'
_cell_length_a   14.76010800
_cell_length_b   6.88404435
_cell_length_c   9.94493101
_cell_angle_alpha   71.34764027
_cell_angle_beta   90.00000000
_cell_angle_gamma   90.00000000
_symmetry_Int_Tables_number   1
_chemical_formula_structural   Rb4PaTe6Rh
_chemical_formula_sum   'Rb8 Pa2 Te12 Rh2'
_cell_volume   957.42206363
_cell_formula_units_Z   2
loop_
 _symmetry_equiv_pos_site_id
 _symmetry_equiv_pos_as_xyz
  1  'x, y, z'
loop_
 _atom_site_type_symbol
 _atom_site_label
 _atom_site_symmetry_multiplicity
 _atom_site_fract_x
 _atom_site_fract_y
 _atom_site_fract_z
 _atom_site_occupancy
  Rb  Rb0  1  0.956995  0.672327  0.653823  1
  Rb  Rb1  1  0.456995  0.827673  0.346177  1
  Rb  Rb2  1  0.044769  0.327531  0.344964  1
  Rb  Rb3  1  0.544769  0.172469  0.655036  1
  Rb  Rb4  1  0.868354  0.080747  0.903618  1
  Rb  Rb5  1  0.368354  0.419253  0.096382  1
  Rb  Rb6  1  0.131117  0.922505  0.100357  1
  Rb  Rb7  1  0.631117  0.577495  0.899643  1
  Pa  Pa8  1  0.749499  0.648116  0.295255  1
  Pa  Pa9  1  0.249499  0.851884  0.704745  1
  Te  Te10  1  0.905289  0.931716  0.283409  1
  Te  Te11  1  0.405289  0.568284  0.716591  1
  Te  Te12  1  0.093414  0.124730  0.719489  1
  Te  Te13  1  0.593414  0.375270  0.280511  1
  Te  Te14  1  0.816684  0.268676  0.514330  1
  Te  Te15  1  0.316684  0.231324  0.485670  1
  Te  Te16  1  0.183722  0.670550  0.486941  1
  Te  Te17  1  0.683722  0.829450  0.513059  1
  Te  Te18  1  0.841078  0.470962  0.089279  1
  Te  Te19  1  0.341078  0.029038  0.910721  1
  Te  Te20  1  0.158687  0.480412  0.907719  1
  Te  Te21  1  0.658687  0.019588  0.092281  1
  Rh  Rh22  1  0.250392  0.347170  0.707997  1
  Rh  Rh23  1  0.750392  0.152830  0.292003  1
