# generated using pymatgen
data_Tb2Zn5In
_symmetry_space_group_name_H-M   'P 1'
_cell_length_a   4.49578700
_cell_length_b   7.16246300
_cell_length_c   9.78170600
_cell_angle_alpha   90.00000000
_cell_angle_beta   90.00000000
_cell_angle_gamma   90.00000000
_symmetry_Int_Tables_number   1
_chemical_formula_structural   Tb2Zn5In
_chemical_formula_sum   'Tb4 Zn10 In2'
_cell_volume   314.97981541
_cell_formula_units_Z   2
loop_
 _symmetry_equiv_pos_site_id
 _symmetry_equiv_pos_as_xyz
  1  'x, y, z'
loop_
 _atom_site_type_symbol
 _atom_site_label
 _atom_site_symmetry_multiplicity
 _atom_site_fract_x
 _atom_site_fract_y
 _atom_site_fract_z
 _atom_site_occupancy
  Tb  Tb0  1  0.250000  0.315726  0.677790  1
  Tb  Tb1  1  0.250000  0.815726  0.822210  1
  Tb  Tb2  1  0.750000  0.691401  0.333263  1
  Tb  Tb3  1  0.750000  0.191401  0.166737  1
  Zn  Zn4  1  0.750000  0.470889  0.900148  1
  Zn  Zn5  1  0.750000  0.970889  0.599852  1
  Zn  Zn6  1  0.250000  0.909637  0.144912  1
  Zn  Zn7  1  0.250000  0.409637  0.355088  1
  Zn  Zn8  1  0.750000  0.102011  0.843681  1
  Zn  Zn9  1  0.750000  0.602011  0.656319  1
  Zn  Zn10  1  0.250000  0.181901  0.960781  1
  Zn  Zn11  1  0.250000  0.681901  0.539219  1
  Zn  Zn12  1  0.750000  0.803017  0.032853  1
  Zn  Zn13  1  0.750000  0.303017  0.467147  1
  In  In14  1  0.250000  0.525418  0.089055  1
  In  In15  1  0.250000  0.025418  0.410945  1
