# generated using pymatgen
data_Li12As12Au11
_symmetry_space_group_name_H-M   'P 1'
_cell_length_a   4.38635900
_cell_length_b   4.38635754
_cell_length_c   38.83339501
_cell_angle_alpha   89.99998210
_cell_angle_beta   89.99987434
_cell_angle_gamma   59.99498322
_symmetry_Int_Tables_number   1
_chemical_formula_structural   Li12As12Au11
_chemical_formula_sum   'Li12 As12 Au11'
_cell_volume   647.02675338
_cell_formula_units_Z   1
loop_
 _symmetry_equiv_pos_site_id
 _symmetry_equiv_pos_as_xyz
  1  'x, y, z'
loop_
 _atom_site_type_symbol
 _atom_site_label
 _atom_site_symmetry_multiplicity
 _atom_site_fract_x
 _atom_site_fract_y
 _atom_site_fract_z
 _atom_site_occupancy
  Li  Li0  1  0.999895  0.999894  0.130696  1
  Li  Li1  1  0.999955  0.999953  0.382758  1
  Li  Li2  1  0.999998  0.999999  0.634559  1
  Li  Li3  1  0.999885  0.999889  0.885780  1
  Li  Li4  1  0.000016  0.000018  0.044297  1
  Li  Li5  1  0.000161  0.000159  0.297915  1
  Li  Li6  1  0.000095  0.000091  0.551375  1
  Li  Li7  1  0.000021  0.000021  0.801818  1
  Li  Li8  1  0.000057  0.000054  0.213955  1
  Li  Li9  1  0.999868  0.999867  0.467166  1
  Li  Li10  1  0.999987  0.999986  0.717675  1
  Li  Li11  1  0.000102  0.000102  0.971873  1
  As  As12  1  0.333430  0.333432  0.264880  1
  As  As13  1  0.333312  0.333307  0.517471  1
  As  As14  1  0.333330  0.333329  0.767997  1
  As  As15  1  0.333327  0.333333  0.012907  1
  As  As16  1  0.666650  0.666651  0.170637  1
  As  As17  1  0.666581  0.666581  0.423701  1
  As  As18  1  0.666684  0.666682  0.675362  1
  As  As19  1  0.666700  0.666694  0.923377  1
  As  As20  1  0.333315  0.333315  0.075373  1
  As  As21  1  0.333388  0.333386  0.331053  1
  As  As22  1  0.333349  0.333341  0.583643  1
  As  As23  1  0.333313  0.333317  0.833116  1
  Au  Au24  1  0.666597  0.666611  0.096792  1
  Au  Au25  1  0.666702  0.666702  0.348806  1
  Au  Au26  1  0.666676  0.666673  0.600869  1
  Au  Au27  1  0.666592  0.666598  0.855010  1
  Au  Au28  1  0.333317  0.333320  0.173190  1
  Au  Au29  1  0.333232  0.333230  0.426008  1
  Au  Au30  1  0.333363  0.333363  0.676745  1
  Au  Au31  1  0.333390  0.333393  0.934935  1
  Au  Au32  1  0.666765  0.666767  0.248593  1
  Au  Au33  1  0.666598  0.666594  0.501594  1
  Au  Au34  1  0.666651  0.666645  0.751322  1
