# generated using pymatgen
data_DyAs4(Ru2Rh)2
_symmetry_space_group_name_H-M   'P 1'
_cell_length_a   7.16956485
_cell_length_b   7.19646791
_cell_length_c   3.87238000
_cell_angle_alpha   90.00000000
_cell_angle_beta   90.00000000
_cell_angle_gamma   120.12420485
_symmetry_Int_Tables_number   1
_chemical_formula_structural   DyAs4(Ru2Rh)2
_chemical_formula_sum   'Dy1 As4 Ru4 Rh2'
_cell_volume   172.81278868
_cell_formula_units_Z   1
loop_
 _symmetry_equiv_pos_site_id
 _symmetry_equiv_pos_as_xyz
  1  'x, y, z'
loop_
 _atom_site_type_symbol
 _atom_site_label
 _atom_site_symmetry_multiplicity
 _atom_site_fract_x
 _atom_site_fract_y
 _atom_site_fract_z
 _atom_site_occupancy
  Dy  Dy0  1  0.997955  0.998978  0.000000  1
  As  As1  1  0.805524  0.615387  0.500000  1
  As  As2  1  0.338144  0.669073  0.000000  1
  As  As3  1  0.387087  0.193543  0.500000  1
  As  As4  1  0.805524  0.190135  0.500000  1
  Ru  Ru5  1  0.534030  0.068808  0.000000  1
  Ru  Ru6  1  0.600876  0.800438  0.500000  1
  Ru  Ru7  1  0.534030  0.465221  0.000000  1
  Ru  Ru8  1  0.933424  0.466712  0.000000  1
  Rh  Rh9  1  0.198371  0.395027  0.500000  1
  Rh  Rh10  1  0.198371  0.803344  0.500000  1
