# generated using pymatgen
data_V2Cr2Br7F
_symmetry_space_group_name_H-M   'P 1'
_cell_length_a   7.81463284
_cell_length_b   7.80605251
_cell_length_c   7.80605300
_cell_angle_alpha   58.77762690
_cell_angle_beta   57.92608933
_cell_angle_gamma   57.92609019
_symmetry_Int_Tables_number   1
_chemical_formula_structural   V2Cr2Br7F
_chemical_formula_sum   'V2 Cr2 Br7 F1'
_cell_volume   322.84962049
_cell_formula_units_Z   1
loop_
 _symmetry_equiv_pos_site_id
 _symmetry_equiv_pos_as_xyz
  1  'x, y, z'
loop_
 _atom_site_type_symbol
 _atom_site_label
 _atom_site_symmetry_multiplicity
 _atom_site_fract_x
 _atom_site_fract_y
 _atom_site_fract_z
 _atom_site_occupancy
  V  V0  1  0.134217  0.138327  0.612623  1
  V  V1  1  0.134217  0.612623  0.138327  1
  Cr  Cr2  1  0.622973  0.132559  0.132559  1
  Cr  Cr3  1  0.127659  0.126927  0.126927  1
  Br  Br4  1  0.377991  0.361222  0.893594  1
  Br  Br5  1  0.908593  0.874352  0.874352  1
  Br  Br6  1  0.878845  0.890953  0.363221  1
  Br  Br7  1  0.378724  0.867140  0.867140  1
  Br  Br8  1  0.377991  0.893594  0.361222  1
  Br  Br9  1  0.878845  0.363221  0.890953  1
  Br  Br10  1  0.871373  0.388044  0.388044  1
  F  F11  1  0.308569  0.351038  0.351038  1
