# generated using pymatgen
data_Ho12Co2Ni2BiPd
_symmetry_space_group_name_H-M   'P 1'
_cell_length_a   8.31974478
_cell_length_b   8.31974024
_cell_length_c   8.31974500
_cell_angle_alpha   111.27954224
_cell_angle_beta   109.47507554
_cell_angle_gamma   107.67905914
_symmetry_Int_Tables_number   1
_chemical_formula_structural   Ho12Co2Ni2BiPd
_chemical_formula_sum   'Ho12 Co2 Ni2 Bi1 Pd1'
_cell_volume   442.87268562
_cell_formula_units_Z   1
loop_
 _symmetry_equiv_pos_site_id
 _symmetry_equiv_pos_as_xyz
  1  'x, y, z'
loop_
 _atom_site_type_symbol
 _atom_site_label
 _atom_site_symmetry_multiplicity
 _atom_site_fract_x
 _atom_site_fract_y
 _atom_site_fract_z
 _atom_site_occupancy
  Ho  Ho0  1  0.817494  0.708387  0.525877  1
  Ho  Ho1  1  0.182506  0.291613  0.474123  1
  Ho  Ho2  1  0.182512  0.708387  0.890894  1
  Ho  Ho3  1  0.817488  0.291613  0.109106  1
  Ho  Ho4  1  0.686114  0.376459  0.690345  1
  Ho  Ho5  1  0.313886  0.623541  0.309655  1
  Ho  Ho6  1  0.686116  0.995764  0.309649  1
  Ho  Ho7  1  0.313884  0.004236  0.690351  1
  Ho  Ho8  1  0.590545  0.788314  0.802229  1
  Ho  Ho9  1  0.409455  0.211686  0.197771  1
  Ho  Ho10  1  0.986087  0.788314  0.197770  1
  Ho  Ho11  1  0.013913  0.211686  0.802230  1
  Co  Co12  1  0.113427  0.613427  0.500001  1
  Co  Co13  1  0.886573  0.386573  0.499999  1
  Ni  Ni14  1  0.631281  0.000000  0.631281  1
  Ni  Ni15  1  0.368719  0.000000  0.368719  1
  Bi  Bi16  1  0.500000  0.500000  0.000000  1
  Pd  Pd17  1  0.000000  0.000000  0.000000  1
