# generated using pymatgen
data_Cs2LaSm9Os2Br17
_symmetry_space_group_name_H-M   'P 1'
_cell_length_a   9.55305490
_cell_length_b   11.13274613
_cell_length_c   11.13274602
_cell_angle_alpha   108.04945288
_cell_angle_beta   93.81131754
_cell_angle_gamma   93.81239543
_symmetry_Int_Tables_number   1
_chemical_formula_structural   Cs2LaSm9Os2Br17
_chemical_formula_sum   'Cs2 La1 Sm9 Os2 Br17'
_cell_volume   1118.49010585
_cell_formula_units_Z   1
loop_
 _symmetry_equiv_pos_site_id
 _symmetry_equiv_pos_as_xyz
  1  'x, y, z'
loop_
 _atom_site_type_symbol
 _atom_site_label
 _atom_site_symmetry_multiplicity
 _atom_site_fract_x
 _atom_site_fract_y
 _atom_site_fract_z
 _atom_site_occupancy
  Cs  Cs0  1  0.000135  0.822723  0.177221  1
  Cs  Cs1  1  0.000128  0.177214  0.822711  1
  La  La2  1  0.559695  0.832846  0.832849  1
  Sm  Sm3  1  0.438871  0.165818  0.165817  1
  Sm  Sm4  1  0.574857  0.507199  0.205991  1
  Sm  Sm5  1  0.831066  0.290227  0.290225  1
  Sm  Sm6  1  0.307376  0.440869  0.440873  1
  Sm  Sm7  1  0.424128  0.800517  0.484986  1
  Sm  Sm8  1  0.574853  0.205991  0.507196  1
  Sm  Sm9  1  0.692136  0.565265  0.565263  1
  Sm  Sm10  1  0.172929  0.709222  0.709224  1
  Sm  Sm11  1  0.424134  0.484986  0.800520  1
  Os  Os12  1  0.570278  0.359662  0.359660  1
  Os  Os13  1  0.431779  0.644299  0.644300  1
  Br  Br14  1  0.576537  0.677894  0.023118  1
  Br  Br15  1  0.713598  0.068619  0.068628  1
  Br  Br16  1  0.854349  0.448002  0.121733  1
  Br  Br17  1  0.136254  0.209172  0.209172  1
  Br  Br18  1  0.285688  0.604079  0.256294  1
  Br  Br19  1  0.422321  0.981176  0.311968  1
  Br  Br20  1  0.713506  0.743880  0.395735  1
  Br  Br21  1  0.854341  0.121734  0.447998  1
  Br  Br22  1  0.000619  0.500845  0.500850  1
  Br  Br23  1  0.145816  0.878893  0.549823  1
  Br  Br24  1  0.285676  0.256295  0.604081  1
  Br  Br25  1  0.576539  0.023111  0.677883  1
  Br  Br26  1  0.713503  0.395731  0.743878  1
  Br  Br27  1  0.872176  0.788858  0.788850  1
  Br  Br28  1  0.145821  0.549819  0.878893  1
  Br  Br29  1  0.278567  0.933083  0.933083  1
  Br  Br30  1  0.422324  0.311970  0.981177  1
