# generated using pymatgen
data_Tb2Dy6Hf11Si16Hg
_symmetry_space_group_name_H-M   'P 1'
_cell_length_a   7.30252473
_cell_length_b   7.30206378
_cell_length_c   13.29792100
_cell_angle_alpha   89.77974854
_cell_angle_beta   90.22141684
_cell_angle_gamma   89.81986310
_symmetry_Int_Tables_number   1
_chemical_formula_structural   Tb2Dy6Hf11Si16Hg
_chemical_formula_sum   'Tb2 Dy6 Hf11 Si16 Hg1'
_cell_volume   709.07763684
_cell_formula_units_Z   1
loop_
 _symmetry_equiv_pos_site_id
 _symmetry_equiv_pos_as_xyz
  1  'x, y, z'
loop_
 _atom_site_type_symbol
 _atom_site_label
 _atom_site_symmetry_multiplicity
 _atom_site_fract_x
 _atom_site_fract_y
 _atom_site_fract_z
 _atom_site_occupancy
  Tb  Tb0  1  0.346065  0.997379  0.788381  1
  Tb  Tb1  1  0.656552  0.004401  0.284063  1
  Dy  Dy2  1  0.997510  0.346223  0.211657  1
  Dy  Dy3  1  0.004181  0.656390  0.715926  1
  Dy  Dy4  1  0.154822  0.495953  0.465138  1
  Dy  Dy5  1  0.499191  0.846925  0.032948  1
  Dy  Dy6  1  0.846983  0.499159  0.966985  1
  Dy  Dy7  1  0.495950  0.154870  0.534932  1
  Hf  Hf8  1  0.824646  0.824532  0.500022  1
  Hf  Hf9  1  0.323431  0.676383  0.249969  1
  Hf  Hf10  1  0.676558  0.323615  0.750016  1
  Hf  Hf11  1  0.145327  0.997158  0.375159  1
  Hf  Hf12  1  0.856047  0.002538  0.878021  1
  Hf  Hf13  1  0.504609  0.647009  0.626180  1
  Hf  Hf14  1  0.355675  0.491443  0.877518  1
  Hf  Hf15  1  0.491378  0.355736  0.122485  1
  Hf  Hf16  1  0.647037  0.504599  0.373788  1
  Hf  Hf17  1  0.997181  0.145335  0.624811  1
  Hf  Hf18  1  0.002575  0.856053  0.121971  1
  Si  Si19  1  0.359944  0.296017  0.317156  1
  Si  Si20  1  0.640170  0.703553  0.819283  1
  Si  Si21  1  0.207039  0.860909  0.568657  1
  Si  Si22  1  0.130815  0.772620  0.926588  1
  Si  Si23  1  0.772928  0.131022  0.073402  1
  Si  Si24  1  0.861092  0.207238  0.431450  1
  Si  Si25  1  0.295874  0.360297  0.682781  1
  Si  Si26  1  0.703757  0.639821  0.180663  1
  Si  Si27  1  0.298260  0.048255  0.192552  1
  Si  Si28  1  0.705231  0.950813  0.686226  1
  Si  Si29  1  0.449985  0.794954  0.436141  1
  Si  Si30  1  0.210839  0.569637  0.065085  1
  Si  Si31  1  0.569837  0.210996  0.934981  1
  Si  Si32  1  0.795096  0.450146  0.563939  1
  Si  Si33  1  0.048065  0.298680  0.807353  1
  Si  Si34  1  0.950984  0.704891  0.313705  1
  Hg  Hg35  1  0.174365  0.174447  0.000071  1
