# generated using pymatgen
data_Hf6BeFeN2
_symmetry_space_group_name_H-M   'P 1'
_cell_length_a   5.75108870
_cell_length_b   5.75108778
_cell_length_c   8.58761400
_cell_angle_alpha   90.00000000
_cell_angle_beta   90.00000000
_cell_angle_gamma   147.01391086
_symmetry_Int_Tables_number   1
_chemical_formula_structural   Hf6BeFeN2
_chemical_formula_sum   'Hf6 Be1 Fe1 N2'
_cell_volume   154.63896408
_cell_formula_units_Z   1
loop_
 _symmetry_equiv_pos_site_id
 _symmetry_equiv_pos_as_xyz
  1  'x, y, z'
loop_
 _atom_site_type_symbol
 _atom_site_label
 _atom_site_symmetry_multiplicity
 _atom_site_fract_x
 _atom_site_fract_y
 _atom_site_fract_z
 _atom_site_occupancy
  Hf  Hf0  1  0.632131  0.367869  0.939539  1
  Hf  Hf1  1  0.362623  0.637377  0.439156  1
  Hf  Hf2  1  0.362623  0.637377  0.060844  1
  Hf  Hf3  1  0.632131  0.367869  0.560461  1
  Hf  Hf4  1  0.938317  0.061683  0.750000  1
  Hf  Hf5  1  0.061828  0.938172  0.250000  1
  Be  Be6  1  0.257852  0.742148  0.750000  1
  Fe  Fe7  1  0.748653  0.251347  0.250000  1
  N  N8  1  0.001922  0.998078  0.996587  1
  N  N9  1  0.001922  0.998078  0.503413  1
