# generated using pymatgen
data_Ho7Sc(WC2)4
_symmetry_space_group_name_H-M   'P 1'
_cell_length_a   5.70938581
_cell_length_b   5.70938542
_cell_length_c   9.75752305
_cell_angle_alpha   90.53829665
_cell_angle_beta   90.53829642
_cell_angle_gamma   90.35282726
_symmetry_Int_Tables_number   1
_chemical_formula_structural   Ho7Sc(WC2)4
_chemical_formula_sum   'Ho7 Sc1 W4 C8'
_cell_volume   318.03252002
_cell_formula_units_Z   1
loop_
 _symmetry_equiv_pos_site_id
 _symmetry_equiv_pos_as_xyz
  1  'x, y, z'
loop_
 _atom_site_type_symbol
 _atom_site_label
 _atom_site_symmetry_multiplicity
 _atom_site_fract_x
 _atom_site_fract_y
 _atom_site_fract_z
 _atom_site_occupancy
  Ho  Ho0  1  0.201402  0.201402  0.342588  1
  Ho  Ho1  1  0.297016  0.699624  0.840022  1
  Ho  Ho2  1  0.699624  0.297016  0.840022  1
  Ho  Ho3  1  0.699823  0.299649  0.157274  1
  Ho  Ho4  1  0.299649  0.699823  0.157274  1
  Ho  Ho5  1  0.198760  0.198760  0.657387  1
  Ho  Ho6  1  0.802199  0.802199  0.345680  1
  Sc  Sc7  1  0.795780  0.795780  0.657722  1
  W  W8  1  0.324949  0.680602  0.502294  1
  W  W9  1  0.819471  0.819471  0.997440  1
  W  W10  1  0.176393  0.176393  0.997680  1
  W  W11  1  0.680602  0.324949  0.502294  1
  C  C12  1  0.998921  0.998921  0.153763  1
  C  C13  1  0.506216  0.506216  0.656609  1
  C  C14  1  0.507135  0.001213  0.504956  1
  C  C15  1  0.501610  0.501610  0.346168  1
  C  C16  1  0.992750  0.992750  0.839221  1
  C  C17  1  0.498017  0.998473  0.998323  1
  C  C18  1  0.998473  0.498017  0.998323  1
  C  C19  1  0.001213  0.507135  0.504956  1
