# generated using pymatgen
data_Ho4AlB4Ir9
_symmetry_space_group_name_H-M   'P 1'
_cell_length_a   10.77738946
_cell_length_b   10.77738916
_cell_length_c   10.77739015
_cell_angle_alpha   29.66112005
_cell_angle_beta   29.66112257
_cell_angle_gamma   29.66112177
_symmetry_Int_Tables_number   1
_chemical_formula_structural   Ho4AlB4Ir9
_chemical_formula_sum   'Ho4 Al1 B4 Ir9'
_cell_volume   271.41341095
_cell_formula_units_Z   1
loop_
 _symmetry_equiv_pos_site_id
 _symmetry_equiv_pos_as_xyz
  1  'x, y, z'
loop_
 _atom_site_type_symbol
 _atom_site_label
 _atom_site_symmetry_multiplicity
 _atom_site_fract_x
 _atom_site_fract_y
 _atom_site_fract_z
 _atom_site_occupancy
  Ho  Ho0  1  0.150508  0.150508  0.150508  1
  Ho  Ho1  1  0.950073  0.950073  0.950073  1
  Ho  Ho2  1  0.849492  0.849492  0.849492  1
  Ho  Ho3  1  0.049927  0.049927  0.049927  1
  Al  Al4  1  0.500000  0.500000  0.500000  1
  B  B5  1  0.615640  0.615640  0.615640  1
  B  B6  1  0.717653  0.717653  0.717653  1
  B  B7  1  0.384360  0.384360  0.384360  1
  B  B8  1  0.282347  0.282347  0.282347  1
  Ir  Ir9  1  0.401498  0.901950  0.401498  1
  Ir  Ir10  1  0.901950  0.401498  0.401498  1
  Ir  Ir11  1  0.500000  0.500000  0.000000  1
  Ir  Ir12  1  0.500000  0.000000  0.500000  1
  Ir  Ir13  1  0.000000  0.500000  0.500000  1
  Ir  Ir14  1  0.598502  0.098050  0.598502  1
  Ir  Ir15  1  0.598502  0.598502  0.098050  1
  Ir  Ir16  1  0.098050  0.598502  0.598502  1
  Ir  Ir17  1  0.401498  0.401498  0.901950  1
