# generated using pymatgen
data_CeZr(NiP)2
_symmetry_space_group_name_H-M   'P 1'
_cell_length_a   3.88872600
_cell_length_b   3.88872556
_cell_length_c   14.85276800
_cell_angle_alpha   90.00000000
_cell_angle_beta   90.00000000
_cell_angle_gamma   120.00000372
_symmetry_Int_Tables_number   1
_chemical_formula_structural   CeZr(NiP)2
_chemical_formula_sum   'Ce2 Zr2 Ni4 P4'
_cell_volume   194.51480031
_cell_formula_units_Z   2
loop_
 _symmetry_equiv_pos_site_id
 _symmetry_equiv_pos_as_xyz
  1  'x, y, z'
loop_
 _atom_site_type_symbol
 _atom_site_label
 _atom_site_symmetry_multiplicity
 _atom_site_fract_x
 _atom_site_fract_y
 _atom_site_fract_z
 _atom_site_occupancy
  Ce  Ce0  1  0.000000  0.000000  0.500000  1
  Ce  Ce1  1  0.000000  0.000000  0.000000  1
  Zr  Zr2  1  0.000000  0.000000  0.250000  1
  Zr  Zr3  1  0.000000  0.000000  0.750000  1
  Ni  Ni4  1  0.333333  0.666667  0.346192  1
  Ni  Ni5  1  0.666667  0.333333  0.653808  1
  Ni  Ni6  1  0.666667  0.333333  0.846192  1
  Ni  Ni7  1  0.333333  0.666667  0.153808  1
  P  P8  1  0.333333  0.666667  0.874211  1
  P  P9  1  0.666667  0.333333  0.125789  1
  P  P10  1  0.666667  0.333333  0.374211  1
  P  P11  1  0.333333  0.666667  0.625789  1
