# generated using pymatgen
data_Tb8TaTi11Si15Sn
_symmetry_space_group_name_H-M   'P 1'
_cell_length_a   7.12547779
_cell_length_b   7.09232180
_cell_length_c   13.07819097
_cell_angle_alpha   89.94791290
_cell_angle_beta   89.78504403
_cell_angle_gamma   90.00831952
_symmetry_Int_Tables_number   1
_chemical_formula_structural   Tb8TaTi11Si15Sn
_chemical_formula_sum   'Tb8 Ta1 Ti11 Si15 Sn1'
_cell_volume   660.91689973
_cell_formula_units_Z   1
loop_
 _symmetry_equiv_pos_site_id
 _symmetry_equiv_pos_as_xyz
  1  'x, y, z'
loop_
 _atom_site_type_symbol
 _atom_site_label
 _atom_site_symmetry_multiplicity
 _atom_site_fract_x
 _atom_site_fract_y
 _atom_site_fract_z
 _atom_site_occupancy
  Tb  Tb0  1  0.342542  0.999644  0.461692  1
  Tb  Tb1  1  0.505202  0.834586  0.718347  1
  Tb  Tb2  1  0.502189  0.159933  0.216638  1
  Tb  Tb3  1  0.840123  0.497013  0.281973  1
  Tb  Tb4  1  0.159636  0.509490  0.786100  1
  Tb  Tb5  1  0.661267  0.996673  0.968741  1
  Tb  Tb6  1  0.993756  0.347544  0.527535  1
  Tb  Tb7  1  0.998856  0.659550  0.034034  1
  Ta  Ta8  1  0.326576  0.326761  0.001237  1
  Ti  Ti9  1  0.174113  0.825972  0.249733  1
  Ti  Ti10  1  0.816650  0.175653  0.752040  1
  Ti  Ti11  1  0.672485  0.672616  0.499461  1
  Ti  Ti12  1  0.154830  0.009200  0.883939  1
  Ti  Ti13  1  0.491115  0.650797  0.126041  1
  Ti  Ti14  1  0.515179  0.352790  0.626503  1
  Ti  Ti15  1  0.654204  0.492305  0.876203  1
  Ti  Ti16  1  0.346815  0.509397  0.372647  1
  Ti  Ti17  1  0.846032  0.991766  0.376047  1
  Ti  Ti18  1  0.010745  0.153945  0.122743  1
  Ti  Ti19  1  0.979594  0.834318  0.618559  1
  Si  Si20  1  0.372115  0.701841  0.936595  1
  Si  Si21  1  0.626940  0.297916  0.433528  1
  Si  Si22  1  0.702105  0.370854  0.065745  1
  Si  Si23  1  0.297536  0.629260  0.564829  1
  Si  Si24  1  0.798243  0.871380  0.185286  1
  Si  Si25  1  0.128314  0.202030  0.314262  1
  Si  Si26  1  0.871960  0.800811  0.815311  1
  Si  Si27  1  0.292540  0.952522  0.067047  1
  Si  Si28  1  0.549288  0.789122  0.313787  1
  Si  Si29  1  0.460136  0.209785  0.819109  1
  Si  Si30  1  0.793376  0.544584  0.686480  1
  Si  Si31  1  0.208917  0.453233  0.186001  1
  Si  Si32  1  0.707332  0.048228  0.564613  1
  Si  Si33  1  0.953003  0.291561  0.935075  1
  Si  Si34  1  0.047904  0.711244  0.432609  1
  Sn  Sn35  1  0.198383  0.125677  0.679507  1
