# generated using pymatgen
data_Sc3Be4Ru10W3
_symmetry_space_group_name_H-M   'P 1'
_cell_length_a   9.49702880
_cell_length_b   9.49702893
_cell_length_c   3.11617900
_cell_angle_alpha   90.00000000
_cell_angle_beta   90.00000000
_cell_angle_gamma   90.46594396
_symmetry_Int_Tables_number   1
_chemical_formula_structural   Sc3Be4Ru10W3
_chemical_formula_sum   'Sc3 Be4 Ru10 W3'
_cell_volume   281.04997545
_cell_formula_units_Z   1
loop_
 _symmetry_equiv_pos_site_id
 _symmetry_equiv_pos_as_xyz
  1  'x, y, z'
loop_
 _atom_site_type_symbol
 _atom_site_label
 _atom_site_symmetry_multiplicity
 _atom_site_fract_x
 _atom_site_fract_y
 _atom_site_fract_z
 _atom_site_occupancy
  Sc  Sc0  1  0.173398  0.826602  0.000000  1
  Sc  Sc1  1  0.327979  0.326942  0.000000  1
  Sc  Sc2  1  0.673058  0.672021  0.000000  1
  Be  Be3  1  0.623227  0.376773  0.000000  1
  Be  Be4  1  0.381243  0.618757  0.000000  1
  Be  Be5  1  0.119303  0.124285  0.000000  1
  Be  Be6  1  0.875715  0.880697  0.000000  1
  Ru  Ru7  1  0.502689  0.497311  0.500000  1
  Ru  Ru8  1  0.993081  0.006919  0.500000  1
  Ru  Ru9  1  0.583305  0.205174  0.500000  1
  Ru  Ru10  1  0.431123  0.790371  0.500000  1
  Ru  Ru11  1  0.060304  0.290494  0.500000  1
  Ru  Ru12  1  0.928197  0.710221  0.500000  1
  Ru  Ru13  1  0.289779  0.071803  0.500000  1
  Ru  Ru14  1  0.709506  0.939696  0.500000  1
  Ru  Ru15  1  0.209629  0.568877  0.500000  1
  Ru  Ru16  1  0.794826  0.416695  0.500000  1
  W  W17  1  0.494521  0.998995  0.000000  1
  W  W18  1  0.001005  0.505479  0.000000  1
  W  W19  1  0.828110  0.171890  0.000000  1
