# generated using pymatgen
data_La8Mg5InAu20
_symmetry_space_group_name_H-M   'P 1'
_cell_length_a   8.81747355
_cell_length_b   8.81747381
_cell_length_c   10.44293852
_cell_angle_alpha   90.10494495
_cell_angle_beta   89.89505396
_cell_angle_gamma   108.36528607
_symmetry_Int_Tables_number   1
_chemical_formula_structural   La8Mg5InAu20
_chemical_formula_sum   'La8 Mg5 In1 Au20'
_cell_volume   770.56072008
_cell_formula_units_Z   1
loop_
 _symmetry_equiv_pos_site_id
 _symmetry_equiv_pos_as_xyz
  1  'x, y, z'
loop_
 _atom_site_type_symbol
 _atom_site_label
 _atom_site_symmetry_multiplicity
 _atom_site_fract_x
 _atom_site_fract_y
 _atom_site_fract_z
 _atom_site_occupancy
  La  La0  1  0.701726  0.300169  0.000442  1
  La  La1  1  0.296541  0.699704  0.001634  1
  La  La2  1  0.800169  0.201726  0.499558  1
  La  La3  1  0.199704  0.796541  0.498366  1
  La  La4  1  0.298006  0.301141  0.203356  1
  La  La5  1  0.699270  0.699002  0.795654  1
  La  La6  1  0.199002  0.199270  0.704346  1
  La  La7  1  0.801141  0.798006  0.296644  1
  Mg  Mg8  1  0.990476  0.490476  0.750000  1
  Mg  Mg9  1  0.489178  0.989178  0.750000  1
  Mg  Mg10  1  0.511165  0.011165  0.250000  1
  Mg  Mg11  1  0.999028  0.998806  0.999860  1
  Mg  Mg12  1  0.498806  0.499028  0.500140  1
  In  In13  1  0.011595  0.511595  0.250000  1
  Au  Au14  1  0.097373  0.096686  0.405035  1
  Au  Au15  1  0.903564  0.903965  0.595655  1
  Au  Au16  1  0.403965  0.403564  0.904345  1
  Au  Au17  1  0.596686  0.597373  0.094965  1
  Au  Au18  1  0.883134  0.160196  0.204520  1
  Au  Au19  1  0.115677  0.834597  0.793430  1
  Au  Au20  1  0.613972  0.332266  0.706070  1
  Au  Au21  1  0.660196  0.383134  0.295480  1
  Au  Au22  1  0.395980  0.669716  0.295531  1
  Au  Au23  1  0.334597  0.615677  0.706570  1
  Au  Au24  1  0.832266  0.113972  0.793930  1
  Au  Au25  1  0.169716  0.895980  0.204469  1
  Au  Au26  1  0.932736  0.662021  0.018830  1
  Au  Au27  1  0.065411  0.336812  0.970464  1
  Au  Au28  1  0.564905  0.841595  0.523985  1
  Au  Au29  1  0.162021  0.432736  0.481170  1
  Au  Au30  1  0.435156  0.158433  0.476596  1
  Au  Au31  1  0.836812  0.565411  0.529536  1
  Au  Au32  1  0.341595  0.064905  0.976015  1
  Au  Au33  1  0.658433  0.935156  0.023404  1
