# generated using pymatgen
data_Y4V3FeB16
_symmetry_space_group_name_H-M   'P 1'
_cell_length_a   3.43990100
_cell_length_b   5.98110820
_cell_length_c   11.56246540
_cell_angle_alpha   89.96999351
_cell_angle_beta   90.00000000
_cell_angle_gamma   90.00000000
_symmetry_Int_Tables_number   1
_chemical_formula_structural   Y4V3FeB16
_chemical_formula_sum   'Y4 V3 Fe1 B16'
_cell_volume   237.89098778
_cell_formula_units_Z   1
loop_
 _symmetry_equiv_pos_site_id
 _symmetry_equiv_pos_as_xyz
  1  'x, y, z'
loop_
 _atom_site_type_symbol
 _atom_site_label
 _atom_site_symmetry_multiplicity
 _atom_site_fract_x
 _atom_site_fract_y
 _atom_site_fract_z
 _atom_site_occupancy
  Y  Y0  1  0.500000  0.376033  0.151361  1
  Y  Y1  1  0.500000  0.625754  0.848842  1
  Y  Y2  1  0.500000  0.124121  0.650385  1
  Y  Y3  1  0.500000  0.875839  0.349081  1
  V  V4  1  0.500000  0.373171  0.414375  1
  V  V5  1  0.500000  0.626858  0.582823  1
  V  V6  1  0.500000  0.126850  0.920069  1
  Fe  Fe7  1  0.500000  0.874008  0.081595  1
  B  B8  1  0.000000  0.108720  0.049598  1
  B  B9  1  0.000000  0.883673  0.955946  1
  B  B10  1  0.000000  0.385452  0.546401  1
  B  B11  1  0.000000  0.614424  0.452334  1
  B  B12  1  0.000000  0.134947  0.466791  1
  B  B13  1  0.000000  0.864411  0.532572  1
  B  B14  1  0.000000  0.364701  0.969841  1
  B  B15  1  0.000000  0.638965  0.033077  1
  B  B16  1  0.000000  0.021500  0.190701  1
  B  B17  1  0.000000  0.975166  0.809185  1
  B  B18  1  0.000000  0.474537  0.692419  1
  B  B19  1  0.000000  0.527392  0.305833  1
  B  B20  1  0.000000  0.213542  0.312479  1
  B  B21  1  0.000000  0.785201  0.686321  1
  B  B22  1  0.000000  0.283607  0.815659  1
  B  B23  1  0.000000  0.721129  0.182313  1
