# generated using pymatgen
data_BaNd2Dy(AsPt)4
_symmetry_space_group_name_H-M   'P 1'
_cell_length_a   4.34654300
_cell_length_b   4.34654355
_cell_length_c   16.75636400
_cell_angle_alpha   90.00000000
_cell_angle_beta   90.00000000
_cell_angle_gamma   120.00000344
_symmetry_Int_Tables_number   1
_chemical_formula_structural   BaNd2Dy(AsPt)4
_chemical_formula_sum   'Ba1 Nd2 Dy1 As4 Pt4'
_cell_volume   274.15641863
_cell_formula_units_Z   1
loop_
 _symmetry_equiv_pos_site_id
 _symmetry_equiv_pos_as_xyz
  1  'x, y, z'
loop_
 _atom_site_type_symbol
 _atom_site_label
 _atom_site_symmetry_multiplicity
 _atom_site_fract_x
 _atom_site_fract_y
 _atom_site_fract_z
 _atom_site_occupancy
  Ba  Ba0  1  0.000000  0.000000  0.250000  1
  Nd  Nd1  1  0.000000  0.000000  0.514278  1
  Nd  Nd2  1  0.000000  0.000000  0.985722  1
  Dy  Dy3  1  0.000000  0.000000  0.750000  1
  As  As4  1  0.333333  0.666667  0.870193  1
  As  As5  1  0.666667  0.333333  0.105491  1
  As  As6  1  0.666667  0.333333  0.394509  1
  As  As7  1  0.333333  0.666667  0.629807  1
  Pt  Pt8  1  0.333333  0.666667  0.398502  1
  Pt  Pt9  1  0.666667  0.333333  0.646814  1
  Pt  Pt10  1  0.666667  0.333333  0.853186  1
  Pt  Pt11  1  0.333333  0.666667  0.101498  1
