# generated using pymatgen
data_Y16Sc4GaBi11
_symmetry_space_group_name_H-M   'P 1'
_cell_length_a   8.10561205
_cell_length_b   9.40167100
_cell_length_c   11.95318891
_cell_angle_alpha   90.00000000
_cell_angle_beta   90.27313019
_cell_angle_gamma   90.00000000
_symmetry_Int_Tables_number   1
_chemical_formula_structural   Y16Sc4GaBi11
_chemical_formula_sum   'Y16 Sc4 Ga1 Bi11'
_cell_volume   910.89792363
_cell_formula_units_Z   1
loop_
 _symmetry_equiv_pos_site_id
 _symmetry_equiv_pos_as_xyz
  1  'x, y, z'
loop_
 _atom_site_type_symbol
 _atom_site_label
 _atom_site_symmetry_multiplicity
 _atom_site_fract_x
 _atom_site_fract_y
 _atom_site_fract_z
 _atom_site_occupancy
  Y  Y0  1  0.189095  0.750000  0.725272  1
  Y  Y1  1  0.673612  0.750000  0.785678  1
  Y  Y2  1  0.813728  0.250000  0.278957  1
  Y  Y3  1  0.315194  0.250000  0.221509  1
  Y  Y4  1  0.305580  0.451705  0.941188  1
  Y  Y5  1  0.803131  0.062986  0.558793  1
  Y  Y6  1  0.688913  0.930986  0.055332  1
  Y  Y7  1  0.197052  0.563321  0.440311  1
  Y  Y8  1  0.688913  0.569014  0.055332  1
  Y  Y9  1  0.197052  0.936679  0.440311  1
  Y  Y10  1  0.305580  0.048295  0.941188  1
  Y  Y11  1  0.803131  0.437014  0.558793  1
  Y  Y12  1  0.354980  0.750000  0.204686  1
  Y  Y13  1  0.854323  0.750000  0.285665  1
  Y  Y14  1  0.646779  0.250000  0.785310  1
  Y  Y15  1  0.147780  0.250000  0.715128  1
  Sc  Sc16  1  0.037935  0.750000  0.988554  1
  Sc  Sc17  1  0.526114  0.750000  0.511743  1
  Sc  Sc18  1  0.977258  0.250000  0.011330  1
  Sc  Sc19  1  0.474127  0.250000  0.488480  1
  Ga  Ga20  1  0.405812  0.750000  0.960418  1
  Bi  Bi21  1  0.435211  0.003503  0.669154  1
  Bi  Bi22  1  0.935063  0.496634  0.831146  1
  Bi  Bi23  1  0.564840  0.504296  0.331567  1
  Bi  Bi24  1  0.064049  0.996458  0.168921  1
  Bi  Bi25  1  0.564840  0.995704  0.331567  1
  Bi  Bi26  1  0.064049  0.503542  0.168921  1
  Bi  Bi27  1  0.435211  0.496497  0.669154  1
  Bi  Bi28  1  0.935063  0.003366  0.831146  1
  Bi  Bi29  1  0.905551  0.750000  0.544516  1
  Bi  Bi30  1  0.594802  0.250000  0.042358  1
  Bi  Bi31  1  0.095235  0.250000  0.457573  1
