# generated using pymatgen
data_Er2ScTaBe4(AlIr5)2
_symmetry_space_group_name_H-M   'P 1'
_cell_length_a   9.58955600
_cell_length_b   9.58955584
_cell_length_c   3.12120700
_cell_angle_alpha   90.00000000
_cell_angle_beta   90.00000000
_cell_angle_gamma   89.43403882
_symmetry_Int_Tables_number   1
_chemical_formula_structural   Er2ScTaBe4(AlIr5)2
_chemical_formula_sum   'Er2 Sc1 Ta1 Be4 Al2 Ir10'
_cell_volume   287.01089046
_cell_formula_units_Z   1
loop_
 _symmetry_equiv_pos_site_id
 _symmetry_equiv_pos_as_xyz
  1  'x, y, z'
loop_
 _atom_site_type_symbol
 _atom_site_label
 _atom_site_symmetry_multiplicity
 _atom_site_fract_x
 _atom_site_fract_y
 _atom_site_fract_z
 _atom_site_occupancy
  Er  Er0  1  0.677449  0.176478  0.000000  1
  Er  Er1  1  0.323522  0.822551  0.000000  1
  Sc  Sc2  1  0.822920  0.677080  0.000000  1
  Ta  Ta3  1  0.175276  0.324724  0.000000  1
  Be  Be4  1  0.122142  0.623172  0.000000  1
  Be  Be5  1  0.876828  0.377858  0.000000  1
  Be  Be6  1  0.624836  0.875164  0.000000  1
  Be  Be7  1  0.376513  0.123487  0.000000  1
  Al  Al8  1  0.998989  0.997438  0.000000  1
  Al  Al9  1  0.502562  0.501011  0.000000  1
  Ir  Ir10  1  0.207175  0.080620  0.500000  1
  Ir  Ir11  1  0.791464  0.929194  0.500000  1
  Ir  Ir12  1  0.062647  0.786480  0.500000  1
  Ir  Ir13  1  0.713520  0.437353  0.500000  1
  Ir  Ir14  1  0.945308  0.214534  0.500000  1
  Ir  Ir15  1  0.285466  0.554692  0.500000  1
  Ir  Ir16  1  0.570806  0.708536  0.500000  1
  Ir  Ir17  1  0.419380  0.292825  0.500000  1
  Ir  Ir18  1  0.499252  0.000748  0.500000  1
  Ir  Ir19  1  0.003946  0.496054  0.500000  1
