# generated using pymatgen
data_Rb2VAgTe4
_symmetry_space_group_name_H-M   'P 1'
_cell_length_a   15.07264228
_cell_length_b   13.46068937
_cell_length_c   8.14010153
_cell_angle_alpha   84.69356642
_cell_angle_beta   62.77627412
_cell_angle_gamma   32.53015862
_symmetry_Int_Tables_number   1
_chemical_formula_structural   Rb2VAgTe4
_chemical_formula_sum   'Rb4 V2 Ag2 Te8'
_cell_volume   623.83144247
_cell_formula_units_Z   2
loop_
 _symmetry_equiv_pos_site_id
 _symmetry_equiv_pos_as_xyz
  1  'x, y, z'
loop_
 _atom_site_type_symbol
 _atom_site_label
 _atom_site_symmetry_multiplicity
 _atom_site_fract_x
 _atom_site_fract_y
 _atom_site_fract_z
 _atom_site_occupancy
  Rb  Rb0  1  0.681287  0.681287  0.318713  1
  Rb  Rb1  1  0.318713  0.318713  0.681287  1
  Rb  Rb2  1  0.931287  0.931287  0.568713  1
  Rb  Rb3  1  0.568713  0.568713  0.931287  1
  V  V4  1  0.750000  0.750000  0.750000  1
  V  V5  1  0.500000  0.500000  0.500000  1
  Ag  Ag6  1  0.250000  0.250000  0.250000  1
  Ag  Ag7  1  0.000000  0.000000  0.000000  1
  Te  Te8  1  0.558270  0.326199  0.239781  1
  Te  Te9  1  0.875750  0.239781  0.326199  1
  Te  Te10  1  0.010219  0.374250  0.691730  1
  Te  Te11  1  0.923801  0.691730  0.374250  1
  Te  Te12  1  0.239781  0.875750  0.558270  1
  Te  Te13  1  0.326199  0.558270  0.875750  1
  Te  Te14  1  0.374250  0.010219  0.923801  1
  Te  Te15  1  0.691730  0.923801  0.010219  1
