# generated using pymatgen
data_Dy2Ho18(Ir3Os)3
_symmetry_space_group_name_H-M   'P 1'
_cell_length_a   10.83035504
_cell_length_b   10.83302900
_cell_length_c   6.39855303
_cell_angle_alpha   90.00077119
_cell_angle_beta   90.01011681
_cell_angle_gamma   89.99889972
_symmetry_Int_Tables_number   1
_chemical_formula_structural   Dy2Ho18(Ir3Os)3
_chemical_formula_sum   'Dy2 Ho18 Ir9 Os3'
_cell_volume   750.71374266
_cell_formula_units_Z   1
loop_
 _symmetry_equiv_pos_site_id
 _symmetry_equiv_pos_as_xyz
  1  'x, y, z'
loop_
 _atom_site_type_symbol
 _atom_site_label
 _atom_site_symmetry_multiplicity
 _atom_site_fract_x
 _atom_site_fract_y
 _atom_site_fract_z
 _atom_site_occupancy
  Dy  Dy0  1  0.087231  0.707849  0.623726  1
  Dy  Dy1  1  0.087314  0.292483  0.120015  1
  Ho  Ho2  1  0.294143  0.086533  0.377964  1
  Ho  Ho3  1  0.294141  0.913659  0.878017  1
  Ho  Ho4  1  0.705866  0.086397  0.877923  1
  Ho  Ho5  1  0.705877  0.913419  0.377895  1
  Ho  Ho6  1  0.586422  0.794135  0.877912  1
  Ho  Ho7  1  0.586596  0.205869  0.377865  1
  Ho  Ho8  1  0.413456  0.794116  0.377876  1
  Ho  Ho9  1  0.413631  0.205881  0.877923  1
  Ho  Ho10  1  0.207785  0.412761  0.623614  1
  Ho  Ho11  1  0.207445  0.587302  0.119871  1
  Ho  Ho12  1  0.792565  0.412764  0.119839  1
  Ho  Ho13  1  0.792207  0.587155  0.623608  1
  Ho  Ho14  1  0.912660  0.707349  0.119915  1
  Ho  Ho15  1  0.912740  0.292311  0.623600  1
  Ho  Ho16  1  0.999938  0.000087  0.499697  1
  Ho  Ho17  1  0.999941  0.999923  0.999973  1
  Ho  Ho18  1  0.500018  0.500002  0.999936  1
  Ho  Ho19  1  0.500027  0.499971  0.499713  1
  Ir  Ir20  1  0.848149  0.152930  0.250413  1
  Ir  Ir21  1  0.847982  0.847216  0.749902  1
  Ir  Ir22  1  0.151957  0.152771  0.749461  1
  Ir  Ir23  1  0.151778  0.847102  0.249999  1
  Ir  Ir24  1  0.652836  0.348098  0.749848  1
  Ir  Ir25  1  0.652959  0.651745  0.250403  1
  Ir  Ir26  1  0.347224  0.348273  0.250521  1
  Ir  Ir27  1  0.347353  0.651889  0.749949  1
  Ir  Ir28  1  0.999879  0.499972  0.377314  1
  Os  Os29  1  0.499993  0.000007  0.124782  1
  Os  Os30  1  0.499997  0.999992  0.624507  1
  Os  Os31  1  0.999890  0.500042  0.876016  1
