# generated using pymatgen
data_Yb5U5O18
_symmetry_space_group_name_H-M   'P 1'
_cell_length_a   6.83149599
_cell_length_b   7.43316137
_cell_length_c   8.39371316
_cell_angle_alpha   98.43605132
_cell_angle_beta   98.54072106
_cell_angle_gamma   107.85320334
_symmetry_Int_Tables_number   1
_chemical_formula_structural   Yb5U5O18
_chemical_formula_sum   'Yb5 U5 O18'
_cell_volume   392.74949742
_cell_formula_units_Z   1
loop_
 _symmetry_equiv_pos_site_id
 _symmetry_equiv_pos_as_xyz
  1  'x, y, z'
loop_
 _atom_site_type_symbol
 _atom_site_label
 _atom_site_symmetry_multiplicity
 _atom_site_fract_x
 _atom_site_fract_y
 _atom_site_fract_z
 _atom_site_occupancy
  Yb  Yb0  1  0.794632  0.102888  0.579913  1
  Yb  Yb1  1  0.593143  0.696432  0.196509  1
  Yb  Yb2  1  0.406857  0.303568  0.803491  1
  Yb  Yb3  1  0.205368  0.897112  0.420087  1
  Yb  Yb4  1  0.000000  0.500000  0.000000  1
  U  U5  1  0.000000  0.000000  0.000000  1
  U  U6  1  0.790195  0.578645  0.589083  1
  U  U7  1  0.626035  0.203788  0.192138  1
  U  U8  1  0.373965  0.796212  0.807862  1
  U  U9  1  0.209805  0.421355  0.410917  1
  O  O10  1  0.821892  0.797654  0.469441  1
  O  O11  1  0.001364  0.252237  0.165642  1
  O  O12  1  0.672238  0.417454  0.062412  1
  O  O13  1  0.460034  0.001967  0.677392  1
  O  O14  1  0.860468  0.339702  0.425562  1
  O  O15  1  0.507192  0.409078  0.343172  1
  O  O16  1  0.252750  0.623282  0.276253  1
  O  O17  1  0.988142  0.830929  0.164104  1
  O  O18  1  0.659147  0.927163  0.005310  1
  O  O19  1  0.340853  0.072837  0.994690  1
  O  O20  1  0.011858  0.169071  0.835896  1
  O  O21  1  0.747250  0.376718  0.723747  1
  O  O22  1  0.492808  0.590922  0.656828  1
  O  O23  1  0.139532  0.660298  0.574438  1
  O  O24  1  0.539966  0.998033  0.322608  1
  O  O25  1  0.327762  0.582546  0.937588  1
  O  O26  1  0.998636  0.747763  0.834358  1
  O  O27  1  0.178108  0.202346  0.530559  1
