# generated using pymatgen
data_PS27
_symmetry_space_group_name_H-M   'P 1'
_cell_length_a   15.05241240
_cell_length_b   15.05240717
_cell_length_c   15.05241910
_cell_angle_alpha   118.65799140
_cell_angle_beta   118.65805571
_cell_angle_gamma   118.65797422
_symmetry_Int_Tables_number   1
_chemical_formula_structural   PS27
_chemical_formula_sum   'P1 S27'
_cell_volume   1019.75198999
_cell_formula_units_Z   1
loop_
 _symmetry_equiv_pos_site_id
 _symmetry_equiv_pos_as_xyz
  1  'x, y, z'
loop_
 _atom_site_type_symbol
 _atom_site_label
 _atom_site_symmetry_multiplicity
 _atom_site_fract_x
 _atom_site_fract_y
 _atom_site_fract_z
 _atom_site_occupancy
  P  P0  1  0.941462  0.941461  0.941461  1
  S  S1  1  0.800667  0.518569  0.518569  1
  S  S2  1  0.518566  0.518566  0.800665  1
  S  S3  1  0.518567  0.800665  0.518567  1
  S  S4  1  0.246825  0.376329  0.636128  1
  S  S5  1  0.349785  0.949711  0.349784  1
  S  S6  1  0.349785  0.349784  0.949712  1
  S  S7  1  0.949711  0.349784  0.349784  1
  S  S8  1  0.128055  0.741012  0.257585  1
  S  S9  1  0.257586  0.128055  0.741012  1
  S  S10  1  0.741011  0.257585  0.128054  1
  S  S11  1  0.741011  0.128054  0.257585  1
  S  S12  1  0.257586  0.741012  0.128055  1
  S  S13  1  0.128056  0.257587  0.741013  1
  S  S14  1  0.345926  0.878443  0.528677  1
  S  S15  1  0.528678  0.345926  0.878443  1
  S  S16  1  0.878442  0.528677  0.345926  1
  S  S17  1  0.878441  0.345925  0.528676  1
  S  S18  1  0.528678  0.878443  0.345926  1
  S  S19  1  0.345927  0.528677  0.878444  1
  S  S20  1  0.246824  0.636128  0.376329  1
  S  S21  1  0.376329  0.246825  0.636128  1
  S  S22  1  0.636129  0.376330  0.246826  1
  S  S23  1  0.636128  0.246825  0.376329  1
  S  S24  1  0.376330  0.636128  0.246825  1
  S  S25  1  0.853095  0.982850  0.982850  1
  S  S26  1  0.982850  0.982850  0.853095  1
  S  S27  1  0.982850  0.853096  0.982850  1
