# generated using pymatgen
data_NaLa(CuO2)4
_symmetry_space_group_name_H-M   'P 1'
_cell_length_a   6.32372826
_cell_length_b   6.32372895
_cell_length_c   6.32372856
_cell_angle_alpha   124.61595830
_cell_angle_beta   124.61596788
_cell_angle_gamma   82.17509518
_symmetry_Int_Tables_number   1
_chemical_formula_structural   NaLa(CuO2)4
_chemical_formula_sum   'Na1 La1 Cu4 O8'
_cell_volume   164.65012804
_cell_formula_units_Z   1
loop_
 _symmetry_equiv_pos_site_id
 _symmetry_equiv_pos_as_xyz
  1  'x, y, z'
loop_
 _atom_site_type_symbol
 _atom_site_label
 _atom_site_symmetry_multiplicity
 _atom_site_fract_x
 _atom_site_fract_y
 _atom_site_fract_z
 _atom_site_occupancy
  Na  Na0  1  0.000000  0.000000  0.000000  1
  La  La1  1  0.750000  0.250000  0.500000  1
  Cu  Cu2  1  0.369636  0.627642  0.246024  1
  Cu  Cu3  1  0.381618  0.123612  0.753976  1
  Cu  Cu4  1  0.372358  0.618382  0.741994  1
  Cu  Cu5  1  0.876388  0.630364  0.258006  1
  O  O6  1  0.723530  0.313349  0.134835  1
  O  O7  1  0.178514  0.588695  0.865165  1
  O  O8  1  0.033265  0.945877  0.382028  1
  O  O9  1  0.563848  0.651237  0.617972  1
  O  O10  1  0.054123  0.436152  0.087389  1
  O  O11  1  0.348763  0.966735  0.912611  1
  O  O12  1  0.411305  0.276470  0.589819  1
  O  O13  1  0.686651  0.821486  0.410181  1
