# generated using pymatgen
data_K2LiAs2Pd3
_symmetry_space_group_name_H-M   'P 1'
_cell_length_a   4.37914100
_cell_length_b   6.28595404
_cell_length_c   7.22895593
_cell_angle_alpha   89.69320993
_cell_angle_beta   90.00000000
_cell_angle_gamma   90.00000000
_symmetry_Int_Tables_number   1
_chemical_formula_structural   K2LiAs2Pd3
_chemical_formula_sum   'K2 Li1 As2 Pd3'
_cell_volume   198.98918895
_cell_formula_units_Z   1
loop_
 _symmetry_equiv_pos_site_id
 _symmetry_equiv_pos_as_xyz
  1  'x, y, z'
loop_
 _atom_site_type_symbol
 _atom_site_label
 _atom_site_symmetry_multiplicity
 _atom_site_fract_x
 _atom_site_fract_y
 _atom_site_fract_z
 _atom_site_occupancy
  K  K0  1  0.500000  0.104640  0.471867  1
  K  K1  1  0.000000  0.886913  0.007897  1
  Li  Li2  1  0.000000  0.408084  0.815902  1
  As  As3  1  0.000000  0.596179  0.494906  1
  As  As4  1  0.500000  0.416876  0.011167  1
  Pd  Pd5  1  0.000000  0.403646  0.174868  1
  Pd  Pd6  1  0.500000  0.600102  0.323905  1
  Pd  Pd7  1  0.500000  0.583560  0.699487  1
