# generated using pymatgen
data_Tb2DyMg3Si2Au
_symmetry_space_group_name_H-M   'P 1'
_cell_length_a   7.25794570
_cell_length_b   7.25794702
_cell_length_c   4.30519800
_cell_angle_alpha   90.00000000
_cell_angle_beta   90.00000000
_cell_angle_gamma   119.86965750
_symmetry_Int_Tables_number   1
_chemical_formula_structural   Tb2DyMg3Si2Au
_chemical_formula_sum   'Tb2 Dy1 Mg3 Si2 Au1'
_cell_volume   196.66187813
_cell_formula_units_Z   1
loop_
 _symmetry_equiv_pos_site_id
 _symmetry_equiv_pos_as_xyz
  1  'x, y, z'
loop_
 _atom_site_type_symbol
 _atom_site_label
 _atom_site_symmetry_multiplicity
 _atom_site_fract_x
 _atom_site_fract_y
 _atom_site_fract_z
 _atom_site_occupancy
  Tb  Tb0  1  0.582410  0.999560  0.000000  1
  Tb  Tb1  1  0.999560  0.582410  0.000000  1
  Dy  Dy2  1  0.416988  0.416988  0.000000  1
  Mg  Mg3  1  0.247062  0.000287  0.500000  1
  Mg  Mg4  1  0.000287  0.247062  0.500000  1
  Mg  Mg5  1  0.752794  0.752794  0.500000  1
  Si  Si6  1  0.333646  0.666435  0.500000  1
  Si  Si7  1  0.666435  0.333646  0.500000  1
  Au  Au8  1  0.000818  0.000818  0.000000  1
