# generated using pymatgen
data_La3Y2Zr3(As3Pd4)4
_symmetry_space_group_name_H-M   'P 1'
_cell_length_a   13.62484394
_cell_length_b   13.62484389
_cell_length_c   4.16003100
_cell_angle_alpha   90.00000000
_cell_angle_beta   90.00000000
_cell_angle_gamma   119.95754071
_symmetry_Int_Tables_number   1
_chemical_formula_structural   La3Y2Zr3(As3Pd4)4
_chemical_formula_sum   'La3 Y2 Zr3 As12 Pd16'
_cell_volume   669.07672607
_cell_formula_units_Z   1
loop_
 _symmetry_equiv_pos_site_id
 _symmetry_equiv_pos_as_xyz
  1  'x, y, z'
loop_
 _atom_site_type_symbol
 _atom_site_label
 _atom_site_symmetry_multiplicity
 _atom_site_fract_x
 _atom_site_fract_y
 _atom_site_fract_z
 _atom_site_occupancy
  La  La0  1  0.187959  0.187959  0.500000  1
  La  La1  1  0.333402  0.666640  0.000000  1
  La  La2  1  0.666640  0.333402  0.000000  1
  Y  Y3  1  0.809361  0.000387  0.500000  1
  Y  Y4  1  0.000387  0.809361  0.500000  1
  Zr  Zr5  1  0.559105  0.559105  0.000000  1
  Zr  Zr6  1  0.442389  0.999343  0.000000  1
  Zr  Zr7  1  0.999343  0.442389  0.000000  1
  As  As8  1  0.825107  0.825107  0.000000  1
  As  As9  1  0.172680  0.996510  0.000000  1
  As  As10  1  0.996510  0.172680  0.000000  1
  As  As11  1  0.164593  0.480247  0.500000  1
  As  As12  1  0.520365  0.684851  0.500000  1
  As  As13  1  0.316157  0.835130  0.500000  1
  As  As14  1  0.684851  0.520365  0.500000  1
  As  As15  1  0.835130  0.316157  0.500000  1
  As  As16  1  0.480247  0.164593  0.500000  1
  As  As17  1  0.362217  0.362217  0.000000  1
  As  As18  1  0.641316  0.999990  0.000000  1
  As  As19  1  0.999990  0.641316  0.000000  1
  Pd  Pd20  1  0.723597  0.723597  0.500000  1
  Pd  Pd21  1  0.277793  0.999219  0.500000  1
  Pd  Pd22  1  0.999219  0.277793  0.500000  1
  Pd  Pd23  1  0.180773  0.373861  0.000000  1
  Pd  Pd24  1  0.629434  0.810482  0.000000  1
  Pd  Pd25  1  0.189890  0.818057  0.000000  1
  Pd  Pd26  1  0.810482  0.629434  0.000000  1
  Pd  Pd27  1  0.818057  0.189890  0.000000  1
  Pd  Pd28  1  0.373861  0.180773  0.000000  1
  Pd  Pd29  1  0.358847  0.483963  0.500000  1
  Pd  Pd30  1  0.516909  0.874594  0.500000  1
  Pd  Pd31  1  0.124997  0.641799  0.500000  1
  Pd  Pd32  1  0.874594  0.516909  0.500000  1
  Pd  Pd33  1  0.641799  0.124997  0.500000  1
  Pd  Pd34  1  0.483963  0.358847  0.500000  1
  Pd  Pd35  1  0.998038  0.998038  0.000000  1
