# generated using pymatgen
data_Zr16Co4TcOs3
_symmetry_space_group_name_H-M   'P 1'
_cell_length_a   8.69390515
_cell_length_b   8.69301645
_cell_length_c   8.69234544
_cell_angle_alpha   60.03252852
_cell_angle_beta   60.03695714
_cell_angle_gamma   60.03784007
_symmetry_Int_Tables_number   1
_chemical_formula_structural   Zr16Co4TcOs3
_chemical_formula_sum   'Zr16 Co4 Tc1 Os3'
_cell_volume   464.89986125
_cell_formula_units_Z   1
loop_
 _symmetry_equiv_pos_site_id
 _symmetry_equiv_pos_as_xyz
  1  'x, y, z'
loop_
 _atom_site_type_symbol
 _atom_site_label
 _atom_site_symmetry_multiplicity
 _atom_site_fract_x
 _atom_site_fract_y
 _atom_site_fract_z
 _atom_site_occupancy
  Zr  Zr0  1  0.051092  0.649673  0.649732  1
  Zr  Zr1  1  0.649599  0.051114  0.649752  1
  Zr  Zr2  1  0.649632  0.649724  0.051076  1
  Zr  Zr3  1  0.649165  0.649275  0.649338  1
  Zr  Zr4  1  0.796488  0.796474  0.203291  1
  Zr  Zr5  1  0.203300  0.203209  0.797224  1
  Zr  Zr6  1  0.796504  0.203304  0.796500  1
  Zr  Zr7  1  0.203363  0.797197  0.203185  1
  Zr  Zr8  1  0.203347  0.796500  0.796508  1
  Zr  Zr9  1  0.797207  0.203299  0.203218  1
  Zr  Zr10  1  0.435101  0.435075  0.065482  1
  Zr  Zr11  1  0.064593  0.064571  0.435639  1
  Zr  Zr12  1  0.435113  0.065477  0.435088  1
  Zr  Zr13  1  0.064599  0.435635  0.064576  1
  Zr  Zr14  1  0.065497  0.435088  0.435091  1
  Zr  Zr15  1  0.435674  0.064565  0.064574  1
  Co  Co16  1  0.419091  0.860151  0.860137  1
  Co  Co17  1  0.860141  0.419095  0.860140  1
  Co  Co18  1  0.860150  0.860161  0.419059  1
  Co  Co19  1  0.860108  0.860127  0.860112  1
  Tc  Tc20  1  0.418325  0.418321  0.418332  1
  Os  Os21  1  0.745429  0.418255  0.418253  1
  Os  Os22  1  0.418240  0.745446  0.418259  1
  Os  Os23  1  0.418242  0.418262  0.745433  1
