# generated using pymatgen
data_NaB2SbO6
_symmetry_space_group_name_H-M   'P 1'
_cell_length_a   6.14876191
_cell_length_b   6.14876232
_cell_length_c   6.14876263
_cell_angle_alpha   46.66054629
_cell_angle_beta   46.66053932
_cell_angle_gamma   46.66054778
_symmetry_Int_Tables_number   1
_chemical_formula_structural   NaB2SbO6
_chemical_formula_sum   'Na1 B2 Sb1 O6'
_cell_volume   112.32246805
_cell_formula_units_Z   1
loop_
 _symmetry_equiv_pos_site_id
 _symmetry_equiv_pos_as_xyz
  1  'x, y, z'
loop_
 _atom_site_type_symbol
 _atom_site_label
 _atom_site_symmetry_multiplicity
 _atom_site_fract_x
 _atom_site_fract_y
 _atom_site_fract_z
 _atom_site_occupancy
  Na  Na0  1  0.000000  0.000000  0.000000  1
  B  B1  1  0.234968  0.234968  0.234968  1
  B  B2  1  0.765032  0.765032  0.765032  1
  Sb  Sb3  1  0.500000  0.500000  0.500000  1
  O  O4  1  0.499207  0.723085  0.063963  1
  O  O5  1  0.936037  0.500793  0.276915  1
  O  O6  1  0.723085  0.063963  0.499207  1
  O  O7  1  0.276915  0.936037  0.500793  1
  O  O8  1  0.063963  0.499207  0.723085  1
  O  O9  1  0.500793  0.276915  0.936037  1
