# generated using pymatgen
data_AlV12Ga6CoN4
_symmetry_space_group_name_H-M   'P 1'
_cell_length_a   6.58143753
_cell_length_b   6.58143718
_cell_length_c   6.58143786
_cell_angle_alpha   89.89509241
_cell_angle_beta   90.10491077
_cell_angle_gamma   90.10491355
_symmetry_Int_Tables_number   1
_chemical_formula_structural   AlV12Ga6CoN4
_chemical_formula_sum   'Al1 V12 Ga6 Co1 N4'
_cell_volume   285.07563961
_cell_formula_units_Z   1
loop_
 _symmetry_equiv_pos_site_id
 _symmetry_equiv_pos_as_xyz
  1  'x, y, z'
loop_
 _atom_site_type_symbol
 _atom_site_label
 _atom_site_symmetry_multiplicity
 _atom_site_fract_x
 _atom_site_fract_y
 _atom_site_fract_z
 _atom_site_occupancy
  Al  Al0  1  0.569793  0.430207  0.930207  1
  V  V1  1  0.793352  0.957943  0.373889  1
  V  V2  1  0.709453  0.041860  0.876066  1
  V  V3  1  0.208915  0.461899  0.125053  1
  V  V4  1  0.291436  0.543156  0.626981  1
  V  V5  1  0.958140  0.376066  0.790547  1
  V  V6  1  0.042057  0.873889  0.706648  1
  V  V7  1  0.456844  0.126981  0.208564  1
  V  V8  1  0.538101  0.625053  0.291085  1
  V  V9  1  0.374947  0.791085  0.961899  1
  V  V10  1  0.873019  0.708564  0.043156  1
  V  V11  1  0.126111  0.206648  0.457943  1
  V  V12  1  0.623934  0.290547  0.541860  1
  Ga  Ga13  1  0.319529  0.177413  0.819720  1
  Ga  Ga14  1  0.822587  0.319720  0.180471  1
  Ga  Ga15  1  0.680280  0.680471  0.677413  1
  Ga  Ga16  1  0.420156  0.926392  0.557571  1
  Ga  Ga17  1  0.942429  0.579844  0.426392  1
  Ga  Ga18  1  0.073608  0.057571  0.079844  1
  Co  Co19  1  0.181072  0.818928  0.318928  1
  N  N20  1  0.875836  0.124164  0.624164  1
  N  N21  1  0.623172  0.876923  0.127849  1
  N  N22  1  0.123077  0.627849  0.876828  1
  N  N23  1  0.372151  0.376828  0.376923  1
