# generated using pymatgen
data_Dy3Ho17(IrRh3)3
_symmetry_space_group_name_H-M   'P 1'
_cell_length_a   10.84928407
_cell_length_b   10.84905023
_cell_length_c   6.34272301
_cell_angle_alpha   89.99515685
_cell_angle_beta   90.00299484
_cell_angle_gamma   89.93238525
_symmetry_Int_Tables_number   1
_chemical_formula_structural   Dy3Ho17(IrRh3)3
_chemical_formula_sum   'Dy3 Ho17 Ir3 Rh9'
_cell_volume   746.56605953
_cell_formula_units_Z   1
loop_
 _symmetry_equiv_pos_site_id
 _symmetry_equiv_pos_as_xyz
  1  'x, y, z'
loop_
 _atom_site_type_symbol
 _atom_site_label
 _atom_site_symmetry_multiplicity
 _atom_site_fract_x
 _atom_site_fract_y
 _atom_site_fract_z
 _atom_site_occupancy
  Dy  Dy0  1  0.291003  0.089799  0.378417  1
  Dy  Dy1  1  0.291144  0.909899  0.878220  1
  Dy  Dy2  1  0.709070  0.088315  0.878171  1
  Ho  Ho3  1  0.708612  0.910025  0.378238  1
  Ho  Ho4  1  0.587593  0.789649  0.879464  1
  Ho  Ho5  1  0.587198  0.209467  0.378098  1
  Ho  Ho6  1  0.412533  0.789939  0.378873  1
  Ho  Ho7  1  0.410763  0.209554  0.879506  1
  Ho  Ho8  1  0.210217  0.412522  0.620565  1
  Ho  Ho9  1  0.209912  0.587519  0.121139  1
  Ho  Ho10  1  0.790627  0.412898  0.121881  1
  Ho  Ho11  1  0.790621  0.589201  0.620458  1
  Ho  Ho12  1  0.910283  0.708867  0.121441  1
  Ho  Ho13  1  0.911828  0.291106  0.621618  1
  Ho  Ho14  1  0.089910  0.708665  0.621572  1
  Ho  Ho15  1  0.089793  0.291437  0.121644  1
  Ho  Ho16  1  0.999695  0.999873  0.499905  1
  Ho  Ho17  1  0.000070  0.000192  0.000230  1
  Ho  Ho18  1  0.499746  0.499909  0.999918  1
  Ho  Ho19  1  0.500113  0.500267  0.500174  1
  Ir  Ir20  1  0.654625  0.653961  0.250010  1
  Ir  Ir21  1  0.346081  0.345587  0.249878  1
  Ir  Ir22  1  0.345374  0.654474  0.749893  1
  Rh  Rh23  1  0.846075  0.154080  0.250263  1
  Rh  Rh24  1  0.846496  0.846854  0.750198  1
  Rh  Rh25  1  0.152884  0.153745  0.749956  1
  Rh  Rh26  1  0.153165  0.846514  0.250203  1
  Rh  Rh27  1  0.654940  0.345180  0.749924  1
  Rh  Rh28  1  0.500375  0.000419  0.122810  1
  Rh  Rh29  1  0.500493  0.000688  0.623177  1
  Rh  Rh30  1  0.999256  0.499645  0.876746  1
  Rh  Rh31  1  0.999510  0.499750  0.377410  1
