# generated using pymatgen
data_Yb6HoPt7
_symmetry_space_group_name_H-M   'P 1'
_cell_length_a   5.96194231
_cell_length_b   7.69178524
_cell_length_c   7.69178420
_cell_angle_alpha   113.56997251
_cell_angle_beta   104.97325986
_cell_angle_gamma   104.97325972
_symmetry_Int_Tables_number   1
_chemical_formula_structural   Yb6HoPt7
_chemical_formula_sum   'Yb6 Ho1 Pt7'
_cell_volume   285.08130493
_cell_formula_units_Z   1
loop_
 _symmetry_equiv_pos_site_id
 _symmetry_equiv_pos_as_xyz
  1  'x, y, z'
loop_
 _atom_site_type_symbol
 _atom_site_label
 _atom_site_symmetry_multiplicity
 _atom_site_fract_x
 _atom_site_fract_y
 _atom_site_fract_z
 _atom_site_occupancy
  Yb  Yb0  1  0.356537  0.432332  0.143637  1
  Yb  Yb1  1  0.212900  0.856363  0.288696  1
  Yb  Yb2  1  0.075795  0.288695  0.432332  1
  Yb  Yb3  1  0.924205  0.711305  0.567668  1
  Yb  Yb4  1  0.787100  0.143637  0.711305  1
  Yb  Yb5  1  0.643463  0.567668  0.856363  1
  Ho  Ho6  1  0.500000  0.000000  0.000000  1
  Pt  Pt7  1  0.000000  0.000000  0.000000  1
  Pt  Pt8  1  0.853594  0.421324  0.140200  1
  Pt  Pt9  1  0.713394  0.859800  0.281123  1
  Pt  Pt10  1  0.567730  0.281123  0.421324  1
  Pt  Pt11  1  0.432272  0.718877  0.578677  1
  Pt  Pt12  1  0.286606  0.140200  0.718878  1
  Pt  Pt13  1  0.146406  0.578676  0.859800  1
