# generated using pymatgen
data_Th6Al24Ru7Rh
_symmetry_space_group_name_H-M   'P 1'
_cell_length_a   8.97612800
_cell_length_b   8.97480203
_cell_length_c   9.60450719
_cell_angle_alpha   90.10166556
_cell_angle_beta   90.00000000
_cell_angle_gamma   120.00488006
_symmetry_Int_Tables_number   1
_chemical_formula_structural   Th6Al24Ru7Rh
_chemical_formula_sum   'Th6 Al24 Ru7 Rh1'
_cell_volume   670.03480405
_cell_formula_units_Z   1
loop_
 _symmetry_equiv_pos_site_id
 _symmetry_equiv_pos_as_xyz
  1  'x, y, z'
loop_
 _atom_site_type_symbol
 _atom_site_label
 _atom_site_symmetry_multiplicity
 _atom_site_fract_x
 _atom_site_fract_y
 _atom_site_fract_z
 _atom_site_occupancy
  Th  Th0  1  0.194651  0.389301  0.250371  1
  Th  Th1  1  0.805349  0.610699  0.749629  1
  Th  Th2  1  0.611550  0.803745  0.250978  1
  Th  Th3  1  0.388450  0.196255  0.749022  1
  Th  Th4  1  0.192196  0.803745  0.250978  1
  Th  Th5  1  0.807804  0.196255  0.749022  1
  Al  Al6  1  0.332820  0.665643  0.013079  1
  Al  Al7  1  0.667180  0.334357  0.986921  1
  Al  Al8  1  0.666515  0.333029  0.512040  1
  Al  Al9  1  0.333485  0.666971  0.487960  1
  Al  Al10  1  0.162947  0.325895  0.577011  1
  Al  Al11  1  0.837053  0.674105  0.422989  1
  Al  Al12  1  0.674265  0.837066  0.577690  1
  Al  Al13  1  0.837070  0.674139  0.077285  1
  Al  Al14  1  0.325735  0.162934  0.422310  1
  Al  Al15  1  0.162930  0.325861  0.922715  1
  Al  Al16  1  0.162804  0.837066  0.577690  1
  Al  Al17  1  0.325200  0.164137  0.077841  1
  Al  Al18  1  0.837196  0.162934  0.422310  1
  Al  Al19  1  0.674800  0.835863  0.922159  1
  Al  Al20  1  0.838936  0.164137  0.077841  1
  Al  Al21  1  0.161064  0.835863  0.922159  1
  Al  Al22  1  0.563008  0.126016  0.250629  1
  Al  Al23  1  0.436992  0.873984  0.749371  1
  Al  Al24  1  0.873161  0.436065  0.249668  1
  Al  Al25  1  0.126839  0.563935  0.750332  1
  Al  Al26  1  0.562904  0.436065  0.249668  1
  Al  Al27  1  0.437096  0.563935  0.750332  1
  Al  Al28  1  0.999815  0.999632  0.250084  1
  Al  Al29  1  0.000185  0.000368  0.749916  1
  Ru  Ru30  1  0.000000  0.500000  0.000000  1
  Ru  Ru31  1  0.500000  0.000000  0.500000  1
  Ru  Ru32  1  0.500000  0.500000  0.000000  1
  Ru  Ru33  1  0.000000  0.500000  0.500000  1
  Ru  Ru34  1  0.500000  0.500000  0.500000  1
  Ru  Ru35  1  0.000000  0.000000  0.000000  1
  Ru  Ru36  1  0.000000  0.000000  0.500000  1
  Rh  Rh37  1  0.500000  0.000000  0.000000  1
