# generated using pymatgen
data_Dy5HoAl24Os7Au
_symmetry_space_group_name_H-M   'P 1'
_cell_length_a   8.85787974
_cell_length_b   8.85787942
_cell_length_c   9.54666810
_cell_angle_alpha   89.81273460
_cell_angle_beta   90.18726809
_cell_angle_gamma   119.97570813
_symmetry_Int_Tables_number   1
_chemical_formula_structural   Dy5HoAl24Os7Au
_chemical_formula_sum   'Dy5 Ho1 Al24 Os7 Au1'
_cell_volume   648.85127258
_cell_formula_units_Z   1
loop_
 _symmetry_equiv_pos_site_id
 _symmetry_equiv_pos_as_xyz
  1  'x, y, z'
loop_
 _atom_site_type_symbol
 _atom_site_label
 _atom_site_symmetry_multiplicity
 _atom_site_fract_x
 _atom_site_fract_y
 _atom_site_fract_z
 _atom_site_occupancy
  Dy  Dy0  1  0.190236  0.386211  0.251202  1
  Dy  Dy1  1  0.809736  0.613677  0.748797  1
  Dy  Dy2  1  0.613789  0.809764  0.251202  1
  Dy  Dy3  1  0.386323  0.190264  0.748797  1
  Dy  Dy4  1  0.194393  0.805607  0.253421  1
  Ho  Ho5  1  0.805331  0.194669  0.746471  1
  Al  Al6  1  0.328777  0.671223  0.021491  1
  Al  Al7  1  0.671322  0.328678  0.978357  1
  Al  Al8  1  0.666419  0.333581  0.517992  1
  Al  Al9  1  0.333654  0.666346  0.482158  1
  Al  Al10  1  0.162579  0.325547  0.575703  1
  Al  Al11  1  0.837306  0.674384  0.424378  1
  Al  Al12  1  0.674453  0.837421  0.575703  1
  Al  Al13  1  0.848362  0.677659  0.079425  1
  Al  Al14  1  0.325616  0.162694  0.424378  1
  Al  Al15  1  0.151456  0.322250  0.920492  1
  Al  Al16  1  0.163115  0.836885  0.575329  1
  Al  Al17  1  0.322341  0.151638  0.079425  1
  Al  Al18  1  0.836888  0.163112  0.424853  1
  Al  Al19  1  0.677750  0.848544  0.920492  1
  Al  Al20  1  0.836841  0.163159  0.075742  1
  Al  Al21  1  0.163157  0.836843  0.924084  1
  Al  Al22  1  0.560836  0.121429  0.249128  1
  Al  Al23  1  0.439419  0.878769  0.750867  1
  Al  Al24  1  0.878571  0.439164  0.249128  1
  Al  Al25  1  0.121231  0.560581  0.750867  1
  Al  Al26  1  0.563589  0.436411  0.255599  1
  Al  Al27  1  0.436396  0.563604  0.744413  1
  Al  Al28  1  0.999423  0.000577  0.250374  1
  Al  Al29  1  0.000429  0.999571  0.749632  1
  Os  Os30  1  0.500130  0.000053  0.999886  1
  Os  Os31  1  0.999947  0.499870  0.999886  1
  Os  Os32  1  0.500181  0.000091  0.500136  1
  Os  Os33  1  0.999909  0.499819  0.500136  1
  Os  Os34  1  0.500044  0.499956  0.500030  1
  Os  Os35  1  0.000016  0.999984  0.999952  1
  Os  Os36  1  0.000010  0.999990  0.500067  1
  Au  Au37  1  0.500026  0.499974  0.000005  1
