# generated using pymatgen
data_Hf3ZrCu4Si3Ge
_symmetry_space_group_name_H-M   'P 1'
_cell_length_a   3.92634100
_cell_length_b   6.49187955
_cell_length_c   7.33643503
_cell_angle_alpha   90.04571795
_cell_angle_beta   90.00000000
_cell_angle_gamma   90.00000000
_symmetry_Int_Tables_number   1
_chemical_formula_structural   Hf3ZrCu4Si3Ge
_chemical_formula_sum   'Hf3 Zr1 Cu4 Si3 Ge1'
_cell_volume   187.00077489
_cell_formula_units_Z   1
loop_
 _symmetry_equiv_pos_site_id
 _symmetry_equiv_pos_as_xyz
  1  'x, y, z'
loop_
 _atom_site_type_symbol
 _atom_site_label
 _atom_site_symmetry_multiplicity
 _atom_site_fract_x
 _atom_site_fract_y
 _atom_site_fract_z
 _atom_site_occupancy
  Hf  Hf0  1  0.250000  0.511786  0.690022  1
  Hf  Hf1  1  0.750000  0.490999  0.310433  1
  Hf  Hf2  1  0.250000  0.007923  0.805842  1
  Zr  Zr3  1  0.750000  0.985914  0.193412  1
  Cu  Cu4  1  0.750000  0.831192  0.577445  1
  Cu  Cu5  1  0.250000  0.165183  0.430517  1
  Cu  Cu6  1  0.750000  0.334176  0.915364  1
  Cu  Cu7  1  0.250000  0.673723  0.076410  1
  Si  Si8  1  0.750000  0.720172  0.897255  1
  Si  Si9  1  0.250000  0.777571  0.399812  1
  Si  Si10  1  0.750000  0.221548  0.601038  1
  Ge  Ge11  1  0.250000  0.279812  0.102452  1
