# generated using pymatgen
data_Lu5Sb2Ir
_symmetry_space_group_name_H-M   'P 1'
_cell_length_a   7.69892400
_cell_length_b   8.81835300
_cell_length_c   12.04133200
_cell_angle_alpha   90.00000000
_cell_angle_beta   90.00000000
_cell_angle_gamma   90.00000000
_symmetry_Int_Tables_number   1
_chemical_formula_structural   Lu5Sb2Ir
_chemical_formula_sum   'Lu20 Sb8 Ir4'
_cell_volume   817.50805973
_cell_formula_units_Z   4
loop_
 _symmetry_equiv_pos_site_id
 _symmetry_equiv_pos_as_xyz
  1  'x, y, z'
loop_
 _atom_site_type_symbol
 _atom_site_label
 _atom_site_symmetry_multiplicity
 _atom_site_fract_x
 _atom_site_fract_y
 _atom_site_fract_z
 _atom_site_occupancy
  Lu  Lu0  1  0.162108  0.750000  0.211011  1
  Lu  Lu1  1  0.337892  0.750000  0.711011  1
  Lu  Lu2  1  0.837892  0.250000  0.788989  1
  Lu  Lu3  1  0.662108  0.250000  0.288989  1
  Lu  Lu4  1  0.448500  0.750000  0.999143  1
  Lu  Lu5  1  0.051500  0.750000  0.499143  1
  Lu  Lu6  1  0.551500  0.250000  0.000857  1
  Lu  Lu7  1  0.948500  0.250000  0.500857  1
  Lu  Lu8  1  0.626638  0.750000  0.304712  1
  Lu  Lu9  1  0.873362  0.750000  0.804712  1
  Lu  Lu10  1  0.373362  0.250000  0.695288  1
  Lu  Lu11  1  0.126638  0.250000  0.195288  1
  Lu  Lu12  1  0.822418  0.542246  0.067655  1
  Lu  Lu13  1  0.677582  0.957754  0.567655  1
  Lu  Lu14  1  0.177582  0.042246  0.932345  1
  Lu  Lu15  1  0.322418  0.457754  0.432345  1
  Lu  Lu16  1  0.177582  0.457754  0.932345  1
  Lu  Lu17  1  0.322418  0.042246  0.432345  1
  Lu  Lu18  1  0.822418  0.957754  0.067655  1
  Lu  Lu19  1  0.677582  0.542246  0.567655  1
  Sb  Sb20  1  0.933305  0.509244  0.328290  1
  Sb  Sb21  1  0.566695  0.990756  0.828290  1
  Sb  Sb22  1  0.066695  0.009244  0.671710  1
  Sb  Sb23  1  0.433305  0.490756  0.171710  1
  Sb  Sb24  1  0.066695  0.490756  0.671710  1
  Sb  Sb25  1  0.433305  0.009244  0.171710  1
  Sb  Sb26  1  0.933305  0.990756  0.328290  1
  Sb  Sb27  1  0.566695  0.509244  0.828290  1
  Ir  Ir28  1  0.427049  0.750000  0.490810  1
  Ir  Ir29  1  0.072951  0.750000  0.990810  1
  Ir  Ir30  1  0.572951  0.250000  0.509190  1
  Ir  Ir31  1  0.927049  0.250000  0.009190  1
