# generated using pymatgen
data_SmDy3Tc3Os5
_symmetry_space_group_name_H-M   'P 1'
_cell_length_a   5.33218096
_cell_length_b   5.31700593
_cell_length_c   9.03295115
_cell_angle_alpha   90.00000240
_cell_angle_beta   90.01736051
_cell_angle_gamma   119.90591262
_symmetry_Int_Tables_number   1
_chemical_formula_structural   SmDy3Tc3Os5
_chemical_formula_sum   'Sm1 Dy3 Tc3 Os5'
_cell_volume   221.99503440
_cell_formula_units_Z   1
loop_
 _symmetry_equiv_pos_site_id
 _symmetry_equiv_pos_as_xyz
  1  'x, y, z'
loop_
 _atom_site_type_symbol
 _atom_site_label
 _atom_site_symmetry_multiplicity
 _atom_site_fract_x
 _atom_site_fract_y
 _atom_site_fract_z
 _atom_site_occupancy
  Sm  Sm0  1  0.340377  0.670189  0.064260  1
  Dy  Dy1  1  0.340352  0.670177  0.435460  1
  Dy  Dy2  1  0.669386  0.334692  0.563578  1
  Dy  Dy3  1  0.669405  0.334701  0.935928  1
  Tc  Tc4  1  0.163361  0.334697  0.748727  1
  Tc  Tc5  1  0.163361  0.828664  0.748727  1
  Tc  Tc6  1  0.321172  0.160586  0.251487  1
  Os  Os7  1  0.822579  0.649359  0.251785  1
  Os  Os8  1  0.645029  0.822514  0.748407  1
  Os  Os9  1  0.021027  0.010513  0.998827  1
  Os  Os10  1  0.822579  0.173220  0.251785  1
  Os  Os11  1  0.021374  0.010687  0.501030  1
