# generated using pymatgen
data_Dy5Ti3Co14(P6Ru)2
_symmetry_space_group_name_H-M   'P 1'
_cell_length_a   12.22899704
_cell_length_b   12.19695730
_cell_length_c   3.69234100
_cell_angle_alpha   90.00000000
_cell_angle_beta   90.00000000
_cell_angle_gamma   119.99084665
_symmetry_Int_Tables_number   1
_chemical_formula_structural   Dy5Ti3Co14(P6Ru)2
_chemical_formula_sum   'Dy5 Ti3 Co14 P12 Ru2'
_cell_volume   476.99609933
_cell_formula_units_Z   1
loop_
 _symmetry_equiv_pos_site_id
 _symmetry_equiv_pos_as_xyz
  1  'x, y, z'
loop_
 _atom_site_type_symbol
 _atom_site_label
 _atom_site_symmetry_multiplicity
 _atom_site_fract_x
 _atom_site_fract_y
 _atom_site_fract_z
 _atom_site_occupancy
  Dy  Dy0  1  0.663288  0.333317  0.000000  1
  Dy  Dy1  1  0.333716  0.666511  0.000000  1
  Dy  Dy2  1  0.185657  0.184595  0.500000  1
  Dy  Dy3  1  0.816248  0.999366  0.500000  1
  Dy  Dy4  1  0.999214  0.817238  0.500000  1
  Ti  Ti5  1  0.558122  0.560805  0.000000  1
  Ti  Ti6  1  0.437100  0.998950  0.000000  1
  Ti  Ti7  1  0.004619  0.440473  0.000000  1
  Co  Co8  1  0.829010  0.199284  0.000000  1
  Co  Co9  1  0.797660  0.627310  0.000000  1
  Co  Co10  1  0.372958  0.177166  0.000000  1
  Co  Co11  1  0.197417  0.822554  0.000000  1
  Co  Co12  1  0.623318  0.801518  0.000000  1
  Co  Co13  1  0.180156  0.375617  0.000000  1
  Co  Co14  1  0.478460  0.355738  0.500000  1
  Co  Co15  1  0.131331  0.644907  0.500000  1
  Co  Co16  1  0.513732  0.868923  0.500000  1
  Co  Co17  1  0.356442  0.481115  0.500000  1
  Co  Co18  1  0.715960  0.719420  0.500000  1
  Co  Co19  1  0.279625  0.998856  0.500000  1
  Co  Co20  1  0.004679  0.282550  0.500000  1
  Co  Co21  1  0.999175  0.999362  0.000000  1
  P  P22  1  0.358901  0.358988  0.000000  1
  P  P23  1  0.638900  0.994713  0.000000  1
  P  P24  1  0.004969  0.644497  0.000000  1
  P  P25  1  0.838048  0.313693  0.500000  1
  P  P26  1  0.682510  0.520564  0.500000  1
  P  P27  1  0.475494  0.167104  0.500000  1
  P  P28  1  0.311655  0.832163  0.500000  1
  P  P29  1  0.519077  0.686905  0.500000  1
  P  P30  1  0.170187  0.479712  0.500000  1
  P  P31  1  0.818721  0.820692  0.000000  1
  P  P32  1  0.178818  0.999719  0.000000  1
  P  P33  1  0.002602  0.180102  0.000000  1
  Ru  Ru34  1  0.643951  0.121899  0.500000  1
  Ru  Ru35  1  0.878280  0.523673  0.500000  1
