# generated using pymatgen
data_ErSc11Tc4
_symmetry_space_group_name_H-M   'P 1'
_cell_length_a   5.81821356
_cell_length_b   7.11867549
_cell_length_c   8.51530000
_cell_angle_alpha   90.00000000
_cell_angle_beta   90.00000000
_cell_angle_gamma   91.11638177
_symmetry_Int_Tables_number   1
_chemical_formula_structural   ErSc11Tc4
_chemical_formula_sum   'Er1 Sc11 Tc4'
_cell_volume   352.61953010
_cell_formula_units_Z   1
loop_
 _symmetry_equiv_pos_site_id
 _symmetry_equiv_pos_as_xyz
  1  'x, y, z'
loop_
 _atom_site_type_symbol
 _atom_site_label
 _atom_site_symmetry_multiplicity
 _atom_site_fract_x
 _atom_site_fract_y
 _atom_site_fract_z
 _atom_site_occupancy
  Er  Er0  1  0.380135  0.966836  0.750000  1
  Sc  Sc1  1  0.351178  0.669767  0.062594  1
  Sc  Sc2  1  0.140795  0.184839  0.436180  1
  Sc  Sc3  1  0.652908  0.327680  0.559071  1
  Sc  Sc4  1  0.858449  0.816977  0.940308  1
  Sc  Sc5  1  0.652908  0.327680  0.940929  1
  Sc  Sc6  1  0.858449  0.816977  0.559692  1
  Sc  Sc7  1  0.351178  0.669767  0.437406  1
  Sc  Sc8  1  0.140795  0.184839  0.063820  1
  Sc  Sc9  1  0.878907  0.545995  0.250000  1
  Sc  Sc10  1  0.621810  0.038395  0.250000  1
  Sc  Sc11  1  0.120091  0.455755  0.750000  1
  Tc  Tc12  1  0.053105  0.887500  0.250000  1
  Tc  Tc13  1  0.458228  0.380113  0.250000  1
  Tc  Tc14  1  0.932960  0.114965  0.750000  1
  Tc  Tc15  1  0.548105  0.611917  0.750000  1
