# generated using pymatgen
data_Ho4Er7(Lu3Bi4)3
_symmetry_space_group_name_H-M   'P 1'
_cell_length_a   8.16539437
_cell_length_b   9.42080306
_cell_length_c   11.90353246
_cell_angle_alpha   89.99661421
_cell_angle_beta   89.96837307
_cell_angle_gamma   90.01301363
_symmetry_Int_Tables_number   1
_chemical_formula_structural   Ho4Er7(Lu3Bi4)3
_chemical_formula_sum   'Ho4 Er7 Lu9 Bi12'
_cell_volume   915.67397788
_cell_formula_units_Z   1
loop_
 _symmetry_equiv_pos_site_id
 _symmetry_equiv_pos_as_xyz
  1  'x, y, z'
loop_
 _atom_site_type_symbol
 _atom_site_label
 _atom_site_symmetry_multiplicity
 _atom_site_fract_x
 _atom_site_fract_y
 _atom_site_fract_z
 _atom_site_occupancy
  Ho  Ho0  1  0.313870  0.250150  0.217743  1
  Ho  Ho1  1  0.813865  0.250050  0.282481  1
  Ho  Ho2  1  0.686157  0.750149  0.782319  1
  Ho  Ho3  1  0.186243  0.749860  0.717684  1
  Er  Er4  1  0.353404  0.750005  0.217579  1
  Er  Er5  1  0.853448  0.750150  0.282399  1
  Er  Er6  1  0.646915  0.250273  0.782249  1
  Er  Er7  1  0.146371  0.250234  0.717416  1
  Er  Er8  1  0.692156  0.565792  0.059514  1
  Er  Er9  1  0.191997  0.934126  0.440556  1
  Er  Er10  1  0.307912  0.065834  0.940455  1
  Lu  Lu11  1  0.807707  0.433199  0.559547  1
  Lu  Lu12  1  0.307904  0.433369  0.940488  1
  Lu  Lu13  1  0.807849  0.066829  0.559412  1
  Lu  Lu14  1  0.692066  0.933359  0.059500  1
  Lu  Lu15  1  0.192159  0.566596  0.440522  1
  Lu  Lu16  1  0.477707  0.250122  0.489378  1
  Lu  Lu17  1  0.977306  0.250098  0.010666  1
  Lu  Lu18  1  0.522859  0.749883  0.510687  1
  Lu  Lu19  1  0.022705  0.750191  0.989291  1
  Bi  Bi20  1  0.403267  0.749243  0.958141  1
  Bi  Bi21  1  0.902927  0.749645  0.542016  1
  Bi  Bi22  1  0.596745  0.249195  0.041835  1
  Bi  Bi23  1  0.096548  0.251114  0.458255  1
  Bi  Bi24  1  0.566176  0.995797  0.326477  1
  Bi  Bi25  1  0.066032  0.504319  0.173644  1
  Bi  Bi26  1  0.434041  0.495789  0.673496  1
  Bi  Bi27  1  0.933849  0.004345  0.826346  1
  Bi  Bi28  1  0.433996  0.004260  0.673527  1
  Bi  Bi29  1  0.933888  0.495890  0.826269  1
  Bi  Bi30  1  0.565912  0.504237  0.326498  1
  Bi  Bi31  1  0.066020  0.995896  0.173612  1
