# generated using pymatgen
data_Tb5Er11(HgRh)4
_symmetry_space_group_name_H-M   'P 1'
_cell_length_a   9.56224828
_cell_length_b   9.52393981
_cell_length_c   9.56015810
_cell_angle_alpha   59.84111613
_cell_angle_beta   59.90114843
_cell_angle_gamma   59.92318349
_symmetry_Int_Tables_number   1
_chemical_formula_structural   Tb5Er11(HgRh)4
_chemical_formula_sum   'Tb5 Er11 Hg4 Rh4'
_cell_volume   614.08153064
_cell_formula_units_Z   1
loop_
 _symmetry_equiv_pos_site_id
 _symmetry_equiv_pos_as_xyz
  1  'x, y, z'
loop_
 _atom_site_type_symbol
 _atom_site_label
 _atom_site_symmetry_multiplicity
 _atom_site_fract_x
 _atom_site_fract_y
 _atom_site_fract_z
 _atom_site_occupancy
  Tb  Tb0  1  0.188340  0.188664  0.813302  1
  Tb  Tb1  1  0.438825  0.063228  0.063350  1
  Tb  Tb2  1  0.435308  0.064259  0.435373  1
  Tb  Tb3  1  0.062866  0.438715  0.064130  1
  Tb  Tb4  1  0.648517  0.052229  0.647034  1
  Er  Er5  1  0.189642  0.810831  0.810659  1
  Er  Er6  1  0.061949  0.063169  0.439111  1
  Er  Er7  1  0.812553  0.188850  0.189234  1
  Er  Er8  1  0.811807  0.811435  0.189256  1
  Er  Er9  1  0.647937  0.646851  0.055904  1
  Er  Er10  1  0.649052  0.649372  0.647519  1
  Er  Er11  1  0.060254  0.439301  0.437308  1
  Er  Er12  1  0.054529  0.647908  0.647234  1
  Er  Er13  1  0.810596  0.190515  0.810654  1
  Er  Er14  1  0.438684  0.440574  0.059960  1
  Er  Er15  1  0.189873  0.810662  0.190788  1
  Hg  Hg16  1  0.413482  0.755593  0.415692  1
  Hg  Hg17  1  0.415474  0.416700  0.754678  1
  Hg  Hg18  1  0.756704  0.414493  0.415039  1
  Hg  Hg19  1  0.414359  0.417561  0.414217  1
  Rh  Rh20  1  0.853072  0.430595  0.855269  1
  Rh  Rh21  1  0.858727  0.853412  0.427085  1
  Rh  Rh22  1  0.428834  0.850186  0.859245  1
  Rh  Rh23  1  0.858616  0.854899  0.857964  1
