# generated using pymatgen
data_Er5Lu(SnIr)6
_symmetry_space_group_name_H-M   'P 1'
_cell_length_a   7.42563909
_cell_length_b   7.49622477
_cell_length_c   7.86600100
_cell_angle_alpha   90.00000000
_cell_angle_beta   90.00000000
_cell_angle_gamma   120.34360641
_symmetry_Int_Tables_number   1
_chemical_formula_structural   Er5Lu(SnIr)6
_chemical_formula_sum   'Er5 Lu1 Sn6 Ir6'
_cell_volume   377.87392570
_cell_formula_units_Z   1
loop_
 _symmetry_equiv_pos_site_id
 _symmetry_equiv_pos_as_xyz
  1  'x, y, z'
loop_
 _atom_site_type_symbol
 _atom_site_label
 _atom_site_symmetry_multiplicity
 _atom_site_fract_x
 _atom_site_fract_y
 _atom_site_fract_z
 _atom_site_occupancy
  Er  Er0  1  0.405886  0.004386  0.250000  1
  Er  Er1  1  0.596638  0.596079  0.750000  1
  Er  Er2  1  0.594973  0.596923  0.250000  1
  Er  Er3  1  0.001253  0.404621  0.750000  1
  Er  Er4  1  0.403128  0.998471  0.750000  1
  Lu  Lu5  1  0.998677  0.399998  0.250000  1
  Sn  Sn6  1  0.262250  0.261295  0.501082  1
  Sn  Sn7  1  0.262250  0.261295  0.998918  1
  Sn  Sn8  1  0.737447  0.998473  0.999232  1
  Sn  Sn9  1  0.000259  0.741825  0.496133  1
  Sn  Sn10  1  0.737447  0.998473  0.500768  1
  Sn  Sn11  1  0.000259  0.741825  0.003867  1
  Ir  Ir12  1  0.672597  0.334661  0.499040  1
  Ir  Ir13  1  0.672597  0.334661  0.000960  1
  Ir  Ir14  1  0.327296  0.662382  0.004449  1
  Ir  Ir15  1  0.327296  0.662382  0.495551  1
  Ir  Ir16  1  0.999847  0.998740  0.750000  1
  Ir  Ir17  1  0.999901  0.003508  0.250000  1
