# generated using pymatgen
data_Dy2Lu3Ru2
_symmetry_space_group_name_H-M   'P 1'
_cell_length_a   6.24701448
_cell_length_b   7.23440974
_cell_length_c   8.34300330
_cell_angle_alpha   97.07682538
_cell_angle_beta   111.98639600
_cell_angle_gamma   89.99999079
_symmetry_Int_Tables_number   1
_chemical_formula_structural   Dy2Lu3Ru2
_chemical_formula_sum   'Dy4 Lu6 Ru4'
_cell_volume   346.52782045
_cell_formula_units_Z   2
loop_
 _symmetry_equiv_pos_site_id
 _symmetry_equiv_pos_as_xyz
  1  'x, y, z'
loop_
 _atom_site_type_symbol
 _atom_site_label
 _atom_site_symmetry_multiplicity
 _atom_site_fract_x
 _atom_site_fract_y
 _atom_site_fract_z
 _atom_site_occupancy
  Dy  Dy0  1  0.521959  0.083111  0.811152  1
  Dy  Dy1  1  0.478041  0.916889  0.188848  1
  Dy  Dy2  1  0.710808  0.416889  0.188848  1
  Dy  Dy3  1  0.289192  0.583111  0.811152  1
  Lu  Lu4  1  0.299670  0.313900  0.433199  1
  Lu  Lu5  1  0.700330  0.686100  0.566801  1
  Lu  Lu6  1  0.866472  0.186100  0.566801  1
  Lu  Lu7  1  0.133528  0.813900  0.433199  1
  Lu  Lu8  1  0.079727  0.250000  0.000000  1
  Lu  Lu9  1  0.920273  0.750000  0.000000  1
  Ru  Ru10  1  0.319519  0.576463  0.222188  1
  Ru  Ru11  1  0.680481  0.423537  0.777812  1
  Ru  Ru12  1  0.097332  0.923537  0.777812  1
  Ru  Ru13  1  0.902668  0.076463  0.222188  1
