# generated using pymatgen
data_Er2BIr5Rh
_symmetry_space_group_name_H-M   'P 1'
_cell_length_a   5.81720388
_cell_length_b   5.81720420
_cell_length_c   5.80570100
_cell_angle_alpha   60.06538615
_cell_angle_beta   60.06538433
_cell_angle_gamma   59.86920043
_symmetry_Int_Tables_number   1
_chemical_formula_structural   Er2BIr5Rh
_chemical_formula_sum   'Er2 B1 Ir5 Rh1'
_cell_volume   138.92000059
_cell_formula_units_Z   1
loop_
 _symmetry_equiv_pos_site_id
 _symmetry_equiv_pos_as_xyz
  1  'x, y, z'
loop_
 _atom_site_type_symbol
 _atom_site_label
 _atom_site_symmetry_multiplicity
 _atom_site_fract_x
 _atom_site_fract_y
 _atom_site_fract_z
 _atom_site_occupancy
  Er  Er0  1  0.749894  0.749894  0.750106  1
  Er  Er1  1  0.249894  0.249894  0.250106  1
  B  B2  1  0.000410  0.000410  0.999590  1
  Ir  Ir3  1  0.258279  0.741299  0.258701  1
  Ir  Ir4  1  0.741299  0.258279  0.258701  1
  Ir  Ir5  1  0.259162  0.259162  0.740838  1
  Ir  Ir6  1  0.741299  0.258279  0.741721  1
  Ir  Ir7  1  0.258279  0.741299  0.741721  1
  Rh  Rh8  1  0.741485  0.741485  0.258515  1
