# generated using pymatgen
data_Yb4SiGe3
_symmetry_space_group_name_H-M   'P 1'
_cell_length_a   3.99889200
_cell_length_b   4.48453900
_cell_length_c   10.68973900
_cell_angle_alpha   90.00000000
_cell_angle_beta   90.00000000
_cell_angle_gamma   90.00000000
_symmetry_Int_Tables_number   1
_chemical_formula_structural   Yb4SiGe3
_chemical_formula_sum   'Yb4 Si1 Ge3'
_cell_volume   191.70108987
_cell_formula_units_Z   1
loop_
 _symmetry_equiv_pos_site_id
 _symmetry_equiv_pos_as_xyz
  1  'x, y, z'
loop_
 _atom_site_type_symbol
 _atom_site_label
 _atom_site_symmetry_multiplicity
 _atom_site_fract_x
 _atom_site_fract_y
 _atom_site_fract_z
 _atom_site_occupancy
  Yb  Yb0  1  0.000000  0.000000  0.137796  1
  Yb  Yb1  1  0.000000  0.500000  0.635935  1
  Yb  Yb2  1  0.500000  0.500000  0.363142  1
  Yb  Yb3  1  0.500000  0.000000  0.862952  1
  Si  Si4  1  0.000000  0.000000  0.427742  1
  Ge  Ge5  1  0.000000  0.500000  0.922833  1
  Ge  Ge6  1  0.500000  0.500000  0.076700  1
  Ge  Ge7  1  0.500000  0.000000  0.572900  1
