# generated using pymatgen
data_TaSbRh2(SeO3)8
_symmetry_space_group_name_H-M   'P 1'
_cell_length_a   8.22437540
_cell_length_b   8.12909828
_cell_length_c   8.23481717
_cell_angle_alpha   89.01376572
_cell_angle_beta   90.34340172
_cell_angle_gamma   90.27850696
_symmetry_Int_Tables_number   1
_chemical_formula_structural   TaSbRh2(SeO3)8
_chemical_formula_sum   'Ta1 Sb1 Rh2 Se8 O24'
_cell_volume   550.45548290
_cell_formula_units_Z   1
loop_
 _symmetry_equiv_pos_site_id
 _symmetry_equiv_pos_as_xyz
  1  'x, y, z'
loop_
 _atom_site_type_symbol
 _atom_site_label
 _atom_site_symmetry_multiplicity
 _atom_site_fract_x
 _atom_site_fract_y
 _atom_site_fract_z
 _atom_site_occupancy
  Ta  Ta0  1  0.000000  0.000000  0.500000  1
  Sb  Sb1  1  0.500000  0.000000  0.000000  1
  Rh  Rh2  1  0.000000  0.500000  0.000000  1
  Rh  Rh3  1  0.500000  0.500000  0.500000  1
  Se  Se4  1  0.327724  0.652198  0.171306  1
  Se  Se5  1  0.819576  0.359226  0.323362  1
  Se  Se6  1  0.655263  0.813655  0.671373  1
  Se  Se7  1  0.169835  0.189714  0.846300  1
  Se  Se8  1  0.672276  0.347802  0.828694  1
  Se  Se9  1  0.180424  0.640774  0.676638  1
  Se  Se10  1  0.344737  0.186345  0.328627  1
  Se  Se11  1  0.830165  0.810286  0.153700  1
  O  O12  1  0.246891  0.524898  0.026154  1
  O  O13  1  0.747235  0.482289  0.475191  1
  O  O14  1  0.767949  0.957702  0.558440  1
  O  O15  1  0.257943  0.029757  0.969278  1
  O  O16  1  0.524521  0.960825  0.759248  1
  O  O17  1  0.468606  0.516832  0.253477  1
  O  O18  1  0.967983  0.490888  0.247084  1
  O  O19  1  0.048809  0.059945  0.729769  1
  O  O20  1  0.946884  0.230252  0.445522  1
  O  O21  1  0.524517  0.749956  0.522307  1
  O  O22  1  0.470448  0.758060  0.039320  1
  O  O23  1  0.028202  0.250153  0.984284  1
  O  O24  1  0.753109  0.475102  0.973846  1
  O  O25  1  0.252765  0.517711  0.524809  1
  O  O26  1  0.232051  0.042298  0.441560  1
  O  O27  1  0.742057  0.970243  0.030722  1
  O  O28  1  0.475479  0.039175  0.240752  1
  O  O29  1  0.531394  0.483168  0.746523  1
  O  O30  1  0.032017  0.509112  0.752916  1
  O  O31  1  0.951191  0.940055  0.270231  1
  O  O32  1  0.053116  0.769748  0.554478  1
  O  O33  1  0.475483  0.250044  0.477693  1
  O  O34  1  0.529552  0.241940  0.960680  1
  O  O35  1  0.971798  0.749847  0.015716  1
