# generated using pymatgen
data_Zr4IrPdRh2
_symmetry_space_group_name_H-M   'P 1'
_cell_length_a   4.44700200
_cell_length_b   5.39540642
_cell_length_c   6.28381630
_cell_angle_alpha   90.11291349
_cell_angle_beta   90.00000000
_cell_angle_gamma   90.00000000
_symmetry_Int_Tables_number   1
_chemical_formula_structural   Zr4IrPdRh2
_chemical_formula_sum   'Zr4 Ir1 Pd1 Rh2'
_cell_volume   150.76971911
_cell_formula_units_Z   1
loop_
 _symmetry_equiv_pos_site_id
 _symmetry_equiv_pos_as_xyz
  1  'x, y, z'
loop_
 _atom_site_type_symbol
 _atom_site_label
 _atom_site_symmetry_multiplicity
 _atom_site_fract_x
 _atom_site_fract_y
 _atom_site_fract_z
 _atom_site_occupancy
  Zr  Zr0  1  0.750000  0.859430  0.825530  1
  Zr  Zr1  1  0.250000  0.363811  0.683727  1
  Zr  Zr2  1  0.750000  0.639904  0.321546  1
  Zr  Zr3  1  0.250000  0.136176  0.166206  1
  Ir  Ir4  1  0.750000  0.336656  0.956427  1
  Pd  Pd5  1  0.750000  0.157739  0.454936  1
  Rh  Rh6  1  0.250000  0.838571  0.541598  1
  Rh  Rh7  1  0.250000  0.667714  0.050030  1
