# generated using pymatgen
data_Al3In(SnI8)2
_symmetry_space_group_name_H-M   'P 1'
_cell_length_a   8.36673860
_cell_length_b   8.53672800
_cell_length_c   15.77297512
_cell_angle_alpha   87.55902114
_cell_angle_beta   90.66599918
_cell_angle_gamma   90.08656804
_symmetry_Int_Tables_number   1
_chemical_formula_structural   Al3In(SnI8)2
_chemical_formula_sum   'Al3 In1 Sn2 I16'
_cell_volume   1125.47914242
_cell_formula_units_Z   1
loop_
 _symmetry_equiv_pos_site_id
 _symmetry_equiv_pos_as_xyz
  1  'x, y, z'
loop_
 _atom_site_type_symbol
 _atom_site_label
 _atom_site_symmetry_multiplicity
 _atom_site_fract_x
 _atom_site_fract_y
 _atom_site_fract_z
 _atom_site_occupancy
  Al  Al0  1  0.065579  0.219668  0.079889  1
  Al  Al1  1  0.570628  0.641970  0.778215  1
  Al  Al2  1  0.429804  0.641621  0.277602  1
  In  In3  1  0.934261  0.222647  0.578137  1
  Sn  Sn4  1  0.754300  0.072642  0.810126  1
  Sn  Sn5  1  0.245967  0.072197  0.308633  1
  I  I6  1  0.424483  0.615616  0.640185  1
  I  I7  1  0.574528  0.616048  0.140955  1
  I  I8  1  0.867444  0.733574  0.760669  1
  I  I9  1  0.132516  0.732903  0.259682  1
  I  I10  1  0.937852  0.498636  0.489687  1
  I  I11  1  0.062050  0.476674  0.997552  1
  I  I12  1  0.921926  0.998842  0.001342  1
  I  I13  1  0.088035  0.983674  0.496368  1
  I  I14  1  0.624959  0.120253  0.621602  1
  I  I15  1  0.356641  0.127419  0.117008  1
  I  I16  1  0.563769  0.387119  0.873291  1
  I  I17  1  0.436931  0.387331  0.373337  1
  I  I18  1  0.445802  0.861620  0.865840  1
  I  I19  1  0.555597  0.862308  0.365962  1
  I  I20  1  0.931932  0.231583  0.228367  1
  I  I21  1  0.074994  0.230453  0.739953  1
