# generated using pymatgen
data_Y4ErAsPb3
_symmetry_space_group_name_H-M   'P 1'
_cell_length_a   9.18727200
_cell_length_b   9.18727068
_cell_length_c   6.82881500
_cell_angle_alpha   90.00000000
_cell_angle_beta   90.00000000
_cell_angle_gamma   119.99999754
_symmetry_Int_Tables_number   1
_chemical_formula_structural   Y4ErAsPb3
_chemical_formula_sum   'Y8 Er2 As2 Pb6'
_cell_volume   499.17068944
_cell_formula_units_Z   2
loop_
 _symmetry_equiv_pos_site_id
 _symmetry_equiv_pos_as_xyz
  1  'x, y, z'
loop_
 _atom_site_type_symbol
 _atom_site_label
 _atom_site_symmetry_multiplicity
 _atom_site_fract_x
 _atom_site_fract_y
 _atom_site_fract_z
 _atom_site_occupancy
  Y  Y0  1  0.753995  0.753995  0.249477  1
  Y  Y1  1  0.246005  0.000000  0.249477  1
  Y  Y2  1  0.000000  0.246005  0.249477  1
  Y  Y3  1  0.246005  0.246005  0.750523  1
  Y  Y4  1  0.753995  0.000000  0.750523  1
  Y  Y5  1  0.000000  0.753995  0.750523  1
  Y  Y6  1  0.666667  0.333333  0.500000  1
  Y  Y7  1  0.333333  0.666667  0.500000  1
  Er  Er8  1  0.333333  0.666667  0.000000  1
  Er  Er9  1  0.666667  0.333333  0.000000  1
  As  As10  1  0.000000  0.000000  0.500000  1
  As  As11  1  0.000000  0.000000  0.000000  1
  Pb  Pb12  1  0.398922  0.398922  0.248547  1
  Pb  Pb13  1  0.601078  0.000000  0.248547  1
  Pb  Pb14  1  0.000000  0.601078  0.248547  1
  Pb  Pb15  1  0.601078  0.601078  0.751453  1
  Pb  Pb16  1  0.398922  0.000000  0.751453  1
  Pb  Pb17  1  0.000000  0.398922  0.751453  1
