# generated using pymatgen
data_La2Al20Os3Rh
_symmetry_space_group_name_H-M   'P 1'
_cell_length_a   6.91373782
_cell_length_b   6.92592942
_cell_length_c   9.23111775
_cell_angle_alpha   90.25076023
_cell_angle_beta   90.08231973
_cell_angle_gamma   96.84448159
_symmetry_Int_Tables_number   1
_chemical_formula_structural   La2Al20Os3Rh
_chemical_formula_sum   'La2 Al20 Os3 Rh1'
_cell_volume   438.86816685
_cell_formula_units_Z   1
loop_
 _symmetry_equiv_pos_site_id
 _symmetry_equiv_pos_as_xyz
  1  'x, y, z'
loop_
 _atom_site_type_symbol
 _atom_site_label
 _atom_site_symmetry_multiplicity
 _atom_site_fract_x
 _atom_site_fract_y
 _atom_site_fract_z
 _atom_site_occupancy
  La  La0  1  0.873825  0.123840  0.749926  1
  La  La1  1  0.126175  0.876160  0.250074  1
  Al  Al2  1  0.619778  0.376905  0.551350  1
  Al  Al3  1  0.380222  0.623095  0.448650  1
  Al  Al4  1  0.377983  0.622750  0.049151  1
  Al  Al5  1  0.622017  0.377250  0.950849  1
  Al  Al6  1  0.227949  0.226992  0.499376  1
  Al  Al7  1  0.772051  0.773008  0.500624  1
  Al  Al8  1  0.774089  0.774546  0.999193  1
  Al  Al9  1  0.225911  0.225454  0.000807  1
  Al  Al10  1  0.839687  0.160771  0.102107  1
  Al  Al11  1  0.160313  0.839229  0.897893  1
  Al  Al12  1  0.161695  0.839317  0.604030  1
  Al  Al13  1  0.838305  0.160683  0.395970  1
  Al  Al14  1  0.856382  0.587951  0.750269  1
  Al  Al15  1  0.143618  0.412049  0.249731  1
  Al  Al16  1  0.411002  0.142675  0.750371  1
  Al  Al17  1  0.588998  0.857325  0.249629  1
  Al  Al18  1  0.221824  0.483616  0.752268  1
  Al  Al19  1  0.778176  0.516384  0.247732  1
  Al  Al20  1  0.516016  0.780759  0.749519  1
  Al  Al21  1  0.483984  0.219241  0.250481  1
  Os  Os22  1  0.000000  0.500000  0.000000  1
  Os  Os23  1  0.500000  0.000000  0.000000  1
  Os  Os24  1  0.500000  0.000000  0.500000  1
  Rh  Rh25  1  0.000000  0.500000  0.500000  1
