# generated using pymatgen
data_Ta8Co3IrN2
_symmetry_space_group_name_H-M   'P 1'
_cell_length_a   8.26562895
_cell_length_b   8.26563007
_cell_length_c   8.25809600
_cell_angle_alpha   60.03014740
_cell_angle_beta   60.03014293
_cell_angle_gamma   59.93571476
_symmetry_Int_Tables_number   1
_chemical_formula_structural   Ta8Co3IrN2
_chemical_formula_sum   'Ta16 Co6 Ir2 N4'
_cell_volume   398.93569930
_cell_formula_units_Z   2
loop_
 _symmetry_equiv_pos_site_id
 _symmetry_equiv_pos_as_xyz
  1  'x, y, z'
loop_
 _atom_site_type_symbol
 _atom_site_label
 _atom_site_symmetry_multiplicity
 _atom_site_fract_x
 _atom_site_fract_y
 _atom_site_fract_z
 _atom_site_occupancy
  Ta  Ta0  1  0.110027  0.620407  0.634783  1
  Ta  Ta1  1  0.620407  0.110027  0.634783  1
  Ta  Ta2  1  0.630760  0.630760  0.100082  1
  Ta  Ta3  1  0.630760  0.630760  0.638397  1
  Ta  Ta4  1  0.811262  0.811262  0.188738  1
  Ta  Ta5  1  0.186369  0.186369  0.813631  1
  Ta  Ta6  1  0.811397  0.186922  0.812421  1
  Ta  Ta7  1  0.186922  0.811397  0.189260  1
  Ta  Ta8  1  0.186922  0.811397  0.812421  1
  Ta  Ta9  1  0.811397  0.186922  0.189260  1
  Ta  Ta10  1  0.433423  0.433423  0.066577  1
  Ta  Ta11  1  0.061080  0.061080  0.438920  1
  Ta  Ta12  1  0.433467  0.072949  0.434153  1
  Ta  Ta13  1  0.072949  0.433467  0.059430  1
  Ta  Ta14  1  0.072949  0.433467  0.434153  1
  Ta  Ta15  1  0.433467  0.072949  0.059430  1
  Co  Co16  1  0.423562  0.423562  0.733675  1
  Co  Co17  1  0.423562  0.423562  0.419203  1
  Co  Co18  1  0.464471  0.845321  0.845103  1
  Co  Co19  1  0.845321  0.464471  0.845103  1
  Co  Co20  1  0.843242  0.843242  0.475210  1
  Co  Co21  1  0.843242  0.843242  0.838305  1
  Ir  Ir22  1  0.751190  0.414243  0.417284  1
  Ir  Ir23  1  0.414243  0.751190  0.417284  1
  N  N24  1  0.626535  0.123844  0.124810  1
  N  N25  1  0.123844  0.626535  0.124810  1
  N  N26  1  0.123615  0.123615  0.627548  1
  N  N27  1  0.123615  0.123615  0.125223  1
