# generated using pymatgen
data_ThF12
_symmetry_space_group_name_H-M   'P 1'
_cell_length_a   7.78875631
_cell_length_b   7.71002666
_cell_length_c   8.85715883
_cell_angle_alpha   99.19855064
_cell_angle_beta   87.67865463
_cell_angle_gamma   107.29381847
_symmetry_Int_Tables_number   1
_chemical_formula_structural   ThF12
_chemical_formula_sum   'Th2 F24'
_cell_volume   501.29624345
_cell_formula_units_Z   2
loop_
 _symmetry_equiv_pos_site_id
 _symmetry_equiv_pos_as_xyz
  1  'x, y, z'
loop_
 _atom_site_type_symbol
 _atom_site_label
 _atom_site_symmetry_multiplicity
 _atom_site_fract_x
 _atom_site_fract_y
 _atom_site_fract_z
 _atom_site_occupancy
  Th  Th0  1  0.242426  0.975341  0.017510  1
  Th  Th1  1  0.757574  0.024659  0.982490  1
  F  F2  1  0.520377  0.459277  0.177061  1
  F  F3  1  0.479623  0.540723  0.822939  1
  F  F4  1  0.216028  0.576103  0.201373  1
  F  F5  1  0.783972  0.423897  0.798627  1
  F  F6  1  0.356872  0.760784  0.513657  1
  F  F7  1  0.643128  0.239216  0.486343  1
  F  F8  1  0.844102  0.817584  0.450753  1
  F  F9  1  0.155898  0.182416  0.549247  1
  F  F10  1  0.322772  0.395767  0.855078  1
  F  F11  1  0.677228  0.604233  0.144922  1
  F  F12  1  0.282956  0.193845  0.205189  1
  F  F13  1  0.717044  0.806155  0.794811  1
  F  F14  1  0.096291  0.685603  0.196404  1
  F  F15  1  0.903709  0.314397  0.803596  1
  F  F16  1  0.938071  0.891740  0.102633  1
  F  F17  1  0.061929  0.108260  0.897367  1
  F  F18  1  0.238799  0.046043  0.570007  1
  F  F19  1  0.761201  0.953957  0.429993  1
  F  F20  1  0.823657  0.261776  0.149125  1
  F  F21  1  0.176343  0.738224  0.850875  1
  F  F22  1  0.488499  0.897665  0.105898  1
  F  F23  1  0.511501  0.102335  0.894102  1
  F  F24  1  0.347199  0.574802  0.519878  1
  F  F25  1  0.652801  0.425198  0.480122  1
