# generated using pymatgen
data_Er6Co17P12Os
_symmetry_space_group_name_H-M   'P 1'
_cell_length_a   3.68669600
_cell_length_b   10.47199700
_cell_length_c   12.17595600
_cell_angle_alpha   90.00000000
_cell_angle_beta   90.00000000
_cell_angle_gamma   90.00000000
_symmetry_Int_Tables_number   1
_chemical_formula_structural   Er6Co17P12Os
_chemical_formula_sum   'Er6 Co17 P12 Os1'
_cell_volume   470.07797894
_cell_formula_units_Z   1
loop_
 _symmetry_equiv_pos_site_id
 _symmetry_equiv_pos_as_xyz
  1  'x, y, z'
loop_
 _atom_site_type_symbol
 _atom_site_label
 _atom_site_symmetry_multiplicity
 _atom_site_fract_x
 _atom_site_fract_y
 _atom_site_fract_z
 _atom_site_occupancy
  Er  Er0  1  0.750000  0.250000  0.475204  1
  Er  Er1  1  0.250000  0.750000  0.521739  1
  Er  Er2  1  0.250000  0.932165  0.792646  1
  Er  Er3  1  0.250000  0.567835  0.792646  1
  Er  Er4  1  0.750000  0.067295  0.206261  1
  Er  Er5  1  0.750000  0.432705  0.206261  1
  Co  Co6  1  0.750000  0.750000  0.160247  1
  Co  Co7  1  0.250000  0.250000  0.296591  1
  Co  Co8  1  0.750000  0.750000  0.704320  1
  Co  Co9  1  0.750000  0.250000  0.011996  1
  Co  Co10  1  0.250000  0.750000  0.985462  1
  Co  Co11  1  0.250000  0.417381  0.009078  1
  Co  Co12  1  0.250000  0.082619  0.009078  1
  Co  Co13  1  0.750000  0.583111  0.994087  1
  Co  Co14  1  0.750000  0.916889  0.994087  1
  Co  Co15  1  0.250000  0.452534  0.569558  1
  Co  Co16  1  0.250000  0.047466  0.569558  1
  Co  Co17  1  0.750000  0.547251  0.431377  1
  Co  Co18  1  0.750000  0.952749  0.431377  1
  Co  Co19  1  0.250000  0.871313  0.290959  1
  Co  Co20  1  0.250000  0.628687  0.290959  1
  Co  Co21  1  0.750000  0.129146  0.708769  1
  Co  Co22  1  0.750000  0.370854  0.708769  1
  P  P23  1  0.250000  0.250000  0.119514  1
  P  P24  1  0.750000  0.750000  0.882457  1
  P  P25  1  0.250000  0.250000  0.648358  1
  P  P26  1  0.750000  0.750000  0.345127  1
  P  P27  1  0.250000  0.438159  0.383458  1
  P  P28  1  0.250000  0.061841  0.383458  1
  P  P29  1  0.750000  0.562652  0.616028  1
  P  P30  1  0.750000  0.937348  0.616028  1
  P  P31  1  0.250000  0.900965  0.108514  1
  P  P32  1  0.250000  0.599035  0.108514  1
  P  P33  1  0.750000  0.093915  0.893387  1
  P  P34  1  0.750000  0.406085  0.893387  1
  Os  Os35  1  0.250000  0.250000  0.840737  1
