# generated using pymatgen
data_YMgCu3Rh
_symmetry_space_group_name_H-M   'P 1'
_cell_length_a   5.08034900
_cell_length_b   5.22066595
_cell_length_c   5.08034800
_cell_angle_alpha   60.88517232
_cell_angle_beta   59.99999346
_cell_angle_gamma   60.88516717
_symmetry_Int_Tables_number   1
_chemical_formula_structural   YMgCu3Rh
_chemical_formula_sum   'Y1 Mg1 Cu3 Rh1'
_cell_volume   96.53408960
_cell_formula_units_Z   1
loop_
 _symmetry_equiv_pos_site_id
 _symmetry_equiv_pos_as_xyz
  1  'x, y, z'
loop_
 _atom_site_type_symbol
 _atom_site_label
 _atom_site_symmetry_multiplicity
 _atom_site_fract_x
 _atom_site_fract_y
 _atom_site_fract_z
 _atom_site_occupancy
  Y  Y0  1  0.748669  0.753993  0.748669  1
  Mg  Mg1  1  0.001068  0.996797  0.001068  1
  Cu  Cu2  1  0.374859  0.373790  0.876492  1
  Cu  Cu3  1  0.876492  0.373790  0.374859  1
  Cu  Cu4  1  0.374859  0.373790  0.374859  1
  Rh  Rh5  1  0.374054  0.877839  0.374054  1
