# generated using pymatgen
data_Hf8Cu5Ni3Hg4
_symmetry_space_group_name_H-M   'P 1'
_cell_length_a   7.17771666
_cell_length_b   7.17771685
_cell_length_c   6.68752505
_cell_angle_alpha   90.03302466
_cell_angle_beta   90.03303025
_cell_angle_gamma   89.73319632
_symmetry_Int_Tables_number   1
_chemical_formula_structural   Hf8Cu5Ni3Hg4
_chemical_formula_sum   'Hf8 Cu5 Ni3 Hg4'
_cell_volume   344.53488490
_cell_formula_units_Z   1
loop_
 _symmetry_equiv_pos_site_id
 _symmetry_equiv_pos_as_xyz
  1  'x, y, z'
loop_
 _atom_site_type_symbol
 _atom_site_label
 _atom_site_symmetry_multiplicity
 _atom_site_fract_x
 _atom_site_fract_y
 _atom_site_fract_z
 _atom_site_occupancy
  Hf  Hf0  1  0.186522  0.186522  0.989909  1
  Hf  Hf1  1  0.818594  0.818594  0.993830  1
  Hf  Hf2  1  0.307348  0.684845  0.506407  1
  Hf  Hf3  1  0.684845  0.307348  0.506407  1
  Hf  Hf4  1  0.649066  0.343764  0.992257  1
  Hf  Hf5  1  0.343764  0.649066  0.992257  1
  Hf  Hf6  1  0.853287  0.853287  0.508482  1
  Hf  Hf7  1  0.154671  0.154671  0.513695  1
  Cu  Cu8  1  0.374919  0.374919  0.290915  1
  Cu  Cu9  1  0.624549  0.624549  0.288882  1
  Cu  Cu10  1  0.126334  0.877461  0.210125  1
  Cu  Cu11  1  0.877461  0.126334  0.210125  1
  Cu  Cu12  1  0.625259  0.625259  0.707236  1
  Ni  Ni13  1  0.377734  0.377734  0.717044  1
  Ni  Ni14  1  0.125316  0.874901  0.785258  1
  Ni  Ni15  1  0.874901  0.125316  0.785258  1
  Hg  Hg16  1  0.499721  0.997369  0.251179  1
  Hg  Hg17  1  0.997369  0.499721  0.251179  1
  Hg  Hg18  1  0.998478  0.499861  0.749777  1
  Hg  Hg19  1  0.499861  0.998478  0.749777  1
