# generated using pymatgen
data_Sc2MnFe(BO4)2
_symmetry_space_group_name_H-M   'P 1'
_cell_length_a   3.34025300
_cell_length_b   9.43749200
_cell_length_c   9.78493800
_cell_angle_alpha   90.00000000
_cell_angle_beta   90.00000000
_cell_angle_gamma   90.00000000
_symmetry_Int_Tables_number   1
_chemical_formula_structural   Sc2MnFe(BO4)2
_chemical_formula_sum   'Sc4 Mn2 Fe2 B4 O16'
_cell_volume   308.45657883
_cell_formula_units_Z   2
loop_
 _symmetry_equiv_pos_site_id
 _symmetry_equiv_pos_as_xyz
  1  'x, y, z'
loop_
 _atom_site_type_symbol
 _atom_site_label
 _atom_site_symmetry_multiplicity
 _atom_site_fract_x
 _atom_site_fract_y
 _atom_site_fract_z
 _atom_site_occupancy
  Sc  Sc0  1  0.250000  0.587671  0.112815  1
  Sc  Sc1  1  0.750000  0.087671  0.387185  1
  Sc  Sc2  1  0.250000  0.913487  0.608247  1
  Sc  Sc3  1  0.750000  0.413487  0.891753  1
  Mn  Mn4  1  0.250000  0.319678  0.594368  1
  Mn  Mn5  1  0.750000  0.819678  0.905632  1
  Fe  Fe6  1  0.250000  0.183066  0.093436  1
  Fe  Fe7  1  0.750000  0.683066  0.406564  1
  B  B8  1  0.250000  0.872108  0.183250  1
  B  B9  1  0.750000  0.372108  0.316750  1
  B  B10  1  0.250000  0.627624  0.682858  1
  B  B11  1  0.750000  0.127624  0.817142  1
  O  O12  1  0.250000  0.386441  0.012447  1
  O  O13  1  0.250000  0.848480  0.044430  1
  O  O14  1  0.250000  0.008576  0.237573  1
  O  O15  1  0.250000  0.751665  0.265687  1
  O  O16  1  0.750000  0.251665  0.234313  1
  O  O17  1  0.750000  0.508576  0.262427  1
  O  O18  1  0.750000  0.348480  0.455570  1
  O  O19  1  0.750000  0.886441  0.487553  1
  O  O20  1  0.250000  0.109844  0.507192  1
  O  O21  1  0.250000  0.645439  0.543123  1
  O  O22  1  0.250000  0.494890  0.744707  1
  O  O23  1  0.250000  0.751033  0.761909  1
  O  O24  1  0.750000  0.251033  0.738091  1
  O  O25  1  0.750000  0.994890  0.755293  1
  O  O26  1  0.750000  0.145439  0.956877  1
  O  O27  1  0.750000  0.609844  0.992808  1
