# generated using pymatgen
data_AlCdBr4
_symmetry_space_group_name_H-M   'P 1'
_cell_length_a   7.16755077
_cell_length_b   7.15060926
_cell_length_c   10.31295930
_cell_angle_alpha   83.17370017
_cell_angle_beta   104.07889337
_cell_angle_gamma   119.78369735
_symmetry_Int_Tables_number   1
_chemical_formula_structural   AlCdBr4
_chemical_formula_sum   'Al2 Cd2 Br8'
_cell_volume   444.96271587
_cell_formula_units_Z   2
loop_
 _symmetry_equiv_pos_site_id
 _symmetry_equiv_pos_as_xyz
  1  'x, y, z'
loop_
 _atom_site_type_symbol
 _atom_site_label
 _atom_site_symmetry_multiplicity
 _atom_site_fract_x
 _atom_site_fract_y
 _atom_site_fract_z
 _atom_site_occupancy
  Al  Al0  1  0.588109  0.833192  0.273049  1
  Al  Al1  1  0.411891  0.166808  0.726951  1
  Cd  Cd2  1  0.044426  0.496068  0.633731  1
  Cd  Cd3  1  0.955574  0.503932  0.366269  1
  Br  Br4  1  0.395677  0.839917  0.811926  1
  Br  Br5  1  0.604323  0.160083  0.188074  1
  Br  Br6  1  0.167091  0.216425  0.816525  1
  Br  Br7  1  0.832909  0.783575  0.183475  1
  Br  Br8  1  0.670071  0.832871  0.501039  1
  Br  Br9  1  0.329929  0.167129  0.498961  1
  Br  Br10  1  0.768773  0.444782  0.813307  1
  Br  Br11  1  0.231227  0.555218  0.186693  1
