# generated using pymatgen
data_Nd4PdAu3
_symmetry_space_group_name_H-M   'P 1'
_cell_length_a   4.81133000
_cell_length_b   5.81633092
_cell_length_c   7.45130560
_cell_angle_alpha   89.06585414
_cell_angle_beta   90.00000000
_cell_angle_gamma   90.00000000
_symmetry_Int_Tables_number   1
_chemical_formula_structural   Nd4PdAu3
_chemical_formula_sum   'Nd4 Pd1 Au3'
_cell_volume   208.49176428
_cell_formula_units_Z   1
loop_
 _symmetry_equiv_pos_site_id
 _symmetry_equiv_pos_as_xyz
  1  'x, y, z'
loop_
 _atom_site_type_symbol
 _atom_site_label
 _atom_site_symmetry_multiplicity
 _atom_site_fract_x
 _atom_site_fract_y
 _atom_site_fract_z
 _atom_site_occupancy
  Nd  Nd0  1  0.250000  0.355017  0.683488  1
  Nd  Nd1  1  0.250000  0.145948  0.188645  1
  Nd  Nd2  1  0.750000  0.650014  0.317854  1
  Nd  Nd3  1  0.750000  0.852166  0.808810  1
  Pd  Pd4  1  0.250000  0.848867  0.540313  1
  Au  Au5  1  0.250000  0.653148  0.040990  1
  Au  Au6  1  0.750000  0.148046  0.460128  1
  Au  Au7  1  0.750000  0.346792  0.959772  1
