# generated using pymatgen
data_HoZnCu3Pd
_symmetry_space_group_name_H-M   'P 1'
_cell_length_a   5.07448228
_cell_length_b   5.07448206
_cell_length_c   5.07448256
_cell_angle_alpha   58.76659997
_cell_angle_beta   58.76659764
_cell_angle_gamma   58.76659915
_symmetry_Int_Tables_number   1
_chemical_formula_structural   HoZnCu3Pd
_chemical_formula_sum   'Ho1 Zn1 Cu3 Pd1'
_cell_volume   89.79443540
_cell_formula_units_Z   1
loop_
 _symmetry_equiv_pos_site_id
 _symmetry_equiv_pos_as_xyz
  1  'x, y, z'
loop_
 _atom_site_type_symbol
 _atom_site_label
 _atom_site_symmetry_multiplicity
 _atom_site_fract_x
 _atom_site_fract_y
 _atom_site_fract_z
 _atom_site_occupancy
  Ho  Ho0  1  0.248394  0.248394  0.248394  1
  Zn  Zn1  1  0.628451  0.628451  0.628451  1
  Cu  Cu2  1  0.626064  0.626064  0.123116  1
  Cu  Cu3  1  0.626064  0.123116  0.626064  1
  Cu  Cu4  1  0.123116  0.626064  0.626064  1
  Pd  Pd5  1  0.997911  0.997911  0.997911  1
