# generated using pymatgen
data_NdGaCo2P
_symmetry_space_group_name_H-M   'P 1'
_cell_length_a   5.85013076
_cell_length_b   5.85013182
_cell_length_c   5.85013178
_cell_angle_alpha   140.90028712
_cell_angle_beta   140.90030363
_cell_angle_gamma   56.48884292
_symmetry_Int_Tables_number   1
_chemical_formula_structural   NdGaCo2P
_chemical_formula_sum   'Nd1 Ga1 Co2 P1'
_cell_volume   78.99932134
_cell_formula_units_Z   1
loop_
 _symmetry_equiv_pos_site_id
 _symmetry_equiv_pos_as_xyz
  1  'x, y, z'
loop_
 _atom_site_type_symbol
 _atom_site_label
 _atom_site_symmetry_multiplicity
 _atom_site_fract_x
 _atom_site_fract_y
 _atom_site_fract_z
 _atom_site_occupancy
  Nd  Nd0  1  0.993430  0.993430  0.000000  1
  Ga  Ga1  1  0.626811  0.626811  0.000000  1
  Co  Co2  1  0.759172  0.259172  0.500000  1
  Co  Co3  1  0.259172  0.759172  0.500000  1
  P  P4  1  0.361414  0.361414  0.000000  1
