# generated using pymatgen
data_Ta(OsBr6)5
_symmetry_space_group_name_H-M   'P 1'
_cell_length_a   14.02347129
_cell_length_b   14.03970958
_cell_length_c   6.66911796
_cell_angle_alpha   89.34986481
_cell_angle_beta   89.19596658
_cell_angle_gamma   86.00472897
_symmetry_Int_Tables_number   1
_chemical_formula_structural   Ta(OsBr6)5
_chemical_formula_sum   'Ta1 Os5 Br30'
_cell_volume   1309.66167100
_cell_formula_units_Z   1
loop_
 _symmetry_equiv_pos_site_id
 _symmetry_equiv_pos_as_xyz
  1  'x, y, z'
loop_
 _atom_site_type_symbol
 _atom_site_label
 _atom_site_symmetry_multiplicity
 _atom_site_fract_x
 _atom_site_fract_y
 _atom_site_fract_z
 _atom_site_occupancy
  Ta  Ta0  1  0.223884  0.442647  0.474625  1
  Os  Os1  1  0.438146  0.228629  0.474321  1
  Os  Os2  1  0.768535  0.564403  0.525562  1
  Os  Os3  1  0.564082  0.769405  0.525736  1
  Os  Os4  1  0.103076  0.897439  0.999810  1
  Os  Os5  1  0.896643  0.103051  0.999635  1
  Br  Br6  1  0.530173  0.329876  0.253412  1
  Br  Br7  1  0.666287  0.473612  0.747098  1
  Br  Br8  1  0.472670  0.667486  0.747351  1
  Br  Br9  1  0.334085  0.527705  0.251245  1
  Br  Br10  1  0.573130  0.197107  0.691948  1
  Br  Br11  1  0.799196  0.429547  0.307109  1
  Br  Br12  1  0.867204  0.237684  0.775652  1
  Br  Br13  1  0.761728  0.132606  0.224060  1
  Br  Br14  1  0.132441  0.762954  0.224720  1
  Br  Br15  1  0.238026  0.868092  0.774934  1
  Br  Br16  1  0.999562  0.192410  0.211517  1
  Br  Br17  1  0.807220  0.000276  0.788067  1
  Br  Br18  1  0.000252  0.807735  0.788409  1
  Br  Br19  1  0.192315  0.000094  0.211583  1
  Br  Br20  1  0.049350  0.049348  0.790108  1
  Br  Br21  1  0.950373  0.950881  0.209315  1
  Br  Br22  1  0.286273  0.281863  0.269183  1
  Br  Br23  1  0.715628  0.716305  0.730417  1
  Br  Br24  1  0.090639  0.466083  0.245545  1
  Br  Br25  1  0.534223  0.904429  0.743387  1
  Br  Br26  1  0.903245  0.534897  0.744695  1
  Br  Br27  1  0.468483  0.093442  0.256460  1
  Br  Br28  1  0.138666  0.332650  0.697806  1
  Br  Br29  1  0.666493  0.859930  0.303807  1
  Br  Br30  1  0.860305  0.666529  0.304732  1
  Br  Br31  1  0.336255  0.137150  0.695328  1
  Br  Br32  1  0.384778  0.380421  0.679633  1
  Br  Br33  1  0.617271  0.617494  0.320962  1
  Br  Br34  1  0.200043  0.575841  0.704496  1
  Br  Br35  1  0.429317  0.799974  0.307338  1
