# generated using pymatgen
data_Ho10SnHgBi4
_symmetry_space_group_name_H-M   'P 1'
_cell_length_a   9.03408907
_cell_length_b   9.01415455
_cell_length_c   6.50342700
_cell_angle_alpha   90.00000000
_cell_angle_beta   90.00000000
_cell_angle_gamma   119.75738989
_symmetry_Int_Tables_number   1
_chemical_formula_structural   Ho10SnHgBi4
_chemical_formula_sum   'Ho10 Sn1 Hg1 Bi4'
_cell_volume   459.76806910
_cell_formula_units_Z   1
loop_
 _symmetry_equiv_pos_site_id
 _symmetry_equiv_pos_as_xyz
  1  'x, y, z'
loop_
 _atom_site_type_symbol
 _atom_site_label
 _atom_site_symmetry_multiplicity
 _atom_site_fract_x
 _atom_site_fract_y
 _atom_site_fract_z
 _atom_site_occupancy
  Ho  Ho0  1  0.987210  0.759277  0.750000  1
  Ho  Ho1  1  0.994421  0.233341  0.250000  1
  Ho  Ho2  1  0.755282  0.760438  0.250000  1
  Ho  Ho3  1  0.756642  0.988520  0.750000  1
  Ho  Ho4  1  0.241484  0.241430  0.750000  1
  Ho  Ho5  1  0.241314  0.000472  0.250000  1
  Ho  Ho6  1  0.348224  0.671232  0.499089  1
  Ho  Ho7  1  0.665810  0.338479  0.000550  1
  Ho  Ho8  1  0.665810  0.338479  0.499450  1
  Ho  Ho9  1  0.348224  0.671232  0.000911  1
  Sn  Sn10  1  0.607584  0.005626  0.250000  1
  Hg  Hg11  1  0.604987  0.603150  0.750000  1
  Bi  Bi12  1  0.389113  0.998408  0.750000  1
  Bi  Bi13  1  0.387120  0.387614  0.250000  1
  Bi  Bi14  1  0.005672  0.609941  0.250000  1
  Bi  Bi15  1  0.001102  0.392361  0.750000  1
