# generated using pymatgen
data_CsLuZrSe4
_symmetry_space_group_name_H-M   'P 1'
_cell_length_a   4.01742700
_cell_length_b   6.79407773
_cell_length_c   8.99713681
_cell_angle_alpha   75.47946393
_cell_angle_beta   90.00000000
_cell_angle_gamma   90.00000000
_symmetry_Int_Tables_number   1
_chemical_formula_structural   CsLuZrSe4
_chemical_formula_sum   'Cs1 Lu1 Zr1 Se4'
_cell_volume   237.73007901
_cell_formula_units_Z   1
loop_
 _symmetry_equiv_pos_site_id
 _symmetry_equiv_pos_as_xyz
  1  'x, y, z'
loop_
 _atom_site_type_symbol
 _atom_site_label
 _atom_site_symmetry_multiplicity
 _atom_site_fract_x
 _atom_site_fract_y
 _atom_site_fract_z
 _atom_site_occupancy
  Cs  Cs0  1  0.000000  0.500000  0.500000  1
  Lu  Lu1  1  0.500000  0.500000  0.000000  1
  Zr  Zr2  1  0.000000  0.000000  0.000000  1
  Se  Se3  1  0.500000  0.786352  0.179148  1
  Se  Se4  1  0.000000  0.262566  0.178607  1
  Se  Se5  1  0.500000  0.213648  0.820852  1
  Se  Se6  1  0.000000  0.737434  0.821393  1
