# generated using pymatgen
data_Ba4TbNbO8
_symmetry_space_group_name_H-M   'P 1'
_cell_length_a   7.47058040
_cell_length_b   7.47057972
_cell_length_c   6.06820400
_cell_angle_alpha   90.00000000
_cell_angle_beta   90.00000000
_cell_angle_gamma   132.31452150
_symmetry_Int_Tables_number   1
_chemical_formula_structural   Ba4TbNbO8
_chemical_formula_sum   'Ba4 Tb1 Nb1 O8'
_cell_volume   250.42852727
_cell_formula_units_Z   1
loop_
 _symmetry_equiv_pos_site_id
 _symmetry_equiv_pos_as_xyz
  1  'x, y, z'
loop_
 _atom_site_type_symbol
 _atom_site_label
 _atom_site_symmetry_multiplicity
 _atom_site_fract_x
 _atom_site_fract_y
 _atom_site_fract_z
 _atom_site_occupancy
  Ba  Ba0  1  0.353508  0.646492  0.000000  1
  Ba  Ba1  1  0.853365  0.146635  0.500000  1
  Ba  Ba2  1  0.146635  0.853365  0.500000  1
  Ba  Ba3  1  0.646492  0.353508  0.000000  1
  Tb  Tb4  1  0.000000  0.000000  0.000000  1
  Nb  Nb5  1  0.500000  0.500000  0.500000  1
  O  O6  1  0.262215  0.262215  0.733251  1
  O  O7  1  0.737785  0.737785  0.266749  1
  O  O8  1  0.737785  0.737785  0.733251  1
  O  O9  1  0.262215  0.262215  0.266749  1
  O  O10  1  0.166709  0.833291  0.000000  1
  O  O11  1  0.651340  0.348660  0.500000  1
  O  O12  1  0.348660  0.651340  0.500000  1
  O  O13  1  0.833291  0.166709  0.000000  1
