# generated using pymatgen
data_Hf2Zr3Sn2GeSb
_symmetry_space_group_name_H-M   'P 1'
_cell_length_a   8.69133130
_cell_length_b   8.69362357
_cell_length_c   5.87771700
_cell_angle_alpha   90.00000000
_cell_angle_beta   90.00000000
_cell_angle_gamma   120.00871147
_symmetry_Int_Tables_number   1
_chemical_formula_structural   Hf2Zr3Sn2GeSb
_chemical_formula_sum   'Hf4 Zr6 Sn4 Ge2 Sb2'
_cell_volume   384.58143001
_cell_formula_units_Z   2
loop_
 _symmetry_equiv_pos_site_id
 _symmetry_equiv_pos_as_xyz
  1  'x, y, z'
loop_
 _atom_site_type_symbol
 _atom_site_label
 _atom_site_symmetry_multiplicity
 _atom_site_fract_x
 _atom_site_fract_y
 _atom_site_fract_z
 _atom_site_occupancy
  Hf  Hf0  1  0.334522  0.667262  0.500000  1
  Hf  Hf1  1  0.666005  0.333002  0.000000  1
  Hf  Hf2  1  0.666005  0.333002  0.500000  1
  Hf  Hf3  1  0.334522  0.667262  0.000000  1
  Zr  Zr4  1  0.735288  0.735450  0.250000  1
  Zr  Zr5  1  0.735288  0.999838  0.750000  1
  Zr  Zr6  1  0.999352  0.263839  0.250000  1
  Zr  Zr7  1  0.999352  0.735511  0.750000  1
  Zr  Zr8  1  0.265485  0.265566  0.750000  1
  Zr  Zr9  1  0.265485  0.999918  0.250000  1
  Sn  Sn10  1  0.391603  0.999878  0.750000  1
  Sn  Sn11  1  0.391603  0.391724  0.250000  1
  Sn  Sn12  1  0.000542  0.606592  0.250000  1
  Sn  Sn13  1  0.000542  0.393950  0.750000  1
  Ge  Ge14  1  0.001443  0.000722  0.000000  1
  Ge  Ge15  1  0.001443  0.000722  0.500000  1
  Sb  Sb16  1  0.605764  0.605329  0.750000  1
  Sb  Sb17  1  0.605764  0.000434  0.250000  1
