# generated using pymatgen
data_Pr2Al20IrRu2Rh
_symmetry_space_group_name_H-M   'P 1'
_cell_length_a   6.90654623
_cell_length_b   6.89939437
_cell_length_c   9.23493590
_cell_angle_alpha   90.17496587
_cell_angle_beta   90.16381527
_cell_angle_gamma   96.97094488
_symmetry_Int_Tables_number   1
_chemical_formula_structural   Pr2Al20IrRu2Rh
_chemical_formula_sum   'Pr2 Al20 Ir1 Ru2 Rh1'
_cell_volume   436.79649868
_cell_formula_units_Z   1
loop_
 _symmetry_equiv_pos_site_id
 _symmetry_equiv_pos_as_xyz
  1  'x, y, z'
loop_
 _atom_site_type_symbol
 _atom_site_label
 _atom_site_symmetry_multiplicity
 _atom_site_fract_x
 _atom_site_fract_y
 _atom_site_fract_z
 _atom_site_occupancy
  Pr  Pr0  1  0.874728  0.125219  0.750268  1
  Pr  Pr1  1  0.125272  0.874781  0.249732  1
  Al  Al2  1  0.410111  0.141353  0.749788  1
  Al  Al3  1  0.141398  0.409378  0.249475  1
  Al  Al4  1  0.589889  0.858647  0.250212  1
  Al  Al5  1  0.858602  0.590622  0.750525  1
  Al  Al6  1  0.517385  0.775756  0.747164  1
  Al  Al7  1  0.776921  0.517219  0.248164  1
  Al  Al8  1  0.482615  0.224244  0.252836  1
  Al  Al9  1  0.223079  0.482781  0.751836  1
  Al  Al10  1  0.839134  0.158032  0.397743  1
  Al  Al11  1  0.160866  0.841968  0.602257  1
  Al  Al12  1  0.841054  0.161163  0.102936  1
  Al  Al13  1  0.158946  0.838837  0.897064  1
  Al  Al14  1  0.621078  0.377002  0.550980  1
  Al  Al15  1  0.378922  0.622998  0.449020  1
  Al  Al16  1  0.623060  0.379380  0.948289  1
  Al  Al17  1  0.376940  0.620620  0.051711  1
  Al  Al18  1  0.773842  0.772985  0.001013  1
  Al  Al19  1  0.773557  0.775124  0.500536  1
  Al  Al20  1  0.226158  0.227015  0.998987  1
  Al  Al21  1  0.226443  0.224876  0.499464  1
  Ir  Ir22  1  0.000000  0.500000  0.500000  1
  Ru  Ru23  1  0.000000  0.500000  0.000000  1
  Ru  Ru24  1  0.500000  0.000000  0.500000  1
  Rh  Rh25  1  0.500000  0.000000  0.000000  1
