# generated using pymatgen
data_Zr4PaNiBi3
_symmetry_space_group_name_H-M   'P 1'
_cell_length_a   6.02348230
_cell_length_b   8.99996104
_cell_length_c   9.00004605
_cell_angle_alpha   121.83845745
_cell_angle_beta   89.94388165
_cell_angle_gamma   89.93960997
_symmetry_Int_Tables_number   1
_chemical_formula_structural   Zr4PaNiBi3
_chemical_formula_sum   'Zr8 Pa2 Ni2 Bi6'
_cell_volume   414.49115715
_cell_formula_units_Z   2
loop_
 _symmetry_equiv_pos_site_id
 _symmetry_equiv_pos_as_xyz
  1  'x, y, z'
loop_
 _atom_site_type_symbol
 _atom_site_label
 _atom_site_symmetry_multiplicity
 _atom_site_fract_x
 _atom_site_fract_y
 _atom_site_fract_z
 _atom_site_occupancy
  Zr  Zr0  1  0.749920  0.996667  0.256712  1
  Zr  Zr1  1  0.250202  0.003253  0.742599  1
  Zr  Zr2  1  0.749913  0.256878  0.996840  1
  Zr  Zr3  1  0.250165  0.742797  0.003437  1
  Zr  Zr4  1  0.999796  0.662616  0.337321  1
  Zr  Zr5  1  0.999793  0.337066  0.662869  1
  Zr  Zr6  1  0.499813  0.337035  0.662897  1
  Zr  Zr7  1  0.499810  0.662653  0.337283  1
  Pa  Pa8  1  0.749581  0.768982  0.769270  1
  Pa  Pa9  1  0.249512  0.231551  0.231854  1
  Ni  Ni10  1  0.002677  0.999089  0.997272  1
  Ni  Ni11  1  0.499686  0.002043  0.001275  1
  Bi  Bi12  1  0.749598  0.386486  0.386685  1
  Bi  Bi13  1  0.249969  0.613476  0.613676  1
  Bi  Bi14  1  0.749987  0.005702  0.606751  1
  Bi  Bi15  1  0.249810  0.993886  0.393161  1
  Bi  Bi16  1  0.749972  0.606708  0.005955  1
  Bi  Bi17  1  0.249794  0.393113  0.994141  1
