# generated using pymatgen
data_DyLuU(GaCo)3
_symmetry_space_group_name_H-M   'P 1'
_cell_length_a   3.54397200
_cell_length_b   6.99845127
_cell_length_c   7.15537763
_cell_angle_alpha   120.56937935
_cell_angle_beta   90.00000000
_cell_angle_gamma   90.00000000
_symmetry_Int_Tables_number   1
_chemical_formula_structural   DyLuU(GaCo)3
_chemical_formula_sum   'Dy1 Lu1 U1 Ga3 Co3'
_cell_volume   152.80408768
_cell_formula_units_Z   1
loop_
 _symmetry_equiv_pos_site_id
 _symmetry_equiv_pos_as_xyz
  1  'x, y, z'
loop_
 _atom_site_type_symbol
 _atom_site_label
 _atom_site_symmetry_multiplicity
 _atom_site_fract_x
 _atom_site_fract_y
 _atom_site_fract_z
 _atom_site_occupancy
  Dy  Dy0  1  0.500000  0.591269  0.002313  1
  Lu  Lu1  1  0.500000  0.407240  0.409694  1
  U  U2  1  0.500000  0.000132  0.579851  1
  Ga  Ga3  1  0.000000  0.257029  0.007467  1
  Ga  Ga4  1  0.000000  0.740874  0.746249  1
  Ga  Ga5  1  0.000000  0.002807  0.236860  1
  Co  Co6  1  0.000000  0.284814  0.657570  1
  Co  Co7  1  0.000000  0.713919  0.375067  1
  Co  Co8  1  0.500000  0.001819  0.984928  1
