# generated using pymatgen
data_Sr3Pr(Co2O5)2
_symmetry_space_group_name_H-M   'P 1'
_cell_length_a   5.44709315
_cell_length_b   5.62517341
_cell_length_c   8.92733139
_cell_angle_alpha   108.31192231
_cell_angle_beta   107.75318781
_cell_angle_gamma   90.15714006
_symmetry_Int_Tables_number   1
_chemical_formula_structural   Sr3Pr(Co2O5)2
_chemical_formula_sum   'Sr3 Pr1 Co4 O10'
_cell_volume   245.84882349
_cell_formula_units_Z   1
loop_
 _symmetry_equiv_pos_site_id
 _symmetry_equiv_pos_as_xyz
  1  'x, y, z'
loop_
 _atom_site_type_symbol
 _atom_site_label
 _atom_site_symmetry_multiplicity
 _atom_site_fract_x
 _atom_site_fract_y
 _atom_site_fract_z
 _atom_site_occupancy
  Sr  Sr0  1  0.101191  0.596970  0.221101  1
  Sr  Sr1  1  0.881650  0.403683  0.780117  1
  Sr  Sr2  1  0.604213  0.123222  0.223772  1
  Pr  Pr3  1  0.387004  0.879735  0.790365  1
  Co  Co4  1  0.276801  0.187301  0.496169  1
  Co  Co5  1  0.990297  0.001159  0.004129  1
  Co  Co6  1  0.777580  0.813334  0.503340  1
  Co  Co7  1  0.491052  0.499707  0.003261  1
  O  O8  1  0.321220  0.421414  0.698306  1
  O  O9  1  0.628517  0.599595  0.293438  1
  O  O10  1  0.143757  0.875956  0.515040  1
  O  O11  1  0.119052  0.173504  0.281333  1
  O  O12  1  0.738618  0.745465  0.008393  1
  O  O13  1  0.254419  0.753395  0.004375  1
  O  O14  1  0.820356  0.820310  0.717038  1
  O  O15  1  0.719257  0.239536  0.980055  1
  O  O16  1  0.631233  0.125888  0.500703  1
  O  O17  1  0.237784  0.239824  0.979066  1
