# generated using pymatgen
data_LaNdBe2(Co4P3)2
_symmetry_space_group_name_H-M   'P 1'
_cell_length_a   5.99340931
_cell_length_b   5.99341013
_cell_length_c   11.23269800
_cell_angle_alpha   90.00000000
_cell_angle_beta   90.00000000
_cell_angle_gamma   144.90931603
_symmetry_Int_Tables_number   1
_chemical_formula_structural   LaNdBe2(Co4P3)2
_chemical_formula_sum   'La1 Nd1 Be2 Co8 P6'
_cell_volume   231.95478661
_cell_formula_units_Z   1
loop_
 _symmetry_equiv_pos_site_id
 _symmetry_equiv_pos_as_xyz
  1  'x, y, z'
loop_
 _atom_site_type_symbol
 _atom_site_label
 _atom_site_symmetry_multiplicity
 _atom_site_fract_x
 _atom_site_fract_y
 _atom_site_fract_z
 _atom_site_occupancy
  La  La0  1  0.670582  0.329418  0.750000  1
  Nd  Nd1  1  0.329800  0.670200  0.250000  1
  Be  Be2  1  0.500085  0.499915  0.499904  1
  Be  Be3  1  0.500085  0.499915  0.000096  1
  Co  Co4  1  0.046014  0.953986  0.139001  1
  Co  Co5  1  0.046014  0.953986  0.360999  1
  Co  Co6  1  0.688004  0.311996  0.438300  1
  Co  Co7  1  0.312139  0.687861  0.559907  1
  Co  Co8  1  0.312139  0.687861  0.940093  1
  Co  Co9  1  0.688004  0.311996  0.061700  1
  Co  Co10  1  0.953484  0.046516  0.638097  1
  Co  Co11  1  0.953484  0.046516  0.861903  1
  P  P12  1  0.605484  0.394516  0.250000  1
  P  P13  1  0.394917  0.605083  0.750000  1
  P  P14  1  0.122970  0.877030  0.540145  1
  P  P15  1  0.876914  0.123086  0.457871  1
  P  P16  1  0.876914  0.123086  0.042129  1
  P  P17  1  0.122970  0.877030  0.959855  1
