# generated using pymatgen
data_Dy3Ho5(OsI4)2
_symmetry_space_group_name_H-M   'P 1'
_cell_length_a   11.13903827
_cell_length_b   11.15100226
_cell_length_c   6.18125135
_cell_angle_alpha   89.49525690
_cell_angle_beta   89.54943810
_cell_angle_gamma   88.47979957
_symmetry_Int_Tables_number   1
_chemical_formula_structural   Dy3Ho5(OsI4)2
_chemical_formula_sum   'Dy3 Ho5 Os2 I8'
_cell_volume   767.45976360
_cell_formula_units_Z   1
loop_
 _symmetry_equiv_pos_site_id
 _symmetry_equiv_pos_as_xyz
  1  'x, y, z'
loop_
 _atom_site_type_symbol
 _atom_site_label
 _atom_site_symmetry_multiplicity
 _atom_site_fract_x
 _atom_site_fract_y
 _atom_site_fract_z
 _atom_site_occupancy
  Dy  Dy0  1  0.202533  0.914634  0.998072  1
  Dy  Dy1  1  0.797692  0.085799  0.001741  1
  Dy  Dy2  1  0.085662  0.797653  0.502219  1
  Ho  Ho3  1  0.915136  0.200272  0.497570  1
  Ho  Ho4  1  0.801714  0.920280  0.504817  1
  Ho  Ho5  1  0.198457  0.079231  0.495049  1
  Ho  Ho6  1  0.079295  0.198261  0.994895  1
  Ho  Ho7  1  0.920268  0.801863  0.004979  1
  Os  Os8  1  0.000087  0.999774  0.249867  1
  Os  Os9  1  0.000110  0.999753  0.749993  1
  I  I10  1  0.363792  0.846084  0.500818  1
  I  I11  1  0.637714  0.155189  0.499377  1
  I  I12  1  0.153982  0.636804  0.999289  1
  I  I13  1  0.845945  0.363597  0.001532  1
  I  I14  1  0.357499  0.148599  0.002381  1
  I  I15  1  0.642220  0.852284  0.997694  1
  I  I16  1  0.851693  0.642924  0.497686  1
  I  I17  1  0.146199  0.356999  0.502022  1
