# generated using pymatgen
data_Hf13Sc5Re5Mo3P2
_symmetry_space_group_name_H-M   'P 1'
_cell_length_a   8.64243185
_cell_length_b   8.63264399
_cell_length_c   8.59220500
_cell_angle_alpha   90.00000000
_cell_angle_beta   90.00000000
_cell_angle_gamma   119.96254283
_symmetry_Int_Tables_number   1
_chemical_formula_structural   Hf13Sc5Re5Mo3P2
_chemical_formula_sum   'Hf13 Sc5 Re5 Mo3 P2'
_cell_volume   555.36544512
_cell_formula_units_Z   1
loop_
 _symmetry_equiv_pos_site_id
 _symmetry_equiv_pos_as_xyz
  1  'x, y, z'
loop_
 _atom_site_type_symbol
 _atom_site_label
 _atom_site_symmetry_multiplicity
 _atom_site_fract_x
 _atom_site_fract_y
 _atom_site_fract_z
 _atom_site_occupancy
  Hf  Hf0  1  0.196996  0.804698  0.456154  1
  Hf  Hf1  1  0.196996  0.392297  0.456154  1
  Hf  Hf2  1  0.605141  0.802570  0.456271  1
  Hf  Hf3  1  0.805374  0.194899  0.550290  1
  Hf  Hf4  1  0.805374  0.610476  0.550290  1
  Hf  Hf5  1  0.389528  0.194765  0.551071  1
  Hf  Hf6  1  0.805374  0.194899  0.949710  1
  Hf  Hf7  1  0.805374  0.610476  0.949710  1
  Hf  Hf8  1  0.389528  0.194765  0.948929  1
  Hf  Hf9  1  0.196996  0.804698  0.043846  1
  Hf  Hf10  1  0.196996  0.392297  0.043846  1
  Hf  Hf11  1  0.605141  0.802570  0.043729  1
  Hf  Hf12  1  0.929254  0.464627  0.250000  1
  Sc  Sc13  1  0.540086  0.461303  0.250000  1
  Sc  Sc14  1  0.540086  0.078783  0.250000  1
  Sc  Sc15  1  0.459464  0.540715  0.750000  1
  Sc  Sc16  1  0.459464  0.918749  0.750000  1
  Sc  Sc17  1  0.081560  0.540780  0.750000  1
  Re  Re18  1  0.109007  0.890679  0.750000  1
  Re  Re19  1  0.109007  0.218329  0.750000  1
  Re  Re20  1  0.780632  0.890317  0.750000  1
  Re  Re21  1  0.999356  0.999678  0.498510  1
  Re  Re22  1  0.999356  0.999678  0.001490  1
  Mo  Mo23  1  0.889887  0.109474  0.250000  1
  Mo  Mo24  1  0.889887  0.780413  0.250000  1
  Mo  Mo25  1  0.218942  0.109471  0.250000  1
  P  P26  1  0.328092  0.664047  0.250000  1
  P  P27  1  0.667099  0.333549  0.750000  1
