# generated using pymatgen
data_Tb5Co6
_symmetry_space_group_name_H-M   'P 1'
_cell_length_a   5.53903423
_cell_length_b   5.53903520
_cell_length_c   20.35086600
_cell_angle_alpha   90.00000000
_cell_angle_beta   90.00000000
_cell_angle_gamma   137.61121613
_symmetry_Int_Tables_number   1
_chemical_formula_structural   Tb5Co6
_chemical_formula_sum   'Tb10 Co12'
_cell_volume   420.93267822
_cell_formula_units_Z   2
loop_
 _symmetry_equiv_pos_site_id
 _symmetry_equiv_pos_as_xyz
  1  'x, y, z'
loop_
 _atom_site_type_symbol
 _atom_site_label
 _atom_site_symmetry_multiplicity
 _atom_site_fract_x
 _atom_site_fract_y
 _atom_site_fract_z
 _atom_site_occupancy
  Tb  Tb0  1  0.277510  0.722490  0.250000  1
  Tb  Tb1  1  0.280601  0.719399  0.065311  1
  Tb  Tb2  1  0.007459  0.992541  0.846017  1
  Tb  Tb3  1  0.722490  0.277510  0.750000  1
  Tb  Tb4  1  0.719399  0.280601  0.565311  1
  Tb  Tb5  1  0.992541  0.007459  0.346017  1
  Tb  Tb6  1  0.007459  0.992541  0.653983  1
  Tb  Tb7  1  0.719399  0.280601  0.934689  1
  Tb  Tb8  1  0.992541  0.007459  0.153983  1
  Tb  Tb9  1  0.280601  0.719399  0.434689  1
  Co  Co10  1  0.000000  0.000000  0.500000  1
  Co  Co11  1  0.000000  0.000000  0.000000  1
  Co  Co12  1  0.310578  0.689422  0.651703  1
  Co  Co13  1  0.568744  0.431256  0.446582  1
  Co  Co14  1  0.419666  0.580334  0.750000  1
  Co  Co15  1  0.431256  0.568744  0.946582  1
  Co  Co16  1  0.580334  0.419666  0.250000  1
  Co  Co17  1  0.431256  0.568744  0.553418  1
  Co  Co18  1  0.689422  0.310578  0.348297  1
  Co  Co19  1  0.689422  0.310578  0.151703  1
  Co  Co20  1  0.568744  0.431256  0.053418  1
  Co  Co21  1  0.310578  0.689422  0.848297  1
