# generated using pymatgen
data_YScP7Ru11Pt
_symmetry_space_group_name_H-M   'P 1'
_cell_length_a   9.32651971
_cell_length_b   9.45382059
_cell_length_c   3.93474000
_cell_angle_alpha   90.00000000
_cell_angle_beta   90.00000000
_cell_angle_gamma   119.24208496
_symmetry_Int_Tables_number   1
_chemical_formula_structural   YScP7Ru11Pt
_chemical_formula_sum   'Y1 Sc1 P7 Ru11 Pt1'
_cell_volume   302.71925799
_cell_formula_units_Z   1
loop_
 _symmetry_equiv_pos_site_id
 _symmetry_equiv_pos_as_xyz
  1  'x, y, z'
loop_
 _atom_site_type_symbol
 _atom_site_label
 _atom_site_symmetry_multiplicity
 _atom_site_fract_x
 _atom_site_fract_y
 _atom_site_fract_z
 _atom_site_occupancy
  Y  Y0  1  0.328780  0.658462  0.000000  1
  Sc  Sc1  1  0.671656  0.337934  0.500000  1
  P  P2  1  0.598879  0.704961  0.500000  1
  P  P3  1  0.997853  0.001080  0.000000  1
  P  P4  1  0.270138  0.876419  0.500000  1
  P  P5  1  0.117767  0.400260  0.500000  1
  P  P6  1  0.886234  0.577830  0.000000  1
  P  P7  1  0.430816  0.310367  0.000000  1
  P  P8  1  0.703406  0.129083  0.000000  1
  Ru  Ru9  1  0.392349  0.436834  0.500000  1
  Ru  Ru10  1  0.909965  0.127669  0.500000  1
  Ru  Ru11  1  0.210409  0.085961  0.500000  1
  Ru  Ru12  1  0.876948  0.795527  0.500000  1
  Ru  Ru13  1  0.723296  0.893817  0.000000  1
  Ru  Ru14  1  0.111946  0.839359  0.000000  1
  Ru  Ru15  1  0.163723  0.269949  0.000000  1
  Ru  Ru16  1  0.435439  0.072052  0.000000  1
  Ru  Ru17  1  0.935703  0.364810  0.000000  1
  Ru  Ru18  1  0.642824  0.574075  0.000000  1
  Ru  Ru19  1  0.048070  0.607042  0.500000  1
  Pt  Pt20  1  0.543800  0.936512  0.500000  1
