# generated using pymatgen
data_PrFeRuO5
_symmetry_space_group_name_H-M   'P 1'
_cell_length_a   5.70049900
_cell_length_b   7.91814300
_cell_length_c   8.99183600
_cell_angle_alpha   90.00000000
_cell_angle_beta   90.00000000
_cell_angle_gamma   90.00000000
_symmetry_Int_Tables_number   1
_chemical_formula_structural   PrFeRuO5
_chemical_formula_sum   'Pr4 Fe4 Ru4 O20'
_cell_volume   405.86779482
_cell_formula_units_Z   4
loop_
 _symmetry_equiv_pos_site_id
 _symmetry_equiv_pos_as_xyz
  1  'x, y, z'
loop_
 _atom_site_type_symbol
 _atom_site_label
 _atom_site_symmetry_multiplicity
 _atom_site_fract_x
 _atom_site_fract_y
 _atom_site_fract_z
 _atom_site_occupancy
  Pr  Pr0  1  0.000000  0.357003  0.671256  1
  Pr  Pr1  1  0.000000  0.642997  0.328744  1
  Pr  Pr2  1  0.000000  0.857003  0.828744  1
  Pr  Pr3  1  0.000000  0.142997  0.171256  1
  Fe  Fe4  1  0.500000  0.098632  0.857917  1
  Fe  Fe5  1  0.500000  0.901368  0.142083  1
  Fe  Fe6  1  0.500000  0.598632  0.642083  1
  Fe  Fe7  1  0.500000  0.401368  0.357917  1
  Ru  Ru8  1  0.278126  0.500000  0.000000  1
  Ru  Ru9  1  0.721874  0.000000  0.500000  1
  Ru  Ru10  1  0.721874  0.500000  0.000000  1
  Ru  Ru11  1  0.278126  0.000000  0.500000  1
  O  O12  1  0.250479  0.907756  0.289899  1
  O  O13  1  0.250479  0.092244  0.710101  1
  O  O14  1  0.749521  0.407756  0.210101  1
  O  O15  1  0.749521  0.592244  0.789899  1
  O  O16  1  0.749521  0.092244  0.710101  1
  O  O17  1  0.749521  0.907756  0.289899  1
  O  O18  1  0.250479  0.592244  0.789899  1
  O  O19  1  0.250479  0.407756  0.210101  1
  O  O20  1  0.500000  0.327929  0.925126  1
  O  O21  1  0.500000  0.672071  0.074874  1
  O  O22  1  0.500000  0.827929  0.574874  1
  O  O23  1  0.500000  0.172071  0.425126  1
  O  O24  1  0.266237  0.000000  0.000000  1
  O  O25  1  0.733763  0.500000  0.500000  1
  O  O26  1  0.733763  0.000000  0.000000  1
  O  O27  1  0.266237  0.500000  0.500000  1
  O  O28  1  0.000000  0.153383  0.448077  1
  O  O29  1  0.000000  0.846617  0.551923  1
  O  O30  1  0.000000  0.653383  0.051923  1
  O  O31  1  0.000000  0.346617  0.948077  1
