# generated using pymatgen
data_DyTm10Lu5(In3Ir)2
_symmetry_space_group_name_H-M   'P 1'
_cell_length_a   10.24969300
_cell_length_b   10.25184115
_cell_length_c   6.97392536
_cell_angle_alpha   90.02052666
_cell_angle_beta   90.00000000
_cell_angle_gamma   119.99307846
_symmetry_Int_Tables_number   1
_chemical_formula_structural   DyTm10Lu5(In3Ir)2
_chemical_formula_sum   'Dy1 Tm10 Lu5 In6 Ir2'
_cell_volume   634.67428345
_cell_formula_units_Z   1
loop_
 _symmetry_equiv_pos_site_id
 _symmetry_equiv_pos_as_xyz
  1  'x, y, z'
loop_
 _atom_site_type_symbol
 _atom_site_label
 _atom_site_symmetry_multiplicity
 _atom_site_fract_x
 _atom_site_fract_y
 _atom_site_fract_z
 _atom_site_occupancy
  Dy  Dy0  1  0.000143  0.000287  0.001012  1
  Tm  Tm1  1  0.532993  0.065986  0.513421  1
  Tm  Tm2  1  0.933727  0.466375  0.513695  1
  Tm  Tm3  1  0.532648  0.466375  0.513695  1
  Tm  Tm4  1  0.467251  0.934503  0.014700  1
  Tm  Tm5  1  0.066087  0.532745  0.014734  1
  Tm  Tm6  1  0.466658  0.532745  0.014734  1
  Tm  Tm7  1  0.176772  0.353542  0.718728  1
  Tm  Tm8  1  0.646371  0.823089  0.719054  1
  Tm  Tm9  1  0.176718  0.823089  0.719054  1
  Tm  Tm10  1  0.823206  0.646413  0.220523  1
  Lu  Lu11  1  0.354713  0.177446  0.220197  1
  Lu  Lu12  1  0.822732  0.177446  0.220197  1
  Lu  Lu13  1  0.666500  0.332997  0.896713  1
  Lu  Lu14  1  0.333327  0.666653  0.397379  1
  Lu  Lu15  1  0.000216  0.000432  0.498715  1
  In  In16  1  0.836285  0.672568  0.759588  1
  In  In17  1  0.327005  0.163482  0.760811  1
  In  In18  1  0.836479  0.163482  0.760811  1
  In  In19  1  0.162768  0.325538  0.262059  1
  In  In20  1  0.673722  0.837853  0.262171  1
  In  In21  1  0.164131  0.837853  0.262171  1
  Ir  Ir22  1  0.666188  0.332377  0.288822  1
  Ir  Ir23  1  0.333363  0.666726  0.791216  1
