# generated using pymatgen
data_Tm8Si16(TcW3)3
_symmetry_space_group_name_H-M   'P 1'
_cell_length_a   6.66293445
_cell_length_b   6.91032010
_cell_length_c   12.85399400
_cell_angle_alpha   90.00000000
_cell_angle_beta   90.00000000
_cell_angle_gamma   89.86438959
_symmetry_Int_Tables_number   1
_chemical_formula_structural   Tm8Si16(TcW3)3
_chemical_formula_sum   'Tm8 Si16 Tc3 W9'
_cell_volume   591.83491431
_cell_formula_units_Z   1
loop_
 _symmetry_equiv_pos_site_id
 _symmetry_equiv_pos_as_xyz
  1  'x, y, z'
loop_
 _atom_site_type_symbol
 _atom_site_label
 _atom_site_symmetry_multiplicity
 _atom_site_fract_x
 _atom_site_fract_y
 _atom_site_fract_z
 _atom_site_occupancy
  Tm  Tm0  1  0.994941  0.167956  0.092761  1
  Tm  Tm1  1  0.001905  0.833162  0.906860  1
  Tm  Tm2  1  0.504973  0.667970  0.907535  1
  Tm  Tm3  1  0.001905  0.833162  0.593140  1
  Tm  Tm4  1  0.494934  0.332769  0.092221  1
  Tm  Tm5  1  0.994941  0.167956  0.407239  1
  Tm  Tm6  1  0.494934  0.332769  0.407779  1
  Tm  Tm7  1  0.504973  0.667970  0.592465  1
  Si  Si8  1  0.032530  0.132336  0.750000  1
  Si  Si9  1  0.973889  0.868514  0.250000  1
  Si  Si10  1  0.472613  0.630814  0.250000  1
  Si  Si11  1  0.527523  0.370811  0.750000  1
  Si  Si12  1  0.300864  0.863196  0.750000  1
  Si  Si13  1  0.694342  0.134061  0.250000  1
  Si  Si14  1  0.195576  0.366883  0.250000  1
  Si  Si15  1  0.805383  0.632152  0.750000  1
  Si  Si16  1  0.159353  0.458332  0.547287  1
  Si  Si17  1  0.841167  0.540901  0.452530  1
  Si  Si18  1  0.340906  0.959067  0.451979  1
  Si  Si19  1  0.841167  0.540901  0.047470  1
  Si  Si20  1  0.659928  0.040614  0.544732  1
  Si  Si21  1  0.159353  0.458332  0.952713  1
  Si  Si22  1  0.659928  0.040614  0.955268  1
  Si  Si23  1  0.340906  0.959067  0.048021  1
  Tc  Tc24  1  0.166580  0.510912  0.750000  1
  Tc  Tc25  1  0.832394  0.483181  0.250000  1
  Tc  Tc26  1  0.330926  0.017208  0.250000  1
  W  W27  1  0.665227  0.995135  0.750000  1
  W  W28  1  0.330246  0.161793  0.623919  1
  W  W29  1  0.673066  0.837322  0.374291  1
  W  W30  1  0.172169  0.662141  0.375951  1
  W  W31  1  0.673066  0.837322  0.125709  1
  W  W32  1  0.827490  0.335372  0.624035  1
  W  W33  1  0.330246  0.161793  0.876081  1
  W  W34  1  0.827490  0.335372  0.875965  1
  W  W35  1  0.172169  0.662141  0.124049  1
