# generated using pymatgen
data_Sc22Ir3OsRh4
_symmetry_space_group_name_H-M   'P 1'
_cell_length_a   9.48224633
_cell_length_b   9.48156893
_cell_length_c   9.50053723
_cell_angle_alpha   60.05863929
_cell_angle_beta   59.93456300
_cell_angle_gamma   60.12505064
_symmetry_Int_Tables_number   1
_chemical_formula_structural   Sc22Ir3OsRh4
_chemical_formula_sum   'Sc22 Ir3 Os1 Rh4'
_cell_volume   604.51905487
_cell_formula_units_Z   1
loop_
 _symmetry_equiv_pos_site_id
 _symmetry_equiv_pos_as_xyz
  1  'x, y, z'
loop_
 _atom_site_type_symbol
 _atom_site_label
 _atom_site_symmetry_multiplicity
 _atom_site_fract_x
 _atom_site_fract_y
 _atom_site_fract_z
 _atom_site_occupancy
  Sc  Sc0  1  0.800623  0.801929  0.198066  1
  Sc  Sc1  1  0.198493  0.802780  0.197223  1
  Sc  Sc2  1  0.801637  0.198359  0.198355  1
  Sc  Sc3  1  0.199377  0.198071  0.801934  1
  Sc  Sc4  1  0.801507  0.197220  0.802777  1
  Sc  Sc5  1  0.198363  0.801641  0.801645  1
  Sc  Sc6  1  0.617476  0.616954  0.150368  1
  Sc  Sc7  1  0.615194  0.150365  0.616953  1
  Sc  Sc8  1  0.150216  0.615550  0.617987  1
  Sc  Sc9  1  0.616247  0.618005  0.615549  1
  Sc  Sc10  1  0.382524  0.383046  0.849632  1
  Sc  Sc11  1  0.384806  0.849635  0.383047  1
  Sc  Sc12  1  0.849784  0.384450  0.382013  1
  Sc  Sc13  1  0.383753  0.381995  0.384451  1
  Sc  Sc14  1  0.841932  0.843605  0.471367  1
  Sc  Sc15  1  0.843091  0.471356  0.843627  1
  Sc  Sc16  1  0.471670  0.843598  0.842568  1
  Sc  Sc17  1  0.842156  0.842547  0.843630  1
  Sc  Sc18  1  0.158068  0.156395  0.528633  1
  Sc  Sc19  1  0.156909  0.528644  0.156373  1
  Sc  Sc20  1  0.528330  0.156402  0.157432  1
  Sc  Sc21  1  0.157844  0.157453  0.156370  1
  Ir  Ir22  1  0.500000  0.000000  0.500000  1
  Ir  Ir23  1  0.000000  0.500000  0.000000  1
  Ir  Ir24  1  0.500000  0.000000  0.000000  1
  Os  Os25  1  0.500000  0.500000  0.500000  1
  Rh  Rh26  1  0.000000  0.000000  0.000000  1
  Rh  Rh27  1  0.000000  0.000000  0.500000  1
  Rh  Rh28  1  0.000000  0.500000  0.500000  1
  Rh  Rh29  1  0.500000  0.500000  0.000000  1
