# generated using pymatgen
data_Rb12In2As5P
_symmetry_space_group_name_H-M   'P 1'
_cell_length_a   9.53897765
_cell_length_b   9.55362925
_cell_length_c   10.77264204
_cell_angle_alpha   82.04431740
_cell_angle_beta   106.84947022
_cell_angle_gamma   119.19110944
_symmetry_Int_Tables_number   1
_chemical_formula_structural   Rb12In2As5P
_chemical_formula_sum   'Rb12 In2 As5 P1'
_cell_volume   820.25022796
_cell_formula_units_Z   1
loop_
 _symmetry_equiv_pos_site_id
 _symmetry_equiv_pos_as_xyz
  1  'x, y, z'
loop_
 _atom_site_type_symbol
 _atom_site_label
 _atom_site_symmetry_multiplicity
 _atom_site_fract_x
 _atom_site_fract_y
 _atom_site_fract_z
 _atom_site_occupancy
  Rb  Rb0  1  0.734627  0.126456  0.618800  1
  Rb  Rb1  1  0.258880  0.858353  0.393051  1
  Rb  Rb2  1  0.970663  0.821327  0.629100  1
  Rb  Rb3  1  0.022774  0.194279  0.393749  1
  Rb  Rb4  1  0.624180  0.449918  0.399280  1
  Rb  Rb5  1  0.394404  0.557830  0.594353  1
  Rb  Rb6  1  0.872467  0.486657  0.138957  1
  Rb  Rb7  1  0.113115  0.497908  0.845701  1
  Rb  Rb8  1  0.746528  0.092503  0.987339  1
  Rb  Rb9  1  0.239392  0.873503  0.004161  1
  Rb  Rb10  1  0.573916  0.627240  0.945662  1
  Rb  Rb11  1  0.245487  0.209631  0.104920  1
  In  In12  1  0.585860  0.827961  0.256028  1
  In  In13  1  0.414077  0.177569  0.750594  1
  As  As14  1  0.295018  0.557872  0.232208  1
  As  As15  1  0.709224  0.437610  0.763363  1
  As  As16  1  0.597526  0.113811  0.260340  1
  As  As17  1  0.387722  0.880433  0.740769  1
  As  As18  1  0.861075  0.824182  0.244322  1
  P  P19  1  0.162447  0.201696  0.758684  1
