# generated using pymatgen
data_Tm12In2Co2Tc
_symmetry_space_group_name_H-M   'P 1'
_cell_length_a   8.25210834
_cell_length_b   8.25210848
_cell_length_c   8.25210955
_cell_angle_alpha   108.75340974
_cell_angle_beta   108.75341999
_cell_angle_gamma   110.91657586
_symmetry_Int_Tables_number   1
_chemical_formula_structural   Tm12In2Co2Tc
_chemical_formula_sum   'Tm12 In2 Co2 Tc1'
_cell_volume   432.37941205
_cell_formula_units_Z   1
loop_
 _symmetry_equiv_pos_site_id
 _symmetry_equiv_pos_as_xyz
  1  'x, y, z'
loop_
 _atom_site_type_symbol
 _atom_site_label
 _atom_site_symmetry_multiplicity
 _atom_site_fract_x
 _atom_site_fract_y
 _atom_site_fract_z
 _atom_site_occupancy
  Tm  Tm0  1  0.192967  0.432433  0.239466  1
  Tm  Tm1  1  0.807033  0.567567  0.760534  1
  Tm  Tm2  1  0.192967  0.953502  0.760534  1
  Tm  Tm3  1  0.953502  0.192967  0.760534  1
  Tm  Tm4  1  0.807033  0.046498  0.239466  1
  Tm  Tm5  1  0.046498  0.807033  0.239466  1
  Tm  Tm6  1  0.432433  0.192967  0.239466  1
  Tm  Tm7  1  0.567567  0.807033  0.760534  1
  Tm  Tm8  1  0.307229  0.307229  0.614457  1
  Tm  Tm9  1  0.692771  0.692771  0.385543  1
  Tm  Tm10  1  0.692771  0.307229  0.000000  1
  Tm  Tm11  1  0.307229  0.692771  0.000000  1
  In  In12  1  0.000000  0.500000  0.500000  1
  In  In13  1  0.500000  0.000000  0.500000  1
  Co  Co14  1  0.379291  0.379291  0.000000  1
  Co  Co15  1  0.620709  0.620709  0.000000  1
  Tc  Tc16  1  0.000000  0.000000  0.000000  1
