# generated using pymatgen
data_Ca10CdSi4Hg
_symmetry_space_group_name_H-M   'P 1'
_cell_length_a   9.43453863
_cell_length_b   9.43453920
_cell_length_c   9.43453807
_cell_angle_alpha   131.55472922
_cell_angle_beta   131.55472324
_cell_angle_gamma   70.93320269
_symmetry_Int_Tables_number   1
_chemical_formula_structural   Ca10CdSi4Hg
_chemical_formula_sum   'Ca10 Cd1 Si4 Hg1'
_cell_volume   460.52829450
_cell_formula_units_Z   1
loop_
 _symmetry_equiv_pos_site_id
 _symmetry_equiv_pos_as_xyz
  1  'x, y, z'
loop_
 _atom_site_type_symbol
 _atom_site_label
 _atom_site_symmetry_multiplicity
 _atom_site_fract_x
 _atom_site_fract_y
 _atom_site_fract_z
 _atom_site_occupancy
  Ca  Ca0  1  0.533658  0.038702  0.846925  1
  Ca  Ca1  1  0.191775  0.686732  0.153075  1
  Ca  Ca2  1  0.038702  0.191775  0.505044  1
  Ca  Ca3  1  0.686732  0.533658  0.494956  1
  Ca  Ca4  1  0.461298  0.966342  0.153075  1
  Ca  Ca5  1  0.813268  0.308225  0.846925  1
  Ca  Ca6  1  0.966342  0.813268  0.505044  1
  Ca  Ca7  1  0.308225  0.461298  0.494956  1
  Ca  Ca8  1  0.501557  0.501557  0.000000  1
  Ca  Ca9  1  0.998443  0.998443  0.000000  1
  Cd  Cd10  1  0.750000  0.750000  0.000000  1
  Si  Si11  1  0.611889  0.888111  0.500000  1
  Si  Si12  1  0.388111  0.111889  0.500000  1
  Si  Si13  1  0.111889  0.611889  0.723779  1
  Si  Si14  1  0.888111  0.388111  0.276221  1
  Hg  Hg15  1  0.250000  0.250000  0.000000  1
