# generated using pymatgen
data_TbY2Er9Ni4
_symmetry_space_group_name_H-M   'P 1'
_cell_length_a   6.30034154
_cell_length_b   6.77987101
_cell_length_c   9.48829700
_cell_angle_alpha   90.00000000
_cell_angle_beta   90.00000000
_cell_angle_gamma   89.97334506
_symmetry_Int_Tables_number   1
_chemical_formula_structural   TbY2Er9Ni4
_chemical_formula_sum   'Tb1 Y2 Er9 Ni4'
_cell_volume   405.29733484
_cell_formula_units_Z   1
loop_
 _symmetry_equiv_pos_site_id
 _symmetry_equiv_pos_as_xyz
  1  'x, y, z'
loop_
 _atom_site_type_symbol
 _atom_site_label
 _atom_site_symmetry_multiplicity
 _atom_site_fract_x
 _atom_site_fract_y
 _atom_site_fract_z
 _atom_site_occupancy
  Tb  Tb0  1  0.137930  0.468601  0.750000  1
  Y  Y1  1  0.863066  0.530253  0.250000  1
  Y  Y2  1  0.636690  0.030948  0.250000  1
  Er  Er3  1  0.320640  0.678883  0.065671  1
  Er  Er4  1  0.179782  0.177772  0.434685  1
  Er  Er5  1  0.678668  0.321451  0.567177  1
  Er  Er6  1  0.819920  0.821990  0.933312  1
  Er  Er7  1  0.678668  0.321451  0.932823  1
  Er  Er8  1  0.819920  0.821990  0.566688  1
  Er  Er9  1  0.320640  0.678883  0.434329  1
  Er  Er10  1  0.179782  0.177772  0.065315  1
  Er  Er11  1  0.362777  0.967029  0.750000  1
  Ni  Ni12  1  0.058700  0.893169  0.250000  1
  Ni  Ni13  1  0.439345  0.393042  0.250000  1
  Ni  Ni14  1  0.948263  0.106937  0.750000  1
  Ni  Ni15  1  0.555211  0.609829  0.750000  1
