# generated using pymatgen
data_SrTmSiGe3N7
_symmetry_space_group_name_H-M   'P 1'
_cell_length_a   6.24061300
_cell_length_b   6.24061278
_cell_length_c   10.07415400
_cell_angle_alpha   90.00000000
_cell_angle_beta   90.00000000
_cell_angle_gamma   119.99998529
_symmetry_Int_Tables_number   1
_chemical_formula_structural   SrTmSiGe3N7
_chemical_formula_sum   'Sr2 Tm2 Si2 Ge6 N14'
_cell_volume   339.77683675
_cell_formula_units_Z   2
loop_
 _symmetry_equiv_pos_site_id
 _symmetry_equiv_pos_as_xyz
  1  'x, y, z'
loop_
 _atom_site_type_symbol
 _atom_site_label
 _atom_site_symmetry_multiplicity
 _atom_site_fract_x
 _atom_site_fract_y
 _atom_site_fract_z
 _atom_site_occupancy
  Sr  Sr0  1  0.666667  0.333333  0.581325  1
  Sr  Sr1  1  0.333333  0.666667  0.081325  1
  Tm  Tm2  1  0.666667  0.333333  0.952731  1
  Tm  Tm3  1  0.333333  0.666667  0.452731  1
  Si  Si4  1  0.000000  0.000000  0.026670  1
  Si  Si5  1  0.000000  0.000000  0.526670  1
  Ge  Ge6  1  0.171756  0.343510  0.760879  1
  Ge  Ge7  1  0.828244  0.171756  0.260879  1
  Ge  Ge8  1  0.343510  0.171756  0.260879  1
  Ge  Ge9  1  0.656490  0.828244  0.760879  1
  Ge  Ge10  1  0.171756  0.828244  0.760879  1
  Ge  Ge11  1  0.828244  0.656490  0.260879  1
  N  N12  1  0.000000  0.000000  0.841872  1
  N  N13  1  0.000000  0.000000  0.341872  1
  N  N14  1  0.847740  0.695479  0.078624  1
  N  N15  1  0.152260  0.847740  0.578624  1
  N  N16  1  0.695479  0.847740  0.578624  1
  N  N17  1  0.304521  0.152260  0.078624  1
  N  N18  1  0.847740  0.152260  0.078624  1
  N  N19  1  0.152260  0.304521  0.578624  1
  N  N20  1  0.496524  0.503476  0.817238  1
  N  N21  1  0.993050  0.496524  0.317238  1
  N  N22  1  0.503476  0.006950  0.317238  1
  N  N23  1  0.496524  0.993050  0.817238  1
  N  N24  1  0.503476  0.496524  0.317238  1
  N  N25  1  0.006950  0.503476  0.817238  1
