# generated using pymatgen
data_Y12CoTc2Rh
_symmetry_space_group_name_H-M   'P 1'
_cell_length_a   6.37836511
_cell_length_b   7.30860759
_cell_length_c   9.28013200
_cell_angle_alpha   90.00000000
_cell_angle_beta   90.00000000
_cell_angle_gamma   90.21288799
_symmetry_Int_Tables_number   1
_chemical_formula_structural   Y12CoTc2Rh
_chemical_formula_sum   'Y12 Co1 Tc2 Rh1'
_cell_volume   432.60862673
_cell_formula_units_Z   1
loop_
 _symmetry_equiv_pos_site_id
 _symmetry_equiv_pos_as_xyz
  1  'x, y, z'
loop_
 _atom_site_type_symbol
 _atom_site_label
 _atom_site_symmetry_multiplicity
 _atom_site_fract_x
 _atom_site_fract_y
 _atom_site_fract_z
 _atom_site_occupancy
  Y  Y0  1  0.328705  0.677600  0.064924  1
  Y  Y1  1  0.167610  0.178380  0.439204  1
  Y  Y2  1  0.668633  0.325888  0.565416  1
  Y  Y3  1  0.824671  0.819455  0.932010  1
  Y  Y4  1  0.668633  0.325888  0.934584  1
  Y  Y5  1  0.824671  0.819455  0.567990  1
  Y  Y6  1  0.328705  0.677600  0.435076  1
  Y  Y7  1  0.167610  0.178380  0.060796  1
  Y  Y8  1  0.867996  0.539973  0.250000  1
  Y  Y9  1  0.632610  0.042855  0.250000  1
  Y  Y10  1  0.142545  0.460536  0.750000  1
  Y  Y11  1  0.370981  0.952213  0.750000  1
  Co  Co12  1  0.539085  0.616013  0.750000  1
  Tc  Tc13  1  0.460811  0.389339  0.250000  1
  Tc  Tc14  1  0.966194  0.109877  0.750000  1
  Rh  Rh15  1  0.040541  0.886545  0.250000  1
