# generated using pymatgen
data_CeNd3In2Ni3Pd
_symmetry_space_group_name_H-M   'P 1'
_cell_length_a   7.68354395
_cell_length_b   7.68354403
_cell_length_c   3.75506300
_cell_angle_alpha   90.00000000
_cell_angle_beta   90.00000000
_cell_angle_gamma   90.71610416
_symmetry_Int_Tables_number   1
_chemical_formula_structural   CeNd3In2Ni3Pd
_chemical_formula_sum   'Ce1 Nd3 In2 Ni3 Pd1'
_cell_volume   221.66976985
_cell_formula_units_Z   1
loop_
 _symmetry_equiv_pos_site_id
 _symmetry_equiv_pos_as_xyz
  1  'x, y, z'
loop_
 _atom_site_type_symbol
 _atom_site_label
 _atom_site_symmetry_multiplicity
 _atom_site_fract_x
 _atom_site_fract_y
 _atom_site_fract_z
 _atom_site_occupancy
  Ce  Ce0  1  0.676052  0.176052  0.500000  1
  Nd  Nd1  1  0.333015  0.833015  0.500000  1
  Nd  Nd2  1  0.816713  0.676534  0.500000  1
  Nd  Nd3  1  0.176534  0.316713  0.500000  1
  In  In4  1  0.995989  0.001635  0.000000  1
  In  In5  1  0.501635  0.495989  0.000000  1
  Ni  Ni6  1  0.397813  0.128317  0.000000  1
  Ni  Ni7  1  0.858357  0.358357  0.000000  1
  Ni  Ni8  1  0.628317  0.897813  0.000000  1
  Pd  Pd9  1  0.115576  0.615576  0.000000  1
