# generated using pymatgen
data_Ca4Ho3LuCd8
_symmetry_space_group_name_H-M   'P 1'
_cell_length_a   7.52566800
_cell_length_b   7.50887600
_cell_length_c   7.42940600
_cell_angle_alpha   90.00000000
_cell_angle_beta   90.00204800
_cell_angle_gamma   90.00000000
_symmetry_Int_Tables_number   1
_chemical_formula_structural   Ca4Ho3LuCd8
_chemical_formula_sum   'Ca4 Ho3 Lu1 Cd8'
_cell_volume   419.83059064
_cell_formula_units_Z   1
loop_
 _symmetry_equiv_pos_site_id
 _symmetry_equiv_pos_as_xyz
  1  'x, y, z'
loop_
 _atom_site_type_symbol
 _atom_site_label
 _atom_site_symmetry_multiplicity
 _atom_site_fract_x
 _atom_site_fract_y
 _atom_site_fract_z
 _atom_site_occupancy
  Ca  Ca0  1  0.749850  0.250000  0.000191  1
  Ca  Ca1  1  0.249873  0.750000  0.499861  1
  Ca  Ca2  1  0.750021  0.250000  0.500092  1
  Ca  Ca3  1  0.250138  0.750000  0.999850  1
  Ho  Ho4  1  0.250588  0.250000  0.999999  1
  Ho  Ho5  1  0.749356  0.750000  0.000003  1
  Ho  Ho6  1  0.750641  0.750000  0.500006  1
  Lu  Lu7  1  0.249485  0.250000  0.499992  1
  Cd  Cd8  1  0.000499  0.499690  0.249150  1
  Cd  Cd9  1  0.000499  0.000312  0.249150  1
  Cd  Cd10  1  0.499731  0.000417  0.251484  1
  Cd  Cd11  1  0.499731  0.499583  0.251484  1
  Cd  Cd12  1  0.499533  0.499732  0.748524  1
  Cd  Cd13  1  0.499533  0.000270  0.748524  1
  Cd  Cd14  1  0.000260  0.000447  0.750846  1
  Cd  Cd15  1  0.000260  0.499553  0.750846  1
