# generated using pymatgen
data_Zr6Zn17Cu5AgGe
_symmetry_space_group_name_H-M   'P 1'
_cell_length_a   8.74734475
_cell_length_b   8.70455922
_cell_length_c   8.74734465
_cell_angle_alpha   60.16167680
_cell_angle_beta   59.89762984
_cell_angle_gamma   60.16166967
_symmetry_Int_Tables_number   1
_chemical_formula_structural   Zr6Zn17Cu5AgGe
_chemical_formula_sum   'Zr6 Zn17 Cu5 Ag1 Ge1'
_cell_volume   471.73976469
_cell_formula_units_Z   1
loop_
 _symmetry_equiv_pos_site_id
 _symmetry_equiv_pos_as_xyz
  1  'x, y, z'
loop_
 _atom_site_type_symbol
 _atom_site_label
 _atom_site_symmetry_multiplicity
 _atom_site_fract_x
 _atom_site_fract_y
 _atom_site_fract_z
 _atom_site_occupancy
  Zr  Zr0  1  0.714389  0.284876  0.285611  1
  Zr  Zr1  1  0.285611  0.715124  0.714389  1
  Zr  Zr2  1  0.287341  0.712659  0.287341  1
  Zr  Zr3  1  0.712659  0.287341  0.712659  1
  Zr  Zr4  1  0.285611  0.284876  0.714389  1
  Zr  Zr5  1  0.714389  0.715124  0.285611  1
  Zn  Zn6  1  0.126143  0.126292  0.126143  1
  Zn  Zn7  1  0.873857  0.873708  0.873857  1
  Zn  Zn8  1  0.118894  0.129824  0.621459  1
  Zn  Zn9  1  0.126143  0.621424  0.126143  1
  Zn  Zn10  1  0.881106  0.870176  0.378541  1
  Zn  Zn11  1  0.873857  0.378576  0.873857  1
  Zn  Zn12  1  0.621459  0.129824  0.118894  1
  Zn  Zn13  1  0.378541  0.870176  0.881106  1
  Zn  Zn14  1  0.500000  0.000000  0.500000  1
  Zn  Zn15  1  0.335059  0.341503  0.335059  1
  Zn  Zn16  1  0.664941  0.658497  0.664941  1
  Zn  Zn17  1  0.336469  0.338192  0.987146  1
  Zn  Zn18  1  0.335059  0.988378  0.335059  1
  Zn  Zn19  1  0.663531  0.661808  0.012854  1
  Zn  Zn20  1  0.664941  0.011622  0.664941  1
  Zn  Zn21  1  0.987146  0.338192  0.336469  1
  Zn  Zn22  1  0.012854  0.661808  0.663531  1
  Cu  Cu23  1  0.500000  0.000000  0.000000  1
  Cu  Cu24  1  0.000000  0.500000  0.500000  1
  Cu  Cu25  1  0.000000  0.500000  0.000000  1
  Cu  Cu26  1  0.000000  0.000000  0.500000  1
  Cu  Cu27  1  0.500000  0.500000  0.000000  1
  Ag  Ag28  1  0.000000  0.000000  0.000000  1
  Ge  Ge29  1  0.500000  0.500000  0.500000  1
