# generated using pymatgen
data_Ca10ZrMoN10
_symmetry_space_group_name_H-M   'P 1'
_cell_length_a   7.00845457
_cell_length_b   7.00845328
_cell_length_c   8.89475746
_cell_angle_alpha   80.74176620
_cell_angle_beta   80.74176717
_cell_angle_gamma   59.95533158
_symmetry_Int_Tables_number   1
_chemical_formula_structural   Ca10ZrMoN10
_chemical_formula_sum   'Ca10 Zr1 Mo1 N10'
_cell_volume   371.61268155
_cell_formula_units_Z   1
loop_
 _symmetry_equiv_pos_site_id
 _symmetry_equiv_pos_as_xyz
  1  'x, y, z'
loop_
 _atom_site_type_symbol
 _atom_site_label
 _atom_site_symmetry_multiplicity
 _atom_site_fract_x
 _atom_site_fract_y
 _atom_site_fract_z
 _atom_site_occupancy
  Ca  Ca0  1  0.874006  0.359386  0.832251  1
  Ca  Ca1  1  0.872678  0.872678  0.819760  1
  Ca  Ca2  1  0.734868  0.734868  0.533994  1
  Ca  Ca3  1  0.747133  0.258039  0.510414  1
  Ca  Ca4  1  0.621204  0.141011  0.148424  1
  Ca  Ca5  1  0.359386  0.874006  0.832251  1
  Ca  Ca6  1  0.258039  0.747133  0.510414  1
  Ca  Ca7  1  0.239542  0.239542  0.496834  1
  Ca  Ca8  1  0.143868  0.143868  0.160514  1
  Ca  Ca9  1  0.141011  0.621204  0.148424  1
  Zr  Zr10  1  0.369545  0.369545  0.775823  1
  Mo  Mo11  1  0.633170  0.633170  0.225314  1
  N  N12  1  0.907821  0.471896  0.318860  1
  N  N13  1  0.993615  0.993615  0.027515  1
  N  N14  1  0.678208  0.678208  0.014412  1
  N  N15  1  0.544911  0.544911  0.687442  1
  N  N16  1  0.471896  0.907821  0.318860  1
  N  N17  1  0.546957  0.073865  0.667363  1
  N  N18  1  0.474102  0.474102  0.296777  1
  N  N19  1  0.317281  0.317281  0.008268  1
  N  N20  1  0.059183  0.059183  0.644525  1
  N  N21  1  0.073865  0.546957  0.667363  1
