# generated using pymatgen
data_ErTmTh3Ge3C
_symmetry_space_group_name_H-M   'P 1'
_cell_length_a   8.78726600
_cell_length_b   8.78726363
_cell_length_c   6.37791900
_cell_angle_alpha   90.00000000
_cell_angle_beta   90.00000000
_cell_angle_gamma   119.99999388
_symmetry_Int_Tables_number   1
_chemical_formula_structural   ErTmTh3Ge3C
_chemical_formula_sum   'Er2 Tm2 Th6 Ge6 C2'
_cell_volume   426.49808636
_cell_formula_units_Z   2
loop_
 _symmetry_equiv_pos_site_id
 _symmetry_equiv_pos_as_xyz
  1  'x, y, z'
loop_
 _atom_site_type_symbol
 _atom_site_label
 _atom_site_symmetry_multiplicity
 _atom_site_fract_x
 _atom_site_fract_y
 _atom_site_fract_z
 _atom_site_occupancy
  Er  Er0  1  0.666667  0.333333  0.000000  1
  Er  Er1  1  0.333333  0.666667  0.000000  1
  Tm  Tm2  1  0.333333  0.666667  0.500000  1
  Tm  Tm3  1  0.666667  0.333333  0.500000  1
  Th  Th4  1  0.768018  0.768018  0.749846  1
  Th  Th5  1  0.231982  0.000000  0.749846  1
  Th  Th6  1  0.000000  0.231982  0.749846  1
  Th  Th7  1  0.231982  0.231982  0.250154  1
  Th  Th8  1  0.768018  0.000000  0.250154  1
  Th  Th9  1  0.000000  0.768018  0.250154  1
  Ge  Ge10  1  0.403504  0.403504  0.749647  1
  Ge  Ge11  1  0.596496  0.000000  0.749647  1
  Ge  Ge12  1  0.000000  0.596496  0.749647  1
  Ge  Ge13  1  0.596496  0.596496  0.250353  1
  Ge  Ge14  1  0.403504  0.000000  0.250353  1
  Ge  Ge15  1  0.000000  0.403504  0.250353  1
  C  C16  1  0.000000  0.000000  0.000000  1
  C  C17  1  0.000000  0.000000  0.500000  1
