# generated using pymatgen
data_DyEr3Co4(SnH)4
_symmetry_space_group_name_H-M   'P 1'
_cell_length_a   4.24323100
_cell_length_b   7.06880602
_cell_length_c   8.13824102
_cell_angle_alpha   90.00766700
_cell_angle_beta   90.00000000
_cell_angle_gamma   90.00000000
_symmetry_Int_Tables_number   1
_chemical_formula_structural   DyEr3Co4(SnH)4
_chemical_formula_sum   'Dy1 Er3 Co4 Sn4 H4'
_cell_volume   244.10309321
_cell_formula_units_Z   1
loop_
 _symmetry_equiv_pos_site_id
 _symmetry_equiv_pos_as_xyz
  1  'x, y, z'
loop_
 _atom_site_type_symbol
 _atom_site_label
 _atom_site_symmetry_multiplicity
 _atom_site_fract_x
 _atom_site_fract_y
 _atom_site_fract_z
 _atom_site_occupancy
  Dy  Dy0  1  0.750000  0.014128  0.686317  1
  Er  Er1  1  0.250000  0.985495  0.314721  1
  Er  Er2  1  0.250000  0.485262  0.184829  1
  Er  Er3  1  0.750000  0.514748  0.815232  1
  Co  Co4  1  0.750000  0.772135  0.104945  1
  Co  Co5  1  0.250000  0.228388  0.895939  1
  Co  Co6  1  0.250000  0.726693  0.604584  1
  Co  Co7  1  0.750000  0.272714  0.394160  1
  Sn  Sn8  1  0.750000  0.654096  0.426311  1
  Sn  Sn9  1  0.250000  0.346412  0.572997  1
  Sn  Sn10  1  0.250000  0.845361  0.928127  1
  Sn  Sn11  1  0.750000  0.154540  0.073817  1
  H  H12  1  0.250000  0.449693  0.920162  1
  H  H13  1  0.750000  0.550939  0.080013  1
  H  H14  1  0.750000  0.051378  0.418628  1
  H  H15  1  0.250000  0.948017  0.579220  1
