# generated using pymatgen
data_Lu12BeSi11Ir4
_symmetry_space_group_name_H-M   'P 1'
_cell_length_a   4.15690500
_cell_length_b   10.47997504
_cell_length_c   11.99226739
_cell_angle_alpha   89.92812924
_cell_angle_beta   90.00000000
_cell_angle_gamma   90.00000000
_symmetry_Int_Tables_number   1
_chemical_formula_structural   Lu12BeSi11Ir4
_chemical_formula_sum   'Lu12 Be1 Si11 Ir4'
_cell_volume   522.43385097
_cell_formula_units_Z   1
loop_
 _symmetry_equiv_pos_site_id
 _symmetry_equiv_pos_as_xyz
  1  'x, y, z'
loop_
 _atom_site_type_symbol
 _atom_site_label
 _atom_site_symmetry_multiplicity
 _atom_site_fract_x
 _atom_site_fract_y
 _atom_site_fract_z
 _atom_site_occupancy
  Lu  Lu0  1  0.250000  0.881307  0.014602  1
  Lu  Lu1  1  0.250000  0.621130  0.519748  1
  Lu  Lu2  1  0.750000  0.118690  0.975961  1
  Lu  Lu3  1  0.750000  0.377666  0.481575  1
  Lu  Lu4  1  0.250000  0.920188  0.605849  1
  Lu  Lu5  1  0.250000  0.581089  0.103521  1
  Lu  Lu6  1  0.750000  0.080254  0.396129  1
  Lu  Lu7  1  0.750000  0.419760  0.896480  1
  Lu  Lu8  1  0.250000  0.659318  0.800400  1
  Lu  Lu9  1  0.250000  0.842183  0.300515  1
  Lu  Lu10  1  0.750000  0.340058  0.199148  1
  Lu  Lu11  1  0.750000  0.155697  0.704231  1
  Be  Be12  1  0.250000  0.013376  0.820694  1
  Si  Si13  1  0.250000  0.486909  0.322342  1
  Si  Si14  1  0.750000  0.987675  0.176803  1
  Si  Si15  1  0.750000  0.513794  0.679190  1
  Si  Si16  1  0.250000  0.245217  0.840661  1
  Si  Si17  1  0.250000  0.251347  0.341629  1
  Si  Si18  1  0.750000  0.752737  0.158172  1
  Si  Si19  1  0.750000  0.748817  0.659574  1
  Si  Si20  1  0.250000  0.195224  0.547644  1
  Si  Si21  1  0.250000  0.301744  0.043111  1
  Si  Si22  1  0.750000  0.802465  0.456571  1
  Si  Si23  1  0.750000  0.696865  0.956469  1
  Ir  Ir24  1  0.250000  0.392027  0.679618  1
  Ir  Ir25  1  0.250000  0.110497  0.177140  1
  Ir  Ir26  1  0.750000  0.609523  0.320964  1
  Ir  Ir27  1  0.750000  0.894444  0.821259  1
