# generated using pymatgen
data_Yb10Ga2Cu3Pd
_symmetry_space_group_name_H-M   'P 1'
_cell_length_a   8.86171124
_cell_length_b   8.86171185
_cell_length_c   8.86827163
_cell_angle_alpha   128.68989819
_cell_angle_beta   128.68983575
_cell_angle_gamma   75.45532227
_symmetry_Int_Tables_number   1
_chemical_formula_structural   Yb10Ga2Cu3Pd
_chemical_formula_sum   'Yb10 Ga2 Cu3 Pd1'
_cell_volume   413.00073194
_cell_formula_units_Z   1
loop_
 _symmetry_equiv_pos_site_id
 _symmetry_equiv_pos_as_xyz
  1  'x, y, z'
loop_
 _atom_site_type_symbol
 _atom_site_label
 _atom_site_symmetry_multiplicity
 _atom_site_fract_x
 _atom_site_fract_y
 _atom_site_fract_z
 _atom_site_occupancy
  Yb  Yb0  1  0.498848  0.500186  0.999033  1
  Yb  Yb1  1  0.000185  0.998848  0.999032  1
  Yb  Yb2  1  0.529357  0.029356  0.838747  1
  Yb  Yb3  1  0.188876  0.688876  0.157772  1
  Yb  Yb4  1  0.030563  0.192412  0.502335  1
  Yb  Yb5  1  0.692412  0.530563  0.502334  1
  Yb  Yb6  1  0.468897  0.968897  0.157772  1
  Yb  Yb7  1  0.809390  0.309389  0.838747  1
  Yb  Yb8  1  0.971771  0.809922  0.502334  1
  Yb  Yb9  1  0.309922  0.471771  0.502335  1
  Ga  Ga10  1  0.250121  0.250121  0.000243  1
  Ga  Ga11  1  0.750121  0.750121  0.000243  1
  Cu  Cu12  1  0.877468  0.377467  0.254934  1
  Cu  Cu13  1  0.617180  0.882895  0.500074  1
  Cu  Cu14  1  0.382893  0.117181  0.500074  1
  Pd  Pd15  1  0.121996  0.621995  0.743991  1
