# generated using pymatgen
data_DyEr15(In3Co)2
_symmetry_space_group_name_H-M   'P 1'
_cell_length_a   10.29361600
_cell_length_b   10.29449458
_cell_length_c   6.93348401
_cell_angle_alpha   89.99401575
_cell_angle_beta   90.00000000
_cell_angle_gamma   119.99717042
_symmetry_Int_Tables_number   1
_chemical_formula_structural   DyEr15(In3Co)2
_chemical_formula_sum   'Dy1 Er15 In6 Co2'
_cell_volume   636.30820247
_cell_formula_units_Z   1
loop_
 _symmetry_equiv_pos_site_id
 _symmetry_equiv_pos_as_xyz
  1  'x, y, z'
loop_
 _atom_site_type_symbol
 _atom_site_label
 _atom_site_symmetry_multiplicity
 _atom_site_fract_x
 _atom_site_fract_y
 _atom_site_fract_z
 _atom_site_occupancy
  Dy  Dy0  1  0.534236  0.068471  0.791257  1
  Er  Er1  1  0.931363  0.465732  0.791639  1
  Er  Er2  1  0.534369  0.465732  0.791639  1
  Er  Er3  1  0.465530  0.931060  0.291544  1
  Er  Er4  1  0.068744  0.534364  0.291611  1
  Er  Er5  1  0.465620  0.534364  0.291611  1
  Er  Er6  1  0.821691  0.643381  0.500050  1
  Er  Er7  1  0.356401  0.178346  0.499827  1
  Er  Er8  1  0.821946  0.178346  0.499827  1
  Er  Er9  1  0.178289  0.356578  0.000122  1
  Er  Er10  1  0.643582  0.821556  0.000267  1
  Er  Er11  1  0.177974  0.821556  0.000267  1
  Er  Er12  1  0.666789  0.333576  0.182094  1
  Er  Er13  1  0.333212  0.666424  0.681911  1
  Er  Er14  1  0.999997  0.999993  0.779287  1
  Er  Er15  1  0.000031  0.000061  0.279392  1
  In  In16  1  0.836961  0.673924  0.037518  1
  In  In17  1  0.325873  0.163078  0.037706  1
  In  In18  1  0.837204  0.163078  0.037706  1
  In  In19  1  0.163025  0.326050  0.537555  1
  In  In20  1  0.673954  0.836965  0.537453  1
  In  In21  1  0.163012  0.836965  0.537453  1
  Co  Co22  1  0.666875  0.333748  0.569004  1
  Co  Co23  1  0.333325  0.666651  0.069166  1
