# generated using pymatgen
data_La7Ce(WC2)4
_symmetry_space_group_name_H-M   'P 1'
_cell_length_a   5.80042854
_cell_length_b   5.80042783
_cell_length_c   10.66019214
_cell_angle_alpha   89.61615512
_cell_angle_beta   90.38384968
_cell_angle_gamma   89.78280997
_symmetry_Int_Tables_number   1
_chemical_formula_structural   La7Ce(WC2)4
_chemical_formula_sum   'La7 Ce1 W4 C8'
_cell_volume   358.64307811
_cell_formula_units_Z   1
loop_
 _symmetry_equiv_pos_site_id
 _symmetry_equiv_pos_as_xyz
  1  'x, y, z'
loop_
 _atom_site_type_symbol
 _atom_site_label
 _atom_site_symmetry_multiplicity
 _atom_site_fract_x
 _atom_site_fract_y
 _atom_site_fract_z
 _atom_site_occupancy
  La  La0  1  0.189522  0.194196  0.341650  1
  La  La1  1  0.806169  0.808692  0.656329  1
  La  La2  1  0.307286  0.692714  0.843123  1
  La  La3  1  0.805804  0.810478  0.341650  1
  La  La4  1  0.191308  0.193831  0.656329  1
  La  La5  1  0.693063  0.306937  0.158232  1
  La  La6  1  0.692036  0.307964  0.845534  1
  Ce  Ce7  1  0.312106  0.687894  0.152912  1
  W  W8  1  0.180186  0.175451  0.002257  1
  W  W9  1  0.824549  0.819814  0.002257  1
  W  W10  1  0.319329  0.680671  0.497733  1
  W  W11  1  0.674191  0.325809  0.498089  1
  C  C12  1  0.009556  0.990444  0.140437  1
  C  C13  1  0.494746  0.505254  0.357063  1
  C  C14  1  0.498435  0.501565  0.637813  1
  C  C15  1  0.501044  0.994795  0.003896  1
  C  C16  1  0.005205  0.498956  0.003896  1
  C  C17  1  0.999712  0.000288  0.862166  1
  C  C18  1  0.498567  0.002814  0.499317  1
  C  C19  1  0.997186  0.501433  0.499317  1
