# generated using pymatgen
data_Er7TmTc(B8Os)3
_symmetry_space_group_name_H-M   'P 1'
_cell_length_a   3.63649000
_cell_length_b   9.09625406
_cell_length_c   11.47505202
_cell_angle_alpha   89.95647590
_cell_angle_beta   90.00000000
_cell_angle_gamma   90.00000000
_symmetry_Int_Tables_number   1
_chemical_formula_structural   Er7TmTc(B8Os)3
_chemical_formula_sum   'Er7 Tm1 Tc1 B24 Os3'
_cell_volume   379.57667495
_cell_formula_units_Z   1
loop_
 _symmetry_equiv_pos_site_id
 _symmetry_equiv_pos_as_xyz
  1  'x, y, z'
loop_
 _atom_site_type_symbol
 _atom_site_label
 _atom_site_symmetry_multiplicity
 _atom_site_fract_x
 _atom_site_fract_y
 _atom_site_fract_z
 _atom_site_occupancy
  Er  Er0  1  0.000000  0.323765  0.413034  1
  Er  Er1  1  0.000000  0.677352  0.583658  1
  Er  Er2  1  0.000000  0.819969  0.088119  1
  Er  Er3  1  0.000000  0.177999  0.914769  1
  Er  Er4  1  0.000000  0.942770  0.372641  1
  Er  Er5  1  0.000000  0.056832  0.627460  1
  Er  Er6  1  0.000000  0.444615  0.127963  1
  Tm  Tm7  1  0.000000  0.556615  0.872281  1
  Tc  Tc8  1  0.000000  0.637471  0.321301  1
  B  B9  1  0.500000  0.552823  0.433322  1
  B  B10  1  0.500000  0.446627  0.567058  1
  B  B11  1  0.500000  0.053503  0.066803  1
  B  B12  1  0.500000  0.946406  0.933374  1
  B  B13  1  0.500000  0.748332  0.419723  1
  B  B14  1  0.500000  0.251831  0.580181  1
  B  B15  1  0.500000  0.248601  0.080111  1
  B  B16  1  0.500000  0.751241  0.919833  1
  B  B17  1  0.500000  0.791655  0.266048  1
  B  B18  1  0.500000  0.208781  0.733905  1
  B  B19  1  0.500000  0.291270  0.233361  1
  B  B20  1  0.500000  0.708809  0.766160  1
  B  B21  1  0.500000  0.631472  0.185470  1
  B  B22  1  0.500000  0.368609  0.815030  1
  B  B23  1  0.500000  0.131422  0.314327  1
  B  B24  1  0.500000  0.868743  0.685272  1
  B  B25  1  0.500000  0.982434  0.212736  1
  B  B26  1  0.500000  0.017483  0.787565  1
  B  B27  1  0.500000  0.481956  0.287280  1
  B  B28  1  0.500000  0.517432  0.713009  1
  B  B29  1  0.500000  0.606496  0.028848  1
  B  B30  1  0.500000  0.393565  0.970091  1
  B  B31  1  0.500000  0.107089  0.470440  1
  B  B32  1  0.500000  0.893911  0.529891  1
  Os  Os33  1  0.000000  0.362409  0.679462  1
  Os  Os34  1  0.000000  0.137414  0.177950  1
  Os  Os35  1  0.000000  0.862296  0.821526  1
