# generated using pymatgen
data_Sr6NbTcO12
_symmetry_space_group_name_H-M   'P 1'
_cell_length_a   6.15951400
_cell_length_b   5.90029726
_cell_length_c   10.33614742
_cell_angle_alpha   54.90580119
_cell_angle_beta   89.78162879
_cell_angle_gamma   89.83670960
_symmetry_Int_Tables_number   1
_chemical_formula_structural   Sr6NbTcO12
_chemical_formula_sum   'Sr6 Nb1 Tc1 O12'
_cell_volume   307.35439255
_cell_formula_units_Z   1
loop_
 _symmetry_equiv_pos_site_id
 _symmetry_equiv_pos_as_xyz
  1  'x, y, z'
loop_
 _atom_site_type_symbol
 _atom_site_label
 _atom_site_symmetry_multiplicity
 _atom_site_fract_x
 _atom_site_fract_y
 _atom_site_fract_z
 _atom_site_occupancy
  Sr  Sr0  1  0.500000  0.500000  0.500000  1
  Sr  Sr1  1  0.949969  0.722688  0.264582  1
  Sr  Sr2  1  0.443660  0.263174  0.255626  1
  Sr  Sr3  1  0.000000  0.500000  0.000000  1
  Sr  Sr4  1  0.556340  0.736826  0.744374  1
  Sr  Sr5  1  0.050031  0.277312  0.735418  1
  Nb  Nb6  1  0.000000  0.000000  0.500000  1
  Tc  Tc7  1  0.500000  0.000000  0.000000  1
  O  O8  1  0.457538  0.111355  0.788218  1
  O  O9  1  0.241520  0.775544  0.062802  1
  O  O10  1  0.182762  0.325406  0.449549  1
  O  O11  1  0.668661  0.690761  0.044975  1
  O  O12  1  0.730332  0.246611  0.428225  1
  O  O13  1  0.945631  0.887294  0.724996  1
  O  O14  1  0.054369  0.112706  0.275004  1
  O  O15  1  0.269668  0.753389  0.571775  1
  O  O16  1  0.331339  0.309239  0.955025  1
  O  O17  1  0.817238  0.674594  0.550451  1
  O  O18  1  0.758480  0.224456  0.937198  1
  O  O19  1  0.542462  0.888645  0.211782  1
