# generated using pymatgen
data_Cs3Rb(Sb4S7)2
_symmetry_space_group_name_H-M   'P 1'
_cell_length_a   7.95544782
_cell_length_b   9.87410514
_cell_length_c   12.14519774
_cell_angle_alpha   100.14123458
_cell_angle_beta   89.10345945
_cell_angle_gamma   103.40277443
_symmetry_Int_Tables_number   1
_chemical_formula_structural   Cs3Rb(Sb4S7)2
_chemical_formula_sum   'Cs3 Rb1 Sb8 S14'
_cell_volume   913.24235237
_cell_formula_units_Z   1
loop_
 _symmetry_equiv_pos_site_id
 _symmetry_equiv_pos_as_xyz
  1  'x, y, z'
loop_
 _atom_site_type_symbol
 _atom_site_label
 _atom_site_symmetry_multiplicity
 _atom_site_fract_x
 _atom_site_fract_y
 _atom_site_fract_z
 _atom_site_occupancy
  Cs  Cs0  1  0.252007  0.328427  0.108243  1
  Cs  Cs1  1  0.410378  0.728957  0.560687  1
  Cs  Cs2  1  0.585455  0.271676  0.446104  1
  Rb  Rb3  1  0.738443  0.668660  0.896449  1
  Sb  Sb4  1  0.024776  0.947956  0.345709  1
  Sb  Sb5  1  0.166435  0.430513  0.812043  1
  Sb  Sb6  1  0.719119  0.141157  0.052998  1
  Sb  Sb7  1  0.492461  0.186635  0.776305  1
  Sb  Sb8  1  0.283664  0.859897  0.946290  1
  Sb  Sb9  1  0.977592  0.051291  0.650831  1
  Sb  Sb10  1  0.830363  0.568621  0.188256  1
  Sb  Sb11  1  0.511730  0.816251  0.222393  1
  S  S12  1  0.807334  0.875841  0.155838  1
  S  S13  1  0.639153  0.327036  0.956544  1
  S  S14  1  0.446610  0.427118  0.722191  1
  S  S15  1  0.223554  0.019548  0.535119  1
  S  S16  1  0.032978  0.696505  0.347529  1
  S  S17  1  0.366673  0.674734  0.041233  1
  S  S18  1  0.450510  0.062502  0.147713  1
  S  S19  1  0.971711  0.303274  0.648862  1
  S  S20  1  0.553021  0.934529  0.850038  1
  S  S21  1  0.854230  0.333367  0.226411  1
  S  S22  1  0.130171  0.664633  0.778760  1
  S  S23  1  0.778810  0.979347  0.461425  1
  S  S24  1  0.557207  0.579899  0.282937  1
  S  S25  1  0.195615  0.121626  0.839090  1
