# generated using pymatgen
data_Lu9Th3Co4
_symmetry_space_group_name_H-M   'P 1'
_cell_length_a   6.19808359
_cell_length_b   6.86756100
_cell_length_c   9.39779600
_cell_angle_alpha   90.00000000
_cell_angle_beta   90.00000000
_cell_angle_gamma   91.05805187
_symmetry_Int_Tables_number   1
_chemical_formula_structural   Lu9Th3Co4
_chemical_formula_sum   'Lu9 Th3 Co4'
_cell_volume   399.95572218
_cell_formula_units_Z   1
loop_
 _symmetry_equiv_pos_site_id
 _symmetry_equiv_pos_as_xyz
  1  'x, y, z'
loop_
 _atom_site_type_symbol
 _atom_site_label
 _atom_site_symmetry_multiplicity
 _atom_site_fract_x
 _atom_site_fract_y
 _atom_site_fract_z
 _atom_site_occupancy
  Lu  Lu0  1  0.329683  0.674799  0.067502  1
  Lu  Lu1  1  0.169833  0.170998  0.431908  1
  Lu  Lu2  1  0.673077  0.326964  0.569984  1
  Lu  Lu3  1  0.824452  0.827350  0.927748  1
  Lu  Lu4  1  0.673077  0.326964  0.930016  1
  Lu  Lu5  1  0.824452  0.827350  0.572252  1
  Lu  Lu6  1  0.329683  0.674799  0.432498  1
  Lu  Lu7  1  0.169833  0.170998  0.068092  1
  Lu  Lu8  1  0.357769  0.958044  0.750000  1
  Th  Th9  1  0.847589  0.548476  0.250000  1
  Th  Th10  1  0.651943  0.052560  0.250000  1
  Th  Th11  1  0.154272  0.451500  0.750000  1
  Co  Co12  1  0.039543  0.871636  0.250000  1
  Co  Co13  1  0.458510  0.373431  0.250000  1
  Co  Co14  1  0.959375  0.130263  0.750000  1
  Co  Co15  1  0.536912  0.613868  0.750000  1
