# generated using pymatgen
data_Dy4Er8InCo4Os
_symmetry_space_group_name_H-M   'P 1'
_cell_length_a   8.23259285
_cell_length_b   8.23259228
_cell_length_c   8.23259345
_cell_angle_alpha   111.44687260
_cell_angle_beta   110.60414818
_cell_angle_gamma   106.40661840
_symmetry_Int_Tables_number   1
_chemical_formula_structural   Dy4Er8InCo4Os
_chemical_formula_sum   'Dy4 Er8 In1 Co4 Os1'
_cell_volume   428.58466564
_cell_formula_units_Z   1
loop_
 _symmetry_equiv_pos_site_id
 _symmetry_equiv_pos_as_xyz
  1  'x, y, z'
loop_
 _atom_site_type_symbol
 _atom_site_label
 _atom_site_symmetry_multiplicity
 _atom_site_fract_x
 _atom_site_fract_y
 _atom_site_fract_z
 _atom_site_occupancy
  Dy  Dy0  1  0.182702  0.279683  0.462386  1
  Dy  Dy1  1  0.817298  0.720317  0.537614  1
  Dy  Dy2  1  0.182702  0.720317  0.903018  1
  Dy  Dy3  1  0.817298  0.279683  0.096982  1
  Er  Er4  1  0.314429  0.620160  0.305731  1
  Er  Er5  1  0.685571  0.379840  0.694269  1
  Er  Er6  1  0.314429  0.008700  0.694269  1
  Er  Er7  1  0.685571  0.991300  0.305731  1
  Er  Er8  1  0.415865  0.221107  0.194759  1
  Er  Er9  1  0.584135  0.778893  0.805241  1
  Er  Er10  1  0.026348  0.221107  0.805241  1
  Er  Er11  1  0.973652  0.778893  0.194759  1
  In  In12  1  0.500000  0.500000  0.000000  1
  Co  Co13  1  0.111840  0.611840  0.500000  1
  Co  Co14  1  0.888160  0.388160  0.500000  1
  Co  Co15  1  0.376911  0.000000  0.376911  1
  Co  Co16  1  0.623089  0.000000  0.623089  1
  Os  Os17  1  0.000000  0.000000  0.000000  1
