# generated using pymatgen
data_Sm2Y18Si13Pt3
_symmetry_space_group_name_H-M   'P 1'
_cell_length_a   7.38718618
_cell_length_b   7.90506520
_cell_length_c   14.70086800
_cell_angle_alpha   89.74363798
_cell_angle_beta   89.98752043
_cell_angle_gamma   89.92891391
_symmetry_Int_Tables_number   1
_chemical_formula_structural   Sm2Y18Si13Pt3
_chemical_formula_sum   'Sm2 Y18 Si13 Pt3'
_cell_volume   858.46538386
_cell_formula_units_Z   1
loop_
 _symmetry_equiv_pos_site_id
 _symmetry_equiv_pos_as_xyz
  1  'x, y, z'
loop_
 _atom_site_type_symbol
 _atom_site_label
 _atom_site_symmetry_multiplicity
 _atom_site_fract_x
 _atom_site_fract_y
 _atom_site_fract_z
 _atom_site_occupancy
  Sm  Sm0  1  0.518436  0.568507  0.339117  1
  Sm  Sm1  1  0.021316  0.432377  0.658690  1
  Y  Y2  1  0.811924  0.578995  0.876334  1
  Y  Y3  1  0.310288  0.421912  0.123527  1
  Y  Y4  1  0.186055  0.926881  0.374229  1
  Y  Y5  1  0.680730  0.070607  0.626167  1
  Y  Y6  1  0.186218  0.926721  0.626314  1
  Y  Y7  1  0.680087  0.069754  0.373196  1
  Y  Y8  1  0.814717  0.576435  0.124612  1
  Y  Y9  1  0.313261  0.424376  0.875492  1
  Y  Y10  1  0.657764  0.236165  0.999584  1
  Y  Y11  1  0.160969  0.766750  0.000379  1
  Y  Y12  1  0.353900  0.270825  0.499690  1
  Y  Y13  1  0.838627  0.734827  0.500250  1
  Y  Y14  1  0.480746  0.934022  0.844076  1
  Y  Y15  1  0.978331  0.065573  0.154274  1
  Y  Y16  1  0.480047  0.934528  0.155369  1
  Y  Y17  1  0.977447  0.065077  0.845808  1
  Y  Y18  1  0.521064  0.566649  0.658575  1
  Y  Y19  1  0.023850  0.435189  0.343920  1
  Si  Si20  1  0.978721  0.149224  0.499300  1
  Si  Si21  1  0.652031  0.278678  0.788665  1
  Si  Si22  1  0.151545  0.723258  0.211062  1
  Si  Si23  1  0.350585  0.221460  0.289596  1
  Si  Si24  1  0.850800  0.779853  0.710406  1
  Si  Si25  1  0.354494  0.223204  0.710103  1
  Si  Si26  1  0.855362  0.778408  0.290020  1
  Si  Si27  1  0.649638  0.275836  0.210009  1
  Si  Si28  1  0.149067  0.725862  0.790408  1
  Si  Si29  1  0.766125  0.881402  0.000646  1
  Si  Si30  1  0.268063  0.120748  0.999303  1
  Si  Si31  1  0.226979  0.619643  0.500799  1
  Si  Si32  1  0.739053  0.371398  0.498644  1
  Pt  Pt33  1  0.518512  0.655012  0.000616  1
  Pt  Pt34  1  0.015676  0.343919  0.999372  1
  Pt  Pt35  1  0.477573  0.845924  0.501449  1
