# generated using pymatgen
data_SrNb8(PbO8)3
_symmetry_space_group_name_H-M   'P 1'
_cell_length_a   5.69692707
_cell_length_b   7.87130892
_cell_length_c   11.23415814
_cell_angle_alpha   89.69286970
_cell_angle_beta   90.01777017
_cell_angle_gamma   89.99823897
_symmetry_Int_Tables_number   1
_chemical_formula_structural   SrNb8(PbO8)3
_chemical_formula_sum   'Sr1 Nb8 Pb3 O24'
_cell_volume   503.75792264
_cell_formula_units_Z   1
loop_
 _symmetry_equiv_pos_site_id
 _symmetry_equiv_pos_as_xyz
  1  'x, y, z'
loop_
 _atom_site_type_symbol
 _atom_site_label
 _atom_site_symmetry_multiplicity
 _atom_site_fract_x
 _atom_site_fract_y
 _atom_site_fract_z
 _atom_site_occupancy
  Sr  Sr0  1  0.035499  0.249972  0.460342  1
  Nb  Nb1  1  0.525502  0.015592  0.356094  1
  Nb  Nb2  1  0.024780  0.984558  0.144762  1
  Nb  Nb3  1  0.475510  0.984858  0.643548  1
  Nb  Nb4  1  0.974752  0.015409  0.855582  1
  Nb  Nb5  1  0.535129  0.525563  0.357842  1
  Nb  Nb6  1  0.034581  0.474087  0.142977  1
  Nb  Nb7  1  0.465652  0.473218  0.642051  1
  Nb  Nb8  1  0.965220  0.525965  0.857378  1
  Pb  Pb9  1  0.466429  0.249329  0.961745  1
  Pb  Pb10  1  0.966484  0.750607  0.538305  1
  Pb  Pb11  1  0.533005  0.750637  0.038130  1
  O  O12  1  0.639544  0.751705  0.370984  1
  O  O13  1  0.139827  0.248310  0.129520  1
  O  O14  1  0.358596  0.248457  0.628217  1
  O  O15  1  0.860054  0.751798  0.870753  1
  O  O16  1  0.464160  0.250627  0.353728  1
  O  O17  1  0.965361  0.749180  0.147204  1
  O  O18  1  0.533902  0.749411  0.646182  1
  O  O19  1  0.034212  0.250842  0.853084  1
  O  O20  1  0.646954  0.449014  0.784539  1
  O  O21  1  0.146701  0.550463  0.715078  1
  O  O22  1  0.353292  0.550386  0.215461  1
  O  O23  1  0.854891  0.447841  0.285954  1
  O  O24  1  0.782115  0.034905  0.025091  1
  O  O25  1  0.280979  0.967800  0.475035  1
  O  O26  1  0.217744  0.965149  0.975340  1
  O  O27  1  0.718852  0.036028  0.524782  1
  O  O28  1  0.719268  0.464092  0.524243  1
  O  O29  1  0.218643  0.534586  0.975825  1
  O  O30  1  0.280065  0.532005  0.475060  1
  O  O31  1  0.781296  0.465395  0.024520  1
  O  O32  1  0.641087  0.047500  0.786155  1
  O  O33  1  0.140772  0.953099  0.713378  1
  O  O34  1  0.358900  0.952759  0.213834  1
  O  O35  1  0.860241  0.048853  0.287277  1
