# generated using pymatgen
data_Ba5Cr2FeO12F
_symmetry_space_group_name_H-M   'P 1'
_cell_length_a   10.72489488
_cell_length_b   10.83233056
_cell_length_c   8.01346100
_cell_angle_alpha   90.00000000
_cell_angle_beta   90.00000000
_cell_angle_gamma   121.32106496
_symmetry_Int_Tables_number   1
_chemical_formula_structural   Ba5Cr2FeO12F
_chemical_formula_sum   'Ba10 Cr4 Fe2 O24 F2'
_cell_volume   795.29654863
_cell_formula_units_Z   2
loop_
 _symmetry_equiv_pos_site_id
 _symmetry_equiv_pos_as_xyz
  1  'x, y, z'
loop_
 _atom_site_type_symbol
 _atom_site_label
 _atom_site_symmetry_multiplicity
 _atom_site_fract_x
 _atom_site_fract_y
 _atom_site_fract_z
 _atom_site_occupancy
  Ba  Ba0  1  0.647340  0.346317  0.001332  1
  Ba  Ba1  1  0.352660  0.653683  0.998668  1
  Ba  Ba2  1  0.352660  0.653683  0.501332  1
  Ba  Ba3  1  0.647340  0.346317  0.498668  1
  Ba  Ba4  1  0.755002  0.985624  0.750000  1
  Ba  Ba5  1  0.244998  0.014376  0.250000  1
  Ba  Ba6  1  0.263187  0.249528  0.750000  1
  Ba  Ba7  1  0.736813  0.750472  0.250000  1
  Ba  Ba8  1  0.967618  0.741417  0.750000  1
  Ba  Ba9  1  0.032382  0.258583  0.250000  1
  Cr  Cr10  1  0.026650  0.398341  0.750000  1
  Cr  Cr11  1  0.973350  0.601659  0.250000  1
  Cr  Cr12  1  0.362165  0.962785  0.750000  1
  Cr  Cr13  1  0.637835  0.037215  0.250000  1
  Fe  Fe14  1  0.598398  0.627936  0.750000  1
  Fe  Fe15  1  0.401602  0.372064  0.250000  1
  O  O16  1  0.846685  0.322376  0.750000  1
  O  O17  1  0.153315  0.677624  0.250000  1
  O  O18  1  0.471344  0.143097  0.750000  1
  O  O19  1  0.528656  0.856903  0.250000  1
  O  O20  1  0.692899  0.518516  0.750000  1
  O  O21  1  0.307101  0.481484  0.250000  1
  O  O22  1  0.391383  0.526446  0.750000  1
  O  O23  1  0.608617  0.473554  0.250000  1
  O  O24  1  0.110426  0.579231  0.750000  1
  O  O25  1  0.889574  0.420769  0.250000  1
  O  O26  1  0.461265  0.883830  0.750000  1
  O  O27  1  0.538735  0.116170  0.250000  1
  O  O28  1  0.649787  0.754480  0.937437  1
  O  O29  1  0.350213  0.245520  0.062563  1
  O  O30  1  0.078191  0.345313  0.918920  1
  O  O31  1  0.350213  0.245520  0.437437  1
  O  O32  1  0.921809  0.654687  0.081080  1
  O  O33  1  0.649787  0.754480  0.562563  1
  O  O34  1  0.255122  0.908475  0.917732  1
  O  O35  1  0.921809  0.654687  0.418920  1
  O  O36  1  0.744878  0.091525  0.082268  1
  O  O37  1  0.078191  0.345313  0.581080  1
  O  O38  1  0.744878  0.091525  0.417732  1
  O  O39  1  0.255122  0.908475  0.582268  1
  F  F40  1  0.005142  0.999256  0.750000  1
  F  F41  1  0.994858  0.000744  0.250000  1
