# generated using pymatgen
data_V4GaIrC2
_symmetry_space_group_name_H-M   'P 1'
_cell_length_a   2.88973100
_cell_length_b   2.88973086
_cell_length_c   13.00262800
_cell_angle_alpha   90.00000000
_cell_angle_beta   90.00000000
_cell_angle_gamma   120.00001311
_symmetry_Int_Tables_number   1
_chemical_formula_structural   V4GaIrC2
_chemical_formula_sum   'V4 Ga1 Ir1 C2'
_cell_volume   94.03218420
_cell_formula_units_Z   1
loop_
 _symmetry_equiv_pos_site_id
 _symmetry_equiv_pos_as_xyz
  1  'x, y, z'
loop_
 _atom_site_type_symbol
 _atom_site_label
 _atom_site_symmetry_multiplicity
 _atom_site_fract_x
 _atom_site_fract_y
 _atom_site_fract_z
 _atom_site_occupancy
  V  V0  1  0.333333  0.666667  0.413700  1
  V  V1  1  0.666667  0.333333  0.586368  1
  V  V2  1  0.666667  0.333333  0.913632  1
  V  V3  1  0.333333  0.666667  0.086300  1
  Ga  Ga4  1  0.666667  0.333333  0.250000  1
  Ir  Ir5  1  0.333333  0.666667  0.750000  1
  C  C6  1  0.000000  0.000000  0.499475  1
  C  C7  1  0.000000  0.000000  0.000525  1
