# generated using pymatgen
data_ThPa5(Al3Os)8
_symmetry_space_group_name_H-M   'P 1'
_cell_length_a   8.88697100
_cell_length_b   8.88697034
_cell_length_c   9.44728400
_cell_angle_alpha   90.00000000
_cell_angle_beta   90.00000000
_cell_angle_gamma   119.88605085
_symmetry_Int_Tables_number   1
_chemical_formula_structural   ThPa5(Al3Os)8
_chemical_formula_sum   'Th1 Pa5 Al24 Os8'
_cell_volume   646.90814758
_cell_formula_units_Z   1
loop_
 _symmetry_equiv_pos_site_id
 _symmetry_equiv_pos_as_xyz
  1  'x, y, z'
loop_
 _atom_site_type_symbol
 _atom_site_label
 _atom_site_symmetry_multiplicity
 _atom_site_fract_x
 _atom_site_fract_y
 _atom_site_fract_z
 _atom_site_occupancy
  Th  Th0  1  0.806184  0.193816  0.750000  1
  Pa  Pa1  1  0.196474  0.397285  0.250000  1
  Pa  Pa2  1  0.799953  0.605216  0.750000  1
  Pa  Pa3  1  0.602715  0.803526  0.250000  1
  Pa  Pa4  1  0.394784  0.200047  0.750000  1
  Pa  Pa5  1  0.199083  0.800917  0.250000  1
  Al  Al6  1  0.334132  0.665868  0.017326  1
  Al  Al7  1  0.667421  0.332579  0.982457  1
  Al  Al8  1  0.667421  0.332579  0.517543  1
  Al  Al9  1  0.334132  0.665868  0.482674  1
  Al  Al10  1  0.163747  0.325153  0.576730  1
  Al  Al11  1  0.837820  0.676395  0.421381  1
  Al  Al12  1  0.674847  0.836253  0.576730  1
  Al  Al13  1  0.837820  0.676395  0.078619  1
  Al  Al14  1  0.323605  0.162180  0.421381  1
  Al  Al15  1  0.163747  0.325153  0.923270  1
  Al  Al16  1  0.161665  0.838335  0.578103  1
  Al  Al17  1  0.323605  0.162180  0.078619  1
  Al  Al18  1  0.838025  0.161975  0.418513  1
  Al  Al19  1  0.674847  0.836253  0.923270  1
  Al  Al20  1  0.838025  0.161975  0.081487  1
  Al  Al21  1  0.161665  0.838335  0.921897  1
  Al  Al22  1  0.562273  0.127342  0.250000  1
  Al  Al23  1  0.435952  0.875344  0.750000  1
  Al  Al24  1  0.872658  0.437727  0.250000  1
  Al  Al25  1  0.124656  0.564048  0.750000  1
  Al  Al26  1  0.561563  0.438437  0.250000  1
  Al  Al27  1  0.435803  0.564197  0.750000  1
  Al  Al28  1  0.000527  0.999473  0.250000  1
  Al  Al29  1  0.004331  0.995669  0.750000  1
  Os  Os30  1  0.497518  0.997776  0.002818  1
  Os  Os31  1  0.002224  0.502482  0.002818  1
  Os  Os32  1  0.497518  0.997776  0.497182  1
  Os  Os33  1  0.500909  0.499091  0.998176  1
  Os  Os34  1  0.002224  0.502482  0.497182  1
  Os  Os35  1  0.500909  0.499091  0.501824  1
  Os  Os36  1  0.999609  0.000391  0.000310  1
  Os  Os37  1  0.999609  0.000391  0.499690  1
