# generated using pymatgen
data_Y2PaCo8P6W
_symmetry_space_group_name_H-M   'P 1'
_cell_length_a   3.73454900
_cell_length_b   10.58560100
_cell_length_c   12.21259800
_cell_angle_alpha   90.00000000
_cell_angle_beta   90.00000000
_cell_angle_gamma   90.00000000
_symmetry_Int_Tables_number   1
_chemical_formula_structural   Y2PaCo8P6W
_chemical_formula_sum   'Y4 Pa2 Co16 P12 W2'
_cell_volume   482.79386642
_cell_formula_units_Z   2
loop_
 _symmetry_equiv_pos_site_id
 _symmetry_equiv_pos_as_xyz
  1  'x, y, z'
loop_
 _atom_site_type_symbol
 _atom_site_label
 _atom_site_symmetry_multiplicity
 _atom_site_fract_x
 _atom_site_fract_y
 _atom_site_fract_z
 _atom_site_occupancy
  Y  Y0  1  0.500000  0.818035  0.204615  1
  Y  Y1  1  0.500000  0.181965  0.204615  1
  Y  Y2  1  0.000000  0.681965  0.795385  1
  Y  Y3  1  0.000000  0.318035  0.795385  1
  Pa  Pa4  1  0.000000  0.500000  0.531372  1
  Pa  Pa5  1  0.500000  0.000000  0.468628  1
  Co  Co6  1  0.000000  0.500000  0.986874  1
  Co  Co7  1  0.500000  0.000000  0.013126  1
  Co  Co8  1  0.500000  0.299313  0.433402  1
  Co  Co9  1  0.500000  0.700687  0.433402  1
  Co  Co10  1  0.000000  0.200687  0.566598  1
  Co  Co11  1  0.000000  0.799313  0.566598  1
  Co  Co12  1  0.500000  0.879635  0.707899  1
  Co  Co13  1  0.500000  0.120365  0.707899  1
  Co  Co14  1  0.000000  0.620365  0.292101  1
  Co  Co15  1  0.000000  0.379635  0.292101  1
  Co  Co16  1  0.500000  0.333238  0.989737  1
  Co  Co17  1  0.500000  0.666762  0.989737  1
  Co  Co18  1  0.000000  0.166762  0.010263  1
  Co  Co19  1  0.000000  0.833238  0.010263  1
  Co  Co20  1  0.500000  0.500000  0.695584  1
  Co  Co21  1  0.000000  0.000000  0.304416  1
  P  P22  1  0.500000  0.307594  0.617443  1
  P  P23  1  0.500000  0.692406  0.617443  1
  P  P24  1  0.000000  0.192406  0.382557  1
  P  P25  1  0.000000  0.807594  0.382557  1
  P  P26  1  0.500000  0.500000  0.878024  1
  P  P27  1  0.000000  0.000000  0.121976  1
  P  P28  1  0.500000  0.844232  0.893573  1
  P  P29  1  0.500000  0.155768  0.893573  1
  P  P30  1  0.000000  0.655768  0.106427  1
  P  P31  1  0.000000  0.344232  0.106427  1
  P  P32  1  0.500000  0.500000  0.349911  1
  P  P33  1  0.000000  0.000000  0.650089  1
  W  W34  1  0.500000  0.500000  0.155252  1
  W  W35  1  0.000000  0.000000  0.844748  1
