# generated using pymatgen
data_Dy2Er9Th5(MgRu)4
_symmetry_space_group_name_H-M   'P 1'
_cell_length_a   9.69028295
_cell_length_b   9.73913678
_cell_length_c   9.73493837
_cell_angle_alpha   59.73319117
_cell_angle_beta   60.18263892
_cell_angle_gamma   60.13837918
_symmetry_Int_Tables_number   1
_chemical_formula_structural   Dy2Er9Th5(MgRu)4
_chemical_formula_sum   'Dy2 Er9 Th5 Mg4 Ru4'
_cell_volume   649.88545843
_cell_formula_units_Z   1
loop_
 _symmetry_equiv_pos_site_id
 _symmetry_equiv_pos_as_xyz
  1  'x, y, z'
loop_
 _atom_site_type_symbol
 _atom_site_label
 _atom_site_symmetry_multiplicity
 _atom_site_fract_x
 _atom_site_fract_y
 _atom_site_fract_z
 _atom_site_occupancy
  Dy  Dy0  1  0.563537  0.564919  0.935405  1
  Dy  Dy1  1  0.936139  0.935413  0.564917  1
  Er  Er2  1  0.186161  0.813841  0.813840  1
  Er  Er3  1  0.191039  0.809915  0.184684  1
  Er  Er4  1  0.814350  0.184695  0.809915  1
  Er  Er5  1  0.191262  0.184715  0.809778  1
  Er  Er6  1  0.814228  0.809791  0.184721  1
  Er  Er7  1  0.932352  0.567650  0.567641  1
  Er  Er8  1  0.564871  0.935129  0.935117  1
  Er  Er9  1  0.562729  0.936012  0.564465  1
  Er  Er10  1  0.936799  0.564468  0.936007  1
  Th  Th11  1  0.341642  0.349232  0.349387  1
  Th  Th12  1  0.346653  0.347509  0.959050  1
  Th  Th13  1  0.346798  0.959052  0.347509  1
  Th  Th14  1  0.959725  0.349380  0.349231  1
  Th  Th15  1  0.816477  0.183534  0.183521  1
  Mg  Mg16  1  0.581439  0.579682  0.579386  1
  Mg  Mg17  1  0.579773  0.582316  0.258488  1
  Mg  Mg18  1  0.579430  0.258497  0.582294  1
  Mg  Mg19  1  0.259489  0.579373  0.579679  1
  Ru  Ru20  1  0.128800  0.147531  0.146766  1
  Ru  Ru21  1  0.144927  0.141862  0.568750  1
  Ru  Ru22  1  0.144384  0.568640  0.141950  1
  Ru  Ru23  1  0.577001  0.146842  0.147496  1
