# generated using pymatgen
data_Er6TiCo16MoP12
_symmetry_space_group_name_H-M   'P 1'
_cell_length_a   3.69073500
_cell_length_b   10.56284400
_cell_length_c   12.24269800
_cell_angle_alpha   90.00000000
_cell_angle_beta   90.00000000
_cell_angle_gamma   90.00000000
_symmetry_Int_Tables_number   1
_chemical_formula_structural   Er6TiCo16MoP12
_chemical_formula_sum   'Er6 Ti1 Co16 Mo1 P12'
_cell_volume   477.27739514
_cell_formula_units_Z   1
loop_
 _symmetry_equiv_pos_site_id
 _symmetry_equiv_pos_as_xyz
  1  'x, y, z'
loop_
 _atom_site_type_symbol
 _atom_site_label
 _atom_site_symmetry_multiplicity
 _atom_site_fract_x
 _atom_site_fract_y
 _atom_site_fract_z
 _atom_site_occupancy
  Er  Er0  1  0.750000  0.250000  0.475058  1
  Er  Er1  1  0.250000  0.750000  0.524986  1
  Er  Er2  1  0.250000  0.930157  0.794757  1
  Er  Er3  1  0.250000  0.569843  0.794757  1
  Er  Er4  1  0.750000  0.069604  0.204494  1
  Er  Er5  1  0.750000  0.430396  0.204494  1
  Ti  Ti6  1  0.250000  0.250000  0.846267  1
  Co  Co7  1  0.250000  0.250000  0.297309  1
  Co  Co8  1  0.750000  0.750000  0.701989  1
  Co  Co9  1  0.750000  0.250000  0.013443  1
  Co  Co10  1  0.250000  0.750000  0.987409  1
  Co  Co11  1  0.250000  0.418971  0.007594  1
  Co  Co12  1  0.250000  0.081029  0.007594  1
  Co  Co13  1  0.750000  0.583384  0.992199  1
  Co  Co14  1  0.750000  0.916616  0.992199  1
  Co  Co15  1  0.250000  0.454320  0.567681  1
  Co  Co16  1  0.250000  0.045680  0.567681  1
  Co  Co17  1  0.750000  0.545827  0.431487  1
  Co  Co18  1  0.750000  0.954173  0.431487  1
  Co  Co19  1  0.250000  0.872150  0.294256  1
  Co  Co20  1  0.250000  0.627850  0.294256  1
  Co  Co21  1  0.750000  0.127710  0.706406  1
  Co  Co22  1  0.750000  0.372290  0.706406  1
  Mo  Mo23  1  0.750000  0.750000  0.158019  1
  P  P24  1  0.250000  0.250000  0.117736  1
  P  P25  1  0.750000  0.750000  0.881165  1
  P  P26  1  0.250000  0.250000  0.645887  1
  P  P27  1  0.750000  0.750000  0.351454  1
  P  P28  1  0.250000  0.438031  0.383395  1
  P  P29  1  0.250000  0.061969  0.383395  1
  P  P30  1  0.750000  0.561844  0.615834  1
  P  P31  1  0.750000  0.938156  0.615834  1
  P  P32  1  0.250000  0.906141  0.108884  1
  P  P33  1  0.250000  0.593859  0.108884  1
  P  P34  1  0.750000  0.092152  0.892652  1
  P  P35  1  0.750000  0.407848  0.892652  1
