# generated using pymatgen
data_PrPa(GePt)2
_symmetry_space_group_name_H-M   'P 1'
_cell_length_a   4.40812800
_cell_length_b   7.39020900
_cell_length_c   7.57186600
_cell_angle_alpha   90.00000000
_cell_angle_beta   90.00000000
_cell_angle_gamma   90.00000000
_symmetry_Int_Tables_number   1
_chemical_formula_structural   PrPa(GePt)2
_chemical_formula_sum   'Pr2 Pa2 Ge4 Pt4'
_cell_volume   246.66858190
_cell_formula_units_Z   2
loop_
 _symmetry_equiv_pos_site_id
 _symmetry_equiv_pos_as_xyz
  1  'x, y, z'
loop_
 _atom_site_type_symbol
 _atom_site_label
 _atom_site_symmetry_multiplicity
 _atom_site_fract_x
 _atom_site_fract_y
 _atom_site_fract_z
 _atom_site_occupancy
  Pr  Pr0  1  0.750000  0.504708  0.289382  1
  Pr  Pr1  1  0.750000  0.004708  0.210618  1
  Pa  Pa2  1  0.250000  0.495623  0.711317  1
  Pa  Pa3  1  0.250000  0.995623  0.788683  1
  Ge  Ge4  1  0.250000  0.775978  0.414026  1
  Ge  Ge5  1  0.250000  0.275978  0.085974  1
  Ge  Ge6  1  0.750000  0.184019  0.588742  1
  Ge  Ge7  1  0.750000  0.684019  0.911258  1
  Pt  Pt8  1  0.250000  0.235284  0.434329  1
  Pt  Pt9  1  0.250000  0.735284  0.065671  1
  Pt  Pt10  1  0.750000  0.804388  0.595872  1
  Pt  Pt11  1  0.750000  0.304388  0.904128  1
