# generated using pymatgen
data_Ba4Tc11WSe22
_symmetry_space_group_name_H-M   'P 1'
_cell_length_a   12.63635028
_cell_length_b   12.61565095
_cell_length_c   12.63641184
_cell_angle_alpha   44.59211221
_cell_angle_beta   44.67627435
_cell_angle_gamma   44.46689109
_symmetry_Int_Tables_number   1
_chemical_formula_structural   Ba4Tc11WSe22
_chemical_formula_sum   'Ba4 Tc11 W1 Se22'
_cell_volume   902.44905892
_cell_formula_units_Z   1
loop_
 _symmetry_equiv_pos_site_id
 _symmetry_equiv_pos_as_xyz
  1  'x, y, z'
loop_
 _atom_site_type_symbol
 _atom_site_label
 _atom_site_symmetry_multiplicity
 _atom_site_fract_x
 _atom_site_fract_y
 _atom_site_fract_z
 _atom_site_occupancy
  Ba  Ba0  1  0.310802  0.310638  0.310458  1
  Ba  Ba1  1  0.189304  0.189304  0.188228  1
  Ba  Ba2  1  0.689665  0.688396  0.689541  1
  Ba  Ba3  1  0.810862  0.809196  0.812325  1
  Tc  Tc4  1  0.487740  0.617415  0.297668  1
  Tc  Tc5  1  0.798135  0.115562  0.989391  1
  Tc  Tc6  1  0.990149  0.797647  0.114829  1
  Tc  Tc7  1  0.114865  0.989228  0.798589  1
  Tc  Tc8  1  0.702086  0.512904  0.383639  1
  Tc  Tc9  1  0.383968  0.701644  0.511391  1
  Tc  Tc10  1  0.510700  0.384678  0.702787  1
  Tc  Tc11  1  0.297342  0.488780  0.616164  1
  Tc  Tc12  1  0.885247  0.010143  0.201127  1
  Tc  Tc13  1  0.010067  0.202015  0.884852  1
  Tc  Tc14  1  0.202058  0.884073  0.010386  1
  W  W15  1  0.616974  0.297764  0.488203  1
  Se  Se16  1  0.089158  0.089815  0.090953  1
  Se  Se17  1  0.406440  0.412469  0.408253  1
  Se  Se18  1  0.910227  0.909476  0.909759  1
  Se  Se19  1  0.591045  0.589278  0.590699  1
  Se  Se20  1  0.251215  0.981642  0.518535  1
  Se  Se21  1  0.518815  0.250436  0.982234  1
  Se  Se22  1  0.984156  0.516051  0.251238  1
  Se  Se23  1  0.749105  0.016935  0.482110  1
  Se  Se24  1  0.482150  0.748197  0.017512  1
  Se  Se25  1  0.017871  0.481894  0.747779  1
  Se  Se26  1  0.073869  0.705289  0.311520  1
  Se  Se27  1  0.311732  0.072670  0.705816  1
  Se  Se28  1  0.705153  0.313697  0.072302  1
  Se  Se29  1  0.427212  0.185020  0.799462  1
  Se  Se30  1  0.796689  0.432360  0.182465  1
  Se  Se31  1  0.185768  0.794963  0.428896  1
  Se  Se32  1  0.815406  0.205389  0.573188  1
  Se  Se33  1  0.205116  0.572377  0.812363  1
  Se  Se34  1  0.569725  0.814620  0.205717  1
  Se  Se35  1  0.294740  0.686061  0.927623  1
  Se  Se36  1  0.688225  0.927048  0.293926  1
  Se  Se37  1  0.926219  0.294928  0.688073  1
