# generated using pymatgen
data_Tb7HoRe2(TcC4)2
_symmetry_space_group_name_H-M   'P 1'
_cell_length_a   5.13256100
_cell_length_b   6.59946754
_cell_length_c   9.91673481
_cell_angle_alpha   89.95372032
_cell_angle_beta   90.00000000
_cell_angle_gamma   90.00000000
_symmetry_Int_Tables_number   1
_chemical_formula_structural   Tb7HoRe2(TcC4)2
_chemical_formula_sum   'Tb7 Ho1 Re2 Tc2 C8'
_cell_volume   335.90121481
_cell_formula_units_Z   1
loop_
 _symmetry_equiv_pos_site_id
 _symmetry_equiv_pos_as_xyz
  1  'x, y, z'
loop_
 _atom_site_type_symbol
 _atom_site_label
 _atom_site_symmetry_multiplicity
 _atom_site_fract_x
 _atom_site_fract_y
 _atom_site_fract_z
 _atom_site_occupancy
  Tb  Tb0  1  0.250000  0.678861  0.555868  1
  Tb  Tb1  1  0.750000  0.320382  0.442706  1
  Tb  Tb2  1  0.250000  0.179356  0.943452  1
  Tb  Tb3  1  0.750000  0.467348  0.784840  1
  Tb  Tb4  1  0.250000  0.032345  0.283768  1
  Tb  Tb5  1  0.750000  0.967929  0.715686  1
  Tb  Tb6  1  0.250000  0.532321  0.214235  1
  Ho  Ho7  1  0.750000  0.822937  0.056370  1
  Re  Re8  1  0.750000  0.779460  0.363820  1
  Re  Re9  1  0.250000  0.720373  0.865428  1
  Tc  Tc10  1  0.750000  0.278899  0.134578  1
  Tc  Tc11  1  0.250000  0.221027  0.635571  1
  C  C12  1  0.750000  0.176612  0.953329  1
  C  C13  1  0.250000  0.821130  0.048358  1
  C  C14  1  0.750000  0.679848  0.547032  1
  C  C15  1  0.250000  0.320792  0.453830  1
  C  C16  1  0.750000  0.044666  0.258551  1
  C  C17  1  0.250000  0.455276  0.759719  1
  C  C18  1  0.750000  0.547475  0.240572  1
  C  C19  1  0.250000  0.952963  0.742287  1
