# generated using pymatgen
data_Y2Ho2BCl6
_symmetry_space_group_name_H-M   'P 1'
_cell_length_a   3.86466600
_cell_length_b   12.64259900
_cell_length_c   13.10711200
_cell_angle_alpha   90.00000000
_cell_angle_beta   90.00000000
_cell_angle_gamma   90.00000000
_symmetry_Int_Tables_number   1
_chemical_formula_structural   Y2Ho2BCl6
_chemical_formula_sum   'Y4 Ho4 B2 Cl12'
_cell_volume   640.40592305
_cell_formula_units_Z   2
loop_
 _symmetry_equiv_pos_site_id
 _symmetry_equiv_pos_as_xyz
  1  'x, y, z'
loop_
 _atom_site_type_symbol
 _atom_site_label
 _atom_site_symmetry_multiplicity
 _atom_site_fract_x
 _atom_site_fract_y
 _atom_site_fract_z
 _atom_site_occupancy
  Y  Y0  1  0.500000  0.126351  0.851323  1
  Y  Y1  1  0.500000  0.873649  0.148677  1
  Y  Y2  1  0.500000  0.626351  0.648677  1
  Y  Y3  1  0.500000  0.373649  0.351323  1
  Ho  Ho4  1  0.000000  0.106106  0.084040  1
  Ho  Ho5  1  0.000000  0.893894  0.915960  1
  Ho  Ho6  1  0.000000  0.606106  0.415960  1
  Ho  Ho7  1  0.000000  0.393894  0.584040  1
  B  B8  1  0.500000  0.000000  0.000000  1
  B  B9  1  0.500000  0.500000  0.500000  1
  Cl  Cl10  1  0.500000  0.268194  0.682357  1
  Cl  Cl11  1  0.500000  0.731806  0.317643  1
  Cl  Cl12  1  0.500000  0.768194  0.817643  1
  Cl  Cl13  1  0.500000  0.231806  0.182357  1
  Cl  Cl14  1  0.000000  0.256524  0.929868  1
  Cl  Cl15  1  0.000000  0.743476  0.070132  1
  Cl  Cl16  1  0.000000  0.478746  0.243575  1
  Cl  Cl17  1  0.000000  0.521254  0.756425  1
  Cl  Cl18  1  0.000000  0.978746  0.256425  1
  Cl  Cl19  1  0.000000  0.021254  0.743575  1
  Cl  Cl20  1  0.000000  0.243476  0.429868  1
  Cl  Cl21  1  0.000000  0.756524  0.570132  1
