# generated using pymatgen
data_Tb12CdInSi4
_symmetry_space_group_name_H-M   'P 1'
_cell_length_a   8.56368644
_cell_length_b   8.56367390
_cell_length_c   8.56368763
_cell_angle_alpha   112.18134859
_cell_angle_beta   111.00123840
_cell_angle_gamma   105.31190018
_symmetry_Int_Tables_number   1
_chemical_formula_structural   Tb12CdInSi4
_chemical_formula_sum   'Tb12 Cd1 In1 Si4'
_cell_volume   481.51086400
_cell_formula_units_Z   1
loop_
 _symmetry_equiv_pos_site_id
 _symmetry_equiv_pos_as_xyz
  1  'x, y, z'
loop_
 _atom_site_type_symbol
 _atom_site_label
 _atom_site_symmetry_multiplicity
 _atom_site_fract_x
 _atom_site_fract_y
 _atom_site_fract_z
 _atom_site_occupancy
  Tb  Tb0  1  0.441816  0.238245  0.203571  1
  Tb  Tb1  1  0.558184  0.761755  0.796429  1
  Tb  Tb2  1  0.034674  0.238245  0.796429  1
  Tb  Tb3  1  0.965326  0.761755  0.203571  1
  Tb  Tb4  1  0.184939  0.277415  0.462356  1
  Tb  Tb5  1  0.815061  0.722585  0.537644  1
  Tb  Tb6  1  0.184939  0.722585  0.907524  1
  Tb  Tb7  1  0.815061  0.277415  0.092476  1
  Tb  Tb8  1  0.319779  0.616065  0.296286  1
  Tb  Tb9  1  0.680221  0.383935  0.703714  1
  Tb  Tb10  1  0.319779  0.023494  0.703714  1
  Tb  Tb11  1  0.680221  0.976506  0.296286  1
  Cd  Cd12  1  0.000000  0.000000  0.000000  1
  In  In13  1  0.500000  0.500000  0.000000  1
  Si  Si14  1  0.365891  0.000000  0.365891  1
  Si  Si15  1  0.634109  0.000000  0.634109  1
  Si  Si16  1  0.115573  0.615573  0.500000  1
  Si  Si17  1  0.884427  0.384427  0.500000  1
