# generated using pymatgen
data_Zr7U(Si4W3)4
_symmetry_space_group_name_H-M   'P 1'
_cell_length_a   6.65905826
_cell_length_b   6.80200828
_cell_length_c   12.67303787
_cell_angle_alpha   89.95041707
_cell_angle_beta   90.12818743
_cell_angle_gamma   90.26274059
_symmetry_Int_Tables_number   1
_chemical_formula_structural   Zr7U(Si4W3)4
_chemical_formula_sum   'Zr7 U1 Si16 W12'
_cell_volume   574.01718075
_cell_formula_units_Z   1
loop_
 _symmetry_equiv_pos_site_id
 _symmetry_equiv_pos_as_xyz
  1  'x, y, z'
loop_
 _atom_site_type_symbol
 _atom_site_label
 _atom_site_symmetry_multiplicity
 _atom_site_fract_x
 _atom_site_fract_y
 _atom_site_fract_z
 _atom_site_occupancy
  Zr  Zr0  1  0.494722  0.669856  0.590749  1
  Zr  Zr1  1  0.993370  0.828828  0.907473  1
  Zr  Zr2  1  0.506465  0.328273  0.093034  1
  Zr  Zr3  1  0.010228  0.171645  0.406670  1
  Zr  Zr4  1  0.506901  0.328595  0.406059  1
  Zr  Zr5  1  0.006918  0.170803  0.092511  1
  Zr  Zr6  1  0.494827  0.671159  0.908981  1
  U  U7  1  0.990635  0.830899  0.596018  1
  Si  Si8  1  0.664893  0.959957  0.455169  1
  Si  Si9  1  0.167174  0.540841  0.043240  1
  Si  Si10  1  0.331880  0.041456  0.957524  1
  Si  Si11  1  0.833509  0.455930  0.543199  1
  Si  Si12  1  0.334972  0.042910  0.541443  1
  Si  Si13  1  0.833019  0.458649  0.957862  1
  Si  Si14  1  0.666004  0.958678  0.043279  1
  Si  Si15  1  0.168876  0.540048  0.456510  1
  Si  Si16  1  0.466413  0.379625  0.748358  1
  Si  Si17  1  0.963208  0.122470  0.751693  1
  Si  Si18  1  0.534273  0.618922  0.249208  1
  Si  Si19  1  0.034246  0.880592  0.249985  1
  Si  Si20  1  0.696083  0.860012  0.751859  1
  Si  Si21  1  0.202363  0.638065  0.751095  1
  Si  Si22  1  0.301420  0.140428  0.249869  1
  Si  Si23  1  0.799763  0.359753  0.250296  1
  W  W24  1  0.671469  0.160011  0.625810  1
  W  W25  1  0.167690  0.336097  0.875961  1
  W  W26  1  0.328801  0.836115  0.124427  1
  W  W27  1  0.834167  0.666459  0.376843  1
  W  W28  1  0.332238  0.834719  0.374349  1
  W  W29  1  0.832765  0.664525  0.124975  1
  W  W30  1  0.663714  0.166349  0.876871  1
  W  W31  1  0.170686  0.337405  0.624063  1
  W  W32  1  0.835351  0.507248  0.748546  1
  W  W33  1  0.329088  0.994609  0.747518  1
  W  W34  1  0.165215  0.490448  0.249542  1
  W  W35  1  0.666656  0.007620  0.249008  1
