# generated using pymatgen
data_PrHo2Mn(Co4P3)2
_symmetry_space_group_name_H-M   'P 1'
_cell_length_a   3.71822900
_cell_length_b   10.59320100
_cell_length_c   12.27220500
_cell_angle_alpha   90.00000000
_cell_angle_beta   90.00000000
_cell_angle_gamma   90.00000000
_symmetry_Int_Tables_number   1
_chemical_formula_structural   PrHo2Mn(Co4P3)2
_chemical_formula_sum   'Pr2 Ho4 Mn2 Co16 P12'
_cell_volume   483.37696209
_cell_formula_units_Z   2
loop_
 _symmetry_equiv_pos_site_id
 _symmetry_equiv_pos_as_xyz
  1  'x, y, z'
loop_
 _atom_site_type_symbol
 _atom_site_label
 _atom_site_symmetry_multiplicity
 _atom_site_fract_x
 _atom_site_fract_y
 _atom_site_fract_z
 _atom_site_occupancy
  Pr  Pr0  1  0.000000  0.500000  0.522949  1
  Pr  Pr1  1  0.500000  0.000000  0.477051  1
  Ho  Ho2  1  0.500000  0.817957  0.203937  1
  Ho  Ho3  1  0.500000  0.182043  0.203937  1
  Ho  Ho4  1  0.000000  0.682043  0.796063  1
  Ho  Ho5  1  0.000000  0.317957  0.796063  1
  Mn  Mn6  1  0.500000  0.500000  0.155788  1
  Mn  Mn7  1  0.000000  0.000000  0.844212  1
  Co  Co8  1  0.000000  0.500000  0.986562  1
  Co  Co9  1  0.500000  0.000000  0.013438  1
  Co  Co10  1  0.500000  0.295994  0.428505  1
  Co  Co11  1  0.500000  0.704006  0.428505  1
  Co  Co12  1  0.000000  0.204006  0.571495  1
  Co  Co13  1  0.000000  0.795994  0.571495  1
  Co  Co14  1  0.500000  0.879757  0.713058  1
  Co  Co15  1  0.500000  0.120243  0.713058  1
  Co  Co16  1  0.000000  0.620243  0.286942  1
  Co  Co17  1  0.000000  0.379757  0.286942  1
  Co  Co18  1  0.500000  0.332979  0.994430  1
  Co  Co19  1  0.500000  0.667021  0.994430  1
  Co  Co20  1  0.000000  0.167021  0.005570  1
  Co  Co21  1  0.000000  0.832979  0.005570  1
  Co  Co22  1  0.500000  0.500000  0.706931  1
  Co  Co23  1  0.000000  0.000000  0.293069  1
  P  P24  1  0.500000  0.307205  0.618412  1
  P  P25  1  0.500000  0.692795  0.618412  1
  P  P26  1  0.000000  0.192795  0.381588  1
  P  P27  1  0.000000  0.807205  0.381588  1
  P  P28  1  0.500000  0.500000  0.884142  1
  P  P29  1  0.000000  0.000000  0.115858  1
  P  P30  1  0.500000  0.846478  0.894241  1
  P  P31  1  0.500000  0.153522  0.894241  1
  P  P32  1  0.000000  0.653522  0.105759  1
  P  P33  1  0.000000  0.346478  0.105759  1
  P  P34  1  0.500000  0.500000  0.339402  1
  P  P35  1  0.000000  0.000000  0.660598  1
