# generated using pymatgen
data_Sm2Y14CdNi4Ag3
_symmetry_space_group_name_H-M   'P 1'
_cell_length_a   9.53729086
_cell_length_b   9.55847286
_cell_length_c   9.55483700
_cell_angle_alpha   60.01257863
_cell_angle_beta   59.93911973
_cell_angle_gamma   59.94967666
_symmetry_Int_Tables_number   1
_chemical_formula_structural   Sm2Y14CdNi4Ag3
_chemical_formula_sum   'Sm2 Y14 Cd1 Ni4 Ag3'
_cell_volume   615.45671335
_cell_formula_units_Z   1
loop_
 _symmetry_equiv_pos_site_id
 _symmetry_equiv_pos_as_xyz
  1  'x, y, z'
loop_
 _atom_site_type_symbol
 _atom_site_label
 _atom_site_symmetry_multiplicity
 _atom_site_fract_x
 _atom_site_fract_y
 _atom_site_fract_z
 _atom_site_occupancy
  Sm  Sm0  1  0.600051  0.599479  0.599406  1
  Sm  Sm1  1  0.600051  0.599479  0.201065  1
  Y  Y2  1  0.601380  0.198481  0.600070  1
  Y  Y3  1  0.195250  0.602061  0.601344  1
  Y  Y4  1  0.061384  0.438538  0.439217  1
  Y  Y5  1  0.438233  0.061686  0.061135  1
  Y  Y6  1  0.438233  0.061686  0.438946  1
  Y  Y7  1  0.061384  0.438538  0.060860  1
  Y  Y8  1  0.438062  0.438835  0.061551  1
  Y  Y9  1  0.060991  0.061088  0.438960  1
  Y  Y10  1  0.183429  0.814999  0.814686  1
  Y  Y11  1  0.814526  0.185382  0.185354  1
  Y  Y12  1  0.814526  0.185382  0.814737  1
  Y  Y13  1  0.183429  0.814999  0.186887  1
  Y  Y14  1  0.814313  0.814928  0.185380  1
  Y  Y15  1  0.183818  0.187339  0.814422  1
  Cd  Cd16  1  0.513288  0.829710  0.828501  1
  Ni  Ni17  1  0.391914  0.392674  0.394056  1
  Ni  Ni18  1  0.391914  0.392674  0.821358  1
  Ni  Ni19  1  0.391465  0.822362  0.393088  1
  Ni  Ni20  1  0.822738  0.391514  0.392874  1
  Ag  Ag21  1  0.832994  0.832888  0.831061  1
  Ag  Ag22  1  0.832994  0.832888  0.503057  1
  Ag  Ag23  1  0.833634  0.502393  0.831986  1
