# generated using pymatgen
data_Zr22Sc2As7P
_symmetry_space_group_name_H-M   'P 1'
_cell_length_a   11.01802600
_cell_length_b   11.03192064
_cell_length_c   5.47471174
_cell_angle_alpha   90.06340822
_cell_angle_beta   89.91361999
_cell_angle_gamma   90.04094127
_symmetry_Int_Tables_number   1
_chemical_formula_structural   Zr22Sc2As7P
_chemical_formula_sum   'Zr22 Sc2 As7 P1'
_cell_volume   665.44981642
_cell_formula_units_Z   1
loop_
 _symmetry_equiv_pos_site_id
 _symmetry_equiv_pos_as_xyz
  1  'x, y, z'
loop_
 _atom_site_type_symbol
 _atom_site_label
 _atom_site_symmetry_multiplicity
 _atom_site_fract_x
 _atom_site_fract_y
 _atom_site_fract_z
 _atom_site_occupancy
  Zr  Zr0  1  0.640607  0.526407  0.785502  1
  Zr  Zr1  1  0.974041  0.140514  0.285477  1
  Zr  Zr2  1  0.474809  0.640602  0.217819  1
  Zr  Zr3  1  0.138708  0.021481  0.718603  1
  Zr  Zr4  1  0.863285  0.970872  0.718089  1
  Zr  Zr5  1  0.526479  0.359960  0.217112  1
  Zr  Zr6  1  0.281807  0.818225  0.990144  1
  Zr  Zr7  1  0.317139  0.215711  0.491318  1
  Zr  Zr8  1  0.681521  0.785137  0.489661  1
  Zr  Zr9  1  0.714649  0.180782  0.987906  1
  Zr  Zr10  1  0.213007  0.682685  0.510992  1
  Zr  Zr11  1  0.180435  0.283357  0.008775  1
  Zr  Zr12  1  0.821188  0.715553  0.006154  1
  Zr  Zr13  1  0.785639  0.319178  0.510379  1
  Zr  Zr14  1  0.895732  0.417844  0.036557  1
  Zr  Zr15  1  0.918940  0.608786  0.541824  1
  Zr  Zr16  1  0.082731  0.394915  0.537142  1
  Zr  Zr17  1  0.104964  0.587490  0.033457  1
  Zr  Zr18  1  0.605675  0.084122  0.460884  1
  Zr  Zr19  1  0.583516  0.894972  0.962993  1
  Zr  Zr20  1  0.416301  0.104790  0.965681  1
  Zr  Zr21  1  0.394814  0.916318  0.464042  1
  Sc  Sc22  1  0.025860  0.856921  0.278655  1
  Sc  Sc23  1  0.358146  0.474408  0.778628  1
  As  As24  1  0.538867  0.295364  0.712960  1
  As  As25  1  0.796393  0.959475  0.212653  1
  As  As26  1  0.204165  0.039295  0.214661  1
  As  As27  1  0.458574  0.704248  0.713281  1
  As  As28  1  0.959556  0.204899  0.789360  1
  As  As29  1  0.706891  0.541180  0.289656  1
  As  As30  1  0.294096  0.460287  0.283886  1
  P  P31  1  0.041467  0.794224  0.785746  1
