# generated using pymatgen
data_Er6Al24ZnRu4Rh3
_symmetry_space_group_name_H-M   'P 1'
_cell_length_a   8.83766774
_cell_length_b   8.81948166
_cell_length_c   9.51485015
_cell_angle_alpha   89.85363484
_cell_angle_beta   89.99006644
_cell_angle_gamma   120.21149833
_symmetry_Int_Tables_number   1
_chemical_formula_structural   Er6Al24ZnRu4Rh3
_chemical_formula_sum   'Er6 Al24 Zn1 Ru4 Rh3'
_cell_volume   640.88744206
_cell_formula_units_Z   1
loop_
 _symmetry_equiv_pos_site_id
 _symmetry_equiv_pos_as_xyz
  1  'x, y, z'
loop_
 _atom_site_type_symbol
 _atom_site_label
 _atom_site_symmetry_multiplicity
 _atom_site_fract_x
 _atom_site_fract_y
 _atom_site_fract_z
 _atom_site_occupancy
  Er  Er0  1  0.196617  0.387877  0.253062  1
  Er  Er1  1  0.803383  0.612123  0.746938  1
  Er  Er2  1  0.613084  0.804650  0.246739  1
  Er  Er3  1  0.386916  0.195350  0.753261  1
  Er  Er4  1  0.193254  0.808428  0.246514  1
  Er  Er5  1  0.806746  0.191572  0.753486  1
  Al  Al6  1  0.330151  0.657628  0.028940  1
  Al  Al7  1  0.669849  0.342372  0.971060  1
  Al  Al8  1  0.665479  0.333631  0.527547  1
  Al  Al9  1  0.334521  0.666369  0.472453  1
  Al  Al10  1  0.165022  0.326517  0.578132  1
  Al  Al11  1  0.834978  0.673483  0.421868  1
  Al  Al12  1  0.673894  0.835219  0.573781  1
  Al  Al13  1  0.835284  0.673136  0.078488  1
  Al  Al14  1  0.326106  0.164781  0.426219  1
  Al  Al15  1  0.164716  0.326864  0.921512  1
  Al  Al16  1  0.162433  0.837844  0.575950  1
  Al  Al17  1  0.323898  0.171356  0.079868  1
  Al  Al18  1  0.837567  0.162156  0.424050  1
  Al  Al19  1  0.676102  0.828644  0.920132  1
  Al  Al20  1  0.848350  0.169430  0.082554  1
  Al  Al21  1  0.151650  0.830570  0.917446  1
  Al  Al22  1  0.563932  0.126737  0.255255  1
  Al  Al23  1  0.436068  0.873263  0.744745  1
  Al  Al24  1  0.878280  0.439553  0.249982  1
  Al  Al25  1  0.121720  0.560447  0.750018  1
  Al  Al26  1  0.561933  0.439760  0.249844  1
  Al  Al27  1  0.438067  0.560240  0.750156  1
  Al  Al28  1  0.998868  0.997788  0.250393  1
  Al  Al29  1  0.001132  0.002212  0.749607  1
  Zn  Zn30  1  0.500000  0.000000  0.000000  1
  Ru  Ru31  1  0.500000  0.500000  0.000000  1
  Ru  Ru32  1  0.500000  0.500000  0.500000  1
  Ru  Ru33  1  0.000000  0.000000  0.000000  1
  Ru  Ru34  1  0.000000  0.000000  0.500000  1
  Rh  Rh35  1  0.000000  0.500000  0.000000  1
  Rh  Rh36  1  0.500000  0.000000  0.500000  1
  Rh  Rh37  1  0.000000  0.500000  0.500000  1
