# generated using pymatgen
data_Ta8V3ReB8
_symmetry_space_group_name_H-M   'P 1'
_cell_length_a   3.26630100
_cell_length_b   6.02847124
_cell_length_c   12.05765012
_cell_angle_alpha   89.97593109
_cell_angle_beta   90.00000000
_cell_angle_gamma   90.00000000
_symmetry_Int_Tables_number   1
_chemical_formula_structural   Ta8V3ReB8
_chemical_formula_sum   'Ta8 V3 Re1 B8'
_cell_volume   237.42477564
_cell_formula_units_Z   1
loop_
 _symmetry_equiv_pos_site_id
 _symmetry_equiv_pos_as_xyz
  1  'x, y, z'
loop_
 _atom_site_type_symbol
 _atom_site_label
 _atom_site_symmetry_multiplicity
 _atom_site_fract_x
 _atom_site_fract_y
 _atom_site_fract_z
 _atom_site_occupancy
  Ta  Ta0  1  0.500000  0.824506  0.091649  1
  Ta  Ta1  1  0.500000  0.820569  0.589382  1
  Ta  Ta2  1  0.500000  0.175494  0.908351  1
  Ta  Ta3  1  0.500000  0.179431  0.410618  1
  Ta  Ta4  1  0.500000  0.681219  0.837464  1
  Ta  Ta5  1  0.500000  0.680264  0.340102  1
  Ta  Ta6  1  0.500000  0.318781  0.162536  1
  Ta  Ta7  1  0.500000  0.319736  0.659898  1
  V  V8  1  0.000000  0.500000  0.500000  1
  V  V9  1  0.000000  0.000022  0.749089  1
  V  V10  1  0.000000  0.999978  0.250911  1
  Re  Re11  1  0.000000  0.500000  0.000000  1
  B  B12  1  0.000000  0.388697  0.804280  1
  B  B13  1  0.000000  0.389169  0.306392  1
  B  B14  1  0.000000  0.611303  0.195720  1
  B  B15  1  0.000000  0.610831  0.693608  1
  B  B16  1  0.000000  0.110953  0.055957  1
  B  B17  1  0.000000  0.110474  0.555088  1
  B  B18  1  0.000000  0.889047  0.944043  1
  B  B19  1  0.000000  0.889526  0.444912  1
