# generated using pymatgen
data_Tb2HoAl12Os3Ru
_symmetry_space_group_name_H-M   'P 1'
_cell_length_a   8.82334300
_cell_length_b   8.83392060
_cell_length_c   9.58785100
_cell_angle_alpha   90.00000000
_cell_angle_beta   90.00000000
_cell_angle_gamma   119.96039498
_symmetry_Int_Tables_number   1
_chemical_formula_structural   Tb2HoAl12Os3Ru
_chemical_formula_sum   'Tb4 Ho2 Al24 Os6 Ru2'
_cell_volume   647.45821364
_cell_formula_units_Z   2
loop_
 _symmetry_equiv_pos_site_id
 _symmetry_equiv_pos_as_xyz
  1  'x, y, z'
loop_
 _atom_site_type_symbol
 _atom_site_label
 _atom_site_symmetry_multiplicity
 _atom_site_fract_x
 _atom_site_fract_y
 _atom_site_fract_z
 _atom_site_occupancy
  Tb  Tb0  1  0.613668  0.807185  0.250000  1
  Tb  Tb1  1  0.386332  0.192815  0.750000  1
  Tb  Tb2  1  0.193518  0.807185  0.250000  1
  Tb  Tb3  1  0.806482  0.192815  0.750000  1
  Ho  Ho4  1  0.194469  0.388937  0.250000  1
  Ho  Ho5  1  0.805531  0.611063  0.750000  1
  Al  Al6  1  0.333353  0.666706  0.016585  1
  Al  Al7  1  0.666647  0.333294  0.983415  1
  Al  Al8  1  0.666647  0.333294  0.516585  1
  Al  Al9  1  0.333353  0.666706  0.483415  1
  Al  Al10  1  0.163366  0.326729  0.575504  1
  Al  Al11  1  0.836634  0.673271  0.424496  1
  Al  Al12  1  0.673468  0.836293  0.575184  1
  Al  Al13  1  0.836634  0.673271  0.075504  1
  Al  Al14  1  0.326532  0.163707  0.424816  1
  Al  Al15  1  0.163366  0.326729  0.924496  1
  Al  Al16  1  0.162827  0.836293  0.575184  1
  Al  Al17  1  0.326532  0.163707  0.075184  1
  Al  Al18  1  0.837173  0.163707  0.424816  1
  Al  Al19  1  0.673468  0.836293  0.924816  1
  Al  Al20  1  0.837173  0.163707  0.075184  1
  Al  Al21  1  0.162827  0.836293  0.924816  1
  Al  Al22  1  0.561842  0.123683  0.250000  1
  Al  Al23  1  0.438158  0.876317  0.750000  1
  Al  Al24  1  0.877166  0.438515  0.250000  1
  Al  Al25  1  0.122834  0.561485  0.750000  1
  Al  Al26  1  0.561351  0.438515  0.250000  1
  Al  Al27  1  0.438649  0.561485  0.750000  1
  Al  Al28  1  0.000979  0.001957  0.250000  1
  Al  Al29  1  0.999021  0.998043  0.750000  1
  Os  Os30  1  0.500000  0.000000  0.000000  1
  Os  Os31  1  0.000000  0.500000  0.000000  1
  Os  Os32  1  0.500000  0.000000  0.500000  1
  Os  Os33  1  0.500000  0.500000  0.000000  1
  Os  Os34  1  0.000000  0.500000  0.500000  1
  Os  Os35  1  0.500000  0.500000  0.500000  1
  Ru  Ru36  1  0.000000  0.000000  0.000000  1
  Ru  Ru37  1  0.000000  0.000000  0.500000  1
