# generated using pymatgen
data_Ho13Tm4Lu3(CoBi2)4
_symmetry_space_group_name_H-M   'P 1'
_cell_length_a   7.90053025
_cell_length_b   8.87455052
_cell_length_c   12.37089434
_cell_angle_alpha   90.01413413
_cell_angle_beta   89.96585155
_cell_angle_gamma   90.03207867
_symmetry_Int_Tables_number   1
_chemical_formula_structural   Ho13Tm4Lu3(CoBi2)4
_chemical_formula_sum   'Ho13 Tm4 Lu3 Co4 Bi8'
_cell_volume   867.36829899
_cell_formula_units_Z   1
loop_
 _symmetry_equiv_pos_site_id
 _symmetry_equiv_pos_as_xyz
  1  'x, y, z'
loop_
 _atom_site_type_symbol
 _atom_site_label
 _atom_site_symmetry_multiplicity
 _atom_site_fract_x
 _atom_site_fract_y
 _atom_site_fract_z
 _atom_site_occupancy
  Ho  Ho0  1  0.348436  0.750118  0.699691  1
  Ho  Ho1  1  0.651972  0.249942  0.300030  1
  Ho  Ho2  1  0.847713  0.250279  0.800131  1
  Ho  Ho3  1  0.151511  0.749849  0.200014  1
  Ho  Ho4  1  0.883111  0.749477  0.812489  1
  Ho  Ho5  1  0.114820  0.250682  0.187661  1
  Ho  Ho6  1  0.384270  0.249647  0.687235  1
  Ho  Ho7  1  0.616225  0.750299  0.312710  1
  Ho  Ho8  1  0.175640  0.037463  0.937146  1
  Ho  Ho9  1  0.054994  0.750038  0.497448  1
  Ho  Ho10  1  0.944423  0.249955  0.502480  1
  Ho  Ho11  1  0.556431  0.250429  0.002508  1
  Ho  Ho12  1  0.446861  0.749295  0.997731  1
  Tm  Tm13  1  0.673633  0.537950  0.562964  1
  Tm  Tm14  1  0.326114  0.462080  0.436939  1
  Tm  Tm15  1  0.173137  0.462100  0.937334  1
  Tm  Tm16  1  0.326524  0.037995  0.437137  1
  Lu  Lu17  1  0.827604  0.538553  0.063040  1
  Lu  Lu18  1  0.672550  0.962006  0.562652  1
  Lu  Lu19  1  0.827721  0.962050  0.062807  1
  Co  Co20  1  0.062767  0.749528  0.993117  1
  Co  Co21  1  0.933043  0.250706  0.007802  1
  Co  Co22  1  0.564854  0.249676  0.507122  1
  Co  Co23  1  0.436029  0.750366  0.492878  1
  Bi  Bi24  1  0.569457  0.508627  0.826883  1
  Bi  Bi25  1  0.430233  0.491397  0.172959  1
  Bi  Bi26  1  0.069808  0.491433  0.672948  1
  Bi  Bi27  1  0.429900  0.008529  0.172624  1
  Bi  Bi28  1  0.929797  0.508874  0.327245  1
  Bi  Bi29  1  0.571068  0.990946  0.826646  1
  Bi  Bi30  1  0.930119  0.991275  0.327037  1
  Bi  Bi31  1  0.069235  0.008435  0.672590  1
