# generated using pymatgen
data_Na2Sc3Cu9P7
_symmetry_space_group_name_H-M   'P 1'
_cell_length_a   3.83768400
_cell_length_b   9.61798718
_cell_length_c   9.61798800
_cell_angle_alpha   120.00000280
_cell_angle_beta   90.00000000
_cell_angle_gamma   90.00000000
_symmetry_Int_Tables_number   1
_chemical_formula_structural   Na2Sc3Cu9P7
_chemical_formula_sum   'Na2 Sc3 Cu9 P7'
_cell_volume   307.44558148
_cell_formula_units_Z   1
loop_
 _symmetry_equiv_pos_site_id
 _symmetry_equiv_pos_as_xyz
  1  'x, y, z'
loop_
 _atom_site_type_symbol
 _atom_site_label
 _atom_site_symmetry_multiplicity
 _atom_site_fract_x
 _atom_site_fract_y
 _atom_site_fract_z
 _atom_site_occupancy
  Na  Na0  1  0.000000  0.666667  0.333333  1
  Na  Na1  1  0.500000  0.333333  0.666667  1
  Sc  Sc2  1  0.500000  0.768584  0.884322  1
  Sc  Sc3  1  0.500000  0.115738  0.231416  1
  Sc  Sc4  1  0.500000  0.115678  0.884262  1
  Cu  Cu5  1  0.000000  0.568161  0.937858  1
  Cu  Cu6  1  0.000000  0.369697  0.431839  1
  Cu  Cu7  1  0.000000  0.062142  0.630303  1
  Cu  Cu8  1  0.000000  0.870873  0.157438  1
  Cu  Cu9  1  0.000000  0.286564  0.129127  1
  Cu  Cu10  1  0.000000  0.842562  0.713436  1
  Cu  Cu11  1  0.500000  0.943113  0.392606  1
  Cu  Cu12  1  0.500000  0.449493  0.056887  1
  Cu  Cu13  1  0.500000  0.607394  0.550507  1
  P  P14  1  0.000000  0.000000  0.000000  1
  P  P15  1  0.500000  0.715713  0.122546  1
  P  P16  1  0.500000  0.406834  0.284287  1
  P  P17  1  0.500000  0.877454  0.593166  1
  P  P18  1  0.000000  0.581489  0.695636  1
  P  P19  1  0.000000  0.114149  0.418511  1
  P  P20  1  0.000000  0.304364  0.885851  1
