# generated using pymatgen
data_Ho7ErLu2(BiAu2)2
_symmetry_space_group_name_H-M   'P 1'
_cell_length_a   8.65942439
_cell_length_b   8.65942496
_cell_length_c   8.66159358
_cell_angle_alpha   124.24995846
_cell_angle_beta   124.24996285
_cell_angle_gamma   82.77937002
_symmetry_Int_Tables_number   1
_chemical_formula_structural   Ho7ErLu2(BiAu2)2
_chemical_formula_sum   'Ho7 Er1 Lu2 Bi2 Au4'
_cell_volume   426.06532044
_cell_formula_units_Z   1
loop_
 _symmetry_equiv_pos_site_id
 _symmetry_equiv_pos_as_xyz
  1  'x, y, z'
loop_
 _atom_site_type_symbol
 _atom_site_label
 _atom_site_symmetry_multiplicity
 _atom_site_fract_x
 _atom_site_fract_y
 _atom_site_fract_z
 _atom_site_occupancy
  Ho  Ho0  1  0.705052  0.205052  0.190074  1
  Ho  Ho1  1  0.515074  0.704936  0.499947  1
  Ho  Ho2  1  0.204936  0.015074  0.499947  1
  Ho  Ho3  1  0.984944  0.484944  0.189767  1
  Ho  Ho4  1  0.295031  0.795031  0.810134  1
  Ho  Ho5  1  0.485022  0.295110  0.500056  1
  Ho  Ho6  1  0.795110  0.985022  0.500056  1
  Er  Er7  1  0.015214  0.515214  0.809910  1
  Lu  Lu8  1  0.000057  0.999856  0.999996  1
  Lu  Lu9  1  0.499856  0.500057  0.999996  1
  Bi  Bi10  1  0.750091  0.749914  0.999997  1
  Bi  Bi11  1  0.249914  0.250091  0.999997  1
  Au  Au12  1  0.638663  0.138663  0.777346  1
  Au  Au13  1  0.361049  0.861049  0.222327  1
  Au  Au14  1  0.138604  0.361384  0.500225  1
  Au  Au15  1  0.861384  0.638604  0.500225  1
