# generated using pymatgen
data_Li2MgV(PO3)8
_symmetry_space_group_name_H-M   'P 1'
_cell_length_a   8.36444000
_cell_length_b   9.36245500
_cell_length_c   12.74879100
_cell_angle_alpha   90.00000000
_cell_angle_beta   90.00000000
_cell_angle_gamma   90.00000000
_symmetry_Int_Tables_number   1
_chemical_formula_structural   Li2MgV(PO3)8
_chemical_formula_sum   'Li4 Mg2 V2 P16 O48'
_cell_volume   998.37940819
_cell_formula_units_Z   2
loop_
 _symmetry_equiv_pos_site_id
 _symmetry_equiv_pos_as_xyz
  1  'x, y, z'
loop_
 _atom_site_type_symbol
 _atom_site_label
 _atom_site_symmetry_multiplicity
 _atom_site_fract_x
 _atom_site_fract_y
 _atom_site_fract_z
 _atom_site_occupancy
  Li  Li0  1  0.492022  0.750000  0.500000  1
  Li  Li1  1  0.489243  0.250000  0.500000  1
  Li  Li2  1  0.007978  0.250000  0.000000  1
  Li  Li3  1  0.010757  0.750000  0.000000  1
  Mg  Mg4  1  0.132658  0.250000  0.500000  1
  Mg  Mg5  1  0.367342  0.750000  0.000000  1
  V  V6  1  0.869324  0.750000  0.500000  1
  V  V7  1  0.630676  0.250000  0.000000  1
  P  P8  1  0.818640  0.003099  0.136968  1
  P  P9  1  0.818640  0.496901  0.863032  1
  P  P10  1  0.173915  0.505628  0.136937  1
  P  P11  1  0.681360  0.996901  0.636968  1
  P  P12  1  0.036426  0.508944  0.348598  1
  P  P13  1  0.463574  0.491056  0.848599  1
  P  P14  1  0.036426  0.991056  0.651401  1
  P  P15  1  0.326085  0.005628  0.363063  1
  P  P16  1  0.970028  0.010723  0.350449  1
  P  P17  1  0.681360  0.503099  0.363032  1
  P  P18  1  0.326085  0.494372  0.636937  1
  P  P19  1  0.529972  0.510723  0.149551  1
  P  P20  1  0.173915  0.994372  0.863063  1
  P  P21  1  0.463574  0.008944  0.151402  1
  P  P22  1  0.529972  0.989277  0.850450  1
  P  P23  1  0.970028  0.489277  0.649550  1
  O  O24  1  0.365487  0.882133  0.126231  1
  O  O25  1  0.314830  0.371312  0.562182  1
  O  O26  1  0.095372  0.921557  0.758598  1
  O  O27  1  0.644357  0.538269  0.821670  1
  O  O28  1  0.538942  0.626632  0.070637  1
  O  O29  1  0.594781  0.121888  0.596161  1
  O  O30  1  0.408702  0.628350  0.606759  1
  O  O31  1  0.855643  0.461731  0.321670  1
  O  O32  1  0.804998  0.363783  0.934463  1
  O  O33  1  0.538942  0.873368  0.929363  1
  O  O34  1  0.408702  0.871650  0.393241  1
  O  O35  1  0.644357  0.961731  0.178330  1
  O  O36  1  0.961058  0.126632  0.429363  1
  O  O37  1  0.602154  0.932741  0.742212  1
  O  O38  1  0.469947  0.130401  0.070731  1
  O  O39  1  0.905219  0.621888  0.903839  1
  O  O40  1  0.030053  0.630401  0.429269  1
  O  O41  1  0.961058  0.373368  0.570637  1
  O  O42  1  0.095372  0.578443  0.241402  1
  O  O43  1  0.897846  0.432741  0.757788  1
  O  O44  1  0.185170  0.628688  0.062182  1
  O  O45  1  0.594781  0.378112  0.403839  1
  O  O46  1  0.622777  0.126415  0.879650  1
  O  O47  1  0.622777  0.373585  0.120350  1
  O  O48  1  0.469947  0.369599  0.929269  1
  O  O49  1  0.897846  0.067259  0.242212  1
  O  O50  1  0.855643  0.038269  0.678330  1
  O  O51  1  0.146981  0.535675  0.679910  1
  O  O52  1  0.804998  0.136217  0.065537  1
  O  O53  1  0.091298  0.371650  0.106759  1
  O  O54  1  0.185170  0.871312  0.937818  1
  O  O55  1  0.146981  0.964325  0.320090  1
  O  O56  1  0.404628  0.078443  0.258598  1
  O  O57  1  0.134513  0.382133  0.373769  1
  O  O58  1  0.134513  0.117867  0.626231  1
  O  O59  1  0.404628  0.421557  0.741402  1
  O  O60  1  0.695002  0.863783  0.565537  1
  O  O61  1  0.353019  0.464325  0.179910  1
  O  O62  1  0.314830  0.128688  0.437818  1
  O  O63  1  0.695002  0.636217  0.434463  1
  O  O64  1  0.353019  0.035675  0.820090  1
  O  O65  1  0.905219  0.878112  0.096161  1
  O  O66  1  0.877223  0.873585  0.379650  1
  O  O67  1  0.365487  0.617867  0.873769  1
  O  O68  1  0.602154  0.567259  0.257788  1
  O  O69  1  0.091298  0.128350  0.893241  1
  O  O70  1  0.030053  0.869599  0.570731  1
  O  O71  1  0.877223  0.626415  0.620350  1
