# generated using pymatgen
data_Sr8TaNb2SbO18
_symmetry_space_group_name_H-M   'P 1'
_cell_length_a   5.94899616
_cell_length_b   5.95040836
_cell_length_c   15.92591300
_cell_angle_alpha   89.98686963
_cell_angle_beta   89.98718964
_cell_angle_gamma   60.00255594
_symmetry_Int_Tables_number   1
_chemical_formula_structural   Sr8TaNb2SbO18
_chemical_formula_sum   'Sr8 Ta1 Nb2 Sb1 O18'
_cell_volume   488.24364608
_cell_formula_units_Z   1
loop_
 _symmetry_equiv_pos_site_id
 _symmetry_equiv_pos_as_xyz
  1  'x, y, z'
loop_
 _atom_site_type_symbol
 _atom_site_label
 _atom_site_symmetry_multiplicity
 _atom_site_fract_x
 _atom_site_fract_y
 _atom_site_fract_z
 _atom_site_occupancy
  Sr  Sr0  1  0.000126  0.999622  0.241718  1
  Sr  Sr1  1  0.999995  0.999913  0.499085  1
  Sr  Sr2  1  0.000017  0.000107  0.000308  1
  Sr  Sr3  1  0.666658  0.667257  0.355847  1
  Sr  Sr4  1  0.667133  0.665060  0.133909  1
  Sr  Sr5  1  0.332877  0.335068  0.871838  1
  Sr  Sr6  1  0.333271  0.332781  0.645468  1
  Sr  Sr7  1  0.999780  0.000692  0.767453  1
  Ta  Ta8  1  0.334195  0.331911  0.156383  1
  Nb  Nb9  1  0.666791  0.666059  0.649360  1
  Nb  Nb10  1  0.333118  0.333865  0.347198  1
  Sb  Sb11  1  0.665970  0.668078  0.839234  1
  O  O12  1  0.591744  0.960473  0.750941  1
  O  O13  1  0.925409  0.718954  0.599736  1
  O  O14  1  0.915740  0.741827  0.895996  1
  O  O15  1  0.354411  0.924500  0.600125  1
  O  O16  1  0.343200  0.918509  0.896215  1
  O  O17  1  0.959766  0.448219  0.751336  1
  O  O18  1  0.447482  0.592034  0.751489  1
  O  O19  1  0.269313  0.646085  0.102167  1
  O  O20  1  0.275347  0.648655  0.397479  1
  O  O21  1  0.720425  0.353307  0.600520  1
  O  O22  1  0.738612  0.346747  0.897199  1
  O  O23  1  0.555147  0.406260  0.248362  1
  O  O24  1  0.039120  0.554544  0.248583  1
  O  O25  1  0.649757  0.080799  0.103196  1
  O  O26  1  0.647597  0.077765  0.397887  1
  O  O27  1  0.083514  0.265802  0.103583  1
  O  O28  1  0.076787  0.276857  0.398383  1
  O  O29  1  0.406700  0.038247  0.249002  1
