# generated using pymatgen
data_CaEu3(SbPd)4
_symmetry_space_group_name_H-M   'P 1'
_cell_length_a   4.73701500
_cell_length_b   7.58941719
_cell_length_c   8.01353303
_cell_angle_alpha   89.82978176
_cell_angle_beta   90.00000000
_cell_angle_gamma   90.00000000
_symmetry_Int_Tables_number   1
_chemical_formula_structural   CaEu3(SbPd)4
_chemical_formula_sum   'Ca1 Eu3 Sb4 Pd4'
_cell_volume   288.09472186
_cell_formula_units_Z   1
loop_
 _symmetry_equiv_pos_site_id
 _symmetry_equiv_pos_as_xyz
  1  'x, y, z'
loop_
 _atom_site_type_symbol
 _atom_site_label
 _atom_site_symmetry_multiplicity
 _atom_site_fract_x
 _atom_site_fract_y
 _atom_site_fract_z
 _atom_site_occupancy
  Ca  Ca0  1  0.250000  0.993030  0.295052  1
  Eu  Eu1  1  0.250000  0.493277  0.203850  1
  Eu  Eu2  1  0.750000  0.506331  0.796294  1
  Eu  Eu3  1  0.750000  0.006540  0.702232  1
  Sb  Sb4  1  0.250000  0.802465  0.907880  1
  Sb  Sb5  1  0.750000  0.195516  0.093746  1
  Sb  Sb6  1  0.750000  0.696932  0.407298  1
  Sb  Sb7  1  0.250000  0.303401  0.592201  1
  Pd  Pd8  1  0.250000  0.689493  0.576962  1
  Pd  Pd9  1  0.750000  0.310194  0.419694  1
  Pd  Pd10  1  0.750000  0.818292  0.082857  1
  Pd  Pd11  1  0.250000  0.184530  0.921932  1
