# generated using pymatgen
data_Li4Ca2YbErSi8
_symmetry_space_group_name_H-M   'P 1'
_cell_length_a   3.79625700
_cell_length_b   7.84393903
_cell_length_c   10.48536036
_cell_angle_alpha   89.75762173
_cell_angle_beta   90.00000000
_cell_angle_gamma   90.00000000
_symmetry_Int_Tables_number   1
_chemical_formula_structural   Li4Ca2YbErSi8
_chemical_formula_sum   'Li4 Ca2 Yb1 Er1 Si8'
_cell_volume   312.22616136
_cell_formula_units_Z   1
loop_
 _symmetry_equiv_pos_site_id
 _symmetry_equiv_pos_as_xyz
  1  'x, y, z'
loop_
 _atom_site_type_symbol
 _atom_site_label
 _atom_site_symmetry_multiplicity
 _atom_site_fract_x
 _atom_site_fract_y
 _atom_site_fract_z
 _atom_site_occupancy
  Li  Li0  1  0.250000  0.997549  0.388168  1
  Li  Li1  1  0.750000  0.000558  0.610588  1
  Li  Li2  1  0.250000  0.496787  0.108914  1
  Li  Li3  1  0.750000  0.509427  0.888967  1
  Ca  Ca4  1  0.250000  0.635540  0.637624  1
  Ca  Ca5  1  0.750000  0.363165  0.364623  1
  Yb  Yb6  1  0.750000  0.866346  0.134747  1
  Er  Er7  1  0.250000  0.128112  0.866067  1
  Si  Si8  1  0.750000  0.266113  0.059620  1
  Si  Si9  1  0.250000  0.741478  0.934262  1
  Si  Si10  1  0.750000  0.767238  0.431486  1
  Si  Si11  1  0.250000  0.226001  0.574563  1
  Si  Si12  1  0.750000  0.845467  0.824791  1
  Si  Si13  1  0.250000  0.161056  0.168614  1
  Si  Si14  1  0.750000  0.330249  0.683995  1
  Si  Si15  1  0.250000  0.664914  0.322973  1
