# generated using pymatgen
data_Y7Ho8Lu5Pt16
_symmetry_space_group_name_H-M   'P 1'
_cell_length_a   7.45632542
_cell_length_b   7.54450932
_cell_length_c   14.63307633
_cell_angle_alpha   89.94815713
_cell_angle_beta   89.86659865
_cell_angle_gamma   89.93992021
_symmetry_Int_Tables_number   1
_chemical_formula_structural   Y7Ho8Lu5Pt16
_chemical_formula_sum   'Y7 Ho8 Lu5 Pt16'
_cell_volume   823.17069038
_cell_formula_units_Z   1
loop_
 _symmetry_equiv_pos_site_id
 _symmetry_equiv_pos_as_xyz
  1  'x, y, z'
loop_
 _atom_site_type_symbol
 _atom_site_label
 _atom_site_symmetry_multiplicity
 _atom_site_fract_x
 _atom_site_fract_y
 _atom_site_fract_z
 _atom_site_occupancy
  Y  Y0  1  0.500120  0.678032  0.094349  1
  Y  Y1  1  0.501263  0.322245  0.594287  1
  Y  Y2  1  0.000428  0.178575  0.905065  1
  Y  Y3  1  0.999168  0.175795  0.594208  1
  Y  Y4  1  0.500646  0.322290  0.904934  1
  Y  Y5  1  0.499612  0.678267  0.407393  1
  Y  Y6  1  0.999279  0.821704  0.094200  1
  Ho  Ho7  1  0.155303  0.668226  0.877037  1
  Ho  Ho8  1  0.842995  0.330245  0.378258  1
  Ho  Ho9  1  0.344443  0.168409  0.122626  1
  Ho  Ho10  1  0.344106  0.168090  0.378400  1
  Ho  Ho11  1  0.844675  0.331101  0.122585  1
  Ho  Ho12  1  0.155489  0.668917  0.621604  1
  Ho  Ho13  1  0.655688  0.831757  0.877252  1
  Ho  Ho14  1  0.998335  0.821396  0.405539  1
  Lu  Lu15  1  0.681686  0.987778  0.250439  1
  Lu  Lu16  1  0.182402  0.511624  0.250803  1
  Lu  Lu17  1  0.817763  0.489033  0.748859  1
  Lu  Lu18  1  0.318687  0.011375  0.749239  1
  Lu  Lu19  1  0.655686  0.831816  0.623229  1
  Pt  Pt20  1  0.819743  0.643058  0.251754  1
  Pt  Pt21  1  0.319408  0.856497  0.251334  1
  Pt  Pt22  1  0.681723  0.142576  0.748397  1
  Pt  Pt23  1  0.181792  0.357791  0.748592  1
  Pt  Pt24  1  0.547502  0.386343  0.250801  1
  Pt  Pt25  1  0.046107  0.112851  0.251116  1
  Pt  Pt26  1  0.953201  0.884998  0.748652  1
  Pt  Pt27  1  0.453553  0.615772  0.748696  1
  Pt  Pt28  1  0.815941  0.536385  0.541880  1
  Pt  Pt29  1  0.317170  0.968597  0.956527  1
  Pt  Pt30  1  0.683655  0.028605  0.458698  1
  Pt  Pt31  1  0.182658  0.469460  0.043407  1
  Pt  Pt32  1  0.179203  0.470077  0.456101  1
  Pt  Pt33  1  0.682303  0.030905  0.043208  1
  Pt  Pt34  1  0.320835  0.968126  0.543913  1
  Pt  Pt35  1  0.817431  0.531286  0.956618  1
