# generated using pymatgen
data_ScNbGaB2Ru5
_symmetry_space_group_name_H-M   'P 1'
_cell_length_a   9.36492014
_cell_length_b   9.36492014
_cell_length_c   3.01866900
_cell_angle_alpha   90.00000000
_cell_angle_beta   90.00000000
_cell_angle_gamma   90.05660492
_symmetry_Int_Tables_number   1
_chemical_formula_structural   ScNbGaB2Ru5
_chemical_formula_sum   'Sc2 Nb2 Ga2 B4 Ru10'
_cell_volume   264.74236221
_cell_formula_units_Z   2
loop_
 _symmetry_equiv_pos_site_id
 _symmetry_equiv_pos_as_xyz
  1  'x, y, z'
loop_
 _atom_site_type_symbol
 _atom_site_label
 _atom_site_symmetry_multiplicity
 _atom_site_fract_x
 _atom_site_fract_y
 _atom_site_fract_z
 _atom_site_occupancy
  Sc  Sc0  1  0.826228  0.673772  0.000000  1
  Sc  Sc1  1  0.173772  0.326228  0.000000  1
  Nb  Nb2  1  0.324956  0.824956  0.000000  1
  Nb  Nb3  1  0.675044  0.175044  0.000000  1
  Ga  Ga4  1  0.500000  0.500000  0.000000  1
  Ga  Ga5  1  0.000000  0.000000  0.000000  1
  B  B6  1  0.626000  0.874000  0.000000  1
  B  B7  1  0.374000  0.126000  0.000000  1
  B  B8  1  0.123930  0.623930  0.000000  1
  B  B9  1  0.876070  0.376070  0.000000  1
  Ru  Ru10  1  0.564907  0.716589  0.500000  1
  Ru  Ru11  1  0.435093  0.283411  0.500000  1
  Ru  Ru12  1  0.076871  0.787107  0.500000  1
  Ru  Ru13  1  0.923129  0.212893  0.500000  1
  Ru  Ru14  1  0.287107  0.576871  0.500000  1
  Ru  Ru15  1  0.712893  0.423129  0.500000  1
  Ru  Ru16  1  0.216589  0.064907  0.500000  1
  Ru  Ru17  1  0.783411  0.935093  0.500000  1
  Ru  Ru18  1  0.500000  0.000000  0.500000  1
  Ru  Ru19  1  0.000000  0.500000  0.500000  1
