# generated using pymatgen
data_YHf3Si4Mo
_symmetry_space_group_name_H-M   'P 1'
_cell_length_a   7.06619200
_cell_length_b   7.06619200
_cell_length_c   12.85749700
_cell_angle_alpha   90.00000000
_cell_angle_beta   90.00000000
_cell_angle_gamma   90.00000000
_symmetry_Int_Tables_number   1
_chemical_formula_structural   YHf3Si4Mo
_chemical_formula_sum   'Y4 Hf12 Si16 Mo4'
_cell_volume   641.98857477
_cell_formula_units_Z   4
loop_
 _symmetry_equiv_pos_site_id
 _symmetry_equiv_pos_as_xyz
  1  'x, y, z'
loop_
 _atom_site_type_symbol
 _atom_site_label
 _atom_site_symmetry_multiplicity
 _atom_site_fract_x
 _atom_site_fract_y
 _atom_site_fract_z
 _atom_site_occupancy
  Y  Y0  1  0.495466  0.155990  0.532820  1
  Y  Y1  1  0.504534  0.844010  0.032820  1
  Y  Y2  1  0.655990  0.004534  0.282820  1
  Y  Y3  1  0.344010  0.995466  0.782820  1
  Hf  Hf4  1  0.846962  0.499166  0.968795  1
  Hf  Hf5  1  0.153038  0.500834  0.468795  1
  Hf  Hf6  1  0.999166  0.653038  0.718795  1
  Hf  Hf7  1  0.000834  0.346962  0.218795  1
  Hf  Hf8  1  0.493294  0.356591  0.125033  1
  Hf  Hf9  1  0.506706  0.643409  0.625033  1
  Hf  Hf10  1  0.856591  0.006706  0.875033  1
  Hf  Hf11  1  0.143409  0.993294  0.375033  1
  Hf  Hf12  1  0.645179  0.503152  0.374508  1
  Hf  Hf13  1  0.354821  0.496848  0.874508  1
  Hf  Hf14  1  0.003152  0.854821  0.124508  1
  Hf  Hf15  1  0.996848  0.145179  0.624508  1
  Si  Si16  1  0.803796  0.151656  0.070299  1
  Si  Si17  1  0.196204  0.848344  0.570299  1
  Si  Si18  1  0.651656  0.696204  0.820299  1
  Si  Si19  1  0.348344  0.303796  0.320299  1
  Si  Si20  1  0.865361  0.212005  0.428749  1
  Si  Si21  1  0.134639  0.787995  0.928749  1
  Si  Si22  1  0.712005  0.634639  0.178749  1
  Si  Si23  1  0.287995  0.365361  0.678749  1
  Si  Si24  1  0.554743  0.207617  0.933448  1
  Si  Si25  1  0.445257  0.792383  0.433448  1
  Si  Si26  1  0.707617  0.945257  0.683448  1
  Si  Si27  1  0.292383  0.054743  0.183448  1
  Si  Si28  1  0.805550  0.454453  0.566308  1
  Si  Si29  1  0.194450  0.545547  0.066308  1
  Si  Si30  1  0.954453  0.694450  0.316308  1
  Si  Si31  1  0.045547  0.305550  0.816308  1
  Mo  Mo32  1  0.680713  0.329850  0.750041  1
  Mo  Mo33  1  0.319287  0.670150  0.250041  1
  Mo  Mo34  1  0.829850  0.819287  0.500041  1
  Mo  Mo35  1  0.170150  0.180713  0.000041  1
