# generated using pymatgen
data_Na2NiPt3O8
_symmetry_space_group_name_H-M   'P 1'
_cell_length_a   6.28219586
_cell_length_b   6.28219648
_cell_length_c   6.28219563
_cell_angle_alpha   60.79417420
_cell_angle_beta   60.79417171
_cell_angle_gamma   60.79416977
_symmetry_Int_Tables_number   1
_chemical_formula_structural   Na2NiPt3O8
_chemical_formula_sum   'Na2 Ni1 Pt3 O8'
_cell_volume   178.45563592
_cell_formula_units_Z   1
loop_
 _symmetry_equiv_pos_site_id
 _symmetry_equiv_pos_as_xyz
  1  'x, y, z'
loop_
 _atom_site_type_symbol
 _atom_site_label
 _atom_site_symmetry_multiplicity
 _atom_site_fract_x
 _atom_site_fract_y
 _atom_site_fract_z
 _atom_site_occupancy
  Na  Na0  1  0.120526  0.120526  0.120526  1
  Na  Na1  1  0.879474  0.879474  0.879474  1
  Ni  Ni2  1  0.500000  0.500000  0.500000  1
  Pt  Pt3  1  0.000000  0.500000  0.500000  1
  Pt  Pt4  1  0.500000  0.500000  0.000000  1
  Pt  Pt5  1  0.500000  0.000000  0.500000  1
  O  O6  1  0.271462  0.271462  0.271462  1
  O  O7  1  0.265917  0.691599  0.265917  1
  O  O8  1  0.265917  0.265917  0.691599  1
  O  O9  1  0.691599  0.265917  0.265917  1
  O  O10  1  0.308401  0.734083  0.734083  1
  O  O11  1  0.734083  0.734083  0.308401  1
  O  O12  1  0.734083  0.308401  0.734083  1
  O  O13  1  0.728538  0.728538  0.728538  1
