# generated using pymatgen
data_Pr8SiSnI12
_symmetry_space_group_name_H-M   'P 1'
_cell_length_a   4.44189400
_cell_length_b   14.67241990
_cell_length_c   15.50464295
_cell_angle_alpha   89.82093660
_cell_angle_beta   90.00000000
_cell_angle_gamma   90.00000000
_symmetry_Int_Tables_number   1
_chemical_formula_structural   Pr8SiSnI12
_chemical_formula_sum   'Pr8 Si1 Sn1 I12'
_cell_volume   1010.48433707
_cell_formula_units_Z   1
loop_
 _symmetry_equiv_pos_site_id
 _symmetry_equiv_pos_as_xyz
  1  'x, y, z'
loop_
 _atom_site_type_symbol
 _atom_site_label
 _atom_site_symmetry_multiplicity
 _atom_site_fract_x
 _atom_site_fract_y
 _atom_site_fract_z
 _atom_site_occupancy
  Pr  Pr0  1  0.500000  0.120742  0.338421  1
  Pr  Pr1  1  0.500000  0.879258  0.661579  1
  Pr  Pr2  1  0.500000  0.613094  0.151669  1
  Pr  Pr3  1  0.500000  0.386906  0.848331  1
  Pr  Pr4  1  0.000000  0.121021  0.581076  1
  Pr  Pr5  1  0.000000  0.878979  0.418924  1
  Pr  Pr6  1  0.000000  0.610822  0.925843  1
  Pr  Pr7  1  0.000000  0.389178  0.074157  1
  Si  Si8  1  0.500000  0.500000  0.000000  1
  Sn  Sn9  1  0.500000  0.000000  0.500000  1
  I  I10  1  0.500000  0.246700  0.159984  1
  I  I11  1  0.500000  0.753300  0.840016  1
  I  I12  1  0.500000  0.740758  0.335346  1
  I  I13  1  0.500000  0.259242  0.664654  1
  I  I14  1  0.000000  0.258689  0.413810  1
  I  I15  1  0.000000  0.741311  0.586190  1
  I  I16  1  0.000000  0.755555  0.085492  1
  I  I17  1  0.000000  0.244445  0.914508  1
  I  I18  1  0.000000  0.999354  0.240171  1
  I  I19  1  0.000000  0.000646  0.759829  1
  I  I20  1  0.000000  0.499258  0.256833  1
  I  I21  1  0.000000  0.500742  0.743167  1
