# generated using pymatgen
data_Ca7NbAlVN9
_symmetry_space_group_name_H-M   'P 1'
_cell_length_a   6.11819328
_cell_length_b   10.10889700
_cell_length_c   9.11530183
_cell_angle_alpha   90.00000000
_cell_angle_beta   92.92376354
_cell_angle_gamma   90.00000000
_symmetry_Int_Tables_number   1
_chemical_formula_structural   Ca7NbAlVN9
_chemical_formula_sum   'Ca14 Nb2 Al2 V2 N18'
_cell_volume   563.03102075
_cell_formula_units_Z   2
loop_
 _symmetry_equiv_pos_site_id
 _symmetry_equiv_pos_as_xyz
  1  'x, y, z'
loop_
 _atom_site_type_symbol
 _atom_site_label
 _atom_site_symmetry_multiplicity
 _atom_site_fract_x
 _atom_site_fract_y
 _atom_site_fract_z
 _atom_site_occupancy
  Ca  Ca0  1  0.068145  0.423281  0.177062  1
  Ca  Ca1  1  0.931855  0.923280  0.822938  1
  Ca  Ca2  1  0.931855  0.576720  0.822938  1
  Ca  Ca3  1  0.068145  0.076720  0.177062  1
  Ca  Ca4  1  0.251251  0.923818  0.506255  1
  Ca  Ca5  1  0.748749  0.423818  0.493745  1
  Ca  Ca6  1  0.748749  0.076182  0.493745  1
  Ca  Ca7  1  0.251251  0.576182  0.506255  1
  Ca  Ca8  1  0.567592  0.938546  0.169566  1
  Ca  Ca9  1  0.432408  0.438546  0.830434  1
  Ca  Ca10  1  0.432408  0.061454  0.830434  1
  Ca  Ca11  1  0.567592  0.561454  0.169566  1
  Ca  Ca12  1  0.917629  0.250000  0.795605  1
  Ca  Ca13  1  0.082371  0.750000  0.204395  1
  Nb  Nb14  1  0.281418  0.250000  0.558889  1
  Nb  Nb15  1  0.718582  0.750000  0.441111  1
  Al  Al16  1  0.454543  0.250000  0.278642  1
  Al  Al17  1  0.545457  0.750000  0.721358  1
  V  V18  1  0.675829  0.250000  0.062045  1
  V  V19  1  0.324171  0.750000  0.937955  1
  N  N20  1  0.118618  0.400223  0.659288  1
  N  N21  1  0.881382  0.900223  0.340712  1
  N  N22  1  0.881382  0.599777  0.340712  1
  N  N23  1  0.118618  0.099777  0.659288  1
  N  N24  1  0.227096  0.900833  0.023036  1
  N  N25  1  0.772904  0.400833  0.976964  1
  N  N26  1  0.772904  0.099167  0.976964  1
  N  N27  1  0.227096  0.599167  0.023036  1
  N  N28  1  0.359545  0.396662  0.372977  1
  N  N29  1  0.640455  0.896662  0.627023  1
  N  N30  1  0.640455  0.603338  0.627023  1
  N  N31  1  0.359545  0.103338  0.372977  1
  N  N32  1  0.374761  0.250000  0.067437  1
  N  N33  1  0.625239  0.750000  0.932563  1
  N  N34  1  0.558858  0.250000  0.665587  1
  N  N35  1  0.441142  0.750000  0.334413  1
  N  N36  1  0.772812  0.250000  0.256426  1
  N  N37  1  0.227188  0.750000  0.743574  1
