# generated using pymatgen
data_Tb11Y5Cd4TcPd3
_symmetry_space_group_name_H-M   'P 1'
_cell_length_a   9.76839583
_cell_length_b   9.77094322
_cell_length_c   9.77094204
_cell_angle_alpha   59.28724743
_cell_angle_beta   59.28550226
_cell_angle_gamma   59.28550391
_symmetry_Int_Tables_number   1
_chemical_formula_structural   Tb11Y5Cd4TcPd3
_chemical_formula_sum   'Tb11 Y5 Cd4 Tc1 Pd3'
_cell_volume   648.72810731
_cell_formula_units_Z   1
loop_
 _symmetry_equiv_pos_site_id
 _symmetry_equiv_pos_as_xyz
  1  'x, y, z'
loop_
 _atom_site_type_symbol
 _atom_site_label
 _atom_site_symmetry_multiplicity
 _atom_site_fract_x
 _atom_site_fract_y
 _atom_site_fract_z
 _atom_site_occupancy
  Tb  Tb0  1  0.352882  0.353175  0.353175  1
  Tb  Tb1  1  0.350818  0.350741  0.945700  1
  Tb  Tb2  1  0.350818  0.945700  0.350741  1
  Tb  Tb3  1  0.946203  0.350626  0.350626  1
  Tb  Tb4  1  0.816612  0.188268  0.188268  1
  Tb  Tb5  1  0.189130  0.809478  0.809478  1
  Tb  Tb6  1  0.188091  0.816870  0.188175  1
  Tb  Tb7  1  0.809639  0.189130  0.809525  1
  Tb  Tb8  1  0.188091  0.188175  0.816870  1
  Tb  Tb9  1  0.809639  0.809525  0.189130  1
  Tb  Tb10  1  0.934716  0.565687  0.565687  1
  Y  Y11  1  0.557137  0.937270  0.937270  1
  Y  Y12  1  0.565693  0.934674  0.565601  1
  Y  Y13  1  0.936998  0.557225  0.937273  1
  Y  Y14  1  0.565693  0.565601  0.934674  1
  Y  Y15  1  0.936998  0.937273  0.557225  1
  Cd  Cd16  1  0.579692  0.579890  0.579890  1
  Cd  Cd17  1  0.581256  0.581267  0.253573  1
  Cd  Cd18  1  0.581256  0.253573  0.581267  1
  Cd  Cd19  1  0.253641  0.581245  0.581245  1
  Tc  Tc20  1  0.144623  0.144550  0.144550  1
  Pd  Pd21  1  0.145296  0.145033  0.569798  1
  Pd  Pd22  1  0.145296  0.569798  0.145033  1
  Pd  Pd23  1  0.569784  0.145227  0.145227  1
