# generated using pymatgen
data_LaPr7(HoBi)12
_symmetry_space_group_name_H-M   'P 1'
_cell_length_a   8.38841302
_cell_length_b   9.58554500
_cell_length_c   12.32849000
_cell_angle_alpha   90.00000000
_cell_angle_beta   89.99568322
_cell_angle_gamma   90.00000000
_symmetry_Int_Tables_number   1
_chemical_formula_structural   LaPr7(HoBi)12
_chemical_formula_sum   'La1 Pr7 Ho12 Bi12'
_cell_volume   991.30318654
_cell_formula_units_Z   1
loop_
 _symmetry_equiv_pos_site_id
 _symmetry_equiv_pos_as_xyz
  1  'x, y, z'
loop_
 _atom_site_type_symbol
 _atom_site_label
 _atom_site_symmetry_multiplicity
 _atom_site_fract_x
 _atom_site_fract_y
 _atom_site_fract_z
 _atom_site_occupancy
  La  La0  1  0.147920  0.250000  0.715881  1
  Pr  Pr1  1  0.184436  0.750000  0.720785  1
  Pr  Pr2  1  0.684996  0.750000  0.778934  1
  Pr  Pr3  1  0.815842  0.250000  0.279343  1
  Pr  Pr4  1  0.315266  0.250000  0.220978  1
  Pr  Pr5  1  0.352543  0.750000  0.215273  1
  Pr  Pr6  1  0.852504  0.750000  0.284464  1
  Pr  Pr7  1  0.647216  0.250000  0.784701  1
  Ho  Ho8  1  0.025302  0.750000  0.987798  1
  Ho  Ho9  1  0.525316  0.750000  0.512109  1
  Ho  Ho10  1  0.974351  0.250000  0.011805  1
  Ho  Ho11  1  0.474781  0.250000  0.488163  1
  Ho  Ho12  1  0.308871  0.436086  0.942073  1
  Ho  Ho13  1  0.807852  0.063768  0.558091  1
  Ho  Ho14  1  0.691623  0.935874  0.057479  1
  Ho  Ho15  1  0.191603  0.564086  0.442130  1
  Ho  Ho16  1  0.691623  0.564126  0.057479  1
  Ho  Ho17  1  0.191603  0.935914  0.442130  1
  Ho  Ho18  1  0.308871  0.063914  0.942073  1
  Ho  Ho19  1  0.807852  0.436232  0.558091  1
  Bi  Bi20  1  0.435270  0.004165  0.667794  1
  Bi  Bi21  1  0.934260  0.495833  0.832810  1
  Bi  Bi22  1  0.564957  0.504665  0.332469  1
  Bi  Bi23  1  0.065054  0.995123  0.167439  1
  Bi  Bi24  1  0.564957  0.995335  0.332469  1
  Bi  Bi25  1  0.065054  0.504877  0.167439  1
  Bi  Bi26  1  0.435270  0.495835  0.667794  1
  Bi  Bi27  1  0.934260  0.004167  0.832810  1
  Bi  Bi28  1  0.406553  0.750000  0.957163  1
  Bi  Bi29  1  0.906439  0.750000  0.542367  1
  Bi  Bi30  1  0.593953  0.250000  0.043030  1
  Bi  Bi31  1  0.093602  0.250000  0.456632  1
