# generated using pymatgen
data_Ce2Al9Pd2W
_symmetry_space_group_name_H-M   'P 1'
_cell_length_a   7.66256100
_cell_length_b   7.66256117
_cell_length_c   9.55019200
_cell_angle_alpha   90.00000000
_cell_angle_beta   90.00000000
_cell_angle_gamma   117.55872118
_symmetry_Int_Tables_number   1
_chemical_formula_structural   Ce2Al9Pd2W
_chemical_formula_sum   'Ce4 Al18 Pd4 W2'
_cell_volume   497.11507402
_cell_formula_units_Z   2
loop_
 _symmetry_equiv_pos_site_id
 _symmetry_equiv_pos_as_xyz
  1  'x, y, z'
loop_
 _atom_site_type_symbol
 _atom_site_label
 _atom_site_symmetry_multiplicity
 _atom_site_fract_x
 _atom_site_fract_y
 _atom_site_fract_z
 _atom_site_occupancy
  Ce  Ce0  1  0.996989  0.694501  0.250000  1
  Ce  Ce1  1  0.003011  0.305499  0.750000  1
  Ce  Ce2  1  0.694501  0.996989  0.250000  1
  Ce  Ce3  1  0.305499  0.003011  0.750000  1
  Al  Al4  1  0.007162  0.344484  0.079823  1
  Al  Al5  1  0.992838  0.655516  0.920177  1
  Al  Al6  1  0.992838  0.655516  0.579823  1
  Al  Al7  1  0.344484  0.007162  0.420177  1
  Al  Al8  1  0.007162  0.344484  0.420177  1
  Al  Al9  1  0.655516  0.992838  0.579823  1
  Al  Al10  1  0.655516  0.992838  0.920177  1
  Al  Al11  1  0.344484  0.007162  0.079823  1
  Al  Al12  1  0.333257  0.333257  0.543960  1
  Al  Al13  1  0.666743  0.666743  0.456040  1
  Al  Al14  1  0.666743  0.666743  0.043960  1
  Al  Al15  1  0.333257  0.333257  0.956040  1
  Al  Al16  1  0.147900  0.147900  0.250000  1
  Al  Al17  1  0.852100  0.852100  0.750000  1
  Al  Al18  1  0.349825  0.559862  0.250000  1
  Al  Al19  1  0.650175  0.440138  0.750000  1
  Al  Al20  1  0.559862  0.349825  0.250000  1
  Al  Al21  1  0.440138  0.650175  0.750000  1
  Pd  Pd22  1  0.672213  0.327787  0.000000  1
  Pd  Pd23  1  0.327787  0.672213  0.000000  1
  Pd  Pd24  1  0.327787  0.672213  0.500000  1
  Pd  Pd25  1  0.672213  0.327787  0.500000  1
  W  W26  1  0.000000  0.000000  0.000000  1
  W  W27  1  0.000000  0.000000  0.500000  1
