# generated using pymatgen
data_CeDyRu2F14
_symmetry_space_group_name_H-M   'P 1'
_cell_length_a   5.63700000
_cell_length_b   8.99366663
_cell_length_c   11.98659500
_cell_angle_alpha   62.92550257
_cell_angle_beta   90.00000000
_cell_angle_gamma   90.00000000
_symmetry_Int_Tables_number   1
_chemical_formula_structural   CeDyRu2F14
_chemical_formula_sum   'Ce2 Dy2 Ru4 F28'
_cell_volume   541.09479245
_cell_formula_units_Z   2
loop_
 _symmetry_equiv_pos_site_id
 _symmetry_equiv_pos_as_xyz
  1  'x, y, z'
loop_
 _atom_site_type_symbol
 _atom_site_label
 _atom_site_symmetry_multiplicity
 _atom_site_fract_x
 _atom_site_fract_y
 _atom_site_fract_z
 _atom_site_occupancy
  Ce  Ce0  1  0.758713  0.803618  0.767536  1
  Ce  Ce1  1  0.258713  0.196382  0.732464  1
  Dy  Dy2  1  0.240007  0.185946  0.234295  1
  Dy  Dy3  1  0.740007  0.814054  0.265705  1
  Ru  Ru4  1  0.754428  0.269815  0.961656  1
  Ru  Ru5  1  0.254428  0.730185  0.538344  1
  Ru  Ru6  1  0.244046  0.725134  0.047882  1
  Ru  Ru7  1  0.744046  0.274866  0.452118  1
  F  F8  1  0.446960  0.707768  0.919180  1
  F  F9  1  0.946960  0.292232  0.580820  1
  F  F10  1  0.550473  0.294553  0.083724  1
  F  F11  1  0.050473  0.705447  0.416276  1
  F  F12  1  0.455458  0.280610  0.545467  1
  F  F13  1  0.955458  0.719390  0.954533  1
  F  F14  1  0.546521  0.719424  0.450107  1
  F  F15  1  0.046521  0.280576  0.049893  1
  F  F16  1  0.767620  0.512414  0.862221  1
  F  F17  1  0.267620  0.487586  0.637779  1
  F  F18  1  0.232761  0.485855  0.141549  1
  F  F19  1  0.732761  0.514145  0.358451  1
  F  F20  1  0.753597  0.029356  0.052247  1
  F  F21  1  0.253597  0.970644  0.447753  1
  F  F22  1  0.244490  0.965571  0.952008  1
  F  F23  1  0.744490  0.034429  0.547992  1
  F  F24  1  0.971847  0.731625  0.636960  1
  F  F25  1  0.471847  0.268375  0.863040  1
  F  F26  1  0.024938  0.270254  0.356344  1
  F  F27  1  0.524938  0.729746  0.143656  1
  F  F28  1  0.042164  0.746983  0.173410  1
  F  F29  1  0.542164  0.253017  0.326590  1
  F  F30  1  0.952631  0.251374  0.831864  1
  F  F31  1  0.452631  0.748626  0.668136  1
  F  F32  1  0.424341  0.975235  0.232081  1
  F  F33  1  0.924341  0.024765  0.267919  1
  F  F34  1  0.589004  0.029879  0.769317  1
  F  F35  1  0.089004  0.970121  0.730683  1
