# generated using pymatgen
data_La8Ir5Pt
_symmetry_space_group_name_H-M   'P 1'
_cell_length_a   7.83432231
_cell_length_b   7.83432348
_cell_length_c   7.83432220
_cell_angle_alpha   109.29973055
_cell_angle_beta   109.81474883
_cell_angle_gamma   109.29973326
_symmetry_Int_Tables_number   1
_chemical_formula_structural   La8Ir5Pt
_chemical_formula_sum   'La8 Ir5 Pt1'
_cell_volume   370.14401856
_cell_formula_units_Z   1
loop_
 _symmetry_equiv_pos_site_id
 _symmetry_equiv_pos_as_xyz
  1  'x, y, z'
loop_
 _atom_site_type_symbol
 _atom_site_label
 _atom_site_symmetry_multiplicity
 _atom_site_fract_x
 _atom_site_fract_y
 _atom_site_fract_z
 _atom_site_occupancy
  La  La0  1  0.116516  0.503627  0.996946  1
  La  La1  1  0.497759  0.998501  0.609631  1
  La  La2  1  0.390369  0.388128  0.388870  1
  La  La3  1  0.000742  0.111872  0.502241  1
  La  La4  1  0.887111  0.880429  0.883484  1
  La  La5  1  0.003054  0.619571  0.506681  1
  La  La6  1  0.611130  0.501499  0.999258  1
  La  La7  1  0.493319  0.996373  0.112889  1
  Ir  Ir8  1  0.123985  0.873511  0.248451  1
  Ir  Ir9  1  0.374940  0.626489  0.750474  1
  Ir  Ir10  1  0.249526  0.124466  0.876015  1
  Ir  Ir11  1  0.751549  0.375534  0.625060  1
  Ir  Ir12  1  0.625000  0.750000  0.375000  1
  Pt  Pt13  1  0.875000  0.250000  0.125000  1
