# generated using pymatgen
data_Pr2NdPd5
_symmetry_space_group_name_H-M   'P 1'
_cell_length_a   6.01171569
_cell_length_b   6.01171604
_cell_length_c   10.02332000
_cell_angle_alpha   90.00000000
_cell_angle_beta   90.00000000
_cell_angle_gamma   104.44102774
_symmetry_Int_Tables_number   1
_chemical_formula_structural   Pr2NdPd5
_chemical_formula_sum   'Pr4 Nd2 Pd10'
_cell_volume   350.80472660
_cell_formula_units_Z   2
loop_
 _symmetry_equiv_pos_site_id
 _symmetry_equiv_pos_as_xyz
  1  'x, y, z'
loop_
 _atom_site_type_symbol
 _atom_site_label
 _atom_site_symmetry_multiplicity
 _atom_site_fract_x
 _atom_site_fract_y
 _atom_site_fract_z
 _atom_site_occupancy
  Pr  Pr0  1  0.798386  0.201614  0.000000  1
  Pr  Pr1  1  0.201614  0.798386  0.500000  1
  Pr  Pr2  1  0.201614  0.798386  0.000000  1
  Pr  Pr3  1  0.798386  0.201614  0.500000  1
  Nd  Nd4  1  0.627325  0.627325  0.250000  1
  Nd  Nd5  1  0.372675  0.372675  0.750000  1
  Pd  Pd6  1  0.933193  0.494157  0.750000  1
  Pd  Pd7  1  0.066807  0.505843  0.250000  1
  Pd  Pd8  1  0.681435  0.681435  0.551267  1
  Pd  Pd9  1  0.967417  0.967417  0.750000  1
  Pd  Pd10  1  0.318565  0.318565  0.051267  1
  Pd  Pd11  1  0.494157  0.933193  0.750000  1
  Pd  Pd12  1  0.505843  0.066807  0.250000  1
  Pd  Pd13  1  0.032583  0.032583  0.250000  1
  Pd  Pd14  1  0.681435  0.681435  0.948733  1
  Pd  Pd15  1  0.318565  0.318565  0.448733  1
