# generated using pymatgen
data_Lu6Sc4(GaBi)3
_symmetry_space_group_name_H-M   'P 1'
_cell_length_a   8.56099200
_cell_length_b   8.58562092
_cell_length_c   6.18309200
_cell_angle_alpha   90.00000000
_cell_angle_beta   90.00000000
_cell_angle_gamma   119.90515195
_symmetry_Int_Tables_number   1
_chemical_formula_structural   Lu6Sc4(GaBi)3
_chemical_formula_sum   'Lu6 Sc4 Ga3 Bi3'
_cell_volume   393.95482657
_cell_formula_units_Z   1
loop_
 _symmetry_equiv_pos_site_id
 _symmetry_equiv_pos_as_xyz
  1  'x, y, z'
loop_
 _atom_site_type_symbol
 _atom_site_label
 _atom_site_symmetry_multiplicity
 _atom_site_fract_x
 _atom_site_fract_y
 _atom_site_fract_z
 _atom_site_occupancy
  Lu  Lu0  1  0.232746  0.000000  0.250000  1
  Lu  Lu1  1  0.242721  0.225980  0.750000  1
  Lu  Lu2  1  0.016741  0.774020  0.750000  1
  Lu  Lu3  1  0.018157  0.251200  0.250000  1
  Lu  Lu4  1  0.766957  0.748800  0.250000  1
  Lu  Lu5  1  0.754594  0.000000  0.750000  1
  Sc  Sc6  1  0.324621  0.667176  0.005890  1
  Sc  Sc7  1  0.657446  0.332824  0.494110  1
  Sc  Sc8  1  0.657446  0.332824  0.005890  1
  Sc  Sc9  1  0.324621  0.667176  0.494110  1
  Ga  Ga10  1  0.998970  0.600412  0.250000  1
  Ga  Ga11  1  0.398558  0.399588  0.250000  1
  Ga  Ga12  1  0.401837  0.000000  0.750000  1
  Bi  Bi13  1  0.607621  0.000000  0.250000  1
  Bi  Bi14  1  0.600121  0.603279  0.750000  1
  Bi  Bi15  1  0.996842  0.396721  0.750000  1
