# generated using pymatgen
data_Ni16Bi16PS
_symmetry_space_group_name_H-M   'P 1'
_cell_length_a   4.24253600
_cell_length_b   10.33273126
_cell_length_c   17.67252880
_cell_angle_alpha   89.92392564
_cell_angle_beta   90.00000000
_cell_angle_gamma   90.00000000
_symmetry_Int_Tables_number   1
_chemical_formula_structural   Ni16Bi16PS
_chemical_formula_sum   'Ni16 Bi16 P1 S1'
_cell_volume   774.70968510
_cell_formula_units_Z   1
loop_
 _symmetry_equiv_pos_site_id
 _symmetry_equiv_pos_as_xyz
  1  'x, y, z'
loop_
 _atom_site_type_symbol
 _atom_site_label
 _atom_site_symmetry_multiplicity
 _atom_site_fract_x
 _atom_site_fract_y
 _atom_site_fract_z
 _atom_site_occupancy
  Ni  Ni0  1  0.495454  0.819577  0.967642  1
  Ni  Ni1  1  0.495454  0.180423  0.032358  1
  Ni  Ni2  1  0.504119  0.681487  0.467295  1
  Ni  Ni3  1  0.504119  0.318513  0.532705  1
  Ni  Ni4  1  0.000009  0.910766  0.903682  1
  Ni  Ni5  1  0.000009  0.089234  0.096318  1
  Ni  Ni6  1  0.999471  0.588698  0.402527  1
  Ni  Ni7  1  0.999471  0.411302  0.597473  1
  Ni  Ni8  1  0.996852  0.831839  0.052915  1
  Ni  Ni9  1  0.996852  0.168161  0.947085  1
  Ni  Ni10  1  0.003151  0.669565  0.552858  1
  Ni  Ni11  1  0.003151  0.330435  0.447142  1
  Ni  Ni12  1  0.496336  0.943827  0.106360  1
  Ni  Ni13  1  0.496336  0.056173  0.893640  1
  Ni  Ni14  1  0.504883  0.557074  0.607122  1
  Ni  Ni15  1  0.504883  0.442926  0.392878  1
  Bi  Bi16  1  0.497430  0.833018  0.814212  1
  Bi  Bi17  1  0.497430  0.166982  0.185788  1
  Bi  Bi18  1  0.502386  0.666876  0.314033  1
  Bi  Bi19  1  0.502386  0.333124  0.685967  1
  Bi  Bi20  1  0.496665  0.680979  0.096864  1
  Bi  Bi21  1  0.496665  0.319021  0.903136  1
  Bi  Bi22  1  0.503947  0.819094  0.596721  1
  Bi  Bi23  1  0.503947  0.180906  0.403279  1
  Bi  Bi24  1  0.996239  0.654770  0.939133  1
  Bi  Bi25  1  0.996239  0.345230  0.060867  1
  Bi  Bi26  1  0.002580  0.844069  0.437965  1
  Bi  Bi27  1  0.002580  0.155931  0.562035  1
  Bi  Bi28  1  0.999011  0.900875  0.201880  1
  Bi  Bi29  1  0.999011  0.099125  0.798120  1
  Bi  Bi30  1  0.001546  0.601030  0.701799  1
  Bi  Bi31  1  0.001546  0.398970  0.298201  1
  P  P32  1  0.746122  0.000000  0.000000  1
  S  S33  1  0.253715  0.500000  0.500000  1
