# generated using pymatgen
data_Tb4DyTm3Au4
_symmetry_space_group_name_H-M   'P 1'
_cell_length_a   4.92404600
_cell_length_b   7.13994259
_cell_length_c   8.92552348
_cell_angle_alpha   90.20729547
_cell_angle_beta   90.00000000
_cell_angle_gamma   90.00000000
_symmetry_Int_Tables_number   1
_chemical_formula_structural   Tb4DyTm3Au4
_chemical_formula_sum   'Tb4 Dy1 Tm3 Au4'
_cell_volume   313.79619699
_cell_formula_units_Z   1
loop_
 _symmetry_equiv_pos_site_id
 _symmetry_equiv_pos_as_xyz
  1  'x, y, z'
loop_
 _atom_site_type_symbol
 _atom_site_label
 _atom_site_symmetry_multiplicity
 _atom_site_fract_x
 _atom_site_fract_y
 _atom_site_fract_z
 _atom_site_occupancy
  Tb  Tb0  1  0.250000  0.484964  0.176656  1
  Tb  Tb1  1  0.250000  0.987534  0.323106  1
  Tb  Tb2  1  0.750000  0.514210  0.823413  1
  Tb  Tb3  1  0.750000  0.015240  0.677598  1
  Dy  Dy4  1  0.750000  0.647794  0.419401  1
  Tm  Tm5  1  0.250000  0.852575  0.920628  1
  Tm  Tm6  1  0.250000  0.352490  0.580905  1
  Tm  Tm7  1  0.750000  0.147731  0.078949  1
  Au  Au8  1  0.250000  0.252743  0.899869  1
  Au  Au9  1  0.250000  0.754146  0.602762  1
  Au  Au10  1  0.750000  0.747476  0.096952  1
  Au  Au11  1  0.750000  0.243097  0.399759  1
