# generated using pymatgen
data_Y7Hf9(Si4Mo)4
_symmetry_space_group_name_H-M   'P 1'
_cell_length_a   7.14254757
_cell_length_b   7.13726218
_cell_length_c   13.04032827
_cell_angle_alpha   90.13345388
_cell_angle_beta   90.03177733
_cell_angle_gamma   89.96696766
_symmetry_Int_Tables_number   1
_chemical_formula_structural   Y7Hf9(Si4Mo)4
_chemical_formula_sum   'Y7 Hf9 Si16 Mo4'
_cell_volume   664.77089857
_cell_formula_units_Z   1
loop_
 _symmetry_equiv_pos_site_id
 _symmetry_equiv_pos_as_xyz
  1  'x, y, z'
loop_
 _atom_site_type_symbol
 _atom_site_label
 _atom_site_symmetry_multiplicity
 _atom_site_fract_x
 _atom_site_fract_y
 _atom_site_fract_z
 _atom_site_occupancy
  Y  Y0  1  0.498954  0.154460  0.533489  1
  Y  Y1  1  0.501359  0.846346  0.035834  1
  Y  Y2  1  0.655645  0.002206  0.283153  1
  Y  Y3  1  0.345828  0.998482  0.785189  1
  Y  Y4  1  0.845433  0.501376  0.966471  1
  Y  Y5  1  0.153515  0.498335  0.465779  1
  Y  Y6  1  0.001243  0.654623  0.715320  1
  Hf  Hf7  1  0.004996  0.348063  0.215195  1
  Hf  Hf8  1  0.493434  0.354110  0.124875  1
  Hf  Hf9  1  0.505964  0.646092  0.623215  1
  Hf  Hf10  1  0.853910  0.007759  0.875613  1
  Hf  Hf11  1  0.143153  0.993513  0.371833  1
  Hf  Hf12  1  0.646135  0.504120  0.374061  1
  Hf  Hf13  1  0.353620  0.493911  0.877594  1
  Hf  Hf14  1  0.005828  0.855084  0.127223  1
  Hf  Hf15  1  0.993116  0.146380  0.625200  1
  Si  Si16  1  0.802632  0.145641  0.072062  1
  Si  Si17  1  0.202531  0.860312  0.566050  1
  Si  Si18  1  0.639771  0.702437  0.816867  1
  Si  Si19  1  0.353723  0.299564  0.315759  1
  Si  Si20  1  0.860911  0.205148  0.429903  1
  Si  Si21  1  0.139279  0.796521  0.934152  1
  Si  Si22  1  0.709305  0.635461  0.181494  1
  Si  Si23  1  0.297932  0.359857  0.683441  1
  Si  Si24  1  0.553067  0.205831  0.934717  1
  Si  Si25  1  0.447561  0.794320  0.432787  1
  Si  Si26  1  0.705092  0.947903  0.683891  1
  Si  Si27  1  0.292507  0.055828  0.183437  1
  Si  Si28  1  0.794905  0.448338  0.565375  1
  Si  Si29  1  0.201647  0.548717  0.068551  1
  Si  Si30  1  0.950042  0.698081  0.314720  1
  Si  Si31  1  0.052177  0.295131  0.816243  1
  Mo  Mo32  1  0.676154  0.323558  0.750036  1
  Mo  Mo33  1  0.320453  0.672552  0.249900  1
  Mo  Mo34  1  0.824057  0.822151  0.498518  1
  Mo  Mo35  1  0.174123  0.177790  0.002052  1
