# generated using pymatgen
data_Rb8Tb4Sc3Ga(SiO3)16
_symmetry_space_group_name_H-M   'P 1'
_cell_length_a   7.37656262
_cell_length_b   14.11918286
_cell_length_c   14.18945200
_cell_angle_alpha   64.28678558
_cell_angle_beta   74.93401835
_cell_angle_gamma   74.85724806
_symmetry_Int_Tables_number   1
_chemical_formula_structural   Rb8Tb4Sc3Ga(SiO3)16
_chemical_formula_sum   'Rb8 Tb4 Sc3 Ga1 Si16 O48'
_cell_volume   1266.88260627
_cell_formula_units_Z   1
loop_
 _symmetry_equiv_pos_site_id
 _symmetry_equiv_pos_as_xyz
  1  'x, y, z'
loop_
 _atom_site_type_symbol
 _atom_site_label
 _atom_site_symmetry_multiplicity
 _atom_site_fract_x
 _atom_site_fract_y
 _atom_site_fract_z
 _atom_site_occupancy
  Rb  Rb0  1  0.796957  0.377425  0.051775  1
  Rb  Rb1  1  0.814446  0.415983  0.465080  1
  Rb  Rb2  1  0.267378  0.876180  0.555516  1
  Rb  Rb3  1  0.724359  0.119044  0.453920  1
  Rb  Rb4  1  0.804662  0.913509  0.965025  1
  Rb  Rb5  1  0.187369  0.585633  0.533398  1
  Rb  Rb6  1  0.197260  0.085688  0.032675  1
  Rb  Rb7  1  0.205075  0.621742  0.948323  1
  Tb  Tb8  1  0.448227  0.790429  0.250334  1
  Tb  Tb9  1  0.552391  0.209725  0.749300  1
  Tb  Tb10  1  0.014287  0.288053  0.748313  1
  Tb  Tb11  1  0.987490  0.710575  0.251780  1
  Sc  Sc12  1  0.138010  0.409300  0.223329  1
  Sc  Sc13  1  0.864326  0.587899  0.775743  1
  Sc  Sc14  1  0.274090  0.090160  0.276183  1
  Ga  Ga15  1  0.725473  0.912317  0.725902  1
  Si  Si16  1  0.699930  0.170031  0.987812  1
  Si  Si17  1  0.298690  0.829679  0.012521  1
  Si  Si18  1  0.971674  0.923724  0.334336  1
  Si  Si19  1  0.731577  0.581463  0.162793  1
  Si  Si20  1  0.017855  0.073428  0.668666  1
  Si  Si21  1  0.789501  0.801992  0.574487  1
  Si  Si22  1  0.690232  0.967704  0.196992  1
  Si  Si23  1  0.646926  0.466646  0.697391  1
  Si  Si24  1  0.655096  0.702898  0.927687  1
  Si  Si25  1  0.210869  0.195785  0.433162  1
  Si  Si26  1  0.641927  0.674018  0.490428  1
  Si  Si27  1  0.271880  0.420448  0.833271  1
  Si  Si28  1  0.344171  0.302318  0.068637  1
  Si  Si29  1  0.357272  0.533226  0.300148  1
  Si  Si30  1  0.311261  0.028687  0.799298  1
  Si  Si31  1  0.358716  0.329797  0.510397  1
  O  O32  1  0.564280  0.238178  0.060729  1
  O  O33  1  0.933744  0.716490  0.653914  1
  O  O34  1  0.764443  0.977016  0.291801  1
  O  O35  1  0.663690  0.894576  0.616892  1
  O  O36  1  0.418072  0.445424  0.414568  1
  O  O37  1  0.165703  0.513226  0.277707  1
  O  O38  1  0.532074  0.269949  0.576644  1
  O  O39  1  0.422880  0.850494  0.077777  1
  O  O40  1  0.227136  0.017798  0.708735  1
  O  O41  1  0.663754  0.604864  0.894236  1
  O  O42  1  0.148788  0.352085  0.575433  1
  O  O43  1  0.076602  0.277982  0.345883  1
  O  O44  1  0.360071  0.258881  0.441477  1
  O  O45  1  0.839184  0.483657  0.721709  1
  O  O46  1  0.200985  0.223173  0.156548  1
  O  O47  1  0.223398  0.946301  0.917013  1
  O  O48  1  0.879181  0.230339  0.921041  1
  O  O49  1  0.851869  0.653333  0.424775  1
  O  O50  1  0.936144  0.976613  0.669312  1
  O  O51  1  0.779935  0.053132  0.081627  1
  O  O52  1  0.545687  0.009209  0.773335  1
  O  O53  1  0.110533  0.853209  0.270992  1
  O  O54  1  0.706020  0.347838  0.697499  1
  O  O55  1  0.906834  0.482711  0.164248  1
  O  O56  1  0.469187  0.734033  0.423612  1
  O  O57  1  0.743452  0.660973  0.036121  1
  O  O58  1  0.735095  0.646641  0.231763  1
  O  O59  1  0.341074  0.400096  0.101565  1
  O  O60  1  0.467907  0.473960  0.792714  1
  O  O61  1  0.258391  0.149175  0.795189  1
  O  O62  1  0.884738  0.142895  0.734380  1
  O  O63  1  0.431976  0.759417  0.941882  1
  O  O64  1  0.927800  0.851621  0.461887  1
  O  O65  1  0.636458  0.742484  0.563419  1
  O  O66  1  0.747217  0.847911  0.200155  1
  O  O67  1  0.575206  0.149515  0.922578  1
  O  O68  1  0.586849  0.556024  0.583463  1
  O  O69  1  0.340422  0.099030  0.399171  1
  O  O70  1  0.262846  0.341983  0.959153  1
  O  O71  1  0.051956  0.022828  0.329842  1
  O  O72  1  0.096817  0.518614  0.833079  1
  O  O73  1  0.267023  0.352794  0.766963  1
  O  O74  1  0.535085  0.528011  0.203370  1
  O  O75  1  0.118477  0.770595  0.078992  1
  O  O76  1  0.456330  0.987247  0.219322  1
  O  O77  1  0.060493  0.151681  0.542514  1
  O  O78  1  0.296170  0.651750  0.300750  1
  O  O79  1  0.788647  0.788740  0.839600  1
