# generated using pymatgen
data_Sc5Fe16(TcP4)3
_symmetry_space_group_name_H-M   'P 1'
_cell_length_a   11.85315200
_cell_length_b   11.85315309
_cell_length_c   3.63076000
_cell_angle_alpha   90.00000000
_cell_angle_beta   90.00000000
_cell_angle_gamma   119.99999697
_symmetry_Int_Tables_number   1
_chemical_formula_structural   Sc5Fe16(TcP4)3
_chemical_formula_sum   'Sc5 Fe16 Tc3 P12'
_cell_volume   441.76970909
_cell_formula_units_Z   1
loop_
 _symmetry_equiv_pos_site_id
 _symmetry_equiv_pos_as_xyz
  1  'x, y, z'
loop_
 _atom_site_type_symbol
 _atom_site_label
 _atom_site_symmetry_multiplicity
 _atom_site_fract_x
 _atom_site_fract_y
 _atom_site_fract_z
 _atom_site_occupancy
  Sc  Sc0  1  0.666667  0.333333  0.000000  1
  Sc  Sc1  1  0.333333  0.666667  0.000000  1
  Sc  Sc2  1  0.818514  0.818514  0.500000  1
  Sc  Sc3  1  0.181486  0.000000  0.500000  1
  Sc  Sc4  1  0.000000  0.181486  0.500000  1
  Fe  Fe5  1  0.197627  0.377837  0.000000  1
  Fe  Fe6  1  0.180211  0.802373  0.000000  1
  Fe  Fe7  1  0.819789  0.622163  0.000000  1
  Fe  Fe8  1  0.802373  0.180211  0.000000  1
  Fe  Fe9  1  0.377837  0.197627  0.000000  1
  Fe  Fe10  1  0.125017  0.477540  0.500000  1
  Fe  Fe11  1  0.352524  0.874983  0.500000  1
  Fe  Fe12  1  0.522460  0.647476  0.500000  1
  Fe  Fe13  1  0.647476  0.522460  0.500000  1
  Fe  Fe14  1  0.874983  0.352524  0.500000  1
  Fe  Fe15  1  0.477540  0.125017  0.500000  1
  Fe  Fe16  1  0.000000  0.000000  0.000000  1
  Fe  Fe17  1  0.718542  0.000000  0.500000  1
  Fe  Fe18  1  0.000000  0.718542  0.500000  1
  Fe  Fe19  1  0.622163  0.819789  0.000000  1
  Fe  Fe20  1  0.281458  0.281458  0.500000  1
  Tc  Tc21  1  0.446559  0.446559  0.000000  1
  Tc  Tc22  1  0.553441  0.000000  0.000000  1
  Tc  Tc23  1  0.000000  0.553441  0.000000  1
  P  P24  1  0.642763  0.642763  0.000000  1
  P  P25  1  0.357237  0.000000  0.000000  1
  P  P26  1  0.000000  0.357237  0.000000  1
  P  P27  1  0.482993  0.317437  0.500000  1
  P  P28  1  0.682563  0.165557  0.500000  1
  P  P29  1  0.834443  0.517007  0.500000  1
  P  P30  1  0.517007  0.834443  0.500000  1
  P  P31  1  0.165557  0.682563  0.500000  1
  P  P32  1  0.820128  0.000000  0.000000  1
  P  P33  1  0.000000  0.820128  0.000000  1
  P  P34  1  0.317437  0.482993  0.500000  1
  P  P35  1  0.179872  0.179872  0.000000  1
