# generated using pymatgen
data_Zr8Ti2ZnSiSn6
_symmetry_space_group_name_H-M   'P 1'
_cell_length_a   8.63447900
_cell_length_b   8.63447911
_cell_length_c   5.81296900
_cell_angle_alpha   90.00000000
_cell_angle_beta   90.00000000
_cell_angle_gamma   120.00000341
_symmetry_Int_Tables_number   1
_chemical_formula_structural   Zr8Ti2ZnSiSn6
_chemical_formula_sum   'Zr8 Ti2 Zn1 Si1 Sn6'
_cell_volume   375.31930578
_cell_formula_units_Z   1
loop_
 _symmetry_equiv_pos_site_id
 _symmetry_equiv_pos_as_xyz
  1  'x, y, z'
loop_
 _atom_site_type_symbol
 _atom_site_label
 _atom_site_symmetry_multiplicity
 _atom_site_fract_x
 _atom_site_fract_y
 _atom_site_fract_z
 _atom_site_occupancy
  Zr  Zr0  1  0.333333  0.666667  0.500000  1
  Zr  Zr1  1  0.666667  0.333333  0.500000  1
  Zr  Zr2  1  0.735874  0.735874  0.738714  1
  Zr  Zr3  1  0.264126  0.000000  0.738714  1
  Zr  Zr4  1  0.000000  0.264126  0.738714  1
  Zr  Zr5  1  0.264126  0.264126  0.261286  1
  Zr  Zr6  1  0.735874  0.000000  0.261286  1
  Zr  Zr7  1  0.000000  0.735874  0.261286  1
  Ti  Ti8  1  0.666667  0.333333  0.000000  1
  Ti  Ti9  1  0.333333  0.666667  0.000000  1
  Zn  Zn10  1  0.000000  0.000000  0.000000  1
  Si  Si11  1  0.000000  0.000000  0.500000  1
  Sn  Sn12  1  0.390735  0.390735  0.762429  1
  Sn  Sn13  1  0.609265  0.000000  0.762429  1
  Sn  Sn14  1  0.000000  0.609265  0.762429  1
  Sn  Sn15  1  0.609265  0.609265  0.237571  1
  Sn  Sn16  1  0.390735  0.000000  0.237571  1
  Sn  Sn17  1  0.000000  0.390735  0.237571  1
