# generated using pymatgen
data_Zr4FeCo7As6
_symmetry_space_group_name_H-M   'P 1'
_cell_length_a   12.56511369
_cell_length_b   12.54221617
_cell_length_c   3.77622600
_cell_angle_alpha   90.00000000
_cell_angle_beta   90.00000000
_cell_angle_gamma   120.10875323
_symmetry_Int_Tables_number   1
_chemical_formula_structural   Zr4FeCo7As6
_chemical_formula_sum   'Zr8 Fe2 Co14 As12'
_cell_volume   514.81636040
_cell_formula_units_Z   2
loop_
 _symmetry_equiv_pos_site_id
 _symmetry_equiv_pos_as_xyz
  1  'x, y, z'
loop_
 _atom_site_type_symbol
 _atom_site_label
 _atom_site_symmetry_multiplicity
 _atom_site_fract_x
 _atom_site_fract_y
 _atom_site_fract_z
 _atom_site_occupancy
  Zr  Zr0  1  0.442868  0.443531  0.000000  1
  Zr  Zr1  1  0.556596  0.000141  0.000000  1
  Zr  Zr2  1  0.999698  0.556741  0.000000  1
  Zr  Zr3  1  0.666292  0.333156  0.000000  1
  Zr  Zr4  1  0.331308  0.665851  0.000000  1
  Zr  Zr5  1  0.826232  0.825672  0.500000  1
  Zr  Zr6  1  0.174791  0.999512  0.500000  1
  Zr  Zr7  1  0.001221  0.176231  0.500000  1
  Fe  Fe8  1  0.196919  0.373015  0.000000  1
  Fe  Fe9  1  0.176431  0.802993  0.000000  1
  Co  Co10  1  0.821979  0.627382  0.000000  1
  Co  Co11  1  0.805708  0.177391  0.000000  1
  Co  Co12  1  0.372953  0.194580  0.000000  1
  Co  Co13  1  0.122099  0.478267  0.500000  1
  Co  Co14  1  0.355944  0.877442  0.500000  1
  Co  Co15  1  0.521382  0.645206  0.500000  1
  Co  Co16  1  0.645622  0.522053  0.500000  1
  Co  Co17  1  0.874360  0.354821  0.500000  1
  Co  Co18  1  0.480595  0.125288  0.500000  1
  Co  Co19  1  0.999599  0.999330  0.000000  1
  Co  Co20  1  0.719530  0.000062  0.500000  1
  Co  Co21  1  0.997460  0.718127  0.500000  1
  Co  Co22  1  0.627748  0.823525  0.000000  1
  Co  Co23  1  0.282051  0.279276  0.500000  1
  As  As24  1  0.654868  0.655314  0.000000  1
  As  As25  1  0.344134  0.998036  0.000000  1
  As  As26  1  0.002226  0.346495  0.000000  1
  As  As27  1  0.485242  0.310793  0.500000  1
  As  As28  1  0.689831  0.174388  0.500000  1
  As  As29  1  0.825174  0.515015  0.500000  1
  As  As30  1  0.513923  0.825054  0.500000  1
  As  As31  1  0.174140  0.690448  0.500000  1
  As  As32  1  0.825321  0.000555  0.000000  1
  As  As33  1  0.001862  0.824889  0.000000  1
  As  As34  1  0.308673  0.483541  0.500000  1
  As  As35  1  0.175219  0.175883  0.000000  1
