# generated using pymatgen
data_Tb7DyRe2(B12Os)2
_symmetry_space_group_name_H-M   'P 1'
_cell_length_a   3.68675400
_cell_length_b   9.19622557
_cell_length_c   11.58831001
_cell_angle_alpha   90.14286014
_cell_angle_beta   90.00000000
_cell_angle_gamma   90.00000000
_symmetry_Int_Tables_number   1
_chemical_formula_structural   Tb7DyRe2(B12Os)2
_chemical_formula_sum   'Tb7 Dy1 Re2 B24 Os2'
_cell_volume   392.89140690
_cell_formula_units_Z   1
loop_
 _symmetry_equiv_pos_site_id
 _symmetry_equiv_pos_as_xyz
  1  'x, y, z'
loop_
 _atom_site_type_symbol
 _atom_site_label
 _atom_site_symmetry_multiplicity
 _atom_site_fract_x
 _atom_site_fract_y
 _atom_site_fract_z
 _atom_site_occupancy
  Tb  Tb0  1  0.000000  0.321260  0.412475  1
  Tb  Tb1  1  0.000000  0.678712  0.587595  1
  Tb  Tb2  1  0.000000  0.824884  0.084831  1
  Tb  Tb3  1  0.000000  0.175117  0.915105  1
  Tb  Tb4  1  0.000000  0.943335  0.370572  1
  Tb  Tb5  1  0.000000  0.056682  0.629454  1
  Tb  Tb6  1  0.000000  0.442487  0.128897  1
  Dy  Dy7  1  0.000000  0.557545  0.870929  1
  Re  Re8  1  0.000000  0.138314  0.179377  1
  Re  Re9  1  0.000000  0.861439  0.820595  1
  B  B10  1  0.500000  0.553903  0.432688  1
  B  B11  1  0.500000  0.446111  0.567364  1
  B  B12  1  0.500000  0.053266  0.067140  1
  B  B13  1  0.500000  0.946667  0.932843  1
  B  B14  1  0.500000  0.747971  0.418494  1
  B  B15  1  0.500000  0.252062  0.581519  1
  B  B16  1  0.500000  0.248032  0.081319  1
  B  B17  1  0.500000  0.751673  0.918683  1
  B  B18  1  0.500000  0.790104  0.266250  1
  B  B19  1  0.500000  0.209967  0.733778  1
  B  B20  1  0.500000  0.290995  0.234259  1
  B  B21  1  0.500000  0.708729  0.765817  1
  B  B22  1  0.500000  0.631191  0.186628  1
  B  B23  1  0.500000  0.369040  0.813494  1
  B  B24  1  0.500000  0.131700  0.314220  1
  B  B25  1  0.500000  0.868247  0.685810  1
  B  B26  1  0.500000  0.983603  0.212347  1
  B  B27  1  0.500000  0.016387  0.787666  1
  B  B28  1  0.500000  0.483779  0.288105  1
  B  B29  1  0.500000  0.516362  0.712085  1
  B  B30  1  0.500000  0.603924  0.028773  1
  B  B31  1  0.500000  0.396328  0.970732  1
  B  B32  1  0.500000  0.104709  0.471099  1
  B  B33  1  0.500000  0.895288  0.528914  1
  Os  Os34  1  0.000000  0.637388  0.321963  1
  Os  Os35  1  0.000000  0.362797  0.678181  1
