# generated using pymatgen
data_Tb4Y3Er(WO6)4
_symmetry_space_group_name_H-M   'P 1'
_cell_length_a   5.41468877
_cell_length_b   7.72987672
_cell_length_c   11.48591720
_cell_angle_alpha   75.57213180
_cell_angle_beta   89.98337512
_cell_angle_gamma   89.93880250
_symmetry_Int_Tables_number   1
_chemical_formula_structural   Tb4Y3Er(WO6)4
_chemical_formula_sum   'Tb4 Y3 Er1 W4 O24'
_cell_volume   465.57979334
_cell_formula_units_Z   1
loop_
 _symmetry_equiv_pos_site_id
 _symmetry_equiv_pos_as_xyz
  1  'x, y, z'
loop_
 _atom_site_type_symbol
 _atom_site_label
 _atom_site_symmetry_multiplicity
 _atom_site_fract_x
 _atom_site_fract_y
 _atom_site_fract_z
 _atom_site_occupancy
  Tb  Tb0  1  0.683886  0.499722  0.249664  1
  Tb  Tb1  1  0.316700  0.499532  0.750794  1
  Tb  Tb2  1  0.741035  0.000273  0.249217  1
  Tb  Tb3  1  0.259022  0.000428  0.750977  1
  Y  Y4  1  0.184598  0.206378  0.421993  1
  Y  Y5  1  0.183328  0.793642  0.077821  1
  Y  Y6  1  0.815892  0.793595  0.577994  1
  Er  Er7  1  0.816653  0.207293  0.921573  1
  W  W8  1  0.256229  0.276000  0.113916  1
  W  W9  1  0.256070  0.723915  0.385106  1
  W  W10  1  0.743870  0.723674  0.885142  1
  W  W11  1  0.744457  0.275795  0.615671  1
  O  O12  1  0.457553  0.209325  0.271745  1
  O  O13  1  0.457313  0.790394  0.227284  1
  O  O14  1  0.542362  0.789733  0.727716  1
  O  O15  1  0.544513  0.209325  0.774152  1
  O  O16  1  0.045646  0.061633  0.102965  1
  O  O17  1  0.045860  0.939247  0.395595  1
  O  O18  1  0.950281  0.941031  0.895940  1
  O  O19  1  0.954269  0.060793  0.604632  1
  O  O20  1  0.981975  0.289497  0.227569  1
  O  O21  1  0.981257  0.710396  0.272114  1
  O  O22  1  0.019309  0.711250  0.772621  1
  O  O23  1  0.018098  0.288979  0.729471  1
  O  O24  1  0.847587  0.364580  0.452709  1
  O  O25  1  0.847132  0.635054  0.047905  1
  O  O26  1  0.152722  0.634758  0.547815  1
  O  O27  1  0.149881  0.364438  0.951535  1
  O  O28  1  0.639706  0.508667  0.614900  1
  O  O29  1  0.642286  0.489904  0.885522  1
  O  O30  1  0.360821  0.491041  0.385267  1
  O  O31  1  0.360161  0.508638  0.113683  1
  O  O32  1  0.466194  0.154177  0.570343  1
  O  O33  1  0.464801  0.844827  0.930784  1
  O  O34  1  0.533155  0.846647  0.430575  1
  O  O35  1  0.535378  0.155419  0.067290  1
