# generated using pymatgen
data_TmZr(Ga3Rh)3
_symmetry_space_group_name_H-M   'P 1'
_cell_length_a   7.52684311
_cell_length_b   7.51718931
_cell_length_c   9.40980800
_cell_angle_alpha   90.00000000
_cell_angle_beta   90.00000000
_cell_angle_gamma   119.95106977
_symmetry_Int_Tables_number   1
_chemical_formula_structural   TmZr(Ga3Rh)3
_chemical_formula_sum   'Tm2 Zr2 Ga18 Rh6'
_cell_volume   461.31084456
_cell_formula_units_Z   2
loop_
 _symmetry_equiv_pos_site_id
 _symmetry_equiv_pos_as_xyz
  1  'x, y, z'
loop_
 _atom_site_type_symbol
 _atom_site_label
 _atom_site_symmetry_multiplicity
 _atom_site_fract_x
 _atom_site_fract_y
 _atom_site_fract_z
 _atom_site_occupancy
  Tm  Tm0  1  0.668330  0.995800  0.250000  1
  Tm  Tm1  1  0.331670  0.004200  0.750000  1
  Zr  Zr2  1  0.995932  0.668855  0.250000  1
  Zr  Zr3  1  0.004068  0.331145  0.750000  1
  Ga  Ga4  1  0.124244  0.123285  0.250000  1
  Ga  Ga5  1  0.875756  0.876715  0.750000  1
  Ga  Ga6  1  0.998486  0.336368  0.079288  1
  Ga  Ga7  1  0.001514  0.663632  0.920712  1
  Ga  Ga8  1  0.001514  0.663632  0.579288  1
  Ga  Ga9  1  0.331767  0.996781  0.418326  1
  Ga  Ga10  1  0.998486  0.336368  0.420712  1
  Ga  Ga11  1  0.668233  0.003219  0.581674  1
  Ga  Ga12  1  0.668233  0.003219  0.918326  1
  Ga  Ga13  1  0.331767  0.996781  0.081674  1
  Ga  Ga14  1  0.330402  0.332446  0.568018  1
  Ga  Ga15  1  0.669598  0.667554  0.431982  1
  Ga  Ga16  1  0.669598  0.667554  0.068018  1
  Ga  Ga17  1  0.330402  0.332446  0.931982  1
  Ga  Ga18  1  0.336395  0.547741  0.250000  1
  Ga  Ga19  1  0.663605  0.452259  0.750000  1
  Ga  Ga20  1  0.551251  0.340237  0.250000  1
  Ga  Ga21  1  0.448749  0.659763  0.750000  1
  Rh  Rh22  1  0.671959  0.327961  0.999719  1
  Rh  Rh23  1  0.328041  0.672039  0.000281  1
  Rh  Rh24  1  0.328041  0.672039  0.499719  1
  Rh  Rh25  1  0.671959  0.327961  0.500281  1
  Rh  Rh26  1  0.000000  0.000000  0.000000  1
  Rh  Rh27  1  0.000000  0.000000  0.500000  1
