# generated using pymatgen
data_Nd5Sn15PdRh7
_symmetry_space_group_name_H-M   'P 1'
_cell_length_a   4.54261100
_cell_length_b   7.30658219
_cell_length_c   18.83203994
_cell_angle_alpha   89.86767790
_cell_angle_beta   90.00000000
_cell_angle_gamma   90.00000000
_symmetry_Int_Tables_number   1
_chemical_formula_structural   Nd5Sn15PdRh7
_chemical_formula_sum   'Nd5 Sn15 Pd1 Rh7'
_cell_volume   625.05182964
_cell_formula_units_Z   1
loop_
 _symmetry_equiv_pos_site_id
 _symmetry_equiv_pos_as_xyz
  1  'x, y, z'
loop_
 _atom_site_type_symbol
 _atom_site_label
 _atom_site_symmetry_multiplicity
 _atom_site_fract_x
 _atom_site_fract_y
 _atom_site_fract_z
 _atom_site_occupancy
  Nd  Nd0  1  0.500000  0.003907  0.855094  1
  Nd  Nd1  1  0.500000  0.500203  0.358065  1
  Nd  Nd2  1  0.000000  0.998314  0.143780  1
  Nd  Nd3  1  0.000000  0.499801  0.641210  1
  Nd  Nd4  1  0.500000  0.494248  0.928620  1
  Sn  Sn5  1  0.000000  0.719145  0.805418  1
  Sn  Sn6  1  0.000000  0.781244  0.306489  1
  Sn  Sn7  1  0.500000  0.277483  0.195145  1
  Sn  Sn8  1  0.500000  0.218707  0.693094  1
  Sn  Sn9  1  0.000000  0.851578  0.967728  1
  Sn  Sn10  1  0.000000  0.632734  0.468054  1
  Sn  Sn11  1  0.500000  0.137766  0.031964  1
  Sn  Sn12  1  0.500000  0.367481  0.530539  1
  Sn  Sn13  1  0.000000  0.303407  0.818487  1
  Sn  Sn14  1  0.000000  0.201358  0.318127  1
  Sn  Sn15  1  0.500000  0.699165  0.188184  1
  Sn  Sn16  1  0.500000  0.805282  0.678171  1
  Sn  Sn17  1  0.500000  0.020617  0.433644  1
  Sn  Sn18  1  0.000000  0.504532  0.067786  1
  Sn  Sn19  1  0.000000  0.980594  0.567944  1
  Pd  Pd20  1  0.500000  0.763020  0.046375  1
  Rh  Rh21  1  0.000000  0.228950  0.965795  1
  Rh  Rh22  1  0.000000  0.249060  0.465016  1
  Rh  Rh23  1  0.500000  0.750442  0.532691  1
  Rh  Rh24  1  0.000000  0.018045  0.714841  1
  Rh  Rh25  1  0.000000  0.484819  0.212874  1
  Rh  Rh26  1  0.500000  0.988242  0.290061  1
  Rh  Rh27  1  0.500000  0.519854  0.774803  1
