# generated using pymatgen
data_Gd8Y2Si5Sn
_symmetry_space_group_name_H-M   'P 1'
_cell_length_a   7.55228483
_cell_length_b   7.55228607
_cell_length_c   8.99706300
_cell_angle_alpha   114.81618811
_cell_angle_beta   114.81618411
_cell_angle_gamma   89.99999358
_symmetry_Int_Tables_number   1
_chemical_formula_structural   Gd8Y2Si5Sn
_chemical_formula_sum   'Gd8 Y2 Si5 Sn1'
_cell_volume   412.99139652
_cell_formula_units_Z   1
loop_
 _symmetry_equiv_pos_site_id
 _symmetry_equiv_pos_as_xyz
  1  'x, y, z'
loop_
 _atom_site_type_symbol
 _atom_site_label
 _atom_site_symmetry_multiplicity
 _atom_site_fract_x
 _atom_site_fract_y
 _atom_site_fract_z
 _atom_site_occupancy
  Gd  Gd0  1  0.984213  0.822332  0.283733  1
  Gd  Gd1  1  0.299520  0.461401  0.283733  1
  Gd  Gd2  1  0.822332  0.299520  0.283733  1
  Gd  Gd3  1  0.461401  0.984213  0.283733  1
  Gd  Gd4  1  0.038599  0.200480  0.716267  1
  Gd  Gd5  1  0.677668  0.515787  0.716267  1
  Gd  Gd6  1  0.200480  0.677668  0.716267  1
  Gd  Gd7  1  0.515787  0.038599  0.716267  1
  Y  Y8  1  0.513668  0.513668  0.027337  1
  Y  Y9  1  0.986332  0.986332  0.972663  1
  Si  Si10  1  0.250000  0.250000  0.500000  1
  Si  Si11  1  0.624874  0.875126  0.000000  1
  Si  Si12  1  0.375126  0.124874  0.000000  1
  Si  Si13  1  0.875126  0.375126  0.000000  1
  Si  Si14  1  0.124874  0.624874  0.000000  1
  Sn  Sn15  1  0.750000  0.750000  0.500000  1
