# generated using pymatgen
data_MgH4F6
_symmetry_space_group_name_H-M   'P 1'
_cell_length_a   3.11071994
_cell_length_b   6.84765772
_cell_length_c   6.78628125
_cell_angle_alpha   102.34181133
_cell_angle_beta   94.68068363
_cell_angle_gamma   121.10461898
_symmetry_Int_Tables_number   1
_chemical_formula_structural   MgH4F6
_chemical_formula_sum   'Mg1 H4 F6'
_cell_volume   117.68240685
_cell_formula_units_Z   1
loop_
 _symmetry_equiv_pos_site_id
 _symmetry_equiv_pos_as_xyz
  1  'x, y, z'
loop_
 _atom_site_type_symbol
 _atom_site_label
 _atom_site_symmetry_multiplicity
 _atom_site_fract_x
 _atom_site_fract_y
 _atom_site_fract_z
 _atom_site_occupancy
  Mg  Mg0  1  0.308847  0.190044  0.871575  1
  H  H1  1  0.005846  0.386763  0.578865  1
  H  H2  1  0.594703  0.994891  0.165922  1
  H  H3  1  0.578445  0.703758  0.601897  1
  H  H4  1  0.016186  0.677737  0.142308  1
  F  F5  1  0.916079  0.847471  0.697819  1
  F  F6  1  0.146167  0.496612  0.485440  1
  F  F7  1  0.439232  0.887102  0.260270  1
  F  F8  1  0.685655  0.531924  0.044100  1
  F  F9  1  0.857662  0.259323  0.707835  1
  F  F10  1  0.755607  0.118947  0.034634  1
