# generated using pymatgen
data_LuNb8CuS16
_symmetry_space_group_name_H-M   'P 1'
_cell_length_a   6.76226100
_cell_length_b   6.76226141
_cell_length_c   12.82206500
_cell_angle_alpha   90.00000000
_cell_angle_beta   90.00000000
_cell_angle_gamma   120.00000288
_symmetry_Int_Tables_number   1
_chemical_formula_structural   LuNb8CuS16
_chemical_formula_sum   'Lu1 Nb8 Cu1 S16'
_cell_volume   507.77635970
_cell_formula_units_Z   1
loop_
 _symmetry_equiv_pos_site_id
 _symmetry_equiv_pos_as_xyz
  1  'x, y, z'
loop_
 _atom_site_type_symbol
 _atom_site_label
 _atom_site_symmetry_multiplicity
 _atom_site_fract_x
 _atom_site_fract_y
 _atom_site_fract_z
 _atom_site_occupancy
  Lu  Lu0  1  0.000000  0.000000  0.500000  1
  Nb  Nb1  1  0.990161  0.495081  0.237320  1
  Nb  Nb2  1  0.009839  0.504919  0.762680  1
  Nb  Nb3  1  0.495081  0.504919  0.762680  1
  Nb  Nb4  1  0.504919  0.009839  0.237320  1
  Nb  Nb5  1  0.000000  0.000000  0.765067  1
  Nb  Nb6  1  0.000000  0.000000  0.234933  1
  Nb  Nb7  1  0.504919  0.495081  0.237320  1
  Nb  Nb8  1  0.495081  0.990161  0.762680  1
  Cu  Cu9  1  0.000000  0.000000  0.000000  1
  S  S10  1  0.333333  0.666667  0.637864  1
  S  S11  1  0.666667  0.333333  0.115425  1
  S  S12  1  0.666667  0.333333  0.362136  1
  S  S13  1  0.333333  0.666667  0.884575  1
  S  S14  1  0.166983  0.333967  0.359033  1
  S  S15  1  0.830334  0.169666  0.882446  1
  S  S16  1  0.339331  0.169666  0.882446  1
  S  S17  1  0.666033  0.833017  0.359033  1
  S  S18  1  0.166983  0.833017  0.359033  1
  S  S19  1  0.830334  0.660669  0.882446  1
  S  S20  1  0.169666  0.339331  0.117554  1
  S  S21  1  0.833017  0.166983  0.640967  1
  S  S22  1  0.333967  0.166983  0.640967  1
  S  S23  1  0.660669  0.830334  0.117554  1
  S  S24  1  0.169666  0.830334  0.117554  1
  S  S25  1  0.833017  0.666033  0.640967  1
