# generated using pymatgen
data_ScTi4Al16GaPt7
_symmetry_space_group_name_H-M   'P 1'
_cell_length_a   8.65603419
_cell_length_b   8.70231996
_cell_length_c   8.70247319
_cell_angle_alpha   59.64987597
_cell_angle_beta   60.17308924
_cell_angle_gamma   60.17501718
_symmetry_Int_Tables_number   1
_chemical_formula_structural   ScTi4Al16GaPt7
_chemical_formula_sum   'Sc1 Ti4 Al16 Ga1 Pt7'
_cell_volume   463.50127658
_cell_formula_units_Z   1
loop_
 _symmetry_equiv_pos_site_id
 _symmetry_equiv_pos_as_xyz
  1  'x, y, z'
loop_
 _atom_site_type_symbol
 _atom_site_label
 _atom_site_symmetry_multiplicity
 _atom_site_fract_x
 _atom_site_fract_y
 _atom_site_fract_z
 _atom_site_occupancy
  Sc  Sc0  1  0.809878  0.190115  0.190110  1
  Ti  Ti1  1  0.792125  0.207865  0.792241  1
  Ti  Ti2  1  0.792068  0.792200  0.207912  1
  Ti  Ti3  1  0.207818  0.792189  0.207894  1
  Ti  Ti4  1  0.207804  0.207938  0.792194  1
  Al  Al5  1  0.877629  0.842844  0.842942  1
  Al  Al6  1  0.853351  0.827882  0.465417  1
  Al  Al7  1  0.436535  0.842926  0.842923  1
  Al  Al8  1  0.853322  0.465496  0.827888  1
  Al  Al9  1  0.172097  0.146637  0.146682  1
  Al  Al10  1  0.157150  0.122403  0.563420  1
  Al  Al11  1  0.157076  0.563475  0.122415  1
  Al  Al12  1  0.534502  0.146658  0.146722  1
  Al  Al13  1  0.620738  0.617377  0.617339  1
  Al  Al14  1  0.629102  0.620482  0.121280  1
  Al  Al15  1  0.144529  0.617379  0.617301  1
  Al  Al16  1  0.629143  0.121271  0.620451  1
  Al  Al17  1  0.379521  0.370907  0.370826  1
  Al  Al18  1  0.382634  0.379255  0.855448  1
  Al  Al19  1  0.382633  0.855441  0.379212  1
  Al  Al20  1  0.878731  0.370882  0.370839  1
  Ga  Ga21  1  0.038292  0.961698  0.961738  1
  Pt  Pt22  1  0.012364  0.487587  0.487637  1
  Pt  Pt23  1  0.512400  0.987629  0.987589  1
  Pt  Pt24  1  0.509240  0.995671  0.490827  1
  Pt  Pt25  1  0.509230  0.490784  0.995700  1
  Pt  Pt26  1  0.004338  0.490764  0.995717  1
  Pt  Pt27  1  0.004265  0.995730  0.490837  1
  Pt  Pt28  1  0.511488  0.488514  0.488495  1
