# generated using pymatgen
data_Nd9Dy9(Si8Ag)2
_symmetry_space_group_name_H-M   'P 1'
_cell_length_a   7.75960587
_cell_length_b   7.76520435
_cell_length_c   14.42615700
_cell_angle_alpha   89.87551675
_cell_angle_beta   90.23063523
_cell_angle_gamma   90.00513476
_symmetry_Int_Tables_number   1
_chemical_formula_structural   Nd9Dy9(Si8Ag)2
_chemical_formula_sum   'Nd9 Dy9 Si16 Ag2'
_cell_volume   869.23791483
_cell_formula_units_Z   1
loop_
 _symmetry_equiv_pos_site_id
 _symmetry_equiv_pos_as_xyz
  1  'x, y, z'
loop_
 _atom_site_type_symbol
 _atom_site_label
 _atom_site_symmetry_multiplicity
 _atom_site_fract_x
 _atom_site_fract_y
 _atom_site_fract_z
 _atom_site_occupancy
  Nd  Nd0  1  0.998518  0.868436  0.124856  1
  Nd  Nd1  1  0.637145  0.996968  0.450029  1
  Nd  Nd2  1  0.371580  0.000798  0.958796  1
  Nd  Nd3  1  0.990425  0.640015  0.541088  1
  Nd  Nd4  1  0.502679  0.869388  0.202281  1
  Nd  Nd5  1  0.508980  0.139227  0.708709  1
  Nd  Nd6  1  0.862829  0.496212  0.799874  1
  Nd  Nd7  1  0.130355  0.501554  0.290914  1
  Nd  Nd8  1  0.999050  0.369875  0.048028  1
  Dy  Dy9  1  0.503088  0.368339  0.125194  1
  Dy  Dy10  1  0.989141  0.133102  0.625804  1
  Dy  Dy11  1  0.862810  0.999618  0.879007  1
  Dy  Dy12  1  0.130593  0.995429  0.370249  1
  Dy  Dy13  1  0.510339  0.633663  0.623941  1
  Dy  Dy14  1  0.369700  0.492611  0.878027  1
  Dy  Dy15  1  0.634975  0.500531  0.372546  1
  Dy  Dy16  1  0.314518  0.315350  0.498708  1
  Dy  Dy17  1  0.184529  0.815452  0.751185  1
  Si  Si18  1  0.291673  0.931894  0.559106  1
  Si  Si19  1  0.713891  0.086174  0.060859  1
  Si  Si20  1  0.932304  0.289223  0.440195  1
  Si  Si21  1  0.420468  0.212841  0.310627  1
  Si  Si22  1  0.567784  0.788274  0.809814  1
  Si  Si23  1  0.208078  0.431121  0.690097  1
  Si  Si24  1  0.782337  0.579750  0.190862  1
  Si  Si25  1  0.084318  0.708764  0.938158  1
  Si  Si26  1  0.797230  0.843160  0.693236  1
  Si  Si27  1  0.216694  0.154136  0.186381  1
  Si  Si28  1  0.847597  0.782584  0.313534  1
  Si  Si29  1  0.343518  0.703885  0.439118  1
  Si  Si30  1  0.651453  0.287324  0.938691  1
  Si  Si31  1  0.702836  0.343937  0.557098  1
  Si  Si32  1  0.292399  0.648704  0.062470  1
  Si  Si33  1  0.155407  0.201954  0.810518  1
  Ag  Ag34  1  0.813546  0.190719  0.251907  1
  Ag  Ag35  1  0.677217  0.678987  0.998092  1
