# generated using pymatgen
data_Hf3Ga3Ir2Pd
_symmetry_space_group_name_H-M   'P 1'
_cell_length_a   7.23971900
_cell_length_b   7.23971776
_cell_length_c   6.85553000
_cell_angle_alpha   90.00000000
_cell_angle_beta   90.00000000
_cell_angle_gamma   119.99999198
_symmetry_Int_Tables_number   1
_chemical_formula_structural   Hf3Ga3Ir2Pd
_chemical_formula_sum   'Hf6 Ga6 Ir4 Pd2'
_cell_volume   311.18241563
_cell_formula_units_Z   2
loop_
 _symmetry_equiv_pos_site_id
 _symmetry_equiv_pos_as_xyz
  1  'x, y, z'
loop_
 _atom_site_type_symbol
 _atom_site_label
 _atom_site_symmetry_multiplicity
 _atom_site_fract_x
 _atom_site_fract_y
 _atom_site_fract_z
 _atom_site_occupancy
  Hf  Hf0  1  0.602353  0.591175  0.250000  1
  Hf  Hf1  1  0.011178  0.408825  0.750000  1
  Hf  Hf2  1  0.408825  0.011178  0.250000  1
  Hf  Hf3  1  0.988822  0.397647  0.250000  1
  Hf  Hf4  1  0.397647  0.988822  0.750000  1
  Hf  Hf5  1  0.591175  0.602353  0.750000  1
  Ga  Ga6  1  0.269296  0.269296  0.500000  1
  Ga  Ga7  1  0.730704  0.000000  0.500000  1
  Ga  Ga8  1  0.000000  0.730704  0.500000  1
  Ga  Ga9  1  0.730704  0.000000  0.000000  1
  Ga  Ga10  1  0.269296  0.269296  0.000000  1
  Ga  Ga11  1  0.000000  0.730704  0.000000  1
  Ir  Ir12  1  0.333333  0.666667  0.484724  1
  Ir  Ir13  1  0.333333  0.666667  0.015276  1
  Ir  Ir14  1  0.666667  0.333333  0.515276  1
  Ir  Ir15  1  0.666667  0.333333  0.984724  1
  Pd  Pd16  1  0.000000  0.000000  0.750000  1
  Pd  Pd17  1  0.000000  0.000000  0.250000  1
