# generated using pymatgen
data_Er16Mg2In2Pd3Rh
_symmetry_space_group_name_H-M   'P 1'
_cell_length_a   9.64429089
_cell_length_b   9.65640451
_cell_length_c   9.65618422
_cell_angle_alpha   60.17454335
_cell_angle_beta   59.85553167
_cell_angle_gamma   59.85094889
_symmetry_Int_Tables_number   1
_chemical_formula_structural   Er16Mg2In2Pd3Rh
_chemical_formula_sum   'Er16 Mg2 In2 Pd3 Rh1'
_cell_volume   635.29638638
_cell_formula_units_Z   1
loop_
 _symmetry_equiv_pos_site_id
 _symmetry_equiv_pos_as_xyz
  1  'x, y, z'
loop_
 _atom_site_type_symbol
 _atom_site_label
 _atom_site_symmetry_multiplicity
 _atom_site_fract_x
 _atom_site_fract_y
 _atom_site_fract_z
 _atom_site_occupancy
  Er  Er0  1  0.190343  0.190191  0.811007  1
  Er  Er1  1  0.437725  0.063898  0.063902  1
  Er  Er2  1  0.433684  0.066090  0.432640  1
  Er  Er3  1  0.064998  0.436863  0.064614  1
  Er  Er4  1  0.649698  0.054906  0.646994  1
  Er  Er5  1  0.183479  0.813034  0.813030  1
  Er  Er6  1  0.065031  0.064582  0.436864  1
  Er  Er7  1  0.808390  0.192192  0.192176  1
  Er  Er8  1  0.810490  0.810714  0.186415  1
  Er  Er9  1  0.649698  0.646983  0.054905  1
  Er  Er10  1  0.649963  0.650021  0.650020  1
  Er  Er11  1  0.066771  0.434102  0.434103  1
  Er  Er12  1  0.049166  0.651567  0.651556  1
  Er  Er13  1  0.810497  0.186372  0.810744  1
  Er  Er14  1  0.433679  0.432651  0.066044  1
  Er  Er15  1  0.190334  0.811055  0.190158  1
  Mg  Mg16  1  0.421883  0.736104  0.421170  1
  Mg  Mg17  1  0.421859  0.421149  0.736120  1
  In  In18  1  0.748262  0.417894  0.418495  1
  In  In19  1  0.416129  0.417477  0.416811  1
  Pd  Pd20  1  0.856746  0.428484  0.858226  1
  Pd  Pd21  1  0.856719  0.858256  0.428476  1
  Pd  Pd22  1  0.430437  0.857739  0.857703  1
  Rh  Rh23  1  0.854021  0.857678  0.857829  1
