# generated using pymatgen
data_Nd12IrOsPd2
_symmetry_space_group_name_H-M   'P 1'
_cell_length_a   6.56811659
_cell_length_b   7.39368517
_cell_length_c   9.95910500
_cell_angle_alpha   90.00000000
_cell_angle_beta   90.00000000
_cell_angle_gamma   89.84649540
_symmetry_Int_Tables_number   1
_chemical_formula_structural   Nd12IrOsPd2
_chemical_formula_sum   'Nd12 Ir1 Os1 Pd2'
_cell_volume   483.63815933
_cell_formula_units_Z   1
loop_
 _symmetry_equiv_pos_site_id
 _symmetry_equiv_pos_as_xyz
  1  'x, y, z'
loop_
 _atom_site_type_symbol
 _atom_site_label
 _atom_site_symmetry_multiplicity
 _atom_site_fract_x
 _atom_site_fract_y
 _atom_site_fract_z
 _atom_site_occupancy
  Nd  Nd0  1  0.328843  0.682550  0.058765  1
  Nd  Nd1  1  0.164546  0.171000  0.434958  1
  Nd  Nd2  1  0.664077  0.328532  0.566069  1
  Nd  Nd3  1  0.825450  0.817748  0.937571  1
  Nd  Nd4  1  0.664077  0.328532  0.933931  1
  Nd  Nd5  1  0.825450  0.817748  0.562429  1
  Nd  Nd6  1  0.328843  0.682550  0.441235  1
  Nd  Nd7  1  0.164546  0.171000  0.065042  1
  Nd  Nd8  1  0.870787  0.537254  0.250000  1
  Nd  Nd9  1  0.644638  0.025680  0.250000  1
  Nd  Nd10  1  0.143406  0.475230  0.750000  1
  Nd  Nd11  1  0.371291  0.960591  0.750000  1
  Ir  Ir12  1  0.067986  0.881683  0.250000  1
  Os  Os13  1  0.565489  0.617733  0.750000  1
  Pd  Pd14  1  0.431984  0.387614  0.250000  1
  Pd  Pd15  1  0.938589  0.114554  0.750000  1
