# generated using pymatgen
data_Sr12La8Si15Au
_symmetry_space_group_name_H-M   'P 1'
_cell_length_a   8.22283600
_cell_length_b   8.18684249
_cell_length_c   15.51065300
_cell_angle_alpha   89.81122158
_cell_angle_beta   89.47743618
_cell_angle_gamma   89.77341060
_symmetry_Int_Tables_number   1
_chemical_formula_structural   Sr12La8Si15Au
_chemical_formula_sum   'Sr12 La8 Si15 Au1'
_cell_volume   1044.10549170
_cell_formula_units_Z   1
loop_
 _symmetry_equiv_pos_site_id
 _symmetry_equiv_pos_as_xyz
  1  'x, y, z'
loop_
 _atom_site_type_symbol
 _atom_site_label
 _atom_site_symmetry_multiplicity
 _atom_site_fract_x
 _atom_site_fract_y
 _atom_site_fract_z
 _atom_site_occupancy
  Sr  Sr0  1  0.314054  0.311673  0.000525  1
  Sr  Sr1  1  0.188260  0.810283  0.249924  1
  Sr  Sr2  1  0.811330  0.187431  0.749727  1
  Sr  Sr3  1  0.684713  0.686503  0.498810  1
  Sr  Sr4  1  0.365916  0.012258  0.453434  1
  Sr  Sr5  1  0.488372  0.868959  0.705462  1
  Sr  Sr6  1  0.512871  0.132437  0.206805  1
  Sr  Sr7  1  0.866929  0.486638  0.292933  1
  Sr  Sr8  1  0.133999  0.516733  0.795642  1
  Sr  Sr9  1  0.632140  0.990326  0.955689  1
  Sr  Sr10  1  0.007182  0.362962  0.539358  1
  Sr  Sr11  1  0.988937  0.631695  0.045486  1
  La  La12  1  0.134838  0.991640  0.877133  1
  La  La13  1  0.511372  0.628763  0.125101  1
  La  La14  1  0.494221  0.369111  0.626599  1
  La  La15  1  0.636153  0.511339  0.877382  1
  La  La16  1  0.368661  0.489413  0.375145  1
  La  La17  1  0.867809  0.009524  0.374227  1
  La  La18  1  0.991249  0.129799  0.125876  1
  La  La19  1  0.004143  0.869013  0.621621  1
  Si  Si20  1  0.348832  0.710546  0.946326  1
  Si  Si21  1  0.648729  0.288204  0.444451  1
  Si  Si22  1  0.715275  0.349174  0.056289  1
  Si  Si23  1  0.284367  0.651292  0.555324  1
  Si  Si24  1  0.788124  0.848532  0.195564  1
  Si  Si25  1  0.151397  0.210811  0.304559  1
  Si  Si26  1  0.851360  0.792160  0.802598  1
  Si  Si27  1  0.277917  0.913908  0.054493  1
  Si  Si28  1  0.584496  0.776604  0.303720  1
  Si  Si29  1  0.427930  0.222405  0.809503  1
  Si  Si30  1  0.775953  0.587051  0.695921  1
  Si  Si31  1  0.223229  0.414601  0.196381  1
  Si  Si32  1  0.712594  0.081576  0.552869  1
  Si  Si33  1  0.918002  0.276705  0.946809  1
  Si  Si34  1  0.083937  0.721443  0.445468  1
  Au  Au35  1  0.204711  0.158486  0.692844  1
