# generated using pymatgen
data_Y(VCo)6
_symmetry_space_group_name_H-M   'P 1'
_cell_length_a   4.85072336
_cell_length_b   6.37267717
_cell_length_c   6.37267880
_cell_angle_alpha   84.18172882
_cell_angle_beta   67.62992967
_cell_angle_gamma   67.62992554
_symmetry_Int_Tables_number   1
_chemical_formula_structural   Y(VCo)6
_chemical_formula_sum   'Y1 V6 Co6'
_cell_volume   168.24124693
_cell_formula_units_Z   1
loop_
 _symmetry_equiv_pos_site_id
 _symmetry_equiv_pos_as_xyz
  1  'x, y, z'
loop_
 _atom_site_type_symbol
 _atom_site_label
 _atom_site_symmetry_multiplicity
 _atom_site_fract_x
 _atom_site_fract_y
 _atom_site_fract_z
 _atom_site_occupancy
  Y  Y0  1  0.000000  0.000000  0.000000  1
  V  V1  1  0.500000  0.212220  0.787780  1
  V  V2  1  0.500000  0.787780  0.212220  1
  V  V3  1  0.358774  0.641226  0.641226  1
  V  V4  1  0.641226  0.358774  0.358774  1
  V  V5  1  0.000000  0.358866  0.641134  1
  V  V6  1  0.000000  0.641134  0.358866  1
  Co  Co7  1  0.500000  0.000000  0.500000  1
  Co  Co8  1  0.500000  0.500000  0.000000  1
  Co  Co9  1  0.000000  0.500000  0.000000  1
  Co  Co10  1  0.000000  0.000000  0.500000  1
  Co  Co11  1  0.271389  0.228611  0.228611  1
  Co  Co12  1  0.728611  0.771389  0.771389  1
