# generated using pymatgen
data_Cs3Tl2Cl9
_symmetry_space_group_name_H-M   'P 1'
_cell_length_a   9.93791560
_cell_length_b   9.93791552
_cell_length_c   9.93791612
_cell_angle_alpha   97.54041093
_cell_angle_beta   97.54038962
_cell_angle_gamma   82.45959821
_symmetry_Int_Tables_number   1
_chemical_formula_structural   Cs3Tl2Cl9
_chemical_formula_sum   'Cs6 Tl4 Cl18'
_cell_volume   958.07674836
_cell_formula_units_Z   2
loop_
 _symmetry_equiv_pos_site_id
 _symmetry_equiv_pos_as_xyz
  1  'x, y, z'
loop_
 _atom_site_type_symbol
 _atom_site_label
 _atom_site_symmetry_multiplicity
 _atom_site_fract_x
 _atom_site_fract_y
 _atom_site_fract_z
 _atom_site_occupancy
  Cs  Cs0  1  0.250000  0.588116  0.088117  1
  Cs  Cs1  1  0.411883  0.088116  0.250000  1
  Cs  Cs2  1  0.911883  0.250000  0.411884  1
  Cs  Cs3  1  0.088117  0.750000  0.588116  1
  Cs  Cs4  1  0.588116  0.911884  0.750000  1
  Cs  Cs5  1  0.750001  0.411883  0.911883  1
  Tl  Tl6  1  0.848384  0.848384  0.151616  1
  Tl  Tl7  1  0.651616  0.651616  0.348384  1
  Tl  Tl8  1  0.348384  0.348384  0.651616  1
  Tl  Tl9  1  0.151616  0.151616  0.848384  1
  Cl  Cl10  1  0.090737  0.267716  0.079694  1
  Cl  Cl11  1  0.732285  0.079693  0.090736  1
  Cl  Cl12  1  0.595992  0.750000  0.095992  1
  Cl  Cl13  1  0.590736  0.420306  0.232284  1
  Cl  Cl14  1  0.904008  0.595992  0.250000  1
  Cl  Cl15  1  0.079694  0.909264  0.267716  1
  Cl  Cl16  1  0.750000  0.904008  0.404009  1
  Cl  Cl17  1  0.420306  0.767716  0.409264  1
  Cl  Cl18  1  0.232285  0.409264  0.420307  1
  Cl  Cl19  1  0.767716  0.590736  0.579694  1
  Cl  Cl20  1  0.579693  0.232284  0.590736  1
  Cl  Cl21  1  0.250000  0.095992  0.595992  1
  Cl  Cl22  1  0.920307  0.090736  0.732284  1
  Cl  Cl23  1  0.095992  0.404008  0.750000  1
  Cl  Cl24  1  0.409264  0.579694  0.767716  1
  Cl  Cl25  1  0.404008  0.250000  0.904008  1
  Cl  Cl26  1  0.267716  0.920307  0.909264  1
  Cl  Cl27  1  0.909264  0.732284  0.920306  1
