# generated using pymatgen
data_Hf6Zn17Au6Se
_symmetry_space_group_name_H-M   'P 1'
_cell_length_a   8.84342230
_cell_length_b   8.85203316
_cell_length_c   8.85211800
_cell_angle_alpha   59.99987729
_cell_angle_beta   59.96756477
_cell_angle_gamma   59.96700316
_symmetry_Int_Tables_number   1
_chemical_formula_structural   Hf6Zn17Au6Se
_chemical_formula_sum   'Hf6 Zn17 Au6 Se1'
_cell_volume   489.75655107
_cell_formula_units_Z   1
loop_
 _symmetry_equiv_pos_site_id
 _symmetry_equiv_pos_as_xyz
  1  'x, y, z'
loop_
 _atom_site_type_symbol
 _atom_site_label
 _atom_site_symmetry_multiplicity
 _atom_site_fract_x
 _atom_site_fract_y
 _atom_site_fract_z
 _atom_site_occupancy
  Hf  Hf0  1  0.714197  0.288660  0.288641  1
  Hf  Hf1  1  0.285803  0.711340  0.711360  1
  Hf  Hf2  1  0.285804  0.711341  0.291495  1
  Hf  Hf3  1  0.714197  0.288659  0.708504  1
  Hf  Hf4  1  0.285793  0.291502  0.711353  1
  Hf  Hf5  1  0.714207  0.708499  0.288647  1
  Zn  Zn6  1  0.631238  0.122928  0.122916  1
  Zn  Zn7  1  0.368762  0.877072  0.877083  1
  Zn  Zn8  1  0.500000  0.000000  0.000000  1
  Zn  Zn9  1  0.000000  0.500000  0.500000  1
  Zn  Zn10  1  0.000000  0.500000  0.000000  1
  Zn  Zn11  1  0.500000  0.000000  0.500000  1
  Zn  Zn12  1  0.000000  0.000000  0.500000  1
  Zn  Zn13  1  0.500000  0.500000  0.999999  1
  Zn  Zn14  1  0.339507  0.336033  0.336027  1
  Zn  Zn15  1  0.660493  0.663966  0.663973  1
  Zn  Zn16  1  0.339507  0.336032  0.988433  1
  Zn  Zn17  1  0.339498  0.988432  0.336034  1
  Zn  Zn18  1  0.660493  0.663968  0.011565  1
  Zn  Zn19  1  0.660502  0.011569  0.663965  1
  Zn  Zn20  1  0.991103  0.336295  0.336301  1
  Zn  Zn21  1  0.008897  0.663704  0.663699  1
  Zn  Zn22  1  0.000000  0.000000  0.000000  1
  Au  Au23  1  0.125815  0.118410  0.118412  1
  Au  Au24  1  0.874185  0.881589  0.881588  1
  Au  Au25  1  0.125812  0.118414  0.637361  1
  Au  Au26  1  0.125820  0.637351  0.118416  1
  Au  Au27  1  0.874188  0.881587  0.362638  1
  Au  Au28  1  0.874180  0.362648  0.881585  1
  Se  Se29  1  0.500000  0.500000  0.500000  1
