# generated using pymatgen
data_Ba3CaPa2O9
_symmetry_space_group_name_H-M   'P 1'
_cell_length_a   10.91037715
_cell_length_b   10.91037680
_cell_length_c   10.91037714
_cell_angle_alpha   146.47981759
_cell_angle_beta   131.88068533
_cell_angle_gamma   59.91574386
_symmetry_Int_Tables_number   1
_chemical_formula_structural   Ba3CaPa2O9
_chemical_formula_sum   'Ba6 Ca2 Pa4 O18'
_cell_volume   529.13202923
_cell_formula_units_Z   2
loop_
 _symmetry_equiv_pos_site_id
 _symmetry_equiv_pos_as_xyz
  1  'x, y, z'
loop_
 _atom_site_type_symbol
 _atom_site_label
 _atom_site_symmetry_multiplicity
 _atom_site_fract_x
 _atom_site_fract_y
 _atom_site_fract_z
 _atom_site_occupancy
  Ba  Ba0  1  0.773726  0.500000  0.273726  1
  Ba  Ba1  1  0.414846  0.175206  0.239639  1
  Ba  Ba2  1  0.064433  0.824794  0.239639  1
  Ba  Ba3  1  0.226274  0.500000  0.726274  1
  Ba  Ba4  1  0.935567  0.175206  0.760361  1
  Ba  Ba5  1  0.585154  0.824794  0.760361  1
  Ca  Ca6  1  0.167224  0.667224  0.500000  1
  Ca  Ca7  1  0.832776  0.332776  0.500000  1
  Pa  Pa8  1  0.000000  0.000000  0.000000  1
  Pa  Pa9  1  0.665068  0.665068  0.000000  1
  Pa  Pa10  1  0.334932  0.334932  0.000000  1
  Pa  Pa11  1  0.500000  0.000000  0.500000  1
  O  O12  1  0.744555  0.000000  0.744555  1
  O  O13  1  0.426183  0.665246  0.760937  1
  O  O14  1  0.095692  0.334754  0.760937  1
  O  O15  1  0.580813  0.835655  0.254843  1
  O  O16  1  0.252758  0.491271  0.238515  1
  O  O17  1  0.921644  0.165821  0.244177  1
  O  O18  1  0.419187  0.674030  0.254843  1
  O  O19  1  0.078356  0.322533  0.244177  1
  O  O20  1  0.747242  0.985757  0.238515  1
  O  O21  1  0.255445  0.000000  0.255445  1
  O  O22  1  0.904308  0.665246  0.239063  1
  O  O23  1  0.573817  0.334754  0.239063  1
  O  O24  1  0.419187  0.164345  0.745157  1
  O  O25  1  0.078356  0.834179  0.755823  1
  O  O26  1  0.747242  0.508729  0.761485  1
  O  O27  1  0.580813  0.325970  0.745157  1
  O  O28  1  0.252758  0.014243  0.761485  1
  O  O29  1  0.921644  0.677467  0.755823  1
