# generated using pymatgen
data_DyHo4SiBi2
_symmetry_space_group_name_H-M   'P 1'
_cell_length_a   8.03392000
_cell_length_b   9.16138900
_cell_length_c   12.01198400
_cell_angle_alpha   90.00000000
_cell_angle_beta   90.00000000
_cell_angle_gamma   90.00000000
_symmetry_Int_Tables_number   1
_chemical_formula_structural   DyHo4SiBi2
_chemical_formula_sum   'Dy4 Ho16 Si4 Bi8'
_cell_volume   884.10444054
_cell_formula_units_Z   4
loop_
 _symmetry_equiv_pos_site_id
 _symmetry_equiv_pos_as_xyz
  1  'x, y, z'
loop_
 _atom_site_type_symbol
 _atom_site_label
 _atom_site_symmetry_multiplicity
 _atom_site_fract_x
 _atom_site_fract_y
 _atom_site_fract_z
 _atom_site_occupancy
  Dy  Dy0  1  0.637186  0.750000  0.295516  1
  Dy  Dy1  1  0.862814  0.750000  0.795516  1
  Dy  Dy2  1  0.362814  0.250000  0.704484  1
  Dy  Dy3  1  0.137186  0.250000  0.204484  1
  Ho  Ho4  1  0.820936  0.552868  0.062742  1
  Ho  Ho5  1  0.679064  0.947132  0.562742  1
  Ho  Ho6  1  0.179064  0.052868  0.937258  1
  Ho  Ho7  1  0.320936  0.447132  0.437258  1
  Ho  Ho8  1  0.179064  0.447132  0.937258  1
  Ho  Ho9  1  0.320936  0.052868  0.437258  1
  Ho  Ho10  1  0.820936  0.947132  0.062742  1
  Ho  Ho11  1  0.679064  0.552868  0.562742  1
  Ho  Ho12  1  0.166841  0.750000  0.212235  1
  Ho  Ho13  1  0.333159  0.750000  0.712235  1
  Ho  Ho14  1  0.833159  0.250000  0.787765  1
  Ho  Ho15  1  0.666841  0.250000  0.287765  1
  Ho  Ho16  1  0.461154  0.750000  0.001424  1
  Ho  Ho17  1  0.038846  0.750000  0.501424  1
  Ho  Ho18  1  0.538846  0.250000  0.998576  1
  Ho  Ho19  1  0.961154  0.250000  0.498576  1
  Si  Si20  1  0.411649  0.750000  0.479400  1
  Si  Si21  1  0.088351  0.750000  0.979400  1
  Si  Si22  1  0.588351  0.250000  0.520600  1
  Si  Si23  1  0.911649  0.250000  0.020600  1
  Bi  Bi24  1  0.933247  0.510859  0.325546  1
  Bi  Bi25  1  0.566753  0.989141  0.825546  1
  Bi  Bi26  1  0.066753  0.010859  0.674454  1
  Bi  Bi27  1  0.433247  0.489141  0.174454  1
  Bi  Bi28  1  0.066753  0.489141  0.674454  1
  Bi  Bi29  1  0.433247  0.010859  0.174454  1
  Bi  Bi30  1  0.933247  0.989141  0.325546  1
  Bi  Bi31  1  0.566753  0.510859  0.825546  1
