# generated using pymatgen
data_Sm3Pb(AuO5)2
_symmetry_space_group_name_H-M   'P 1'
_cell_length_a   8.69380814
_cell_length_b   8.69380854
_cell_length_c   5.84123600
_cell_angle_alpha   89.61610563
_cell_angle_beta   90.38389438
_cell_angle_gamma   89.73557983
_symmetry_Int_Tables_number   1
_chemical_formula_structural   Sm3Pb(AuO5)2
_chemical_formula_sum   'Sm6 Pb2 Au4 O20'
_cell_volume   441.46945892
_cell_formula_units_Z   2
loop_
 _symmetry_equiv_pos_site_id
 _symmetry_equiv_pos_as_xyz
  1  'x, y, z'
loop_
 _atom_site_type_symbol
 _atom_site_label
 _atom_site_symmetry_multiplicity
 _atom_site_fract_x
 _atom_site_fract_y
 _atom_site_fract_z
 _atom_site_occupancy
  Sm  Sm0  1  0.350056  0.649069  0.249252  1
  Sm  Sm1  1  0.850931  0.149944  0.749252  1
  Sm  Sm2  1  0.648548  0.648548  0.750000  1
  Sm  Sm3  1  0.649069  0.350056  0.250748  1
  Sm  Sm4  1  0.851452  0.851452  0.250000  1
  Sm  Sm5  1  0.149944  0.850931  0.750748  1
  Pb  Pb6  1  0.352728  0.352728  0.750000  1
  Pb  Pb7  1  0.147272  0.147272  0.250000  1
  Au  Au8  1  0.496224  0.997407  0.404582  1
  Au  Au9  1  0.502593  0.003776  0.904582  1
  Au  Au10  1  0.997407  0.496224  0.095418  1
  Au  Au11  1  0.003776  0.502593  0.595418  1
  O  O12  1  0.104028  0.293991  0.604538  1
  O  O13  1  0.907633  0.285460  0.111363  1
  O  O14  1  0.909718  0.715382  0.607196  1
  O  O15  1  0.715382  0.909718  0.892804  1
  O  O16  1  0.214540  0.592367  0.611363  1
  O  O17  1  0.408999  0.792020  0.897472  1
  O  O18  1  0.395972  0.206009  0.395462  1
  O  O19  1  0.784618  0.590282  0.107196  1
  O  O20  1  0.285460  0.907633  0.388637  1
  O  O21  1  0.592367  0.214540  0.888637  1
  O  O22  1  0.492245  0.495395  0.995675  1
  O  O23  1  0.495395  0.492245  0.504325  1
  O  O24  1  0.792020  0.408999  0.602528  1
  O  O25  1  0.091001  0.707980  0.102528  1
  O  O26  1  0.293991  0.104028  0.895462  1
  O  O27  1  0.590282  0.784618  0.392804  1
  O  O28  1  0.206009  0.395972  0.104538  1
  O  O29  1  0.007755  0.004605  0.004325  1
  O  O30  1  0.004605  0.007755  0.495675  1
  O  O31  1  0.707980  0.091001  0.397472  1
