# generated using pymatgen
data_La5Mo3P12Ru9Rh7
_symmetry_space_group_name_H-M   'P 1'
_cell_length_a   12.82827800
_cell_length_b   12.82827745
_cell_length_c   4.00176800
_cell_angle_alpha   90.00000000
_cell_angle_beta   90.00000000
_cell_angle_gamma   120.00000142
_symmetry_Int_Tables_number   1
_chemical_formula_structural   La5Mo3P12Ru9Rh7
_chemical_formula_sum   'La5 Mo3 P12 Ru9 Rh7'
_cell_volume   570.32083790
_cell_formula_units_Z   1
loop_
 _symmetry_equiv_pos_site_id
 _symmetry_equiv_pos_as_xyz
  1  'x, y, z'
loop_
 _atom_site_type_symbol
 _atom_site_label
 _atom_site_symmetry_multiplicity
 _atom_site_fract_x
 _atom_site_fract_y
 _atom_site_fract_z
 _atom_site_occupancy
  La  La0  1  0.187109  0.187109  0.500000  1
  La  La1  1  0.812891  0.000000  0.500000  1
  La  La2  1  0.000000  0.812891  0.500000  1
  La  La3  1  0.333333  0.666667  0.000000  1
  La  La4  1  0.666667  0.333333  0.000000  1
  Mo  Mo5  1  0.558260  0.558260  0.000000  1
  Mo  Mo6  1  0.441740  0.000000  0.000000  1
  Mo  Mo7  1  0.000000  0.441740  0.000000  1
  P  P8  1  0.813895  0.813895  0.000000  1
  P  P9  1  0.186105  0.000000  0.000000  1
  P  P10  1  0.000000  0.186105  0.000000  1
  P  P11  1  0.163121  0.478944  0.500000  1
  P  P12  1  0.521056  0.684176  0.500000  1
  P  P13  1  0.315824  0.836879  0.500000  1
  P  P14  1  0.684176  0.521056  0.500000  1
  P  P15  1  0.836879  0.315824  0.500000  1
  P  P16  1  0.478944  0.163121  0.500000  1
  P  P17  1  0.375681  0.375681  0.000000  1
  P  P18  1  0.624319  0.000000  0.000000  1
  P  P19  1  0.000000  0.624319  0.000000  1
  Ru  Ru20  1  0.716239  0.716239  0.500000  1
  Ru  Ru21  1  0.283761  0.000000  0.500000  1
  Ru  Ru22  1  0.000000  0.283761  0.500000  1
  Ru  Ru23  1  0.359678  0.486201  0.500000  1
  Ru  Ru24  1  0.513799  0.873478  0.500000  1
  Ru  Ru25  1  0.126522  0.640322  0.500000  1
  Ru  Ru26  1  0.873478  0.513799  0.500000  1
  Ru  Ru27  1  0.640322  0.126522  0.500000  1
  Ru  Ru28  1  0.486201  0.359678  0.500000  1
  Rh  Rh29  1  0.181336  0.374778  0.000000  1
  Rh  Rh30  1  0.625222  0.806558  0.000000  1
  Rh  Rh31  1  0.193442  0.818664  0.000000  1
  Rh  Rh32  1  0.806558  0.625222  0.000000  1
  Rh  Rh33  1  0.818664  0.193442  0.000000  1
  Rh  Rh34  1  0.374778  0.181336  0.000000  1
  Rh  Rh35  1  0.000000  0.000000  0.000000  1
