# generated using pymatgen
data_Dy5Ho(Ga2Si3)2
_symmetry_space_group_name_H-M   'P 1'
_cell_length_a   5.92784833
_cell_length_b   5.92784825
_cell_length_c   9.36882200
_cell_angle_alpha   90.00000000
_cell_angle_beta   90.00000000
_cell_angle_gamma   102.85088606
_symmetry_Int_Tables_number   1
_chemical_formula_structural   Dy5Ho(Ga2Si3)2
_chemical_formula_sum   'Dy5 Ho1 Ga4 Si6'
_cell_volume   320.96854602
_cell_formula_units_Z   1
loop_
 _symmetry_equiv_pos_site_id
 _symmetry_equiv_pos_as_xyz
  1  'x, y, z'
loop_
 _atom_site_type_symbol
 _atom_site_label
 _atom_site_symmetry_multiplicity
 _atom_site_fract_x
 _atom_site_fract_y
 _atom_site_fract_z
 _atom_site_occupancy
  Dy  Dy0  1  0.659091  0.659091  0.250000  1
  Dy  Dy1  1  0.801329  0.198671  0.999945  1
  Dy  Dy2  1  0.198671  0.801329  0.999945  1
  Dy  Dy3  1  0.198671  0.801329  0.500055  1
  Dy  Dy4  1  0.801329  0.198671  0.500055  1
  Ho  Ho5  1  0.340663  0.340663  0.750000  1
  Ga  Ga6  1  0.320620  0.320620  0.054143  1
  Ga  Ga7  1  0.679311  0.679311  0.945569  1
  Ga  Ga8  1  0.679311  0.679311  0.554431  1
  Ga  Ga9  1  0.320620  0.320620  0.445857  1
  Si  Si10  1  0.093368  0.486065  0.250000  1
  Si  Si11  1  0.906945  0.513856  0.750000  1
  Si  Si12  1  0.486065  0.093368  0.250000  1
  Si  Si13  1  0.513856  0.906945  0.750000  1
  Si  Si14  1  0.054649  0.054649  0.250000  1
  Si  Si15  1  0.945502  0.945502  0.750000  1
