# generated using pymatgen
data_YbHo2Er(Ga3Ir)6
_symmetry_space_group_name_H-M   'P 1'
_cell_length_a   7.56522675
_cell_length_b   7.57215432
_cell_length_c   9.50459700
_cell_angle_alpha   90.00000000
_cell_angle_beta   90.00000000
_cell_angle_gamma   119.85013419
_symmetry_Int_Tables_number   1
_chemical_formula_structural   YbHo2Er(Ga3Ir)6
_chemical_formula_sum   'Yb1 Ho2 Er1 Ga18 Ir6'
_cell_volume   472.23656825
_cell_formula_units_Z   1
loop_
 _symmetry_equiv_pos_site_id
 _symmetry_equiv_pos_as_xyz
  1  'x, y, z'
loop_
 _atom_site_type_symbol
 _atom_site_label
 _atom_site_symmetry_multiplicity
 _atom_site_fract_x
 _atom_site_fract_y
 _atom_site_fract_z
 _atom_site_occupancy
  Yb  Yb0  1  0.997004  0.667928  0.750000  1
  Ho  Ho1  1  0.002081  0.332091  0.250000  1
  Ho  Ho2  1  0.668115  0.997714  0.750000  1
  Er  Er3  1  0.331779  0.001990  0.250000  1
  Ga  Ga4  1  0.126707  0.127030  0.750000  1
  Ga  Ga5  1  0.872800  0.872644  0.250000  1
  Ga  Ga6  1  0.999888  0.335501  0.580956  1
  Ga  Ga7  1  0.000399  0.665560  0.419954  1
  Ga  Ga8  1  0.000399  0.665560  0.080046  1
  Ga  Ga9  1  0.333208  0.998630  0.919603  1
  Ga  Ga10  1  0.999888  0.335501  0.919044  1
  Ga  Ga11  1  0.665289  0.000704  0.080875  1
  Ga  Ga12  1  0.665289  0.000704  0.419125  1
  Ga  Ga13  1  0.333208  0.998630  0.580397  1
  Ga  Ga14  1  0.332306  0.332004  0.065001  1
  Ga  Ga15  1  0.668870  0.667643  0.936120  1
  Ga  Ga16  1  0.668870  0.667643  0.563880  1
  Ga  Ga17  1  0.332306  0.332004  0.434999  1
  Ga  Ga18  1  0.338558  0.546970  0.750000  1
  Ga  Ga19  1  0.661212  0.453590  0.250000  1
  Ga  Ga20  1  0.546803  0.338204  0.750000  1
  Ga  Ga21  1  0.453522  0.661370  0.250000  1
  Ir  Ir22  1  0.670742  0.328189  0.499577  1
  Ir  Ir23  1  0.328975  0.671164  0.499248  1
  Ir  Ir24  1  0.328975  0.671164  0.000752  1
  Ir  Ir25  1  0.670742  0.328189  0.000423  1
  Ir  Ir26  1  0.001032  0.000839  0.499046  1
  Ir  Ir27  1  0.001032  0.000839  0.000954  1
