# generated using pymatgen
data_TaBe9V2
_symmetry_space_group_name_H-M   'P 1'
_cell_length_a   7.29014841
_cell_length_b   7.29014777
_cell_length_c   7.29014720
_cell_angle_alpha   35.11002433
_cell_angle_beta   35.11003013
_cell_angle_gamma   35.11003235
_symmetry_Int_Tables_number   1
_chemical_formula_structural   TaBe9V2
_chemical_formula_sum   'Ta1 Be9 V2'
_cell_volume   114.45745749
_cell_formula_units_Z   1
loop_
 _symmetry_equiv_pos_site_id
 _symmetry_equiv_pos_as_xyz
  1  'x, y, z'
loop_
 _atom_site_type_symbol
 _atom_site_label
 _atom_site_symmetry_multiplicity
 _atom_site_fract_x
 _atom_site_fract_y
 _atom_site_fract_z
 _atom_site_occupancy
  Ta  Ta0  1  0.000000  0.000000  0.000000  1
  Be  Be1  1  0.413927  0.922091  0.413927  1
  Be  Be2  1  0.413927  0.413927  0.922091  1
  Be  Be3  1  0.922091  0.413927  0.413927  1
  Be  Be4  1  0.586073  0.077909  0.586073  1
  Be  Be5  1  0.586073  0.586073  0.077909  1
  Be  Be6  1  0.077909  0.586073  0.586073  1
  Be  Be7  1  0.665801  0.665801  0.665801  1
  Be  Be8  1  0.334199  0.334199  0.334199  1
  Be  Be9  1  0.500000  0.500000  0.500000  1
  V  V10  1  0.857792  0.857792  0.857792  1
  V  V11  1  0.142208  0.142208  0.142208  1
