# generated using pymatgen
data_Li3Nd5(P3Ir4)4
_symmetry_space_group_name_H-M   'P 1'
_cell_length_a   12.80731800
_cell_length_b   12.80731909
_cell_length_c   4.02357900
_cell_angle_alpha   90.00000000
_cell_angle_beta   90.00000000
_cell_angle_gamma   119.99999719
_symmetry_Int_Tables_number   1
_chemical_formula_structural   Li3Nd5(P3Ir4)4
_chemical_formula_sum   'Li3 Nd5 P12 Ir16'
_cell_volume   571.55706804
_cell_formula_units_Z   1
loop_
 _symmetry_equiv_pos_site_id
 _symmetry_equiv_pos_as_xyz
  1  'x, y, z'
loop_
 _atom_site_type_symbol
 _atom_site_label
 _atom_site_symmetry_multiplicity
 _atom_site_fract_x
 _atom_site_fract_y
 _atom_site_fract_z
 _atom_site_occupancy
  Li  Li0  1  0.000000  0.441308  0.500000  1
  Li  Li1  1  0.558692  0.558692  0.500000  1
  Li  Li2  1  0.441308  0.000000  0.500000  1
  Nd  Nd3  1  0.333333  0.666667  0.500000  1
  Nd  Nd4  1  0.666667  0.333333  0.500000  1
  Nd  Nd5  1  0.000000  0.808770  0.000000  1
  Nd  Nd6  1  0.191230  0.191230  0.000000  1
  Nd  Nd7  1  0.808770  0.000000  0.000000  1
  P  P8  1  0.000000  0.627485  0.500000  1
  P  P9  1  0.372515  0.372515  0.500000  1
  P  P10  1  0.627485  0.000000  0.500000  1
  P  P11  1  0.517807  0.687992  0.000000  1
  P  P12  1  0.312008  0.829815  0.000000  1
  P  P13  1  0.170185  0.482193  0.000000  1
  P  P14  1  0.482193  0.170185  0.000000  1
  P  P15  1  0.687992  0.517807  0.000000  1
  P  P16  1  0.829815  0.312008  0.000000  1
  P  P17  1  0.000000  0.181852  0.500000  1
  P  P18  1  0.818148  0.818148  0.500000  1
  P  P19  1  0.181852  0.000000  0.500000  1
  Ir  Ir20  1  0.510711  0.869605  0.000000  1
  Ir  Ir21  1  0.130395  0.641106  0.000000  1
  Ir  Ir22  1  0.358894  0.489289  0.000000  1
  Ir  Ir23  1  0.489289  0.358894  0.000000  1
  Ir  Ir24  1  0.869605  0.510711  0.000000  1
  Ir  Ir25  1  0.641106  0.130395  0.000000  1
  Ir  Ir26  1  0.000000  0.282088  0.000000  1
  Ir  Ir27  1  0.717912  0.717912  0.000000  1
  Ir  Ir28  1  0.282088  0.000000  0.000000  1
  Ir  Ir29  1  0.625238  0.804818  0.500000  1
  Ir  Ir30  1  0.195182  0.820421  0.500000  1
  Ir  Ir31  1  0.179579  0.374762  0.500000  1
  Ir  Ir32  1  0.374762  0.179579  0.500000  1
  Ir  Ir33  1  0.804818  0.625238  0.500000  1
  Ir  Ir34  1  0.820421  0.195182  0.500000  1
  Ir  Ir35  1  0.000000  0.000000  0.500000  1
