# generated using pymatgen
data_Ce8Hf12TaGe15
_symmetry_space_group_name_H-M   'P 1'
_cell_length_a   7.44051822
_cell_length_b   7.44485054
_cell_length_c   13.68562600
_cell_angle_alpha   89.93135911
_cell_angle_beta   90.16329722
_cell_angle_gamma   89.98708935
_symmetry_Int_Tables_number   1
_chemical_formula_structural   Ce8Hf12TaGe15
_chemical_formula_sum   'Ce8 Hf12 Ta1 Ge15'
_cell_volume   758.09171141
_cell_formula_units_Z   1
loop_
 _symmetry_equiv_pos_site_id
 _symmetry_equiv_pos_as_xyz
  1  'x, y, z'
loop_
 _atom_site_type_symbol
 _atom_site_label
 _atom_site_symmetry_multiplicity
 _atom_site_fract_x
 _atom_site_fract_y
 _atom_site_fract_z
 _atom_site_occupancy
  Ce  Ce0  1  0.998535  0.340890  0.218719  1
  Ce  Ce1  1  0.002530  0.661134  0.718890  1
  Ce  Ce2  1  0.158265  0.504357  0.464868  1
  Ce  Ce3  1  0.502274  0.837787  0.030323  1
  Ce  Ce4  1  0.837342  0.502716  0.967489  1
  Ce  Ce5  1  0.495659  0.163210  0.531848  1
  Ce  Ce6  1  0.337652  0.997893  0.782428  1
  Ce  Ce7  1  0.665627  0.999095  0.281215  1
  Hf  Hf8  1  0.170412  0.169505  0.000046  1
  Hf  Hf9  1  0.833235  0.830313  0.501298  1
  Hf  Hf10  1  0.328890  0.673953  0.249557  1
  Hf  Hf11  1  0.669745  0.330324  0.750797  1
  Hf  Hf12  1  0.162330  0.996959  0.375925  1
  Hf  Hf13  1  0.839289  0.002536  0.876463  1
  Hf  Hf14  1  0.501457  0.659794  0.626367  1
  Hf  Hf15  1  0.339466  0.497250  0.874135  1
  Hf  Hf16  1  0.496652  0.337003  0.124295  1
  Hf  Hf17  1  0.652643  0.497470  0.376257  1
  Hf  Hf18  1  0.998705  0.161270  0.624551  1
  Hf  Hf19  1  0.005587  0.840354  0.123462  1
  Ta  Ta20  1  0.957034  0.704162  0.315764  1
  Ge  Ge21  1  0.371698  0.296424  0.318847  1
  Ge  Ge22  1  0.628895  0.698540  0.820620  1
  Ge  Ge23  1  0.199930  0.871336  0.572901  1
  Ge  Ge24  1  0.130097  0.801153  0.928344  1
  Ge  Ge25  1  0.801567  0.131278  0.069682  1
  Ge  Ge26  1  0.868809  0.199971  0.431161  1
  Ge  Ge27  1  0.301162  0.370533  0.679666  1
  Ge  Ge28  1  0.700515  0.626265  0.179875  1
  Ge  Ge29  1  0.299313  0.036002  0.180417  1
  Ge  Ge30  1  0.706382  0.966178  0.683171  1
  Ge  Ge31  1  0.467524  0.795532  0.433429  1
  Ge  Ge32  1  0.209156  0.535014  0.066190  1
  Ge  Ge33  1  0.534759  0.206498  0.931833  1
  Ge  Ge34  1  0.792160  0.464060  0.570370  1
  Ge  Ge35  1  0.034704  0.293241  0.818795  1
