# generated using pymatgen
data_K2BaFe5CoP6
_symmetry_space_group_name_H-M   'P 1'
_cell_length_a   8.45997367
_cell_length_b   8.45997313
_cell_length_c   6.86087352
_cell_angle_alpha   68.27680899
_cell_angle_beta   68.27680832
_cell_angle_gamma   36.78564481
_symmetry_Int_Tables_number   1
_chemical_formula_structural   K2BaFe5CoP6
_chemical_formula_sum   'K2 Ba1 Fe5 Co1 P6'
_cell_volume   270.75628034
_cell_formula_units_Z   1
loop_
 _symmetry_equiv_pos_site_id
 _symmetry_equiv_pos_as_xyz
  1  'x, y, z'
loop_
 _atom_site_type_symbol
 _atom_site_label
 _atom_site_symmetry_multiplicity
 _atom_site_fract_x
 _atom_site_fract_y
 _atom_site_fract_z
 _atom_site_occupancy
  K  K0  1  0.671119  0.671101  0.000520  1
  K  K1  1  0.328899  0.328881  0.999480  1
  Ba  Ba2  1  0.000012  0.999988  0.000000  1
  Fe  Fe3  1  0.083342  0.583343  0.499649  1
  Fe  Fe4  1  0.416657  0.916658  0.500351  1
  Fe  Fe5  1  0.583944  0.084016  0.499727  1
  Fe  Fe6  1  0.915984  0.416056  0.500273  1
  Fe  Fe7  1  0.249888  0.750112  0.500000  1
  Co  Co8  1  0.750165  0.249835  0.500000  1
  P  P9  1  0.888428  0.884490  0.677940  1
  P  P10  1  0.220252  0.220458  0.676873  1
  P  P11  1  0.552538  0.556281  0.677688  1
  P  P12  1  0.443719  0.447462  0.322312  1
  P  P13  1  0.779542  0.779748  0.323127  1
  P  P14  1  0.115510  0.111572  0.322060  1
