# generated using pymatgen
data_Tb2U(GaCo4)3
_symmetry_space_group_name_H-M   'P 1'
_cell_length_a   8.50587033
_cell_length_b   8.47703997
_cell_length_c   4.05966100
_cell_angle_alpha   90.00000000
_cell_angle_beta   90.00000000
_cell_angle_gamma   119.88792755
_symmetry_Int_Tables_number   1
_chemical_formula_structural   Tb2U(GaCo4)3
_chemical_formula_sum   'Tb2 U1 Ga3 Co12'
_cell_volume   253.78896742
_cell_formula_units_Z   1
loop_
 _symmetry_equiv_pos_site_id
 _symmetry_equiv_pos_as_xyz
  1  'x, y, z'
loop_
 _atom_site_type_symbol
 _atom_site_label
 _atom_site_symmetry_multiplicity
 _atom_site_fract_x
 _atom_site_fract_y
 _atom_site_fract_z
 _atom_site_occupancy
  Tb  Tb0  1  0.332563  0.666282  0.000000  1
  Tb  Tb1  1  0.667437  0.333718  0.000000  1
  U  U2  1  0.000000  0.000000  0.000000  1
  Ga  Ga3  1  0.500000  0.000000  0.500000  1
  Ga  Ga4  1  0.000000  0.500000  0.500000  1
  Ga  Ga5  1  0.500000  0.500000  0.500000  1
  Co  Co6  1  0.308483  0.999833  0.000000  1
  Co  Co7  1  0.691517  0.000167  0.000000  1
  Co  Co8  1  0.000000  0.309754  0.000000  1
  Co  Co9  1  0.000000  0.690246  0.000000  1
  Co  Co10  1  0.691517  0.691350  0.000000  1
  Co  Co11  1  0.308483  0.308650  0.000000  1
  Co  Co12  1  0.161501  0.323087  0.500000  1
  Co  Co13  1  0.838499  0.676913  0.500000  1
  Co  Co14  1  0.675885  0.837942  0.500000  1
  Co  Co15  1  0.324115  0.162058  0.500000  1
  Co  Co16  1  0.161501  0.838415  0.500000  1
  Co  Co17  1  0.838499  0.161585  0.500000  1
