# generated using pymatgen
data_TbBr37
_symmetry_space_group_name_H-M   'P 1'
_cell_length_a   14.20848141
_cell_length_b   15.29732181
_cell_length_c   14.42416200
_cell_angle_alpha   103.00376457
_cell_angle_beta   48.80056783
_cell_angle_gamma   81.50743146
_symmetry_Int_Tables_number   1
_chemical_formula_structural   TbBr37
_chemical_formula_sum   'Tb1 Br37'
_cell_volume   2102.91272627
_cell_formula_units_Z   1
loop_
 _symmetry_equiv_pos_site_id
 _symmetry_equiv_pos_as_xyz
  1  'x, y, z'
loop_
 _atom_site_type_symbol
 _atom_site_label
 _atom_site_symmetry_multiplicity
 _atom_site_fract_x
 _atom_site_fract_y
 _atom_site_fract_z
 _atom_site_occupancy
  Tb  Tb0  1  0.500000  0.000000  0.000000  1
  Br  Br1  1  0.791599  0.301537  0.136224  1
  Br  Br2  1  0.208401  0.698463  0.863776  1
  Br  Br3  1  0.747426  0.082903  0.362612  1
  Br  Br4  1  0.252574  0.917097  0.637388  1
  Br  Br5  1  0.112404  0.349986  0.171876  1
  Br  Br6  1  0.887596  0.650014  0.828124  1
  Br  Br7  1  0.868039  0.535116  0.247648  1
  Br  Br8  1  0.131961  0.464884  0.752352  1
  Br  Br9  1  0.687566  0.275377  0.521961  1
  Br  Br10  1  0.312434  0.724623  0.478039  1
  Br  Br11  1  0.055026  0.145444  0.469214  1
  Br  Br12  1  0.944974  0.854556  0.530786  1
  Br  Br13  1  0.982052  0.006454  0.283205  1
  Br  Br14  1  0.017948  0.993546  0.716795  1
  Br  Br15  1  0.955926  0.340836  0.597556  1
  Br  Br16  1  0.044074  0.659164  0.402444  1
  Br  Br17  1  0.581920  0.429565  0.234887  1
  Br  Br18  1  0.418080  0.570435  0.765113  1
  Br  Br19  1  0.172149  0.478177  0.274592  1
  Br  Br20  1  0.827851  0.521823  0.725408  1
  Br  Br21  1  0.000000  0.500000  0.000000  1
  Br  Br22  1  0.578979  0.953529  0.129085  1
  Br  Br23  1  0.421021  0.046471  0.870915  1
  Br  Br24  1  0.316545  0.051944  0.300518  1
  Br  Br25  1  0.683455  0.948056  0.699482  1
  Br  Br26  1  0.534742  0.132401  0.412852  1
  Br  Br27  1  0.465258  0.867599  0.587148  1
  Br  Br28  1  0.091441  0.215144  0.070023  1
  Br  Br29  1  0.908559  0.784856  0.929977  1
  Br  Br30  1  0.663561  0.693241  0.402370  1
  Br  Br31  1  0.336439  0.306759  0.597630  1
  Br  Br32  1  0.900290  0.148630  0.923704  1
  Br  Br33  1  0.099710  0.851370  0.076296  1
  Br  Br34  1  0.510587  0.175955  0.052002  1
  Br  Br35  1  0.489413  0.824045  0.947998  1
  Br  Br36  1  0.648939  0.431390  0.650889  1
  Br  Br37  1  0.351061  0.568610  0.349111  1
