# generated using pymatgen
data_PrSm2Be2(PPd5)4
_symmetry_space_group_name_H-M   'P 1'
_cell_length_a   8.71767110
_cell_length_b   8.63207520
_cell_length_c   8.63208802
_cell_angle_alpha   60.65468876
_cell_angle_beta   59.67075584
_cell_angle_gamma   59.67080327
_symmetry_Int_Tables_number   1
_chemical_formula_structural   PrSm2Be2(PPd5)4
_chemical_formula_sum   'Pr1 Sm2 Be2 P4 Pd20'
_cell_volume   459.21734082
_cell_formula_units_Z   1
loop_
 _symmetry_equiv_pos_site_id
 _symmetry_equiv_pos_as_xyz
  1  'x, y, z'
loop_
 _atom_site_type_symbol
 _atom_site_label
 _atom_site_symmetry_multiplicity
 _atom_site_fract_x
 _atom_site_fract_y
 _atom_site_fract_z
 _atom_site_occupancy
  Pr  Pr0  1  0.249988  0.250004  0.250004  1
  Sm  Sm1  1  0.750001  0.750000  0.749999  1
  Sm  Sm2  1  0.000002  0.999999  0.999998  1
  Be  Be3  1  0.732737  0.267219  0.267219  1
  Be  Be4  1  0.267268  0.732779  0.732778  1
  P  P5  1  0.266084  0.733914  0.266070  1
  P  P6  1  0.733921  0.266083  0.733927  1
  P  P7  1  0.266084  0.266070  0.733914  1
  P  P8  1  0.733920  0.733928  0.266084  1
  Pd  Pd9  1  0.389685  0.384380  0.384381  1
  Pd  Pd10  1  0.611657  0.616608  0.616608  1
  Pd  Pd11  1  0.384375  0.389678  0.841560  1
  Pd  Pd12  1  0.384375  0.841559  0.389678  1
  Pd  Pd13  1  0.616611  0.611678  0.155123  1
  Pd  Pd14  1  0.616610  0.155123  0.611678  1
  Pd  Pd15  1  0.841557  0.384383  0.384383  1
  Pd  Pd16  1  0.155108  0.616611  0.616611  1
  Pd  Pd17  1  0.345719  0.999487  0.999485  1
  Pd  Pd18  1  0.655323  0.999479  0.999477  1
  Pd  Pd19  1  0.999482  0.345710  0.655325  1
  Pd  Pd20  1  0.999482  0.655325  0.345710  1
  Pd  Pd21  1  0.996743  0.344742  0.002457  1
  Pd  Pd22  1  0.656071  0.002458  0.344740  1
  Pd  Pd23  1  0.002462  0.656055  0.996736  1
  Pd  Pd24  1  0.344731  0.996749  0.656048  1
  Pd  Pd25  1  0.996743  0.002457  0.344743  1
  Pd  Pd26  1  0.002462  0.996737  0.656054  1
  Pd  Pd27  1  0.656071  0.344740  0.002459  1
  Pd  Pd28  1  0.344730  0.656047  0.996749  1
