# generated using pymatgen
data_Cs2Ca(ThSe3)2
_symmetry_space_group_name_H-M   'P 1'
_cell_length_a   7.51165600
_cell_length_b   7.51165657
_cell_length_c   8.80410100
_cell_angle_alpha   90.00000000
_cell_angle_beta   90.00000000
_cell_angle_gamma   120.00000630
_symmetry_Int_Tables_number   1
_chemical_formula_structural   Cs2Ca(ThSe3)2
_chemical_formula_sum   'Cs2 Ca1 Th2 Se6'
_cell_volume   430.21647256
_cell_formula_units_Z   1
loop_
 _symmetry_equiv_pos_site_id
 _symmetry_equiv_pos_as_xyz
  1  'x, y, z'
loop_
 _atom_site_type_symbol
 _atom_site_label
 _atom_site_symmetry_multiplicity
 _atom_site_fract_x
 _atom_site_fract_y
 _atom_site_fract_z
 _atom_site_occupancy
  Cs  Cs0  1  0.333333  0.666666  0.501169  1
  Cs  Cs1  1  0.666667  0.333334  0.498831  1
  Ca  Ca2  1  0.000000  0.000000  0.000000  1
  Th  Th3  1  0.666667  0.333334  0.999557  1
  Th  Th4  1  0.333333  0.666666  0.000443  1
  Se  Se5  1  0.655201  0.000149  0.181161  1
  Se  Se6  1  0.344948  0.344800  0.181161  1
  Se  Se7  1  0.999851  0.655051  0.181161  1
  Se  Se8  1  0.000149  0.344949  0.818838  1
  Se  Se9  1  0.655052  0.655200  0.818838  1
  Se  Se10  1  0.344799  0.999851  0.818838  1
