# generated using pymatgen
data_Ho6MgCo16NiP12
_symmetry_space_group_name_H-M   'P 1'
_cell_length_a   3.71186600
_cell_length_b   10.54208400
_cell_length_c   12.22797800
_cell_angle_alpha   90.00000000
_cell_angle_beta   90.00000000
_cell_angle_gamma   90.00000000
_symmetry_Int_Tables_number   1
_chemical_formula_structural   Ho6MgCo16NiP12
_chemical_formula_sum   'Ho6 Mg1 Co16 Ni1 P12'
_cell_volume   478.49060027
_cell_formula_units_Z   1
loop_
 _symmetry_equiv_pos_site_id
 _symmetry_equiv_pos_as_xyz
  1  'x, y, z'
loop_
 _atom_site_type_symbol
 _atom_site_label
 _atom_site_symmetry_multiplicity
 _atom_site_fract_x
 _atom_site_fract_y
 _atom_site_fract_z
 _atom_site_occupancy
  Ho  Ho0  1  0.000000  0.500000  0.523373  1
  Ho  Ho1  1  0.500000  0.000000  0.478081  1
  Ho  Ho2  1  0.500000  0.821226  0.207724  1
  Ho  Ho3  1  0.500000  0.178774  0.207724  1
  Ho  Ho4  1  0.000000  0.684540  0.795658  1
  Ho  Ho5  1  0.000000  0.315460  0.795658  1
  Mg  Mg6  1  0.500000  0.500000  0.153138  1
  Co  Co7  1  0.000000  0.500000  0.986547  1
  Co  Co8  1  0.500000  0.000000  0.013818  1
  Co  Co9  1  0.500000  0.295857  0.433063  1
  Co  Co10  1  0.500000  0.704143  0.433063  1
  Co  Co11  1  0.000000  0.201670  0.570228  1
  Co  Co12  1  0.000000  0.798330  0.570228  1
  Co  Co13  1  0.500000  0.879522  0.708710  1
  Co  Co14  1  0.500000  0.120478  0.708710  1
  Co  Co15  1  0.000000  0.623057  0.293510  1
  Co  Co16  1  0.000000  0.376943  0.293510  1
  Co  Co17  1  0.500000  0.328755  0.992488  1
  Co  Co18  1  0.500000  0.671245  0.992488  1
  Co  Co19  1  0.000000  0.162718  0.001915  1
  Co  Co20  1  0.000000  0.837282  0.001915  1
  Co  Co21  1  0.000000  0.000000  0.837311  1
  Co  Co22  1  0.000000  0.000000  0.296399  1
  Ni  Ni23  1  0.500000  0.500000  0.703593  1
  P  P24  1  0.500000  0.308931  0.616489  1
  P  P25  1  0.500000  0.691069  0.616489  1
  P  P26  1  0.000000  0.188698  0.385509  1
  P  P27  1  0.000000  0.811302  0.385509  1
  P  P28  1  0.500000  0.500000  0.884154  1
  P  P29  1  0.000000  0.000000  0.117184  1
  P  P30  1  0.500000  0.850586  0.890491  1
  P  P31  1  0.500000  0.149414  0.890491  1
  P  P32  1  0.000000  0.663283  0.103425  1
  P  P33  1  0.000000  0.336717  0.103425  1
  P  P34  1  0.500000  0.500000  0.353486  1
  P  P35  1  0.000000  0.000000  0.654495  1
