# generated using pymatgen
data_Y7CoSn23Rh5
_symmetry_space_group_name_H-M   'P 1'
_cell_length_a   9.85291800
_cell_length_b   9.85201452
_cell_length_c   10.08241903
_cell_angle_alpha   90.00791937
_cell_angle_beta   90.00000000
_cell_angle_gamma   120.00303362
_symmetry_Int_Tables_number   1
_chemical_formula_structural   Y7CoSn23Rh5
_chemical_formula_sum   'Y7 Co1 Sn23 Rh5'
_cell_volume   847.56302889
_cell_formula_units_Z   1
loop_
 _symmetry_equiv_pos_site_id
 _symmetry_equiv_pos_as_xyz
  1  'x, y, z'
loop_
 _atom_site_type_symbol
 _atom_site_label
 _atom_site_symmetry_multiplicity
 _atom_site_fract_x
 _atom_site_fract_y
 _atom_site_fract_z
 _atom_site_occupancy
  Y  Y0  1  0.001963  0.003925  0.998112  1
  Y  Y1  1  0.042776  0.521659  0.307407  1
  Y  Y2  1  0.477920  0.955841  0.307426  1
  Y  Y3  1  0.478882  0.521659  0.307407  1
  Y  Y4  1  0.956072  0.478772  0.691920  1
  Y  Y5  1  0.521496  0.042993  0.692383  1
  Y  Y6  1  0.522700  0.478772  0.691920  1
  Co  Co7  1  0.831321  0.662643  0.197928  1
  Sn  Sn8  1  0.000682  0.001365  0.499556  1
  Sn  Sn9  1  0.111657  0.875827  0.276791  1
  Sn  Sn10  1  0.764169  0.875827  0.276791  1
  Sn  Sn11  1  0.120167  0.240335  0.282558  1
  Sn  Sn12  1  0.879804  0.118455  0.719207  1
  Sn  Sn13  1  0.238652  0.118455  0.719207  1
  Sn  Sn14  1  0.879919  0.759837  0.718151  1
  Sn  Sn15  1  0.351043  0.999978  0.000134  1
  Sn  Sn16  1  0.655880  0.650386  0.004800  1
  Sn  Sn17  1  0.999562  0.352169  0.000357  1
  Sn  Sn18  1  0.352607  0.352169  0.000357  1
  Sn  Sn19  1  0.994506  0.650386  0.004800  1
  Sn  Sn20  1  0.648935  0.999978  0.000134  1
  Sn  Sn21  1  0.780563  0.561125  0.448451  1
  Sn  Sn22  1  0.777819  0.221926  0.454734  1
  Sn  Sn23  1  0.444107  0.221926  0.454734  1
  Sn  Sn24  1  0.222075  0.444150  0.545473  1
  Sn  Sn25  1  0.221838  0.778542  0.545147  1
  Sn  Sn26  1  0.556703  0.778542  0.545147  1
  Sn  Sn27  1  0.669016  0.338030  0.181086  1
  Sn  Sn28  1  0.333250  0.666501  0.820438  1
  Sn  Sn29  1  0.666395  0.332788  0.881119  1
  Sn  Sn30  1  0.333189  0.666379  0.119440  1
  Rh  Rh31  1  0.166446  0.829890  0.803461  1
  Rh  Rh32  1  0.663444  0.829890  0.803461  1
  Rh  Rh33  1  0.167873  0.335746  0.802135  1
  Rh  Rh34  1  0.831421  0.166569  0.198914  1
  Rh  Rh35  1  0.335149  0.166569  0.198914  1
