# generated using pymatgen
data_CuSb8
_symmetry_space_group_name_H-M   'P 1'
_cell_length_a   4.28602800
_cell_length_b   4.28602789
_cell_length_c   16.66130800
_cell_angle_alpha   90.00000000
_cell_angle_beta   90.00000000
_cell_angle_gamma   120.00000086
_symmetry_Int_Tables_number   1
_chemical_formula_structural   CuSb8
_chemical_formula_sum   'Cu1 Sb8'
_cell_volume   265.06337116
_cell_formula_units_Z   1
loop_
 _symmetry_equiv_pos_site_id
 _symmetry_equiv_pos_as_xyz
  1  'x, y, z'
loop_
 _atom_site_type_symbol
 _atom_site_label
 _atom_site_symmetry_multiplicity
 _atom_site_fract_x
 _atom_site_fract_y
 _atom_site_fract_z
 _atom_site_occupancy
  Cu  Cu0  1  0.000000  0.000000  0.000000  1
  Sb  Sb1  1  0.333333  0.666667  0.547023  1
  Sb  Sb2  1  0.666667  0.333333  0.452977  1
  Sb  Sb3  1  0.666667  0.333333  0.787113  1
  Sb  Sb4  1  0.333333  0.666667  0.212887  1
  Sb  Sb5  1  0.333333  0.666667  0.935049  1
  Sb  Sb6  1  0.666667  0.333333  0.064951  1
  Sb  Sb7  1  0.000000  0.000000  0.692714  1
  Sb  Sb8  1  0.000000  0.000000  0.307286  1
