# generated using pymatgen
data_Dy2Er18Si15Ir
_symmetry_space_group_name_H-M   'P 1'
_cell_length_a   7.37901698
_cell_length_b   7.62643425
_cell_length_c   14.47268307
_cell_angle_alpha   90.20247626
_cell_angle_beta   90.34169381
_cell_angle_gamma   90.21738891
_symmetry_Int_Tables_number   1
_chemical_formula_structural   Dy2Er18Si15Ir
_chemical_formula_sum   'Dy2 Er18 Si15 Ir1'
_cell_volume   814.43325040
_cell_formula_units_Z   1
loop_
 _symmetry_equiv_pos_site_id
 _symmetry_equiv_pos_as_xyz
  1  'x, y, z'
loop_
 _atom_site_type_symbol
 _atom_site_label
 _atom_site_symmetry_multiplicity
 _atom_site_fract_x
 _atom_site_fract_y
 _atom_site_fract_z
 _atom_site_occupancy
  Dy  Dy0  1  0.023730  0.819842  0.598747  1
  Dy  Dy1  1  0.526336  0.685513  0.596479  1
  Er  Er2  1  0.320942  0.818460  0.121690  1
  Er  Er3  1  0.816335  0.679393  0.122284  1
  Er  Er4  1  0.853076  0.506109  0.749208  1
  Er  Er5  1  0.470580  0.315703  0.099295  1
  Er  Er6  1  0.028804  0.817311  0.901651  1
  Er  Er7  1  0.472139  0.312864  0.402193  1
  Er  Er8  1  0.652221  0.011912  0.258094  1
  Er  Er9  1  0.530036  0.682524  0.900933  1
  Er  Er10  1  0.681157  0.180047  0.877390  1
  Er  Er11  1  0.179811  0.321872  0.624112  1
  Er  Er12  1  0.185459  0.323278  0.875959  1
  Er  Er13  1  0.814876  0.688336  0.382081  1
  Er  Er14  1  0.323652  0.825371  0.377689  1
  Er  Er15  1  0.352456  0.990052  0.747689  1
  Er  Er16  1  0.683053  0.166476  0.619278  1
  Er  Er17  1  0.145965  0.489865  0.252538  1
  Er  Er18  1  0.971004  0.181506  0.098155  1
  Er  Er19  1  0.968976  0.174985  0.401996  1
  Si  Si20  1  0.234036  0.628991  0.751072  1
  Si  Si21  1  0.343259  0.029239  0.540787  1
  Si  Si22  1  0.027039  0.892537  0.245610  1
  Si  Si23  1  0.734536  0.869381  0.752997  1
  Si  Si24  1  0.264571  0.127503  0.245865  1
  Si  Si25  1  0.853133  0.472340  0.542429  1
  Si  Si26  1  0.482543  0.394108  0.749037  1
  Si  Si27  1  0.147259  0.530850  0.461392  1
  Si  Si28  1  0.147008  0.527455  0.040276  1
  Si  Si29  1  0.978728  0.104453  0.752251  1
  Si  Si30  1  0.767361  0.375840  0.248338  1
  Si  Si31  1  0.351501  0.029892  0.959891  1
  Si  Si32  1  0.856216  0.471300  0.959029  1
  Si  Si33  1  0.646775  0.971305  0.039425  1
  Si  Si34  1  0.520596  0.601940  0.247825  1
  Ir  Ir35  1  0.644827  0.981442  0.456311  1
