# generated using pymatgen
data_Y2ThIn3CuPd2
_symmetry_space_group_name_H-M   'P 1'
_cell_length_a   7.65118169
_cell_length_b   7.65107264
_cell_length_c   3.92656100
_cell_angle_alpha   90.00000000
_cell_angle_beta   90.00000000
_cell_angle_gamma   119.00592095
_symmetry_Int_Tables_number   1
_chemical_formula_structural   Y2ThIn3CuPd2
_chemical_formula_sum   'Y2 Th1 In3 Cu1 Pd2'
_cell_volume   201.02846997
_cell_formula_units_Z   1
loop_
 _symmetry_equiv_pos_site_id
 _symmetry_equiv_pos_as_xyz
  1  'x, y, z'
loop_
 _atom_site_type_symbol
 _atom_site_label
 _atom_site_symmetry_multiplicity
 _atom_site_fract_x
 _atom_site_fract_y
 _atom_site_fract_z
 _atom_site_occupancy
  Y  Y0  1  0.591456  0.999754  0.500000  1
  Y  Y1  1  0.999754  0.591456  0.500000  1
  Th  Th2  1  0.413538  0.413538  0.500000  1
  In  In3  1  0.759080  0.759080  0.000000  1
  In  In4  1  0.248524  0.991914  0.000000  1
  In  In5  1  0.991913  0.248523  0.000000  1
  Cu  Cu6  1  0.005760  0.005759  0.500000  1
  Pd  Pd7  1  0.657442  0.332527  0.000000  1
  Pd  Pd8  1  0.332533  0.657448  0.000000  1
