# generated using pymatgen
data_Ho5Bi2Os
_symmetry_space_group_name_H-M   'P 1'
_cell_length_a   7.93081500
_cell_length_b   9.03615600
_cell_length_c   12.47079300
_cell_angle_alpha   90.00000000
_cell_angle_beta   90.00000000
_cell_angle_gamma   90.00000000
_symmetry_Int_Tables_number   1
_chemical_formula_structural   Ho5Bi2Os
_chemical_formula_sum   'Ho20 Bi8 Os4'
_cell_volume   893.70792651
_cell_formula_units_Z   4
loop_
 _symmetry_equiv_pos_site_id
 _symmetry_equiv_pos_as_xyz
  1  'x, y, z'
loop_
 _atom_site_type_symbol
 _atom_site_label
 _atom_site_symmetry_multiplicity
 _atom_site_fract_x
 _atom_site_fract_y
 _atom_site_fract_z
 _atom_site_occupancy
  Ho  Ho0  1  0.839738  0.750000  0.792341  1
  Ho  Ho1  1  0.160262  0.250000  0.207659  1
  Ho  Ho2  1  0.339738  0.250000  0.707659  1
  Ho  Ho3  1  0.660262  0.750000  0.292341  1
  Ho  Ho4  1  0.375166  0.750000  0.690097  1
  Ho  Ho5  1  0.624834  0.250000  0.309903  1
  Ho  Ho6  1  0.875166  0.250000  0.809903  1
  Ho  Ho7  1  0.124834  0.750000  0.190097  1
  Ho  Ho8  1  0.943879  0.750000  0.504461  1
  Ho  Ho9  1  0.056121  0.250000  0.495539  1
  Ho  Ho10  1  0.443879  0.250000  0.995539  1
  Ho  Ho11  1  0.556121  0.750000  0.004461  1
  Ho  Ho12  1  0.673639  0.040975  0.564709  1
  Ho  Ho13  1  0.326361  0.959025  0.435291  1
  Ho  Ho14  1  0.173639  0.959025  0.935291  1
  Ho  Ho15  1  0.326361  0.540975  0.435291  1
  Ho  Ho16  1  0.826361  0.040975  0.064709  1
  Ho  Ho17  1  0.673639  0.459025  0.564709  1
  Ho  Ho18  1  0.826361  0.459025  0.064709  1
  Ho  Ho19  1  0.173639  0.540975  0.935291  1
  Bi  Bi20  1  0.566077  0.493298  0.827282  1
  Bi  Bi21  1  0.433923  0.506702  0.172718  1
  Bi  Bi22  1  0.066077  0.506702  0.672718  1
  Bi  Bi23  1  0.433923  0.993298  0.172718  1
  Bi  Bi24  1  0.933923  0.493298  0.327282  1
  Bi  Bi25  1  0.566077  0.006702  0.827282  1
  Bi  Bi26  1  0.933923  0.006702  0.327282  1
  Bi  Bi27  1  0.066077  0.993298  0.672718  1
  Os  Os28  1  0.575358  0.750000  0.509448  1
  Os  Os29  1  0.424642  0.250000  0.490552  1
  Os  Os30  1  0.075358  0.250000  0.990552  1
  Os  Os31  1  0.924642  0.750000  0.009448  1
