# generated using pymatgen
data_CeNpB6Os
_symmetry_space_group_name_H-M   'P 1'
_cell_length_a   3.63455400
_cell_length_b   9.35052500
_cell_length_c   11.42145300
_cell_angle_alpha   90.00000000
_cell_angle_beta   90.00000000
_cell_angle_gamma   90.00000000
_symmetry_Int_Tables_number   1
_chemical_formula_structural   CeNpB6Os
_chemical_formula_sum   'Ce4 Np4 B24 Os4'
_cell_volume   388.15794361
_cell_formula_units_Z   4
loop_
 _symmetry_equiv_pos_site_id
 _symmetry_equiv_pos_as_xyz
  1  'x, y, z'
loop_
 _atom_site_type_symbol
 _atom_site_label
 _atom_site_symmetry_multiplicity
 _atom_site_fract_x
 _atom_site_fract_y
 _atom_site_fract_z
 _atom_site_occupancy
  Ce  Ce0  1  0.000000  0.336911  0.407044  1
  Ce  Ce1  1  0.000000  0.663089  0.592956  1
  Ce  Ce2  1  0.000000  0.836911  0.092956  1
  Ce  Ce3  1  0.000000  0.163089  0.907044  1
  Np  Np4  1  0.000000  0.958881  0.401745  1
  Np  Np5  1  0.000000  0.041119  0.598255  1
  Np  Np6  1  0.000000  0.458881  0.098255  1
  Np  Np7  1  0.000000  0.541119  0.901745  1
  B  B8  1  0.500000  0.553262  0.430139  1
  B  B9  1  0.500000  0.446738  0.569861  1
  B  B10  1  0.500000  0.053262  0.069861  1
  B  B11  1  0.500000  0.946738  0.930139  1
  B  B12  1  0.500000  0.744825  0.422558  1
  B  B13  1  0.500000  0.255175  0.577442  1
  B  B14  1  0.500000  0.244825  0.077442  1
  B  B15  1  0.500000  0.755175  0.922558  1
  B  B16  1  0.500000  0.805186  0.274744  1
  B  B17  1  0.500000  0.194814  0.725256  1
  B  B18  1  0.500000  0.305186  0.225256  1
  B  B19  1  0.500000  0.694814  0.774744  1
  B  B20  1  0.500000  0.644923  0.188377  1
  B  B21  1  0.500000  0.355077  0.811623  1
  B  B22  1  0.500000  0.144923  0.311623  1
  B  B23  1  0.500000  0.855077  0.688377  1
  B  B24  1  0.500000  0.988961  0.221042  1
  B  B25  1  0.500000  0.011039  0.778958  1
  B  B26  1  0.500000  0.488961  0.278958  1
  B  B27  1  0.500000  0.511039  0.721042  1
  B  B28  1  0.500000  0.641065  0.039145  1
  B  B29  1  0.500000  0.358935  0.960855  1
  B  B30  1  0.500000  0.141065  0.460855  1
  B  B31  1  0.500000  0.858935  0.539145  1
  Os  Os32  1  0.000000  0.647201  0.318897  1
  Os  Os33  1  0.000000  0.352799  0.681103  1
  Os  Os34  1  0.000000  0.147201  0.181103  1
  Os  Os35  1  0.000000  0.852799  0.818897  1
