# generated using pymatgen
data_Nd4Al13Ga11Pt9
_symmetry_space_group_name_H-M   'P 1'
_cell_length_a   7.54005788
_cell_length_b   7.56698413
_cell_length_c   13.43927383
_cell_angle_alpha   84.68587691
_cell_angle_beta   100.61582101
_cell_angle_gamma   119.72220329
_symmetry_Int_Tables_number   1
_chemical_formula_structural   Nd4Al13Ga11Pt9
_chemical_formula_sum   'Nd4 Al13 Ga11 Pt9'
_cell_volume   654.50784313
_cell_formula_units_Z   1
loop_
 _symmetry_equiv_pos_site_id
 _symmetry_equiv_pos_as_xyz
  1  'x, y, z'
loop_
 _atom_site_type_symbol
 _atom_site_label
 _atom_site_symmetry_multiplicity
 _atom_site_fract_x
 _atom_site_fract_y
 _atom_site_fract_z
 _atom_site_occupancy
  Nd  Nd0  1  0.734612  0.001225  0.191488  1
  Nd  Nd1  1  0.265283  0.000354  0.807768  1
  Nd  Nd2  1  0.062705  0.664365  0.189746  1
  Nd  Nd3  1  0.938406  0.335752  0.809356  1
  Al  Al4  1  0.771234  0.660618  0.334984  1
  Al  Al5  1  0.852876  0.331626  0.556790  1
  Al  Al6  1  0.186693  0.999623  0.557127  1
  Al  Al7  1  0.812031  0.998806  0.441405  1
  Al  Al8  1  0.352030  0.002311  0.052681  1
  Al  Al9  1  0.648419  0.998682  0.947258  1
  Al  Al10  1  0.555854  0.994781  0.665873  1
  Al  Al11  1  0.443799  0.004711  0.334419  1
  Al  Al12  1  0.519831  0.666500  0.559313  1
  Al  Al13  1  0.477896  0.331597  0.440321  1
  Al  Al14  1  0.682886  0.666230  0.046530  1
  Al  Al15  1  0.319212  0.335779  0.954354  1
  Al  Al16  1  0.145245  0.667307  0.442039  1
  Ga  Ga17  1  0.801658  0.871749  0.814125  1
  Ga  Ga18  1  0.198460  0.128097  0.185913  1
  Ga  Ga19  1  0.979124  0.667360  0.941728  1
  Ga  Ga20  1  0.022334  0.333438  0.058588  1
  Ga  Ga21  1  0.401455  0.665879  0.815607  1
  Ga  Ga22  1  0.599415  0.336890  0.184802  1
  Ga  Ga23  1  0.882998  0.665761  0.668034  1
  Ga  Ga24  1  0.116823  0.333703  0.332443  1
  Ga  Ga25  1  0.600445  0.461523  0.814414  1
  Ga  Ga26  1  0.402193  0.539756  0.186267  1
  Ga  Ga27  1  0.227760  0.337104  0.668527  1
  Pt  Pt28  1  0.335671  0.673695  0.000861  1
  Pt  Pt29  1  0.545720  0.324998  0.632360  1
  Pt  Pt30  1  0.456606  0.674036  0.367753  1
  Pt  Pt31  1  0.879586  0.004119  0.632701  1
  Pt  Pt32  1  0.114967  0.990856  0.365955  1
  Pt  Pt33  1  0.665230  0.326978  0.999517  1
  Pt  Pt34  1  0.210182  0.669876  0.633762  1
  Pt  Pt35  1  0.789745  0.332882  0.365621  1
  Pt  Pt36  1  0.000615  0.001034  0.999570  1
