# generated using pymatgen
data_Er6Al19Fe8Si5
_symmetry_space_group_name_H-M   'P 1'
_cell_length_a   8.49475000
_cell_length_b   8.48202062
_cell_length_c   9.32291900
_cell_angle_alpha   90.00000000
_cell_angle_beta   90.00000000
_cell_angle_gamma   120.04965679
_symmetry_Int_Tables_number   1
_chemical_formula_structural   Er6Al19Fe8Si5
_chemical_formula_sum   'Er6 Al19 Fe8 Si5'
_cell_volume   581.45343600
_cell_formula_units_Z   1
loop_
 _symmetry_equiv_pos_site_id
 _symmetry_equiv_pos_as_xyz
  1  'x, y, z'
loop_
 _atom_site_type_symbol
 _atom_site_label
 _atom_site_symmetry_multiplicity
 _atom_site_fract_x
 _atom_site_fract_y
 _atom_site_fract_z
 _atom_site_occupancy
  Er  Er0  1  0.195443  0.390887  0.250000  1
  Er  Er1  1  0.805155  0.610309  0.750000  1
  Er  Er2  1  0.606521  0.805721  0.250000  1
  Er  Er3  1  0.391510  0.196591  0.750000  1
  Er  Er4  1  0.199199  0.805721  0.250000  1
  Er  Er5  1  0.805083  0.196591  0.750000  1
  Al  Al6  1  0.163142  0.326284  0.574319  1
  Al  Al7  1  0.836164  0.672328  0.425305  1
  Al  Al8  1  0.673035  0.836907  0.573218  1
  Al  Al9  1  0.836164  0.672328  0.074695  1
  Al  Al10  1  0.327213  0.164006  0.425365  1
  Al  Al11  1  0.163142  0.326284  0.925681  1
  Al  Al12  1  0.163872  0.836907  0.573218  1
  Al  Al13  1  0.327213  0.164006  0.074635  1
  Al  Al14  1  0.836793  0.164006  0.425365  1
  Al  Al15  1  0.673035  0.836907  0.926782  1
  Al  Al16  1  0.836793  0.164006  0.074635  1
  Al  Al17  1  0.163872  0.836907  0.926782  1
  Al  Al18  1  0.439400  0.878799  0.750000  1
  Al  Al19  1  0.876343  0.435516  0.250000  1
  Al  Al20  1  0.123424  0.562511  0.750000  1
  Al  Al21  1  0.559173  0.435516  0.250000  1
  Al  Al22  1  0.439086  0.562511  0.750000  1
  Al  Al23  1  0.999572  0.999144  0.250000  1
  Al  Al24  1  0.000517  0.001033  0.750000  1
  Fe  Fe25  1  0.500771  0.001541  0.007114  1
  Fe  Fe26  1  0.998822  0.498838  0.000374  1
  Fe  Fe27  1  0.500771  0.001541  0.492886  1
  Fe  Fe28  1  0.500016  0.498838  0.000374  1
  Fe  Fe29  1  0.998822  0.498838  0.499626  1
  Fe  Fe30  1  0.500016  0.498838  0.499626  1
  Fe  Fe31  1  0.999622  0.999242  0.000025  1
  Fe  Fe32  1  0.999622  0.999242  0.499975  1
  Si  Si33  1  0.332424  0.664850  0.027548  1
  Si  Si34  1  0.667618  0.335233  0.969617  1
  Si  Si35  1  0.667618  0.335233  0.530383  1
  Si  Si36  1  0.332424  0.664850  0.472452  1
  Si  Si37  1  0.560593  0.121187  0.250000  1
