# generated using pymatgen
data_Zr10Sn2GeBi4Au
_symmetry_space_group_name_H-M   'P 1'
_cell_length_a   8.85820786
_cell_length_b   8.85820650
_cell_length_c   5.96490330
_cell_angle_alpha   90.04169112
_cell_angle_beta   90.04169361
_cell_angle_gamma   119.89061921
_symmetry_Int_Tables_number   1
_chemical_formula_structural   Zr10Sn2GeBi4Au
_chemical_formula_sum   'Zr10 Sn2 Ge1 Bi4 Au1'
_cell_volume   405.79142933
_cell_formula_units_Z   1
loop_
 _symmetry_equiv_pos_site_id
 _symmetry_equiv_pos_as_xyz
  1  'x, y, z'
loop_
 _atom_site_type_symbol
 _atom_site_label
 _atom_site_symmetry_multiplicity
 _atom_site_fract_x
 _atom_site_fract_y
 _atom_site_fract_z
 _atom_site_occupancy
  Zr  Zr0  1  0.667456  0.330209  0.004641  1
  Zr  Zr1  1  0.330209  0.667456  0.004641  1
  Zr  Zr2  1  0.330946  0.667603  0.496911  1
  Zr  Zr3  1  0.667603  0.330946  0.496911  1
  Zr  Zr4  1  0.735964  0.735964  0.764885  1
  Zr  Zr5  1  0.263744  0.998834  0.763601  1
  Zr  Zr6  1  0.998834  0.263744  0.763601  1
  Zr  Zr7  1  0.269912  0.269912  0.235609  1
  Zr  Zr8  1  0.729404  0.005963  0.236606  1
  Zr  Zr9  1  0.005963  0.729404  0.236606  1
  Sn  Sn10  1  0.386099  0.000881  0.254242  1
  Sn  Sn11  1  0.000881  0.386099  0.254242  1
  Ge  Ge12  1  0.999497  0.999497  0.010213  1
  Bi  Bi13  1  0.389912  0.389912  0.745168  1
  Bi  Bi14  1  0.608548  0.999087  0.744032  1
  Bi  Bi15  1  0.999087  0.608548  0.744032  1
  Bi  Bi16  1  0.615589  0.615589  0.255578  1
  Au  Au17  1  0.000351  0.000351  0.488482  1
