# generated using pymatgen
data_LaY2Cu2Ir7
_symmetry_space_group_name_H-M   'P 1'
_cell_length_a   9.02001385
_cell_length_b   9.02001392
_cell_length_c   9.02001373
_cell_angle_alpha   34.65568309
_cell_angle_beta   34.65568077
_cell_angle_gamma   34.65567986
_symmetry_Int_Tables_number   1
_chemical_formula_structural   LaY2Cu2Ir7
_chemical_formula_sum   'La1 Y2 Cu2 Ir7'
_cell_volume   211.75843094
_cell_formula_units_Z   1
loop_
 _symmetry_equiv_pos_site_id
 _symmetry_equiv_pos_as_xyz
  1  'x, y, z'
loop_
 _atom_site_type_symbol
 _atom_site_label
 _atom_site_symmetry_multiplicity
 _atom_site_fract_x
 _atom_site_fract_y
 _atom_site_fract_z
 _atom_site_occupancy
  La  La0  1  0.000000  0.000000  0.000000  1
  Y  Y1  1  0.858949  0.858949  0.858949  1
  Y  Y2  1  0.141051  0.141051  0.141051  1
  Cu  Cu3  1  0.665734  0.665734  0.665734  1
  Cu  Cu4  1  0.334266  0.334266  0.334266  1
  Ir  Ir5  1  0.414509  0.414509  0.922191  1
  Ir  Ir6  1  0.922191  0.414509  0.414509  1
  Ir  Ir7  1  0.414509  0.922191  0.414509  1
  Ir  Ir8  1  0.500000  0.500000  0.500000  1
  Ir  Ir9  1  0.585491  0.077809  0.585491  1
  Ir  Ir10  1  0.077809  0.585491  0.585491  1
  Ir  Ir11  1  0.585491  0.585491  0.077809  1
