# generated using pymatgen
data_BaNiAu12
_symmetry_space_group_name_H-M   'P 1'
_cell_length_a   9.30400434
_cell_length_b   9.30384570
_cell_length_c   9.30402902
_cell_angle_alpha   60.00047291
_cell_angle_beta   59.99882876
_cell_angle_gamma   60.00048625
_symmetry_Int_Tables_number   1
_chemical_formula_structural   BaNiAu12
_chemical_formula_sum   'Ba2 Ni2 Au24'
_cell_volume   569.49218176
_cell_formula_units_Z   2
loop_
 _symmetry_equiv_pos_site_id
 _symmetry_equiv_pos_as_xyz
  1  'x, y, z'
loop_
 _atom_site_type_symbol
 _atom_site_label
 _atom_site_symmetry_multiplicity
 _atom_site_fract_x
 _atom_site_fract_y
 _atom_site_fract_z
 _atom_site_occupancy
  Ba  Ba0  1  0.750000  0.750000  0.749999  1
  Ba  Ba1  1  0.250000  0.250000  0.250001  1
  Ni  Ni2  1  0.000000  0.000000  0.000000  1
  Ni  Ni3  1  0.500000  0.500000  0.500000  1
  Au  Au4  1  0.703991  0.939547  0.296008  1
  Au  Au5  1  0.939544  0.703993  0.060457  1
  Au  Au6  1  0.060456  0.296007  0.939543  1
  Au  Au7  1  0.796003  0.560446  0.439553  1
  Au  Au8  1  0.560443  0.796007  0.203994  1
  Au  Au9  1  0.204005  0.560453  0.795997  1
  Au  Au10  1  0.795995  0.439547  0.204003  1
  Au  Au11  1  0.560446  0.439552  0.796004  1
  Au  Au12  1  0.203996  0.796003  0.439553  1
  Au  Au13  1  0.939554  0.060446  0.296012  1
  Au  Au14  1  0.296016  0.939550  0.060448  1
  Au  Au15  1  0.060446  0.703984  0.296020  1
  Au  Au16  1  0.060446  0.939554  0.703988  1
  Au  Au17  1  0.296013  0.703987  0.939554  1
  Au  Au18  1  0.703984  0.060450  0.939552  1
  Au  Au19  1  0.703987  0.296013  0.060446  1
  Au  Au20  1  0.939554  0.296016  0.703980  1
  Au  Au21  1  0.439544  0.795995  0.560455  1
  Au  Au22  1  0.439557  0.203993  0.796006  1
  Au  Au23  1  0.796004  0.203997  0.560447  1
  Au  Au24  1  0.439554  0.560448  0.203996  1
  Au  Au25  1  0.203997  0.439554  0.560447  1
  Au  Au26  1  0.560456  0.204005  0.439545  1
  Au  Au27  1  0.296009  0.060453  0.703992  1
