# generated using pymatgen
data_TbY6Ho(Ti3Si4)4
_symmetry_space_group_name_H-M   'P 1'
_cell_length_a   7.06110229
_cell_length_b   7.06259520
_cell_length_c   12.97403756
_cell_angle_alpha   89.97786445
_cell_angle_beta   90.03050823
_cell_angle_gamma   89.99615853
_symmetry_Int_Tables_number   1
_chemical_formula_structural   TbY6Ho(Ti3Si4)4
_chemical_formula_sum   'Tb1 Y6 Ho1 Ti12 Si16'
_cell_volume   647.01131252
_cell_formula_units_Z   1
loop_
 _symmetry_equiv_pos_site_id
 _symmetry_equiv_pos_as_xyz
  1  'x, y, z'
loop_
 _atom_site_type_symbol
 _atom_site_label
 _atom_site_symmetry_multiplicity
 _atom_site_fract_x
 _atom_site_fract_y
 _atom_site_fract_z
 _atom_site_occupancy
  Tb  Tb0  1  0.997425  0.660051  0.033381  1
  Y  Y1  1  0.497717  0.840378  0.716371  1
  Y  Y2  1  0.502074  0.159806  0.216833  1
  Y  Y3  1  0.840143  0.497689  0.283467  1
  Y  Y4  1  0.159932  0.502126  0.783311  1
  Y  Y5  1  0.659912  0.997700  0.966633  1
  Y  Y6  1  0.002477  0.339880  0.533287  1
  Ho  Ho7  1  0.340626  0.001476  0.466502  1
  Ti  Ti8  1  0.326920  0.326992  0.000050  1
  Ti  Ti9  1  0.173208  0.827034  0.250217  1
  Ti  Ti10  1  0.826788  0.173014  0.749904  1
  Ti  Ti11  1  0.672642  0.673430  0.499956  1
  Ti  Ti12  1  0.152479  0.008735  0.876565  1
  Ti  Ti13  1  0.491190  0.652118  0.126663  1
  Ti  Ti14  1  0.508452  0.347520  0.626324  1
  Ti  Ti15  1  0.652256  0.491038  0.873378  1
  Ti  Ti16  1  0.348000  0.508546  0.373627  1
  Ti  Ti17  1  0.847834  0.991376  0.376728  1
  Ti  Ti18  1  0.008863  0.152614  0.123455  1
  Ti  Ti19  1  0.991440  0.847959  0.623161  1
  Si  Si20  1  0.202766  0.129498  0.684374  1
  Si  Si21  1  0.370601  0.702452  0.934682  1
  Si  Si22  1  0.628906  0.296934  0.434790  1
  Si  Si23  1  0.702286  0.370192  0.065276  1
  Si  Si24  1  0.297807  0.630548  0.565067  1
  Si  Si25  1  0.797365  0.870546  0.184878  1
  Si  Si26  1  0.130428  0.201963  0.315822  1
  Si  Si27  1  0.870497  0.797622  0.815141  1
  Si  Si28  1  0.290754  0.953125  0.064716  1
  Si  Si29  1  0.546455  0.791295  0.315279  1
  Si  Si30  1  0.452796  0.209284  0.814733  1
  Si  Si31  1  0.790597  0.547172  0.685177  1
  Si  Si32  1  0.209393  0.452622  0.185273  1
  Si  Si33  1  0.708412  0.046961  0.564528  1
  Si  Si34  1  0.952823  0.290316  0.935149  1
  Si  Si35  1  0.047738  0.709986  0.435307  1
