# generated using pymatgen
data_Y3LuHf2(SnRh)6
_symmetry_space_group_name_H-M   'P 1'
_cell_length_a   7.50833177
_cell_length_b   7.46427992
_cell_length_c   7.57246800
_cell_angle_alpha   90.00000000
_cell_angle_beta   90.00000000
_cell_angle_gamma   119.77744115
_symmetry_Int_Tables_number   1
_chemical_formula_structural   Y3LuHf2(SnRh)6
_chemical_formula_sum   'Y3 Lu1 Hf2 Sn6 Rh6'
_cell_volume   368.35711205
_cell_formula_units_Z   1
loop_
 _symmetry_equiv_pos_site_id
 _symmetry_equiv_pos_as_xyz
  1  'x, y, z'
loop_
 _atom_site_type_symbol
 _atom_site_label
 _atom_site_symmetry_multiplicity
 _atom_site_fract_x
 _atom_site_fract_y
 _atom_site_fract_z
 _atom_site_occupancy
  Y  Y0  1  0.999971  0.403884  0.750000  1
  Y  Y1  1  0.590074  0.593515  0.750000  1
  Y  Y2  1  0.409856  0.003636  0.750000  1
  Lu  Lu3  1  0.999089  0.401041  0.250000  1
  Hf  Hf4  1  0.606381  0.601486  0.250000  1
  Hf  Hf5  1  0.394175  0.996032  0.250000  1
  Sn  Sn6  1  0.262857  0.264634  0.490781  1
  Sn  Sn7  1  0.000410  0.733338  0.501098  1
  Sn  Sn8  1  0.000410  0.733338  0.998902  1
  Sn  Sn9  1  0.736860  0.000886  0.491198  1
  Sn  Sn10  1  0.736860  0.000886  0.008802  1
  Sn  Sn11  1  0.262857  0.264634  0.009219  1
  Rh  Rh12  1  0.342020  0.674015  0.465587  1
  Rh  Rh13  1  0.658042  0.332078  0.467187  1
  Rh  Rh14  1  0.342020  0.674015  0.034413  1
  Rh  Rh15  1  0.000191  0.002470  0.750000  1
  Rh  Rh16  1  0.999888  0.988034  0.250000  1
  Rh  Rh17  1  0.658042  0.332078  0.032813  1
