# generated using pymatgen
data_K2VCu3F12
_symmetry_space_group_name_H-M   'P 1'
_cell_length_a   6.94980900
_cell_length_b   7.95221732
_cell_length_c   12.15617200
_cell_angle_alpha   58.77025559
_cell_angle_beta   90.00000000
_cell_angle_gamma   90.00000000
_symmetry_Int_Tables_number   1
_chemical_formula_structural   K2VCu3F12
_chemical_formula_sum   'K4 V2 Cu6 F24'
_cell_volume   574.47670543
_cell_formula_units_Z   2
loop_
 _symmetry_equiv_pos_site_id
 _symmetry_equiv_pos_as_xyz
  1  'x, y, z'
loop_
 _atom_site_type_symbol
 _atom_site_label
 _atom_site_symmetry_multiplicity
 _atom_site_fract_x
 _atom_site_fract_y
 _atom_site_fract_z
 _atom_site_occupancy
  K  K0  1  0.520760  0.305993  0.407312  1
  K  K1  1  0.979240  0.305993  0.907312  1
  K  K2  1  0.479240  0.694007  0.592688  1
  K  K3  1  0.020760  0.694007  0.092688  1
  V  V4  1  0.500000  0.500000  0.000000  1
  V  V5  1  0.000000  0.500000  0.500000  1
  Cu  Cu6  1  0.500000  0.000000  0.000000  1
  Cu  Cu7  1  0.000000  0.000000  0.500000  1
  Cu  Cu8  1  0.719416  0.968761  0.265873  1
  Cu  Cu9  1  0.780584  0.968761  0.765873  1
  Cu  Cu10  1  0.280584  0.031239  0.734127  1
  Cu  Cu11  1  0.219416  0.031239  0.234127  1
  F  F12  1  0.669522  0.882223  0.148060  1
  F  F13  1  0.830478  0.882223  0.648060  1
  F  F14  1  0.330478  0.117777  0.851940  1
  F  F15  1  0.169522  0.117777  0.351940  1
  F  F16  1  0.224503  0.973862  0.602170  1
  F  F17  1  0.275497  0.973862  0.102170  1
  F  F18  1  0.775497  0.026138  0.397830  1
  F  F19  1  0.724503  0.026138  0.897830  1
  F  F20  1  0.456455  0.919252  0.325829  1
  F  F21  1  0.043545  0.919252  0.825829  1
  F  F22  1  0.543545  0.080748  0.674171  1
  F  F23  1  0.956455  0.080748  0.174171  1
  F  F24  1  0.913047  0.341841  0.666568  1
  F  F25  1  0.586953  0.341841  0.166568  1
  F  F26  1  0.086953  0.658159  0.333432  1
  F  F27  1  0.413047  0.658159  0.833432  1
  F  F28  1  0.254434  0.373108  0.048973  1
  F  F29  1  0.245566  0.373108  0.548973  1
  F  F30  1  0.745566  0.626892  0.951027  1
  F  F31  1  0.754434  0.626892  0.451027  1
  F  F32  1  0.594382  0.315323  0.957455  1
  F  F33  1  0.905618  0.315323  0.457455  1
  F  F34  1  0.405618  0.684677  0.042545  1
  F  F35  1  0.094382  0.684677  0.542545  1
