# generated using pymatgen
data_Er8Ti10NbSi16Mo
_symmetry_space_group_name_H-M   'P 1'
_cell_length_a   7.01508940
_cell_length_b   7.01508935
_cell_length_c   12.89453911
_cell_angle_alpha   90.01091979
_cell_angle_beta   89.98907948
_cell_angle_gamma   90.02832754
_symmetry_Int_Tables_number   1
_chemical_formula_structural   Er8Ti10NbSi16Mo
_chemical_formula_sum   'Er8 Ti10 Nb1 Si16 Mo1'
_cell_volume   634.55923958
_cell_formula_units_Z   1
loop_
 _symmetry_equiv_pos_site_id
 _symmetry_equiv_pos_as_xyz
  1  'x, y, z'
loop_
 _atom_site_type_symbol
 _atom_site_label
 _atom_site_symmetry_multiplicity
 _atom_site_fract_x
 _atom_site_fract_y
 _atom_site_fract_z
 _atom_site_occupancy
  Er  Er0  1  0.341321  0.002399  0.467272  1
  Er  Er1  1  0.497932  0.840635  0.717122  1
  Er  Er2  1  0.500460  0.159573  0.215338  1
  Er  Er3  1  0.840635  0.497932  0.282878  1
  Er  Er4  1  0.159573  0.500460  0.784662  1
  Er  Er5  1  0.657794  0.998931  0.967480  1
  Er  Er6  1  0.002399  0.341321  0.532728  1
  Er  Er7  1  0.998931  0.657794  0.032520  1
  Ti  Ti8  1  0.173934  0.827083  0.249435  1
  Ti  Ti9  1  0.827083  0.173934  0.750565  1
  Ti  Ti10  1  0.153118  0.008674  0.876427  1
  Ti  Ti11  1  0.492224  0.651382  0.123881  1
  Ti  Ti12  1  0.507373  0.348994  0.625220  1
  Ti  Ti13  1  0.651382  0.492224  0.876119  1
  Ti  Ti14  1  0.348994  0.507373  0.374780  1
  Ti  Ti15  1  0.847801  0.992018  0.375775  1
  Ti  Ti16  1  0.008674  0.153118  0.123573  1
  Ti  Ti17  1  0.992018  0.847801  0.624225  1
  Nb  Nb18  1  0.673211  0.673211  0.500000  1
  Si  Si19  1  0.202926  0.131250  0.683886  1
  Si  Si20  1  0.369412  0.702030  0.933730  1
  Si  Si21  1  0.631181  0.296044  0.433530  1
  Si  Si22  1  0.702030  0.369412  0.066270  1
  Si  Si23  1  0.296044  0.631181  0.566470  1
  Si  Si24  1  0.796987  0.869074  0.183387  1
  Si  Si25  1  0.131250  0.202926  0.316114  1
  Si  Si26  1  0.869074  0.796987  0.816613  1
  Si  Si27  1  0.290791  0.953243  0.064604  1
  Si  Si28  1  0.545771  0.792704  0.313619  1
  Si  Si29  1  0.452772  0.208337  0.815393  1
  Si  Si30  1  0.792704  0.545771  0.686381  1
  Si  Si31  1  0.208337  0.452772  0.184607  1
  Si  Si32  1  0.708268  0.048111  0.565049  1
  Si  Si33  1  0.953243  0.290791  0.935396  1
  Si  Si34  1  0.048111  0.708268  0.434951  1
  Mo  Mo35  1  0.326245  0.326245  0.000000  1
