# generated using pymatgen
data_Cs3KLi2(TcH9)3
_symmetry_space_group_name_H-M   'P 1'
_cell_length_a   11.17560350
_cell_length_b   11.17560346
_cell_length_c   5.41498600
_cell_angle_alpha   90.00000000
_cell_angle_beta   90.00000000
_cell_angle_gamma   126.34036550
_symmetry_Int_Tables_number   1
_chemical_formula_structural   Cs3KLi2(TcH9)3
_chemical_formula_sum   'Cs3 K1 Li2 Tc3 H27'
_cell_volume   544.76699004
_cell_formula_units_Z   1
loop_
 _symmetry_equiv_pos_site_id
 _symmetry_equiv_pos_as_xyz
  1  'x, y, z'
loop_
 _atom_site_type_symbol
 _atom_site_label
 _atom_site_symmetry_multiplicity
 _atom_site_fract_x
 _atom_site_fract_y
 _atom_site_fract_z
 _atom_site_occupancy
  Cs  Cs0  1  0.261125  0.974341  0.500000  1
  Cs  Cs1  1  0.974341  0.261125  0.500000  1
  Cs  Cs2  1  0.393229  0.393229  0.000000  1
  K  K3  1  0.766576  0.766576  0.500000  1
  Li  Li4  1  0.401991  0.729839  0.000000  1
  Li  Li5  1  0.729839  0.401991  0.000000  1
  Tc  Tc6  1  0.002416  0.002416  0.000000  1
  Tc  Tc7  1  0.368174  0.680509  0.500000  1
  Tc  Tc8  1  0.680509  0.368174  0.500000  1
  H  H9  1  0.879762  0.001082  0.183140  1
  H  H10  1  0.001082  0.879762  0.183140  1
  H  H11  1  0.879762  0.001082  0.816860  1
  H  H12  1  0.001082  0.879762  0.816860  1
  H  H13  1  0.079049  0.079049  0.272438  1
  H  H14  1  0.079049  0.079049  0.727562  1
  H  H15  1  0.182527  0.060818  0.000000  1
  H  H16  1  0.060818  0.182527  0.000000  1
  H  H17  1  0.837911  0.837911  0.000000  1
  H  H18  1  0.259507  0.569639  0.265031  1
  H  H19  1  0.490551  0.697153  0.287097  1
  H  H20  1  0.259507  0.569639  0.734969  1
  H  H21  1  0.569639  0.259507  0.734969  1
  H  H22  1  0.360421  0.791484  0.297888  1
  H  H23  1  0.490551  0.697153  0.712903  1
  H  H24  1  0.697153  0.490551  0.712903  1
  H  H25  1  0.569639  0.259507  0.265031  1
  H  H26  1  0.360421  0.791484  0.702112  1
  H  H27  1  0.697153  0.490551  0.287097  1
  H  H28  1  0.791484  0.360421  0.702112  1
  H  H29  1  0.791484  0.360421  0.297888  1
  H  H30  1  0.350124  0.520270  0.500000  1
  H  H31  1  0.523332  0.851151  0.500000  1
  H  H32  1  0.520270  0.350124  0.500000  1
  H  H33  1  0.199039  0.639330  0.500000  1
  H  H34  1  0.851151  0.523332  0.500000  1
  H  H35  1  0.639330  0.199039  0.500000  1
