# generated using pymatgen
data_Y10In2SnSb3
_symmetry_space_group_name_H-M   'P 1'
_cell_length_a   6.54952400
_cell_length_b   8.99911875
_cell_length_c   8.97113059
_cell_angle_alpha   119.93946642
_cell_angle_beta   89.99996460
_cell_angle_gamma   90.00002966
_symmetry_Int_Tables_number   1
_chemical_formula_structural   Y10In2SnSb3
_chemical_formula_sum   'Y10 In2 Sn1 Sb3'
_cell_volume   458.19686883
_cell_formula_units_Z   1
loop_
 _symmetry_equiv_pos_site_id
 _symmetry_equiv_pos_as_xyz
  1  'x, y, z'
loop_
 _atom_site_type_symbol
 _atom_site_label
 _atom_site_symmetry_multiplicity
 _atom_site_fract_x
 _atom_site_fract_y
 _atom_site_fract_z
 _atom_site_occupancy
  Y  Y0  1  0.500591  0.335309  0.667927  1
  Y  Y1  1  0.500521  0.663681  0.330790  1
  Y  Y2  1  0.999475  0.663680  0.330783  1
  Y  Y3  1  0.999408  0.335314  0.667934  1
  Y  Y4  1  0.750001  0.240364  0.004373  1
  Y  Y5  1  0.750000  0.758405  0.763519  1
  Y  Y6  1  0.750001  0.000547  0.240445  1
  Y  Y7  1  0.249999  0.759721  0.997350  1
  Y  Y8  1  0.250002  0.241280  0.237783  1
  Y  Y9  1  0.250002  0.000894  0.758809  1
  In  In10  1  0.749997  0.604369  0.000611  1
  In  In11  1  0.750001  0.394484  0.395542  1
  Sn  Sn12  1  0.250002  0.393779  0.997234  1
  Sb  Sb13  1  0.750002  0.999820  0.608920  1
  Sb  Sb14  1  0.249997  0.608781  0.606913  1
  Sb  Sb15  1  0.250000  0.999571  0.391067  1
