# generated using pymatgen
data_Y4LuRu2
_symmetry_space_group_name_H-M   'P 1'
_cell_length_a   6.32247390
_cell_length_b   7.27500979
_cell_length_c   8.47859191
_cell_angle_alpha   96.65714258
_cell_angle_beta   111.89144498
_cell_angle_gamma   89.99999872
_symmetry_Int_Tables_number   1
_chemical_formula_structural   Y4LuRu2
_chemical_formula_sum   'Y8 Lu2 Ru4'
_cell_volume   359.02569782
_cell_formula_units_Z   2
loop_
 _symmetry_equiv_pos_site_id
 _symmetry_equiv_pos_as_xyz
  1  'x, y, z'
loop_
 _atom_site_type_symbol
 _atom_site_label
 _atom_site_symmetry_multiplicity
 _atom_site_fract_x
 _atom_site_fract_y
 _atom_site_fract_z
 _atom_site_occupancy
  Y  Y0  1  0.523682  0.083213  0.814702  1
  Y  Y1  1  0.476318  0.916787  0.185298  1
  Y  Y2  1  0.708980  0.416787  0.185298  1
  Y  Y3  1  0.291020  0.583213  0.814702  1
  Y  Y4  1  0.296961  0.313516  0.432689  1
  Y  Y5  1  0.703039  0.686484  0.567311  1
  Y  Y6  1  0.864273  0.186484  0.567311  1
  Y  Y7  1  0.135727  0.813516  0.432689  1
  Lu  Lu8  1  0.077418  0.250000  0.000000  1
  Lu  Lu9  1  0.922582  0.750000  0.000000  1
  Ru  Ru10  1  0.315511  0.573953  0.215221  1
  Ru  Ru11  1  0.684489  0.426047  0.784779  1
  Ru  Ru12  1  0.100292  0.926047  0.784779  1
  Ru  Ru13  1  0.899708  0.073953  0.215221  1
