# generated using pymatgen
data_Tm4ZnRu6W
_symmetry_space_group_name_H-M   'P 1'
_cell_length_a   5.48800937
_cell_length_b   5.20057869
_cell_length_c   8.88278500
_cell_angle_alpha   90.00000000
_cell_angle_beta   90.00000000
_cell_angle_gamma   122.03472318
_symmetry_Int_Tables_number   1
_chemical_formula_structural   Tm4ZnRu6W
_chemical_formula_sum   'Tm4 Zn1 Ru6 W1'
_cell_volume   214.91739867
_cell_formula_units_Z   1
loop_
 _symmetry_equiv_pos_site_id
 _symmetry_equiv_pos_as_xyz
  1  'x, y, z'
loop_
 _atom_site_type_symbol
 _atom_site_label
 _atom_site_symmetry_multiplicity
 _atom_site_fract_x
 _atom_site_fract_y
 _atom_site_fract_z
 _atom_site_occupancy
  Tm  Tm0  1  0.674742  0.349322  0.563949  1
  Tm  Tm1  1  0.332479  0.664454  0.433841  1
  Tm  Tm2  1  0.332479  0.664454  0.066159  1
  Tm  Tm3  1  0.674742  0.349322  0.936051  1
  Zn  Zn4  1  0.832407  0.664699  0.250000  1
  Ru  Ru5  1  0.011615  0.023661  0.497528  1
  Ru  Ru6  1  0.011615  0.023661  0.002472  1
  Ru  Ru7  1  0.173998  0.816508  0.750000  1
  Ru  Ru8  1  0.641963  0.815276  0.750000  1
  Ru  Ru9  1  0.814670  0.159067  0.250000  1
  Ru  Ru10  1  0.344675  0.160173  0.250000  1
  W  W11  1  0.154615  0.309403  0.750000  1
