# generated using pymatgen
data_TbGd11(C2I11)2
_symmetry_space_group_name_H-M   'P 1'
_cell_length_a   9.71714538
_cell_length_b   11.02133456
_cell_length_c   15.40146900
_cell_angle_alpha   89.67959151
_cell_angle_beta   104.18264492
_cell_angle_gamma   109.81877923
_symmetry_Int_Tables_number   1
_chemical_formula_structural   TbGd11(C2I11)2
_chemical_formula_sum   'Tb1 Gd11 C4 I22'
_cell_volume   1499.00254448
_cell_formula_units_Z   1
loop_
 _symmetry_equiv_pos_site_id
 _symmetry_equiv_pos_as_xyz
  1  'x, y, z'
loop_
 _atom_site_type_symbol
 _atom_site_label
 _atom_site_symmetry_multiplicity
 _atom_site_fract_x
 _atom_site_fract_y
 _atom_site_fract_z
 _atom_site_occupancy
  Tb  Tb0  1  0.141213  0.056814  0.654097  1
  Gd  Gd1  1  0.388760  0.481910  0.122171  1
  Gd  Gd2  1  0.611425  0.518569  0.877747  1
  Gd  Gd3  1  0.425418  0.782179  0.265940  1
  Gd  Gd4  1  0.574248  0.218534  0.733122  1
  Gd  Gd5  1  0.626618  0.581884  0.364451  1
  Gd  Gd6  1  0.373409  0.416420  0.636946  1
  Gd  Gd7  1  0.835074  0.649176  0.200598  1
  Gd  Gd8  1  0.164491  0.351249  0.798764  1
  Gd  Gd9  1  0.627425  0.842551  0.104275  1
  Gd  Gd10  1  0.372493  0.157011  0.896024  1
  Gd  Gd11  1  0.860427  0.944287  0.347133  1
  C  C12  1  0.427434  0.343078  0.795544  1
  C  C13  1  0.572746  0.656005  0.206030  1
  C  C14  1  0.314835  0.233730  0.740722  1
  C  C15  1  0.685626  0.765238  0.260794  1
  I  I16  1  0.389613  0.315225  0.276514  1
  I  I17  1  0.609301  0.684066  0.722783  1
  I  I18  1  0.126563  0.561723  0.151566  1
  I  I19  1  0.873176  0.438853  0.847076  1
  I  I20  1  0.626624  0.378820  0.062270  1
  I  I21  1  0.373534  0.621573  0.937451  1
  I  I22  1  0.119891  0.206192  0.482792  1
  I  I23  1  0.880693  0.793262  0.519044  1
  I  I24  1  0.614998  0.030714  0.388171  1
  I  I25  1  0.382746  0.969494  0.611609  1
  I  I26  1  0.125663  0.868057  0.304601  1
  I  I27  1  0.875285  0.131279  0.694286  1
  I  I28  1  0.132550  0.528905  0.651980  1
  I  I29  1  0.868448  0.471402  0.348260  1
  I  I30  1  0.617816  0.368637  0.564023  1
  I  I31  1  0.382662  0.632231  0.435596  1
  I  I32  1  0.145541  0.225736  0.980362  1
  I  I33  1  0.853733  0.774251  0.019191  1
  I  I34  1  0.625464  0.054723  0.896931  1
  I  I35  1  0.374709  0.946322  0.102316  1
  I  I36  1  0.129798  0.896921  0.816172  1
  I  I37  1  0.869545  0.102975  0.182648  1
