# generated using pymatgen
data_Al8Tc3Pd4Ru
_symmetry_space_group_name_H-M   'P 1'
_cell_length_a   5.96977500
_cell_length_b   5.96976200
_cell_length_c   6.35769300
_cell_angle_alpha   90.00000000
_cell_angle_beta   89.99996278
_cell_angle_gamma   90.00000000
_symmetry_Int_Tables_number   1
_chemical_formula_structural   Al8Tc3Pd4Ru
_chemical_formula_sum   'Al8 Tc3 Pd4 Ru1'
_cell_volume   226.57632742
_cell_formula_units_Z   1
loop_
 _symmetry_equiv_pos_site_id
 _symmetry_equiv_pos_as_xyz
  1  'x, y, z'
loop_
 _atom_site_type_symbol
 _atom_site_label
 _atom_site_symmetry_multiplicity
 _atom_site_fract_x
 _atom_site_fract_y
 _atom_site_fract_z
 _atom_site_occupancy
  Al  Al0  1  0.999953  0.999953  0.250787  1
  Al  Al1  1  0.999953  0.500046  0.250787  1
  Al  Al2  1  0.500047  0.999954  0.250805  1
  Al  Al3  1  0.500047  0.500047  0.250805  1
  Al  Al4  1  0.500046  0.999952  0.749195  1
  Al  Al5  1  0.500046  0.500047  0.749195  1
  Al  Al6  1  0.999954  0.999953  0.749213  1
  Al  Al7  1  0.999954  0.500048  0.749213  1
  Tc  Tc8  1  0.250010  0.250000  0.000001  1
  Tc  Tc9  1  0.749989  0.750001  0.999999  1
  Tc  Tc10  1  0.750009  0.750001  0.500000  1
  Pd  Pd11  1  0.749995  0.250000  0.999999  1
  Pd  Pd12  1  0.250006  0.750001  0.000001  1
  Pd  Pd13  1  0.249993  0.750001  0.499999  1
  Pd  Pd14  1  0.750007  0.250000  0.500001  1
  Ru  Ru15  1  0.249991  0.250000  0.500000  1
