# generated using pymatgen
data_Ho16Sc4Ir5Rh7
_symmetry_space_group_name_H-M   'P 1'
_cell_length_a   10.71177582
_cell_length_b   10.71177582
_cell_length_c   6.29381997
_cell_angle_alpha   90.07902234
_cell_angle_beta   90.07902234
_cell_angle_gamma   90.05534390
_symmetry_Int_Tables_number   1
_chemical_formula_structural   Ho16Sc4Ir5Rh7
_chemical_formula_sum   'Ho16 Sc4 Ir5 Rh7'
_cell_volume   722.16466782
_cell_formula_units_Z   1
loop_
 _symmetry_equiv_pos_site_id
 _symmetry_equiv_pos_as_xyz
  1  'x, y, z'
loop_
 _atom_site_type_symbol
 _atom_site_label
 _atom_site_symmetry_multiplicity
 _atom_site_fract_x
 _atom_site_fract_y
 _atom_site_fract_z
 _atom_site_occupancy
  Ho  Ho0  1  0.287781  0.086099  0.376880  1
  Ho  Ho1  1  0.287742  0.912343  0.877995  1
  Ho  Ho2  1  0.711825  0.087802  0.877637  1
  Ho  Ho3  1  0.711682  0.912161  0.377176  1
  Ho  Ho4  1  0.584731  0.786905  0.878201  1
  Ho  Ho5  1  0.584456  0.213145  0.378201  1
  Ho  Ho6  1  0.413690  0.787211  0.377993  1
  Ho  Ho7  1  0.415209  0.213054  0.878302  1
  Ho  Ho8  1  0.213095  0.415269  0.621799  1
  Ho  Ho9  1  0.212789  0.586310  0.122007  1
  Ho  Ho10  1  0.786855  0.415544  0.121799  1
  Ho  Ho11  1  0.786946  0.584791  0.621698  1
  Ho  Ho12  1  0.913901  0.712219  0.123120  1
  Ho  Ho13  1  0.912198  0.288175  0.622363  1
  Ho  Ho14  1  0.087657  0.712258  0.622005  1
  Ho  Ho15  1  0.087839  0.288318  0.122824  1
  Sc  Sc16  1  0.000665  0.999386  0.499088  1
  Sc  Sc17  1  0.000614  0.999335  0.000912  1
  Sc  Sc18  1  0.499955  0.499905  0.000224  1
  Sc  Sc19  1  0.500095  0.500045  0.499776  1
  Ir  Ir20  1  0.147693  0.852307  0.250000  1
  Ir  Ir21  1  0.649214  0.350786  0.750000  1
  Ir  Ir22  1  0.649154  0.649179  0.250115  1
  Ir  Ir23  1  0.350821  0.350846  0.249885  1
  Ir  Ir24  1  0.351265  0.648735  0.750000  1
  Rh  Rh25  1  0.852185  0.147815  0.250000  1
  Rh  Rh26  1  0.850987  0.852525  0.749519  1
  Rh  Rh27  1  0.147475  0.149013  0.750481  1
  Rh  Rh28  1  0.500833  0.000157  0.121675  1
  Rh  Rh29  1  0.500874  0.000069  0.622193  1
  Rh  Rh30  1  0.999931  0.499126  0.877807  1
  Rh  Rh31  1  0.999843  0.499167  0.378325  1
