# generated using pymatgen
data_YTm7Sb20
_symmetry_space_group_name_H-M   'P 1'
_cell_length_a   4.20314900
_cell_length_b   13.13826476
_cell_length_c   14.55686199
_cell_angle_alpha   78.41401945
_cell_angle_beta   90.00000000
_cell_angle_gamma   90.00000000
_symmetry_Int_Tables_number   1
_chemical_formula_structural   YTm7Sb20
_chemical_formula_sum   'Y1 Tm7 Sb20'
_cell_volume   787.48114313
_cell_formula_units_Z   1
loop_
 _symmetry_equiv_pos_site_id
 _symmetry_equiv_pos_as_xyz
  1  'x, y, z'
loop_
 _atom_site_type_symbol
 _atom_site_label
 _atom_site_symmetry_multiplicity
 _atom_site_fract_x
 _atom_site_fract_y
 _atom_site_fract_z
 _atom_site_occupancy
  Y  Y0  1  0.750000  0.046373  0.640298  1
  Tm  Tm1  1  0.250000  0.394883  0.770582  1
  Tm  Tm2  1  0.750000  0.605407  0.229513  1
  Tm  Tm3  1  0.250000  0.661791  0.856090  1
  Tm  Tm4  1  0.750000  0.337927  0.144128  1
  Tm  Tm5  1  0.250000  0.668877  0.576441  1
  Tm  Tm6  1  0.750000  0.330934  0.423349  1
  Tm  Tm7  1  0.250000  0.953699  0.359909  1
  Sb  Sb8  1  0.250000  0.144168  0.778672  1
  Sb  Sb9  1  0.750000  0.856779  0.222033  1
  Sb  Sb10  1  0.250000  0.144243  0.482235  1
  Sb  Sb11  1  0.750000  0.855903  0.516365  1
  Sb  Sb12  1  0.250000  0.152920  0.170407  1
  Sb  Sb13  1  0.750000  0.846577  0.829773  1
  Sb  Sb14  1  0.250000  0.420560  0.975631  1
  Sb  Sb15  1  0.750000  0.579288  0.024538  1
  Sb  Sb16  1  0.750000  0.029274  0.911173  1
  Sb  Sb17  1  0.250000  0.970685  0.088849  1
  Sb  Sb18  1  0.750000  0.139097  0.321960  1
  Sb  Sb19  1  0.250000  0.859477  0.678026  1
  Sb  Sb20  1  0.750000  0.278787  0.936867  1
  Sb  Sb21  1  0.250000  0.721186  0.063186  1
  Sb  Sb22  1  0.750000  0.285363  0.653010  1
  Sb  Sb23  1  0.250000  0.715570  0.347114  1
  Sb  Sb24  1  0.750000  0.576259  0.734448  1
  Sb  Sb25  1  0.250000  0.423786  0.265559  1
  Sb  Sb26  1  0.750000  0.572364  0.447403  1
  Sb  Sb27  1  0.250000  0.427824  0.552441  1
