# generated using pymatgen
data_Ba3GaS4I
_symmetry_space_group_name_H-M   'P 1'
_cell_length_a   8.74185900
_cell_length_b   9.81444600
_cell_length_c   12.88215300
_cell_angle_alpha   90.00000000
_cell_angle_beta   90.00000000
_cell_angle_gamma   90.00000000
_symmetry_Int_Tables_number   1
_chemical_formula_structural   Ba3GaS4I
_chemical_formula_sum   'Ba12 Ga4 S16 I4'
_cell_volume   1105.24367974
_cell_formula_units_Z   4
loop_
 _symmetry_equiv_pos_site_id
 _symmetry_equiv_pos_as_xyz
  1  'x, y, z'
loop_
 _atom_site_type_symbol
 _atom_site_label
 _atom_site_symmetry_multiplicity
 _atom_site_fract_x
 _atom_site_fract_y
 _atom_site_fract_z
 _atom_site_occupancy
  Ba  Ba0  1  0.427115  0.750000  0.466289  1
  Ba  Ba1  1  0.072885  0.750000  0.966289  1
  Ba  Ba2  1  0.572885  0.250000  0.533711  1
  Ba  Ba3  1  0.927115  0.250000  0.033711  1
  Ba  Ba4  1  0.905082  0.523556  0.348387  1
  Ba  Ba5  1  0.594918  0.976444  0.848387  1
  Ba  Ba6  1  0.094918  0.023556  0.651613  1
  Ba  Ba7  1  0.405082  0.476444  0.151613  1
  Ba  Ba8  1  0.094918  0.476444  0.651613  1
  Ba  Ba9  1  0.405082  0.023556  0.151613  1
  Ba  Ba10  1  0.905082  0.976444  0.348387  1
  Ba  Ba11  1  0.594918  0.523556  0.848387  1
  Ga  Ga12  1  0.692489  0.750000  0.106355  1
  Ga  Ga13  1  0.807511  0.750000  0.606355  1
  Ga  Ga14  1  0.307511  0.250000  0.893645  1
  Ga  Ga15  1  0.192489  0.250000  0.393645  1
  S  S16  1  0.811117  0.550949  0.066607  1
  S  S17  1  0.688883  0.949051  0.566607  1
  S  S18  1  0.188883  0.050949  0.933393  1
  S  S19  1  0.311117  0.449051  0.433393  1
  S  S20  1  0.188883  0.449051  0.933393  1
  S  S21  1  0.311117  0.050949  0.433393  1
  S  S22  1  0.811117  0.949051  0.066607  1
  S  S23  1  0.688883  0.550949  0.566607  1
  S  S24  1  0.651839  0.750000  0.282473  1
  S  S25  1  0.848161  0.750000  0.782473  1
  S  S26  1  0.348161  0.250000  0.717527  1
  S  S27  1  0.151839  0.250000  0.217527  1
  S  S28  1  0.467130  0.750000  0.010941  1
  S  S29  1  0.032870  0.750000  0.510941  1
  S  S30  1  0.532870  0.250000  0.989059  1
  S  S31  1  0.967130  0.250000  0.489059  1
  I  I32  1  0.167377  0.750000  0.231794  1
  I  I33  1  0.332623  0.750000  0.731794  1
  I  I34  1  0.832623  0.250000  0.768206  1
  I  I35  1  0.667377  0.250000  0.268206  1
