# generated using pymatgen
data_SmCdRh2O7
_symmetry_space_group_name_H-M   'P 1'
_cell_length_a   7.26837653
_cell_length_b   7.26837718
_cell_length_c   7.18135700
_cell_angle_alpha   60.39525644
_cell_angle_beta   60.39525353
_cell_angle_gamma   61.23640390
_symmetry_Int_Tables_number   1
_chemical_formula_structural   SmCdRh2O7
_chemical_formula_sum   'Sm2 Cd2 Rh4 O14'
_cell_volume   272.31943206
_cell_formula_units_Z   2
loop_
 _symmetry_equiv_pos_site_id
 _symmetry_equiv_pos_as_xyz
  1  'x, y, z'
loop_
 _atom_site_type_symbol
 _atom_site_label
 _atom_site_symmetry_multiplicity
 _atom_site_fract_x
 _atom_site_fract_y
 _atom_site_fract_z
 _atom_site_occupancy
  Sm  Sm0  1  0.125000  0.625000  0.125000  1
  Sm  Sm1  1  0.625000  0.125000  0.125000  1
  Cd  Cd2  1  0.125000  0.125000  0.125000  1
  Cd  Cd3  1  0.125000  0.125000  0.625000  1
  Rh  Rh4  1  0.625000  0.625000  0.625000  1
  Rh  Rh5  1  0.625000  0.625000  0.125000  1
  Rh  Rh6  1  0.125000  0.625000  0.625000  1
  Rh  Rh7  1  0.625000  0.125000  0.625000  1
  O  O8  1  0.243632  0.243632  0.256368  1
  O  O9  1  0.299042  0.698971  0.296314  1
  O  O10  1  0.948777  0.948777  0.551223  1
  O  O11  1  0.551029  0.950958  0.544327  1
  O  O12  1  0.712225  0.712225  0.287775  1
  O  O13  1  0.950958  0.551029  0.544327  1
  O  O14  1  0.698971  0.299042  0.705673  1
  O  O15  1  0.301223  0.301223  0.698777  1
  O  O16  1  0.698971  0.299042  0.296314  1
  O  O17  1  0.299042  0.698971  0.705673  1
  O  O18  1  0.950958  0.551029  0.953686  1
  O  O19  1  0.537775  0.537775  0.962225  1
  O  O20  1  0.006368  0.006368  0.993632  1
  O  O21  1  0.551029  0.950958  0.953686  1
