# generated using pymatgen
data_Er4CrRu3F28
_symmetry_space_group_name_H-M   'P 1'
_cell_length_a   5.54813960
_cell_length_b   8.82853146
_cell_length_c   11.86219430
_cell_angle_alpha   63.53528377
_cell_angle_beta   89.73850609
_cell_angle_gamma   90.16953022
_symmetry_Int_Tables_number   1
_chemical_formula_structural   Er4CrRu3F28
_chemical_formula_sum   'Er4 Cr1 Ru3 F28'
_cell_volume   520.13254543
_cell_formula_units_Z   1
loop_
 _symmetry_equiv_pos_site_id
 _symmetry_equiv_pos_as_xyz
  1  'x, y, z'
loop_
 _atom_site_type_symbol
 _atom_site_label
 _atom_site_symmetry_multiplicity
 _atom_site_fract_x
 _atom_site_fract_y
 _atom_site_fract_z
 _atom_site_occupancy
  Er  Er0  1  0.760654  0.796865  0.775841  1
  Er  Er1  1  0.260305  0.185222  0.739430  1
  Er  Er2  1  0.242976  0.196002  0.217836  1
  Er  Er3  1  0.740959  0.830812  0.255355  1
  Cr  Cr4  1  0.756024  0.272994  0.954200  1
  Ru  Ru5  1  0.258574  0.730007  0.541518  1
  Ru  Ru6  1  0.244106  0.725549  0.048142  1
  Ru  Ru7  1  0.744968  0.275879  0.452637  1
  F  F8  1  0.439485  0.698890  0.922228  1
  F  F9  1  0.954661  0.295781  0.575319  1
  F  F10  1  0.538532  0.291182  0.077553  1
  F  F11  1  0.052754  0.708516  0.418451  1
  F  F12  1  0.459682  0.282817  0.547644  1
  F  F13  1  0.946942  0.717984  0.962509  1
  F  F14  1  0.548592  0.722306  0.449880  1
  F  F15  1  0.036497  0.286227  0.048090  1
  F  F16  1  0.769417  0.519752  0.857207  1
  F  F17  1  0.267599  0.489355  0.635666  1
  F  F18  1  0.229184  0.486613  0.145207  1
  F  F19  1  0.732874  0.516616  0.358864  1
  F  F20  1  0.761312  0.026990  0.057347  1
  F  F21  1  0.259815  0.968512  0.452612  1
  F  F22  1  0.250902  0.963699  0.957489  1
  F  F23  1  0.748569  0.037416  0.542904  1
  F  F24  1  0.974343  0.735765  0.636392  1
  F  F25  1  0.487064  0.263170  0.852424  1
  F  F26  1  0.025510  0.272763  0.355214  1
  F  F27  1  0.532737  0.724566  0.141125  1
  F  F28  1  0.051334  0.744437  0.179598  1
  F  F29  1  0.536476  0.255681  0.327706  1
  F  F30  1  0.967878  0.246688  0.831557  1
  F  F31  1  0.459934  0.750242  0.669244  1
  F  F32  1  0.409094  0.968333  0.233770  1
  F  F33  1  0.923414  0.029897  0.273945  1
  F  F34  1  0.561784  0.012372  0.765578  1
  F  F35  1  0.065052  0.970101  0.739518  1
