# generated using pymatgen
data_Ca4Dy2SbRuO12
_symmetry_space_group_name_H-M   'P 1'
_cell_length_a   5.83558411
_cell_length_b   5.63089093
_cell_length_c   9.82783413
_cell_angle_alpha   55.51692093
_cell_angle_beta   89.67226592
_cell_angle_gamma   89.98295943
_symmetry_Int_Tables_number   1
_chemical_formula_structural   Ca4Dy2SbRuO12
_chemical_formula_sum   'Ca4 Dy2 Sb1 Ru1 O12'
_cell_volume   266.18969195
_cell_formula_units_Z   1
loop_
 _symmetry_equiv_pos_site_id
 _symmetry_equiv_pos_as_xyz
  1  'x, y, z'
loop_
 _atom_site_type_symbol
 _atom_site_label
 _atom_site_symmetry_multiplicity
 _atom_site_fract_x
 _atom_site_fract_y
 _atom_site_fract_z
 _atom_site_occupancy
  Ca  Ca0  1  0.551904  0.738224  0.745538  1
  Ca  Ca1  1  0.056973  0.268854  0.745778  1
  Ca  Ca2  1  0.943027  0.731146  0.254222  1
  Ca  Ca3  1  0.448096  0.261776  0.254462  1
  Dy  Dy4  1  0.000000  0.000000  0.500000  1
  Dy  Dy5  1  0.500000  0.000000  0.000000  1
  Sb  Sb6  1  0.000000  0.500000  0.000000  1
  Ru  Ru7  1  0.500000  0.500000  0.500000  1
  O  O8  1  0.543900  0.840912  0.267878  1
  O  O9  1  0.045141  0.153400  0.234323  1
  O  O10  1  0.456100  0.159088  0.732122  1
  O  O11  1  0.954859  0.846600  0.765677  1
  O  O12  1  0.783630  0.620158  0.559141  1
  O  O13  1  0.287304  0.384514  0.935951  1
  O  O14  1  0.216370  0.379842  0.440859  1
  O  O15  1  0.712696  0.615486  0.064049  1
  O  O16  1  0.185689  0.730571  0.057772  1
  O  O17  1  0.686516  0.268611  0.446173  1
  O  O18  1  0.814311  0.269429  0.942228  1
  O  O19  1  0.313484  0.731389  0.553827  1
