# generated using pymatgen
data_Mg2Sc8TlInAu8
_symmetry_space_group_name_H-M   'P 1'
_cell_length_a   7.79825100
_cell_length_b   7.79825100
_cell_length_c   6.84517700
_cell_angle_alpha   90.00000000
_cell_angle_beta   90.00000000
_cell_angle_gamma   90.00000000
_symmetry_Int_Tables_number   1
_chemical_formula_structural   Mg2Sc8TlInAu8
_chemical_formula_sum   'Mg2 Sc8 Tl1 In1 Au8'
_cell_volume   416.27382307
_cell_formula_units_Z   1
loop_
 _symmetry_equiv_pos_site_id
 _symmetry_equiv_pos_as_xyz
  1  'x, y, z'
loop_
 _atom_site_type_symbol
 _atom_site_label
 _atom_site_symmetry_multiplicity
 _atom_site_fract_x
 _atom_site_fract_y
 _atom_site_fract_z
 _atom_site_occupancy
  Mg  Mg0  1  0.500000  0.000000  0.250000  1
  Mg  Mg1  1  0.500000  0.000000  0.750000  1
  Sc  Sc2  1  0.140814  0.168096  0.999461  1
  Sc  Sc3  1  0.859186  0.831904  0.999461  1
  Sc  Sc4  1  0.668096  0.359186  0.500539  1
  Sc  Sc5  1  0.331904  0.640814  0.500539  1
  Sc  Sc6  1  0.686143  0.339096  0.999503  1
  Sc  Sc7  1  0.313857  0.660904  0.999503  1
  Sc  Sc8  1  0.839096  0.813857  0.500497  1
  Sc  Sc9  1  0.160904  0.186143  0.500497  1
  Tl  Tl10  1  0.000000  0.500000  0.250000  1
  In  In11  1  0.000000  0.500000  0.750000  1
  Au  Au12  1  0.379398  0.354894  0.231503  1
  Au  Au13  1  0.622661  0.644064  0.768394  1
  Au  Au14  1  0.620602  0.645106  0.231503  1
  Au  Au15  1  0.855936  0.122661  0.731606  1
  Au  Au16  1  0.854894  0.120602  0.268497  1
  Au  Au17  1  0.377339  0.355936  0.768394  1
  Au  Au18  1  0.145106  0.879398  0.268497  1
  Au  Au19  1  0.144064  0.877339  0.731606  1
