# generated using pymatgen
data_Sr4Ta(MoO4)3
_symmetry_space_group_name_H-M   'P 1'
_cell_length_a   5.75528564
_cell_length_b   5.78178068
_cell_length_c   8.15375361
_cell_angle_alpha   90.16068714
_cell_angle_beta   89.98496279
_cell_angle_gamma   90.45968689
_symmetry_Int_Tables_number   1
_chemical_formula_structural   Sr4Ta(MoO4)3
_chemical_formula_sum   'Sr4 Ta1 Mo3 O12'
_cell_volume   271.31286197
_cell_formula_units_Z   1
loop_
 _symmetry_equiv_pos_site_id
 _symmetry_equiv_pos_as_xyz
  1  'x, y, z'
loop_
 _atom_site_type_symbol
 _atom_site_label
 _atom_site_symmetry_multiplicity
 _atom_site_fract_x
 _atom_site_fract_y
 _atom_site_fract_z
 _atom_site_occupancy
  Sr  Sr0  1  0.004393  0.970269  0.250812  1
  Sr  Sr1  1  0.493755  0.472702  0.250283  1
  Sr  Sr2  1  0.506245  0.527300  0.749718  1
  Sr  Sr3  1  0.995607  0.029730  0.749188  1
  Ta  Ta4  1  0.500001  0.000000  0.500000  1
  Mo  Mo5  1  0.500001  0.000000  0.000000  1
  Mo  Mo6  1  0.000000  0.500000  0.000000  1
  Mo  Mo7  1  0.000000  0.500001  0.500000  1
  O  O8  1  0.282550  0.719351  0.032620  1
  O  O9  1  0.226193  0.214238  0.041306  1
  O  O10  1  0.929646  0.522745  0.242529  1
  O  O11  1  0.566423  0.013151  0.257792  1
  O  O12  1  0.227787  0.208569  0.467369  1
  O  O13  1  0.292262  0.726214  0.464412  1
  O  O14  1  0.707739  0.273785  0.535588  1
  O  O15  1  0.772214  0.791431  0.532630  1
  O  O16  1  0.433577  0.986849  0.742208  1
  O  O17  1  0.070354  0.477255  0.757472  1
  O  O18  1  0.773808  0.785761  0.958695  1
  O  O19  1  0.717450  0.280649  0.967380  1
