# generated using pymatgen
data_PrGdSi4CN6
_symmetry_space_group_name_H-M   'P 1'
_cell_length_a   6.03307736
_cell_length_b   10.10048500
_cell_length_c   12.10449196
_cell_angle_alpha   90.00000000
_cell_angle_beta   119.74434698
_cell_angle_gamma   90.00000000
_symmetry_Int_Tables_number   1
_chemical_formula_structural   PrGdSi4CN6
_chemical_formula_sum   'Pr4 Gd4 Si16 C4 N24'
_cell_volume   640.42955277
_cell_formula_units_Z   4
loop_
 _symmetry_equiv_pos_site_id
 _symmetry_equiv_pos_as_xyz
  1  'x, y, z'
loop_
 _atom_site_type_symbol
 _atom_site_label
 _atom_site_symmetry_multiplicity
 _atom_site_fract_x
 _atom_site_fract_y
 _atom_site_fract_z
 _atom_site_occupancy
  Pr  Pr0  1  0.325478  0.916294  0.071734  1
  Pr  Pr1  1  0.334688  0.557955  0.099181  1
  Pr  Pr2  1  0.665312  0.057956  0.400818  1
  Pr  Pr3  1  0.674522  0.416295  0.428266  1
  Gd  Gd4  1  0.337724  0.590747  0.578425  1
  Gd  Gd5  1  0.334174  0.936643  0.599505  1
  Gd  Gd6  1  0.665827  0.436644  0.900495  1
  Gd  Gd7  1  0.662276  0.090748  0.921575  1
  Si  Si8  1  0.832384  0.706616  0.077239  1
  Si  Si9  1  0.673161  0.232480  0.159755  1
  Si  Si10  1  0.190846  0.214226  0.174129  1
  Si  Si11  1  0.991780  0.982361  0.246336  1
  Si  Si12  1  0.008220  0.482360  0.253664  1
  Si  Si13  1  0.809152  0.714225  0.325870  1
  Si  Si14  1  0.326839  0.732479  0.340245  1
  Si  Si15  1  0.167616  0.206617  0.422761  1
  Si  Si16  1  0.838154  0.789327  0.579994  1
  Si  Si17  1  0.672491  0.270393  0.662391  1
  Si  Si18  1  0.193359  0.286599  0.675287  1
  Si  Si19  1  0.988481  0.518231  0.746821  1
  Si  Si20  1  0.011519  0.018230  0.753179  1
  Si  Si21  1  0.806642  0.786598  0.824713  1
  Si  Si22  1  0.327510  0.770392  0.837609  1
  Si  Si23  1  0.161845  0.289328  0.920005  1
  C  C24  1  0.978087  0.794760  0.242510  1
  C  C25  1  0.021913  0.294760  0.257490  1
  C  C26  1  0.980008  0.705852  0.744470  1
  C  C27  1  0.019992  0.205852  0.755530  1
  N  N28  1  0.499985  0.291495  0.001823  1
  N  N29  1  0.030848  0.228190  0.009203  1
  N  N30  1  0.922638  0.538447  0.101679  1
  N  N31  1  0.699752  0.060455  0.142470  1
  N  N32  1  0.216025  0.044265  0.209329  1
  N  N33  1  0.505664  0.270725  0.239978  1
  N  N34  1  0.494336  0.770725  0.260021  1
  N  N35  1  0.783976  0.544264  0.290672  1
  N  N36  1  0.300248  0.560454  0.357530  1
  N  N37  1  0.077362  0.038447  0.398321  1
  N  N38  1  0.969152  0.728189  0.490797  1
  N  N39  1  0.500015  0.791495  0.498177  1
  N  N40  1  0.503234  0.209118  0.506842  1
  N  N41  1  0.036173  0.261552  0.512815  1
  N  N42  1  0.941491  0.954539  0.606088  1
  N  N43  1  0.689338  0.444547  0.644555  1
  N  N44  1  0.211564  0.458877  0.705911  1
  N  N45  1  0.512742  0.235310  0.747019  1
  N  N46  1  0.487256  0.735310  0.752981  1
  N  N47  1  0.788437  0.958876  0.794089  1
  N  N48  1  0.310661  0.944546  0.855445  1
  N  N49  1  0.058509  0.454539  0.893912  1
  N  N50  1  0.963827  0.761551  0.987185  1
  N  N51  1  0.496766  0.709118  0.993158  1
