# generated using pymatgen
data_CaLaSc3Sn4
_symmetry_space_group_name_H-M   'P 1'
_cell_length_a   7.73199900
_cell_length_b   8.04240900
_cell_length_c   15.08079700
_cell_angle_alpha   90.00000000
_cell_angle_beta   90.00000000
_cell_angle_gamma   90.00000000
_symmetry_Int_Tables_number   1
_chemical_formula_structural   CaLaSc3Sn4
_chemical_formula_sum   'Ca4 La4 Sc12 Sn16'
_cell_volume   937.78274762
_cell_formula_units_Z   4
loop_
 _symmetry_equiv_pos_site_id
 _symmetry_equiv_pos_as_xyz
  1  'x, y, z'
loop_
 _atom_site_type_symbol
 _atom_site_label
 _atom_site_symmetry_multiplicity
 _atom_site_fract_x
 _atom_site_fract_y
 _atom_site_fract_z
 _atom_site_occupancy
  Ca  Ca0  1  0.511885  0.324762  0.905815  1
  Ca  Ca1  1  0.011885  0.175238  0.594185  1
  Ca  Ca2  1  0.488115  0.675238  0.405815  1
  Ca  Ca3  1  0.988115  0.824762  0.094185  1
  La  La4  1  0.493666  0.674480  0.093971  1
  La  La5  1  0.993666  0.825520  0.406029  1
  La  La6  1  0.506334  0.325520  0.593971  1
  La  La7  1  0.006334  0.174480  0.906029  1
  Sc  Sc8  1  0.338615  0.837804  0.872352  1
  Sc  Sc9  1  0.838615  0.662196  0.627648  1
  Sc  Sc10  1  0.661385  0.162196  0.372352  1
  Sc  Sc11  1  0.161385  0.337804  0.127648  1
  Sc  Sc12  1  0.661568  0.160065  0.127142  1
  Sc  Sc13  1  0.161568  0.339935  0.372858  1
  Sc  Sc14  1  0.338432  0.839935  0.627142  1
  Sc  Sc15  1  0.838432  0.660065  0.872858  1
  Sc  Sc16  1  0.174702  0.502320  0.751116  1
  Sc  Sc17  1  0.674702  0.997680  0.748884  1
  Sc  Sc18  1  0.825298  0.497680  0.251116  1
  Sc  Sc19  1  0.325298  0.002320  0.248884  1
  Sn  Sn20  1  0.324627  0.042012  0.042868  1
  Sn  Sn21  1  0.824627  0.457988  0.457132  1
  Sn  Sn22  1  0.675373  0.957988  0.542868  1
  Sn  Sn23  1  0.175373  0.542012  0.957132  1
  Sn  Sn24  1  0.672008  0.954883  0.957216  1
  Sn  Sn25  1  0.172008  0.545117  0.542784  1
  Sn  Sn26  1  0.327992  0.045117  0.457216  1
  Sn  Sn27  1  0.827992  0.454883  0.042784  1
  Sn  Sn28  1  0.534302  0.630293  0.749217  1
  Sn  Sn29  1  0.034302  0.869707  0.750783  1
  Sn  Sn30  1  0.465698  0.369707  0.249217  1
  Sn  Sn31  1  0.965698  0.130293  0.250783  1
  Sn  Sn32  1  0.314952  0.143664  0.751353  1
  Sn  Sn33  1  0.814952  0.356336  0.748647  1
  Sn  Sn34  1  0.685048  0.856336  0.251353  1
  Sn  Sn35  1  0.185048  0.643664  0.248647  1
