# generated using pymatgen
data_Er3TmOs5Ru3
_symmetry_space_group_name_H-M   'P 1'
_cell_length_a   5.31588312
_cell_length_b   5.17373237
_cell_length_c   8.92233203
_cell_angle_alpha   89.99895482
_cell_angle_beta   90.00916319
_cell_angle_gamma   119.48643890
_symmetry_Int_Tables_number   1
_chemical_formula_structural   Er3TmOs5Ru3
_chemical_formula_sum   'Er3 Tm1 Os5 Ru3'
_cell_volume   213.60561956
_cell_formula_units_Z   1
loop_
 _symmetry_equiv_pos_site_id
 _symmetry_equiv_pos_as_xyz
  1  'x, y, z'
loop_
 _atom_site_type_symbol
 _atom_site_label
 _atom_site_symmetry_multiplicity
 _atom_site_fract_x
 _atom_site_fract_y
 _atom_site_fract_z
 _atom_site_occupancy
  Er  Er0  1  0.668441  0.334446  0.566465  1
  Er  Er1  1  0.331273  0.665433  0.433599  1
  Er  Er2  1  0.331245  0.665387  0.066244  1
  Tm  Tm3  1  0.668713  0.334612  0.933508  1
  Os  Os4  1  0.171134  0.339641  0.750408  1
  Os  Os5  1  0.172821  0.830939  0.750391  1
  Os  Os6  1  0.657359  0.828762  0.750437  1
  Os  Os7  1  0.834329  0.662412  0.249685  1
  Os  Os8  1  0.832668  0.171957  0.249709  1
  Ru  Ru9  1  0.992594  0.996581  0.499444  1
  Ru  Ru10  1  0.992418  0.996524  0.000378  1
  Ru  Ru11  1  0.347004  0.173301  0.249732  1
