# generated using pymatgen
data_DyYSc3Ga4
_symmetry_space_group_name_H-M   'P 1'
_cell_length_a   7.28477201
_cell_length_b   7.54719201
_cell_length_c   14.49640901
_cell_angle_alpha   89.99917890
_cell_angle_beta   90.00402527
_cell_angle_gamma   90.00550100
_symmetry_Int_Tables_number   1
_chemical_formula_structural   DyYSc3Ga4
_chemical_formula_sum   'Dy4 Y4 Sc12 Ga16'
_cell_volume   797.00637342
_cell_formula_units_Z   4
loop_
 _symmetry_equiv_pos_site_id
 _symmetry_equiv_pos_as_xyz
  1  'x, y, z'
loop_
 _atom_site_type_symbol
 _atom_site_label
 _atom_site_symmetry_multiplicity
 _atom_site_fract_x
 _atom_site_fract_y
 _atom_site_fract_z
 _atom_site_occupancy
  Dy  Dy0  1  0.511410  0.322127  0.095563  1
  Dy  Dy1  1  0.011511  0.178022  0.404434  1
  Dy  Dy2  1  0.511393  0.322080  0.404480  1
  Dy  Dy3  1  0.488563  0.677890  0.595499  1
  Y  Y4  1  0.011303  0.177717  0.095457  1
  Y  Y5  1  0.988641  0.822325  0.904554  1
  Y  Y6  1  0.488742  0.677533  0.904617  1
  Y  Y7  1  0.988673  0.822307  0.595393  1
  Sc  Sc8  1  0.162112  0.502525  0.749952  1
  Sc  Sc9  1  0.837876  0.497412  0.250114  1
  Sc  Sc10  1  0.338075  0.002679  0.250124  1
  Sc  Sc11  1  0.661934  0.997402  0.749965  1
  Sc  Sc12  1  0.330266  0.174403  0.624252  1
  Sc  Sc13  1  0.669749  0.825635  0.375781  1
  Sc  Sc14  1  0.169886  0.674300  0.375728  1
  Sc  Sc15  1  0.669774  0.825714  0.124304  1
  Sc  Sc16  1  0.830191  0.325676  0.624247  1
  Sc  Sc17  1  0.330291  0.174506  0.875751  1
  Sc  Sc18  1  0.830153  0.325549  0.875696  1
  Sc  Sc19  1  0.169874  0.674226  0.124300  1
  Ga  Ga20  1  0.031553  0.118237  0.749992  1
  Ga  Ga21  1  0.968523  0.881868  0.250091  1
  Ga  Ga22  1  0.468558  0.617933  0.249964  1
  Ga  Ga23  1  0.531522  0.381942  0.749863  1
  Ga  Ga24  1  0.284403  0.872667  0.749816  1
  Ga  Ga25  1  0.715622  0.127463  0.250066  1
  Ga  Ga26  1  0.215954  0.372664  0.250147  1
  Ga  Ga27  1  0.784081  0.627191  0.749887  1
  Ga  Ga28  1  0.160486  0.464880  0.540144  1
  Ga  Ga29  1  0.839521  0.534666  0.459777  1
  Ga  Ga30  1  0.339483  0.965098  0.459802  1
  Ga  Ga31  1  0.839443  0.534893  0.040224  1
  Ga  Ga32  1  0.660152  0.035165  0.540140  1
  Ga  Ga33  1  0.160232  0.464911  0.959810  1
  Ga  Ga34  1  0.660247  0.035313  0.959843  1
  Ga  Ga35  1  0.339802  0.965083  0.040225  1
