# generated using pymatgen
data_Eu2Ga5Ir2Pt
_symmetry_space_group_name_H-M   'P 1'
_cell_length_a   8.73571874
_cell_length_b   8.73577700
_cell_length_c   8.73574900
_cell_angle_alpha   140.50164689
_cell_angle_beta   107.74442350
_cell_angle_gamma   85.61725179
_symmetry_Int_Tables_number   1
_chemical_formula_structural   Eu2Ga5Ir2Pt
_chemical_formula_sum   'Eu4 Ga10 Ir4 Pt2'
_cell_volume   389.74182043
_cell_formula_units_Z   2
loop_
 _symmetry_equiv_pos_site_id
 _symmetry_equiv_pos_as_xyz
  1  'x, y, z'
loop_
 _atom_site_type_symbol
 _atom_site_label
 _atom_site_symmetry_multiplicity
 _atom_site_fract_x
 _atom_site_fract_y
 _atom_site_fract_z
 _atom_site_occupancy
  Eu  Eu0  1  0.093450  0.863898  0.229465  1
  Eu  Eu1  1  0.633157  0.362034  0.270946  1
  Eu  Eu2  1  0.908933  0.138339  0.771629  1
  Eu  Eu3  1  0.365645  0.636053  0.729582  1
  Ga  Ga4  1  0.292046  0.042952  0.754506  1
  Ga  Ga5  1  0.291956  0.537424  0.249524  1
  Ga  Ga6  1  0.005317  0.250014  0.255083  1
  Ga  Ga7  1  0.238738  0.407339  0.831358  1
  Ga  Ga8  1  0.756100  0.592516  0.164240  1
  Ga  Ga9  1  0.711723  0.457170  0.749112  1
  Ga  Ga10  1  0.571728  0.907703  0.663773  1
  Ga  Ga11  1  0.711669  0.962318  0.254320  1
  Ga  Ga12  1  0.424224  0.092578  0.331456  1
  Ga  Ga13  1  0.005112  0.749987  0.755241  1
  Ir  Ir14  1  0.952790  0.355932  0.596384  1
  Ir  Ir15  1  0.240677  0.143448  0.096355  1
  Ir  Ir16  1  0.498602  0.749836  0.248573  1
  Ir  Ir17  1  0.498781  0.250033  0.748746  1
  Pt  Pt18  1  0.044647  0.645340  0.399983  1
  Pt  Pt19  1  0.754707  0.855084  0.899725  1
