# generated using pymatgen
data_Tm5BSe4
_symmetry_space_group_name_H-M   'P 1'
_cell_length_a   6.90673156
_cell_length_b   6.90677160
_cell_length_c   6.90673546
_cell_angle_alpha   99.48082372
_cell_angle_beta   99.47995244
_cell_angle_gamma   132.11206223
_symmetry_Int_Tables_number   1
_chemical_formula_structural   Tm5BSe4
_chemical_formula_sum   'Tm5 B1 Se4'
_cell_volume   223.38083221
_cell_formula_units_Z   1
loop_
 _symmetry_equiv_pos_site_id
 _symmetry_equiv_pos_as_xyz
  1  'x, y, z'
loop_
 _atom_site_type_symbol
 _atom_site_label
 _atom_site_symmetry_multiplicity
 _atom_site_fract_x
 _atom_site_fract_y
 _atom_site_fract_z
 _atom_site_occupancy
  Tm  Tm0  1  0.409632  0.766796  0.176426  1
  Tm  Tm1  1  0.000000  0.000000  0.000000  1
  Tm  Tm2  1  0.590368  0.233204  0.823574  1
  Tm  Tm3  1  0.233203  0.409628  0.642836  1
  Tm  Tm4  1  0.766797  0.590372  0.357164  1
  B  B5  1  0.500000  0.500000  0.000000  1
  Se  Se6  1  0.093266  0.695214  0.788480  1
  Se  Se7  1  0.695214  0.906734  0.601948  1
  Se  Se8  1  0.304786  0.093266  0.398052  1
  Se  Se9  1  0.906734  0.304786  0.211520  1
