# generated using pymatgen
data_Er2ThSc(Ga3Ir)6
_symmetry_space_group_name_H-M   'P 1'
_cell_length_a   7.59391952
_cell_length_b   7.60704671
_cell_length_c   9.45932200
_cell_angle_alpha   90.00000000
_cell_angle_beta   90.00000000
_cell_angle_gamma   119.82880202
_symmetry_Int_Tables_number   1
_chemical_formula_structural   Er2ThSc(Ga3Ir)6
_chemical_formula_sum   'Er2 Th1 Sc1 Ga18 Ir6'
_cell_volume   474.04474415
_cell_formula_units_Z   1
loop_
 _symmetry_equiv_pos_site_id
 _symmetry_equiv_pos_as_xyz
  1  'x, y, z'
loop_
 _atom_site_type_symbol
 _atom_site_label
 _atom_site_symmetry_multiplicity
 _atom_site_fract_x
 _atom_site_fract_y
 _atom_site_fract_z
 _atom_site_occupancy
  Er  Er0  1  0.001070  0.331130  0.250000  1
  Er  Er1  1  0.670913  0.997029  0.750000  1
  Th  Th2  1  0.996414  0.668865  0.750000  1
  Sc  Sc3  1  0.328164  0.000225  0.250000  1
  Ga  Ga4  1  0.130986  0.132047  0.750000  1
  Ga  Ga5  1  0.874817  0.877681  0.250000  1
  Ga  Ga6  1  0.000463  0.328871  0.577601  1
  Ga  Ga7  1  0.004992  0.669356  0.409988  1
  Ga  Ga8  1  0.004992  0.669356  0.090012  1
  Ga  Ga9  1  0.341171  0.004649  0.925782  1
  Ga  Ga10  1  0.000463  0.328871  0.922399  1
  Ga  Ga11  1  0.661686  0.002829  0.084556  1
  Ga  Ga12  1  0.661686  0.002829  0.415444  1
  Ga  Ga13  1  0.341171  0.004649  0.574218  1
  Ga  Ga14  1  0.330101  0.326689  0.072134  1
  Ga  Ga15  1  0.662261  0.667795  0.941384  1
  Ga  Ga16  1  0.662261  0.667795  0.558616  1
  Ga  Ga17  1  0.330101  0.326689  0.427866  1
  Ga  Ga18  1  0.344074  0.547558  0.750000  1
  Ga  Ga19  1  0.657399  0.447399  0.250000  1
  Ga  Ga20  1  0.541491  0.335338  0.750000  1
  Ga  Ga21  1  0.450668  0.662006  0.250000  1
  Ir  Ir22  1  0.675735  0.332548  0.500428  1
  Ir  Ir23  1  0.325845  0.670304  0.499876  1
  Ir  Ir24  1  0.325845  0.670304  0.000124  1
  Ir  Ir25  1  0.675735  0.332548  0.999572  1
  Ir  Ir26  1  0.999751  0.997320  0.500536  1
  Ir  Ir27  1  0.999751  0.997320  0.999464  1
