# generated using pymatgen
data_Zr6Zn16Pt7C
_symmetry_space_group_name_H-M   'P 1'
_cell_length_a   8.78813015
_cell_length_b   8.78812922
_cell_length_c   8.78812900
_cell_angle_alpha   59.99999705
_cell_angle_beta   60.00000055
_cell_angle_gamma   59.99999469
_symmetry_Int_Tables_number   1
_chemical_formula_structural   Zr6Zn16Pt7C
_chemical_formula_sum   'Zr6 Zn16 Pt7 C1'
_cell_volume   479.92603918
_cell_formula_units_Z   1
loop_
 _symmetry_equiv_pos_site_id
 _symmetry_equiv_pos_as_xyz
  1  'x, y, z'
loop_
 _atom_site_type_symbol
 _atom_site_label
 _atom_site_symmetry_multiplicity
 _atom_site_fract_x
 _atom_site_fract_y
 _atom_site_fract_z
 _atom_site_occupancy
  Zr  Zr0  1  0.686590  0.313410  0.313410  1
  Zr  Zr1  1  0.313410  0.686590  0.686590  1
  Zr  Zr2  1  0.313410  0.686590  0.313410  1
  Zr  Zr3  1  0.686590  0.313410  0.686590  1
  Zr  Zr4  1  0.313410  0.313410  0.686590  1
  Zr  Zr5  1  0.686590  0.686590  0.313410  1
  Zn  Zn6  1  0.120149  0.120149  0.120149  1
  Zn  Zn7  1  0.879851  0.879851  0.879851  1
  Zn  Zn8  1  0.120149  0.120149  0.639554  1
  Zn  Zn9  1  0.120149  0.639554  0.120149  1
  Zn  Zn10  1  0.879851  0.879851  0.360446  1
  Zn  Zn11  1  0.879851  0.360446  0.879851  1
  Zn  Zn12  1  0.639554  0.120149  0.120149  1
  Zn  Zn13  1  0.360446  0.879851  0.879851  1
  Zn  Zn14  1  0.335496  0.335496  0.335496  1
  Zn  Zn15  1  0.664504  0.664504  0.664504  1
  Zn  Zn16  1  0.335496  0.335496  0.993514  1
  Zn  Zn17  1  0.335496  0.993514  0.335496  1
  Zn  Zn18  1  0.664504  0.664504  0.006486  1
  Zn  Zn19  1  0.664504  0.006486  0.664504  1
  Zn  Zn20  1  0.993514  0.335496  0.335496  1
  Zn  Zn21  1  0.006486  0.664504  0.664504  1
  Pt  Pt22  1  0.500000  0.000000  0.000000  1
  Pt  Pt23  1  0.000000  0.500000  0.500000  1
  Pt  Pt24  1  0.000000  0.500000  0.000000  1
  Pt  Pt25  1  0.500000  0.000000  0.500000  1
  Pt  Pt26  1  0.000000  0.000000  0.500000  1
  Pt  Pt27  1  0.500000  0.500000  0.000000  1
  Pt  Pt28  1  0.000000  0.000000  0.000000  1
  C  C29  1  0.500000  0.500000  0.500000  1
