# generated using pymatgen
data_Er20Ir5Pd2Pt5
_symmetry_space_group_name_H-M   'P 1'
_cell_length_a   10.96451893
_cell_length_b   10.96451861
_cell_length_c   6.32408555
_cell_angle_alpha   89.97601752
_cell_angle_beta   89.97601593
_cell_angle_gamma   90.08076561
_symmetry_Int_Tables_number   1
_chemical_formula_structural   Er20Ir5Pd2Pt5
_chemical_formula_sum   'Er20 Ir5 Pd2 Pt5'
_cell_volume   760.28492572
_cell_formula_units_Z   1
loop_
 _symmetry_equiv_pos_site_id
 _symmetry_equiv_pos_as_xyz
  1  'x, y, z'
loop_
 _atom_site_type_symbol
 _atom_site_label
 _atom_site_symmetry_multiplicity
 _atom_site_fract_x
 _atom_site_fract_y
 _atom_site_fract_z
 _atom_site_occupancy
  Er  Er0  1  0.294621  0.084027  0.375093  1
  Er  Er1  1  0.295377  0.907533  0.876501  1
  Er  Er2  1  0.703675  0.087116  0.876031  1
  Er  Er3  1  0.704267  0.913844  0.374339  1
  Er  Er4  1  0.583141  0.795305  0.870087  1
  Er  Er5  1  0.589215  0.203715  0.377402  1
  Er  Er6  1  0.408699  0.793325  0.380503  1
  Er  Er7  1  0.412309  0.200824  0.871709  1
  Er  Er8  1  0.204695  0.416859  0.629913  1
  Er  Er9  1  0.206675  0.591301  0.119497  1
  Er  Er10  1  0.796285  0.410785  0.122598  1
  Er  Er11  1  0.799176  0.587691  0.628291  1
  Er  Er12  1  0.915973  0.705379  0.124907  1
  Er  Er13  1  0.912884  0.296325  0.623969  1
  Er  Er14  1  0.092467  0.704623  0.623499  1
  Er  Er15  1  0.086156  0.295733  0.125661  1
  Er  Er16  1  0.999149  0.000059  0.501012  1
  Er  Er17  1  0.999941  0.000851  0.998988  1
  Er  Er18  1  0.497739  0.500491  0.998961  1
  Er  Er19  1  0.499509  0.502261  0.501039  1
  Ir  Ir20  1  0.348078  0.651922  0.750000  1
  Ir  Ir21  1  0.499571  0.999824  0.123058  1
  Ir  Ir22  1  0.499563  0.999740  0.619551  1
  Ir  Ir23  1  0.000260  0.500437  0.880449  1
  Ir  Ir24  1  0.000176  0.500429  0.376942  1
  Pd  Pd25  1  0.656055  0.655107  0.248904  1
  Pd  Pd26  1  0.344893  0.343945  0.251096  1
  Pt  Pt27  1  0.846489  0.153511  0.250000  1
  Pt  Pt28  1  0.844489  0.846561  0.751186  1
  Pt  Pt29  1  0.153439  0.155511  0.748814  1
  Pt  Pt30  1  0.152294  0.847706  0.250000  1
  Pt  Pt31  1  0.652740  0.347260  0.750000  1
