# generated using pymatgen
data_Pr5Nd(Sn6Ir)2
_symmetry_space_group_name_H-M   'P 1'
_cell_length_a   8.73736111
_cell_length_b   8.73736146
_cell_length_c   13.45468300
_cell_angle_alpha   90.00000000
_cell_angle_beta   90.00000000
_cell_angle_gamma   148.52702405
_symmetry_Int_Tables_number   1
_chemical_formula_structural   Pr5Nd(Sn6Ir)2
_chemical_formula_sum   'Pr5 Nd1 Sn12 Ir2'
_cell_volume   536.27149897
_cell_formula_units_Z   1
loop_
 _symmetry_equiv_pos_site_id
 _symmetry_equiv_pos_as_xyz
  1  'x, y, z'
loop_
 _atom_site_type_symbol
 _atom_site_label
 _atom_site_symmetry_multiplicity
 _atom_site_fract_x
 _atom_site_fract_y
 _atom_site_fract_z
 _atom_site_occupancy
  Pr  Pr0  1  0.601972  0.398028  0.250000  1
  Pr  Pr1  1  0.399766  0.600234  0.404485  1
  Pr  Pr2  1  0.600209  0.399791  0.595613  1
  Pr  Pr3  1  0.399766  0.600234  0.095515  1
  Pr  Pr4  1  0.600209  0.399791  0.904387  1
  Nd  Nd5  1  0.397860  0.602140  0.750000  1
  Sn  Sn6  1  0.926622  0.073378  0.923859  1
  Sn  Sn7  1  0.073266  0.926734  0.075755  1
  Sn  Sn8  1  0.926622  0.073378  0.576141  1
  Sn  Sn9  1  0.073266  0.926734  0.424245  1
  Sn  Sn10  1  0.960359  0.039641  0.250000  1
  Sn  Sn11  1  0.039395  0.960605  0.750000  1
  Sn  Sn12  1  0.745031  0.254970  0.433684  1
  Sn  Sn13  1  0.255084  0.744916  0.566438  1
  Sn  Sn14  1  0.745031  0.254970  0.066316  1
  Sn  Sn15  1  0.255084  0.744916  0.933562  1
  Sn  Sn16  1  0.231873  0.768127  0.250000  1
  Sn  Sn17  1  0.768459  0.231541  0.750000  1
  Ir  Ir18  1  0.802490  0.197510  0.250000  1
  Ir  Ir19  1  0.197640  0.802360  0.750000  1
