# generated using pymatgen
data_Nb6ZnGa4PdN2
_symmetry_space_group_name_H-M   'P 1'
_cell_length_a   8.33342922
_cell_length_b   8.33342854
_cell_length_c   8.34079700
_cell_angle_alpha   59.97075833
_cell_angle_beta   59.97076104
_cell_angle_gamma   59.95249947
_symmetry_Int_Tables_number   1
_chemical_formula_structural   Nb6ZnGa4PdN2
_chemical_formula_sum   'Nb12 Zn2 Ga8 Pd2 N4'
_cell_volume   409.25305033
_cell_formula_units_Z   2
loop_
 _symmetry_equiv_pos_site_id
 _symmetry_equiv_pos_as_xyz
  1  'x, y, z'
loop_
 _atom_site_type_symbol
 _atom_site_label
 _atom_site_symmetry_multiplicity
 _atom_site_fract_x
 _atom_site_fract_y
 _atom_site_fract_z
 _atom_site_occupancy
  Nb  Nb0  1  0.428065  0.428065  0.071935  1
  Nb  Nb1  1  0.070323  0.434812  0.057579  1
  Nb  Nb2  1  0.434812  0.070323  0.057579  1
  Nb  Nb3  1  0.056726  0.056726  0.443274  1
  Nb  Nb4  1  0.434812  0.070323  0.437286  1
  Nb  Nb5  1  0.070323  0.434812  0.437286  1
  Nb  Nb6  1  0.821935  0.821935  0.178065  1
  Nb  Nb7  1  0.179677  0.815188  0.192421  1
  Nb  Nb8  1  0.815188  0.179677  0.192421  1
  Nb  Nb9  1  0.193274  0.193274  0.806726  1
  Nb  Nb10  1  0.815188  0.179677  0.812714  1
  Nb  Nb11  1  0.179677  0.815188  0.812714  1
  Zn  Zn12  1  0.625000  0.125000  0.625000  1
  Zn  Zn13  1  0.125000  0.625000  0.625000  1
  Ga  Ga14  1  0.833957  0.833957  0.493528  1
  Ga  Ga15  1  0.835463  0.484419  0.840059  1
  Ga  Ga16  1  0.484419  0.835463  0.840059  1
  Ga  Ga17  1  0.833957  0.833957  0.838558  1
  Ga  Ga18  1  0.416043  0.416043  0.756472  1
  Ga  Ga19  1  0.414537  0.765581  0.409941  1
  Ga  Ga20  1  0.765581  0.414537  0.409941  1
  Ga  Ga21  1  0.416043  0.416043  0.411442  1
  Pd  Pd22  1  0.625000  0.625000  0.125000  1
  Pd  Pd23  1  0.625000  0.625000  0.625000  1
  N  N24  1  0.125000  0.125000  0.625000  1
  N  N25  1  0.125000  0.625000  0.125000  1
  N  N26  1  0.625000  0.125000  0.125000  1
  N  N27  1  0.125000  0.125000  0.125000  1
