# generated using pymatgen
data_Ca4Zn3Pd
_symmetry_space_group_name_H-M   'P 1'
_cell_length_a   4.43070900
_cell_length_b   5.94264275
_cell_length_c   7.93421144
_cell_angle_alpha   89.42047844
_cell_angle_beta   90.00000000
_cell_angle_gamma   90.00000000
_symmetry_Int_Tables_number   1
_chemical_formula_structural   Ca4Zn3Pd
_chemical_formula_sum   'Ca4 Zn3 Pd1'
_cell_volume   208.89805893
_cell_formula_units_Z   1
loop_
 _symmetry_equiv_pos_site_id
 _symmetry_equiv_pos_as_xyz
  1  'x, y, z'
loop_
 _atom_site_type_symbol
 _atom_site_label
 _atom_site_symmetry_multiplicity
 _atom_site_fract_x
 _atom_site_fract_y
 _atom_site_fract_z
 _atom_site_occupancy
  Ca  Ca0  1  0.750000  0.885488  0.815358  1
  Ca  Ca1  1  0.250000  0.123581  0.189587  1
  Ca  Ca2  1  0.250000  0.368442  0.668488  1
  Ca  Ca3  1  0.750000  0.623581  0.327572  1
  Zn  Zn4  1  0.250000  0.883074  0.533175  1
  Zn  Zn5  1  0.250000  0.613050  0.028664  1
  Zn  Zn6  1  0.750000  0.390842  0.967920  1
  Pd  Pd7  1  0.750000  0.111943  0.469237  1
