# generated using pymatgen
data_Pr2Y2Br3N2Cl3
_symmetry_space_group_name_H-M   'P 1'
_cell_length_a   8.89154885
_cell_length_b   8.89155071
_cell_length_c   11.27985087
_cell_angle_alpha   59.23850319
_cell_angle_beta   59.23849685
_cell_angle_gamma   26.02473785
_symmetry_Int_Tables_number   1
_chemical_formula_structural   Pr2Y2Br3N2Cl3
_chemical_formula_sum   'Pr2 Y2 Br3 N2 Cl3'
_cell_volume   333.03003532
_cell_formula_units_Z   1
loop_
 _symmetry_equiv_pos_site_id
 _symmetry_equiv_pos_as_xyz
  1  'x, y, z'
loop_
 _atom_site_type_symbol
 _atom_site_label
 _atom_site_symmetry_multiplicity
 _atom_site_fract_x
 _atom_site_fract_y
 _atom_site_fract_z
 _atom_site_occupancy
  Pr  Pr0  1  0.865333  0.865333  0.289360  1
  Pr  Pr1  1  0.136573  0.136573  0.711840  1
  Y  Y2  1  0.581671  0.581671  0.040360  1
  Y  Y3  1  0.420581  0.420581  0.960743  1
  Br  Br4  1  0.053124  0.053124  0.249732  1
  Br  Br5  1  0.947401  0.947401  0.753368  1
  Br  Br6  1  0.659625  0.659625  0.482571  1
  N  N7  1  0.429497  0.429497  0.152082  1
  N  N8  1  0.572893  0.572893  0.849128  1
  Cl  Cl9  1  0.330532  0.330532  0.510934  1
  Cl  Cl10  1  0.793265  0.793265  0.105461  1
  Cl  Cl11  1  0.209506  0.209506  0.894421  1
