# generated using pymatgen
data_Eu4Co3IrN4
_symmetry_space_group_name_H-M   'P 1'
_cell_length_a   5.13022244
_cell_length_b   8.98768510
_cell_length_c   13.11990100
_cell_angle_alpha   90.28302850
_cell_angle_beta   90.20688174
_cell_angle_gamma   90.07751022
_symmetry_Int_Tables_number   1
_chemical_formula_structural   Eu4Co3IrN4
_chemical_formula_sum   'Eu12 Co9 Ir3 N12'
_cell_volume   604.93131108
_cell_formula_units_Z   3
loop_
 _symmetry_equiv_pos_site_id
 _symmetry_equiv_pos_as_xyz
  1  'x, y, z'
loop_
 _atom_site_type_symbol
 _atom_site_label
 _atom_site_symmetry_multiplicity
 _atom_site_fract_x
 _atom_site_fract_y
 _atom_site_fract_z
 _atom_site_occupancy
  Eu  Eu0  1  0.503045  0.488394  0.750830  1
  Eu  Eu1  1  0.998073  0.011156  0.247895  1
  Eu  Eu2  1  0.001927  0.988844  0.752105  1
  Eu  Eu3  1  0.496955  0.511606  0.249170  1
  Eu  Eu4  1  0.984978  0.334211  0.409989  1
  Eu  Eu5  1  0.487733  0.165015  0.588791  1
  Eu  Eu6  1  0.512063  0.836743  0.087600  1
  Eu  Eu7  1  0.014375  0.667559  0.911860  1
  Eu  Eu8  1  0.015022  0.665789  0.590011  1
  Eu  Eu9  1  0.512267  0.834985  0.411209  1
  Eu  Eu10  1  0.487937  0.163257  0.912400  1
  Eu  Eu11  1  0.985625  0.332441  0.088140  1
  Co  Co12  1  0.482082  0.168602  0.157572  1
  Co  Co13  1  0.994940  0.328553  0.838400  1
  Co  Co14  1  0.004785  0.672059  0.338417  1
  Co  Co15  1  0.511410  0.829275  0.664607  1
  Co  Co16  1  0.517918  0.831398  0.842428  1
  Co  Co17  1  0.005060  0.671447  0.161600  1
  Co  Co18  1  0.995215  0.327941  0.661583  1
  Co  Co19  1  0.488590  0.170725  0.335393  1
  Co  Co20  1  0.000000  0.000000  0.000000  1
  Ir  Ir21  1  0.500000  0.500000  0.000000  1
  Ir  Ir22  1  0.500000  0.500000  0.500000  1
  Ir  Ir23  1  0.000000  0.000000  0.500000  1
  N  N24  1  0.272801  0.747207  0.753597  1
  N  N25  1  0.763521  0.755301  0.249602  1
  N  N26  1  0.236479  0.244699  0.750398  1
  N  N27  1  0.727199  0.252793  0.246403  1
  N  N28  1  0.257288  0.088606  0.416471  1
  N  N29  1  0.760749  0.411023  0.582094  1
  N  N30  1  0.239404  0.589250  0.082063  1
  N  N31  1  0.757586  0.916606  0.923447  1
  N  N32  1  0.742712  0.911394  0.583529  1
  N  N33  1  0.239251  0.588977  0.417906  1
  N  N34  1  0.760596  0.410750  0.917937  1
  N  N35  1  0.242414  0.083394  0.076553  1
