# generated using pymatgen
data_HoZn2InNiIr
_symmetry_space_group_name_H-M   'P 1'
_cell_length_a   5.40748282
_cell_length_b   5.21919455
_cell_length_c   5.21919670
_cell_angle_alpha   59.23193314
_cell_angle_beta   58.14273108
_cell_angle_gamma   58.14273245
_symmetry_Int_Tables_number   1
_chemical_formula_structural   HoZn2InNiIr
_chemical_formula_sum   'Ho1 Zn2 In1 Ni1 Ir1'
_cell_volume   100.57107550
_cell_formula_units_Z   1
loop_
 _symmetry_equiv_pos_site_id
 _symmetry_equiv_pos_as_xyz
  1  'x, y, z'
loop_
 _atom_site_type_symbol
 _atom_site_label
 _atom_site_symmetry_multiplicity
 _atom_site_fract_x
 _atom_site_fract_y
 _atom_site_fract_z
 _atom_site_occupancy
  Ho  Ho0  1  0.245442  0.255106  0.255106  1
  Zn  Zn1  1  0.626449  0.620647  0.126681  1
  Zn  Zn2  1  0.626449  0.126681  0.620647  1
  In  In3  1  0.000803  0.997973  0.997973  1
  Ni  Ni4  1  0.122583  0.624411  0.624411  1
  Ir  Ir5  1  0.628274  0.625182  0.625182  1
