# generated using pymatgen
data_Tb5Hg2Ru
_symmetry_space_group_name_H-M   'P 1'
_cell_length_a   7.61309200
_cell_length_b   9.38922500
_cell_length_c   12.05182300
_cell_angle_alpha   90.00000000
_cell_angle_beta   90.00000000
_cell_angle_gamma   90.00000000
_symmetry_Int_Tables_number   1
_chemical_formula_structural   Tb5Hg2Ru
_chemical_formula_sum   'Tb20 Hg8 Ru4'
_cell_volume   861.47676642
_cell_formula_units_Z   4
loop_
 _symmetry_equiv_pos_site_id
 _symmetry_equiv_pos_as_xyz
  1  'x, y, z'
loop_
 _atom_site_type_symbol
 _atom_site_label
 _atom_site_symmetry_multiplicity
 _atom_site_fract_x
 _atom_site_fract_y
 _atom_site_fract_z
 _atom_site_occupancy
  Tb  Tb0  1  0.839170  0.750000  0.782910  1
  Tb  Tb1  1  0.160830  0.250000  0.217090  1
  Tb  Tb2  1  0.339170  0.250000  0.717090  1
  Tb  Tb3  1  0.660830  0.750000  0.282910  1
  Tb  Tb4  1  0.375027  0.750000  0.690794  1
  Tb  Tb5  1  0.624973  0.250000  0.309206  1
  Tb  Tb6  1  0.875027  0.250000  0.809206  1
  Tb  Tb7  1  0.124973  0.750000  0.190794  1
  Tb  Tb8  1  0.954596  0.750000  0.501644  1
  Tb  Tb9  1  0.045404  0.250000  0.498356  1
  Tb  Tb10  1  0.454596  0.250000  0.998356  1
  Tb  Tb11  1  0.545404  0.750000  0.001644  1
  Tb  Tb12  1  0.676924  0.033303  0.578521  1
  Tb  Tb13  1  0.323076  0.966697  0.421479  1
  Tb  Tb14  1  0.176924  0.966697  0.921479  1
  Tb  Tb15  1  0.323076  0.533303  0.421479  1
  Tb  Tb16  1  0.823076  0.033303  0.078521  1
  Tb  Tb17  1  0.676924  0.466697  0.578521  1
  Tb  Tb18  1  0.823076  0.466697  0.078521  1
  Tb  Tb19  1  0.176924  0.533303  0.921479  1
  Hg  Hg20  1  0.577078  0.492278  0.836756  1
  Hg  Hg21  1  0.422922  0.507722  0.163244  1
  Hg  Hg22  1  0.077078  0.507722  0.663244  1
  Hg  Hg23  1  0.422922  0.992278  0.163244  1
  Hg  Hg24  1  0.922922  0.492278  0.336756  1
  Hg  Hg25  1  0.577078  0.007722  0.836756  1
  Hg  Hg26  1  0.922922  0.007722  0.336756  1
  Hg  Hg27  1  0.077078  0.992278  0.663244  1
  Ru  Ru28  1  0.573226  0.750000  0.505558  1
  Ru  Ru29  1  0.426774  0.250000  0.494442  1
  Ru  Ru30  1  0.073226  0.250000  0.994442  1
  Ru  Ru31  1  0.926774  0.750000  0.005558  1
