# generated using pymatgen
data_Er8Mn(B8Ir)3
_symmetry_space_group_name_H-M   'P 1'
_cell_length_a   3.60962600
_cell_length_b   9.12106169
_cell_length_c   11.45030116
_cell_angle_alpha   89.96813172
_cell_angle_beta   90.00000000
_cell_angle_gamma   90.00000000
_symmetry_Int_Tables_number   1
_chemical_formula_structural   Er8Mn(B8Ir)3
_chemical_formula_sum   'Er8 Mn1 B24 Ir3'
_cell_volume   376.98532215
_cell_formula_units_Z   1
loop_
 _symmetry_equiv_pos_site_id
 _symmetry_equiv_pos_as_xyz
  1  'x, y, z'
loop_
 _atom_site_type_symbol
 _atom_site_label
 _atom_site_symmetry_multiplicity
 _atom_site_fract_x
 _atom_site_fract_y
 _atom_site_fract_z
 _atom_site_occupancy
  Er  Er0  1  0.000000  0.326159  0.411766  1
  Er  Er1  1  0.000000  0.678448  0.580738  1
  Er  Er2  1  0.000000  0.816493  0.091035  1
  Er  Er3  1  0.000000  0.179829  0.914093  1
  Er  Er4  1  0.000000  0.939420  0.373881  1
  Er  Er5  1  0.000000  0.056057  0.625177  1
  Er  Er6  1  0.000000  0.448431  0.129168  1
  Er  Er7  1  0.000000  0.556232  0.873996  1
  Mn  Mn8  1  0.000000  0.637321  0.321074  1
  B  B9  1  0.500000  0.554222  0.431840  1
  B  B10  1  0.500000  0.446958  0.564984  1
  B  B11  1  0.500000  0.052470  0.066486  1
  B  B12  1  0.500000  0.946790  0.934484  1
  B  B13  1  0.500000  0.745943  0.418145  1
  B  B14  1  0.500000  0.251225  0.578156  1
  B  B15  1  0.500000  0.250668  0.079795  1
  B  B16  1  0.500000  0.750171  0.921267  1
  B  B17  1  0.500000  0.789865  0.266548  1
  B  B18  1  0.500000  0.206805  0.735368  1
  B  B19  1  0.500000  0.293224  0.234632  1
  B  B20  1  0.500000  0.707264  0.764747  1
  B  B21  1  0.500000  0.631858  0.186868  1
  B  B22  1  0.500000  0.367552  0.816193  1
  B  B23  1  0.500000  0.131785  0.315939  1
  B  B24  1  0.500000  0.868092  0.683644  1
  B  B25  1  0.500000  0.981007  0.213720  1
  B  B26  1  0.500000  0.018905  0.786882  1
  B  B27  1  0.500000  0.485726  0.287875  1
  B  B28  1  0.500000  0.518604  0.712433  1
  B  B29  1  0.500000  0.609320  0.029934  1
  B  B30  1  0.500000  0.391152  0.970406  1
  B  B31  1  0.500000  0.110073  0.469585  1
  B  B32  1  0.500000  0.889904  0.530221  1
  Ir  Ir33  1  0.000000  0.362451  0.678748  1
  Ir  Ir34  1  0.000000  0.137427  0.178027  1
  Ir  Ir35  1  0.000000  0.862148  0.822148  1
