# generated using pymatgen
data_Er4Mn15Fe(MoP3)4
_symmetry_space_group_name_H-M   'P 1'
_cell_length_a   3.65513400
_cell_length_b   10.71900048
_cell_length_c   12.31345928
_cell_angle_alpha   90.59034697
_cell_angle_beta   90.00000000
_cell_angle_gamma   90.00000000
_symmetry_Int_Tables_number   1
_chemical_formula_structural   Er4Mn15Fe(MoP3)4
_chemical_formula_sum   'Er4 Mn15 Fe1 Mo4 P12'
_cell_volume   482.40813064
_cell_formula_units_Z   1
loop_
 _symmetry_equiv_pos_site_id
 _symmetry_equiv_pos_as_xyz
  1  'x, y, z'
loop_
 _atom_site_type_symbol
 _atom_site_label
 _atom_site_symmetry_multiplicity
 _atom_site_fract_x
 _atom_site_fract_y
 _atom_site_fract_z
 _atom_site_occupancy
  Er  Er0  1  0.250000  0.588016  0.706552  1
  Er  Er1  1  0.250000  0.912989  0.207314  1
  Er  Er2  1  0.750000  0.413659  0.293893  1
  Er  Er3  1  0.750000  0.085574  0.791500  1
  Mn  Mn4  1  0.250000  0.411658  0.494152  1
  Mn  Mn5  1  0.250000  0.088400  0.993356  1
  Mn  Mn6  1  0.750000  0.590527  0.506416  1
  Mn  Mn7  1  0.750000  0.911096  0.006276  1
  Mn  Mn8  1  0.250000  0.211903  0.181935  1
  Mn  Mn9  1  0.250000  0.286232  0.681432  1
  Mn  Mn10  1  0.750000  0.788188  0.817917  1
  Mn  Mn11  1  0.750000  0.712345  0.318010  1
  Mn  Mn12  1  0.250000  0.882298  0.694852  1
  Mn  Mn13  1  0.250000  0.616586  0.194064  1
  Mn  Mn14  1  0.750000  0.116985  0.305757  1
  Mn  Mn15  1  0.750000  0.382978  0.806043  1
  Mn  Mn16  1  0.250000  0.464868  0.934543  1
  Mn  Mn17  1  0.250000  0.034917  0.433414  1
  Mn  Mn18  1  0.750000  0.534327  0.065488  1
  Fe  Fe19  1  0.750000  0.965010  0.564082  1
  Mo  Mo20  1  0.250000  0.710505  0.982468  1
  Mo  Mo21  1  0.250000  0.791695  0.484030  1
  Mo  Mo22  1  0.750000  0.288937  0.017901  1
  Mo  Mo23  1  0.750000  0.210169  0.518317  1
  P  P24  1  0.250000  0.414869  0.118128  1
  P  P25  1  0.250000  0.079690  0.615605  1
  P  P26  1  0.750000  0.584926  0.881726  1
  P  P27  1  0.750000  0.916035  0.384375  1
  P  P28  1  0.250000  0.262563  0.871788  1
  P  P29  1  0.250000  0.236501  0.372236  1
  P  P30  1  0.750000  0.736201  0.128301  1
  P  P31  1  0.750000  0.766594  0.627620  1
  P  P32  1  0.250000  0.591843  0.383747  1
  P  P33  1  0.250000  0.910403  0.882760  1
  P  P34  1  0.750000  0.410822  0.617094  1
  P  P35  1  0.750000  0.089693  0.116908  1
