# generated using pymatgen
data_Ca5Np4Hg3O20
_symmetry_space_group_name_H-M   'P 1'
_cell_length_a   5.65641227
_cell_length_b   7.99122365
_cell_length_c   11.35970267
_cell_angle_alpha   74.04536431
_cell_angle_beta   89.32392864
_cell_angle_gamma   89.79821879
_symmetry_Int_Tables_number   1
_chemical_formula_structural   Ca5Np4Hg3O20
_chemical_formula_sum   'Ca5 Np4 Hg3 O20'
_cell_volume   493.66363961
_cell_formula_units_Z   1
loop_
 _symmetry_equiv_pos_site_id
 _symmetry_equiv_pos_as_xyz
  1  'x, y, z'
loop_
 _atom_site_type_symbol
 _atom_site_label
 _atom_site_symmetry_multiplicity
 _atom_site_fract_x
 _atom_site_fract_y
 _atom_site_fract_z
 _atom_site_occupancy
  Ca  Ca0  1  0.513549  0.142627  0.172215  1
  Ca  Ca1  1  0.492816  0.371465  0.867237  1
  Ca  Ca2  1  0.006134  0.637760  0.627509  1
  Ca  Ca3  1  0.484637  0.641681  0.128189  1
  Ca  Ca4  1  0.007697  0.348822  0.369377  1
  Np  Np5  1  0.989176  0.003758  0.003520  1
  Np  Np6  1  0.522664  0.001988  0.494161  1
  Np  Np7  1  0.988988  0.501019  0.003435  1
  Np  Np8  1  0.505216  0.497988  0.499599  1
  Hg  Hg9  1  0.994704  0.178183  0.693883  1
  Hg  Hg10  1  0.493349  0.820339  0.801916  1
  Hg  Hg11  1  0.013035  0.814921  0.311802  1
  O  O12  1  0.672434  0.263553  0.500127  1
  O  O13  1  0.143229  0.745415  0.006205  1
  O  O14  1  0.348658  0.735017  0.498634  1
  O  O15  1  0.808660  0.255133  0.007908  1
  O  O16  1  0.727988  0.039918  0.342658  1
  O  O17  1  0.195036  0.972931  0.165021  1
  O  O18  1  0.308160  0.973293  0.655175  1
  O  O19  1  0.799215  0.029462  0.840245  1
  O  O20  1  0.839267  0.610410  0.431925  1
  O  O21  1  0.301302  0.392660  0.074812  1
  O  O22  1  0.174839  0.379462  0.570753  1
  O  O23  1  0.660939  0.618835  0.932140  1
  O  O24  1  0.632668  0.478964  0.667580  1
  O  O25  1  0.122973  0.523226  0.835521  1
  O  O26  1  0.372750  0.520607  0.333157  1
  O  O27  1  0.847401  0.473899  0.169300  1
  O  O28  1  0.779014  0.885101  0.593438  1
  O  O29  1  0.262547  0.120923  0.919577  1
  O  O30  1  0.278341  0.121856  0.385589  1
  O  O31  1  0.712614  0.898784  0.097390  1
