# generated using pymatgen
data_Rb2NaV6F21
_symmetry_space_group_name_H-M   'P 1'
_cell_length_a   7.61701931
_cell_length_b   7.61701898
_cell_length_c   10.73512531
_cell_angle_alpha   69.32786365
_cell_angle_beta   69.32786373
_cell_angle_gamma   59.99780849
_symmetry_Int_Tables_number   1
_chemical_formula_structural   Rb2NaV6F21
_chemical_formula_sum   'Rb2 Na1 V6 F21'
_cell_volume   492.53774374
_cell_formula_units_Z   1
loop_
 _symmetry_equiv_pos_site_id
 _symmetry_equiv_pos_as_xyz
  1  'x, y, z'
loop_
 _atom_site_type_symbol
 _atom_site_label
 _atom_site_symmetry_multiplicity
 _atom_site_fract_x
 _atom_site_fract_y
 _atom_site_fract_z
 _atom_site_occupancy
  Rb  Rb0  1  0.129833  0.145148  0.591630  1
  Rb  Rb1  1  0.854852  0.870167  0.408370  1
  Na  Na2  1  0.514256  0.485744  0.500000  1
  V  V3  1  0.454227  0.910606  0.203425  1
  V  V4  1  0.089394  0.545773  0.796575  1
  V  V5  1  0.956282  0.411572  0.198974  1
  V  V6  1  0.454960  0.410941  0.200866  1
  V  V7  1  0.589059  0.545040  0.799134  1
  V  V8  1  0.588428  0.043718  0.801026  1
  F  F9  1  0.686637  0.569904  0.607012  1
  F  F10  1  0.430096  0.313363  0.392988  1
  F  F11  1  0.154651  0.487394  0.222414  1
  F  F12  1  0.512606  0.845349  0.777586  1
  F  F13  1  0.872804  0.455291  0.817482  1
  F  F14  1  0.516160  0.951668  0.002263  1
  F  F15  1  0.754852  0.337966  0.177694  1
  F  F16  1  0.144507  0.595874  0.602736  1
  F  F17  1  0.886166  0.836995  0.797099  1
  F  F18  1  0.747624  0.706443  0.200273  1
  F  F19  1  0.662034  0.245148  0.822306  1
  F  F20  1  0.485564  0.514436  0.000000  1
  F  F21  1  0.870123  0.340703  0.390873  1
  F  F22  1  0.307147  0.634787  0.776326  1
  F  F23  1  0.404126  0.855493  0.397264  1
  F  F24  1  0.293557  0.252376  0.799727  1
  F  F25  1  0.544709  0.127196  0.182518  1
  F  F26  1  0.365213  0.692853  0.223674  1
  F  F27  1  0.163005  0.113834  0.202901  1
  F  F28  1  0.048332  0.483840  0.997737  1
  F  F29  1  0.659297  0.129877  0.609127  1
