# generated using pymatgen
data_Hf2Ta3BeB5
_symmetry_space_group_name_H-M   'P 1'
_cell_length_a   11.95009512
_cell_length_b   11.95009639
_cell_length_c   3.39693200
_cell_angle_alpha   90.00000000
_cell_angle_beta   90.00000000
_cell_angle_gamma   164.80694137
_symmetry_Int_Tables_number   1
_chemical_formula_structural   Hf2Ta3BeB5
_chemical_formula_sum   'Hf2 Ta3 Be1 B5'
_cell_volume   127.13077255
_cell_formula_units_Z   1
loop_
 _symmetry_equiv_pos_site_id
 _symmetry_equiv_pos_as_xyz
  1  'x, y, z'
loop_
 _atom_site_type_symbol
 _atom_site_label
 _atom_site_symmetry_multiplicity
 _atom_site_fract_x
 _atom_site_fract_y
 _atom_site_fract_z
 _atom_site_occupancy
  Hf  Hf0  1  0.195261  0.804739  0.500000  1
  Hf  Hf1  1  0.000947  0.999053  0.000000  1
  Ta  Ta2  1  0.805356  0.194644  0.500000  1
  Ta  Ta3  1  0.383930  0.616070  0.000000  1
  Ta  Ta4  1  0.613735  0.386265  0.000000  1
  Be  Be5  1  0.458362  0.541638  0.500000  1
  B  B6  1  0.542397  0.457603  0.500000  1
  B  B7  1  0.273130  0.726870  0.000000  1
  B  B8  1  0.731865  0.268135  0.000000  1
  B  B9  1  0.082250  0.917750  0.500000  1
  B  B10  1  0.912768  0.087232  0.500000  1
