# generated using pymatgen
data_Ce2CuH6Pt
_symmetry_space_group_name_H-M   'P 1'
_cell_length_a   6.17243444
_cell_length_b   6.17243441
_cell_length_c   4.62360900
_cell_angle_alpha   90.00000000
_cell_angle_beta   90.00000000
_cell_angle_gamma   142.29756293
_symmetry_Int_Tables_number   1
_chemical_formula_structural   Ce2CuH6Pt
_chemical_formula_sum   'Ce2 Cu1 H6 Pt1'
_cell_volume   107.72924971
_cell_formula_units_Z   1
loop_
 _symmetry_equiv_pos_site_id
 _symmetry_equiv_pos_as_xyz
  1  'x, y, z'
loop_
 _atom_site_type_symbol
 _atom_site_label
 _atom_site_symmetry_multiplicity
 _atom_site_fract_x
 _atom_site_fract_y
 _atom_site_fract_z
 _atom_site_occupancy
  Ce  Ce0  1  0.139393  0.860605  0.249999  1
  Ce  Ce1  1  0.864069  0.135929  0.750000  1
  Cu  Cu2  1  0.430291  0.569707  0.249999  1
  H  H3  1  0.685681  0.314317  0.010681  1
  H  H4  1  0.928548  0.071450  0.249999  1
  H  H5  1  0.685681  0.314317  0.489320  1
  H  H6  1  0.313292  0.686706  0.502619  1
  H  H7  1  0.070876  0.929122  0.750000  1
  H  H8  1  0.313292  0.686706  0.997381  1
  Pt  Pt9  1  0.568866  0.431132  0.750000  1
