# generated using pymatgen
data_Tm12InFe4Cu
_symmetry_space_group_name_H-M   'P 1'
_cell_length_a   8.22281706
_cell_length_b   8.22273142
_cell_length_c   8.22281695
_cell_angle_alpha   110.75860991
_cell_angle_beta   111.17421824
_cell_angle_gamma   106.52120272
_symmetry_Int_Tables_number   1
_chemical_formula_structural   Tm12InFe4Cu
_chemical_formula_sum   'Tm12 In1 Fe4 Cu1'
_cell_volume   427.13826210
_cell_formula_units_Z   1
loop_
 _symmetry_equiv_pos_site_id
 _symmetry_equiv_pos_as_xyz
  1  'x, y, z'
loop_
 _atom_site_type_symbol
 _atom_site_label
 _atom_site_symmetry_multiplicity
 _atom_site_fract_x
 _atom_site_fract_y
 _atom_site_fract_z
 _atom_site_occupancy
  Tm  Tm0  1  0.420568  0.220001  0.200639  1
  Tm  Tm1  1  0.579432  0.779999  0.799361  1
  Tm  Tm2  1  0.019363  0.220001  0.799433  1
  Tm  Tm3  1  0.980637  0.779999  0.200567  1
  Tm  Tm4  1  0.187106  0.288040  0.475201  1
  Tm  Tm5  1  0.812894  0.711960  0.524799  1
  Tm  Tm6  1  0.187161  0.711960  0.899066  1
  Tm  Tm7  1  0.812839  0.288040  0.100934  1
  Tm  Tm8  1  0.313565  0.614424  0.300860  1
  Tm  Tm9  1  0.686435  0.385576  0.699140  1
  Tm  Tm10  1  0.313549  0.012688  0.699139  1
  Tm  Tm11  1  0.686451  0.987312  0.300861  1
  In  In12  1  0.500000  0.500000  0.000000  1
  Fe  Fe13  1  0.382381  0.000000  0.382381  1
  Fe  Fe14  1  0.617619  0.000000  0.617619  1
  Fe  Fe15  1  0.108936  0.608931  0.499995  1
  Fe  Fe16  1  0.891064  0.391069  0.500005  1
  Cu  Cu17  1  0.000000  0.000000  0.000000  1
