# generated using pymatgen
data_LiHo2ZnPt2
_symmetry_space_group_name_H-M   'P 1'
_cell_length_a   4.03529900
_cell_length_b   6.97311300
_cell_length_c   8.32193200
_cell_angle_alpha   90.00000000
_cell_angle_beta   90.00000000
_cell_angle_gamma   90.00000000
_symmetry_Int_Tables_number   1
_chemical_formula_structural   LiHo2ZnPt2
_chemical_formula_sum   'Li2 Ho4 Zn2 Pt4'
_cell_volume   234.16748179
_cell_formula_units_Z   2
loop_
 _symmetry_equiv_pos_site_id
 _symmetry_equiv_pos_as_xyz
  1  'x, y, z'
loop_
 _atom_site_type_symbol
 _atom_site_label
 _atom_site_symmetry_multiplicity
 _atom_site_fract_x
 _atom_site_fract_y
 _atom_site_fract_z
 _atom_site_occupancy
  Li  Li0  1  0.250000  0.629535  0.559377  1
  Li  Li1  1  0.250000  0.129535  0.940623  1
  Ho  Ho2  1  0.250000  0.045536  0.318568  1
  Ho  Ho3  1  0.250000  0.545536  0.181432  1
  Ho  Ho4  1  0.750000  0.955299  0.685086  1
  Ho  Ho5  1  0.750000  0.455299  0.814914  1
  Zn  Zn6  1  0.750000  0.370531  0.437568  1
  Zn  Zn7  1  0.750000  0.870531  0.062432  1
  Pt  Pt8  1  0.250000  0.247082  0.621473  1
  Pt  Pt9  1  0.250000  0.747082  0.878527  1
  Pt  Pt10  1  0.750000  0.752018  0.377848  1
  Pt  Pt11  1  0.750000  0.252018  0.122152  1
