# generated using pymatgen
data_Y4Ga18(RuRh)3
_symmetry_space_group_name_H-M   'P 1'
_cell_length_a   7.52742199
_cell_length_b   7.52742258
_cell_length_c   9.65910142
_cell_angle_alpha   90.01717916
_cell_angle_beta   90.01717664
_cell_angle_gamma   119.62488011
_symmetry_Int_Tables_number   1
_chemical_formula_structural   Y4Ga18(RuRh)3
_chemical_formula_sum   'Y4 Ga18 Ru3 Rh3'
_cell_volume   475.76126064
_cell_formula_units_Z   1
loop_
 _symmetry_equiv_pos_site_id
 _symmetry_equiv_pos_as_xyz
  1  'x, y, z'
loop_
 _atom_site_type_symbol
 _atom_site_label
 _atom_site_symmetry_multiplicity
 _atom_site_fract_x
 _atom_site_fract_y
 _atom_site_fract_z
 _atom_site_occupancy
  Y  Y0  1  0.997929  0.669482  0.249236  1
  Y  Y1  1  0.002691  0.330941  0.750516  1
  Y  Y2  1  0.669059  0.997309  0.249484  1
  Y  Y3  1  0.330518  0.002071  0.750764  1
  Ga  Ga4  1  0.335218  0.337555  0.562881  1
  Ga  Ga5  1  0.662445  0.664782  0.437119  1
  Ga  Ga6  1  0.663037  0.662891  0.060687  1
  Ga  Ga7  1  0.337109  0.336963  0.939313  1
  Ga  Ga8  1  0.337020  0.548132  0.249816  1
  Ga  Ga9  1  0.664252  0.454152  0.751202  1
  Ga  Ga10  1  0.545848  0.335748  0.248798  1
  Ga  Ga11  1  0.451868  0.662980  0.750184  1
  Ga  Ga12  1  0.003066  0.335864  0.076864  1
  Ga  Ga13  1  0.997474  0.663624  0.923895  1
  Ga  Ga14  1  0.998110  0.665156  0.577580  1
  Ga  Ga15  1  0.334844  0.001890  0.422420  1
  Ga  Ga16  1  0.004073  0.335907  0.422356  1
  Ga  Ga17  1  0.664093  0.995927  0.577644  1
  Ga  Ga18  1  0.664136  0.996934  0.923136  1
  Ga  Ga19  1  0.336376  0.002526  0.076105  1
  Ga  Ga20  1  0.128427  0.127933  0.249885  1
  Ga  Ga21  1  0.872067  0.871573  0.750115  1
  Ru  Ru22  1  0.673377  0.326623  0.000000  1
  Ru  Ru23  1  0.327125  0.672875  0.000000  1
  Ru  Ru24  1  0.326820  0.673180  0.500000  1
  Rh  Rh25  1  0.000215  0.999785  0.000000  1
  Rh  Rh26  1  0.000435  0.999565  0.500000  1
  Rh  Rh27  1  0.672366  0.327634  0.500000  1
