# generated using pymatgen
data_Nd8Zn8AgIr7
_symmetry_space_group_name_H-M   'P 1'
_cell_length_a   4.05409400
_cell_length_b   7.33960559
_cell_length_c   16.75543066
_cell_angle_alpha   90.03088916
_cell_angle_beta   90.00000000
_cell_angle_gamma   90.00000000
_symmetry_Int_Tables_number   1
_chemical_formula_structural   Nd8Zn8AgIr7
_chemical_formula_sum   'Nd8 Zn8 Ag1 Ir7'
_cell_volume   498.56532335
_cell_formula_units_Z   1
loop_
 _symmetry_equiv_pos_site_id
 _symmetry_equiv_pos_as_xyz
  1  'x, y, z'
loop_
 _atom_site_type_symbol
 _atom_site_label
 _atom_site_symmetry_multiplicity
 _atom_site_fract_x
 _atom_site_fract_y
 _atom_site_fract_z
 _atom_site_occupancy
  Nd  Nd0  1  0.250000  0.166977  0.939357  1
  Nd  Nd1  1  0.250000  0.662321  0.571566  1
  Nd  Nd2  1  0.750000  0.325145  0.440429  1
  Nd  Nd3  1  0.750000  0.960705  0.274909  1
  Nd  Nd4  1  0.750000  0.831813  0.059144  1
  Nd  Nd5  1  0.750000  0.447717  0.212386  1
  Nd  Nd6  1  0.250000  0.052913  0.718054  1
  Nd  Nd7  1  0.250000  0.548520  0.787366  1
  Zn  Zn8  1  0.750000  0.009217  0.567716  1
  Zn  Zn9  1  0.250000  0.612467  0.339162  1
  Zn  Zn10  1  0.750000  0.378312  0.653814  1
  Zn  Zn11  1  0.250000  0.498761  0.059393  1
  Zn  Zn12  1  0.750000  0.500431  0.940431  1
  Zn  Zn13  1  0.250000  0.007669  0.439485  1
  Zn  Zn14  1  0.250000  0.121455  0.146361  1
  Zn  Zn15  1  0.750000  0.878847  0.850053  1
  Ag  Ag16  1  0.750000  0.755921  0.433140  1
  Ir  Ir17  1  0.250000  0.244004  0.315312  1
  Ir  Ir18  1  0.750000  0.251920  0.813938  1
  Ir  Ir19  1  0.750000  0.756240  0.686284  1
  Ir  Ir20  1  0.250000  0.244316  0.565018  1
  Ir  Ir21  1  0.250000  0.745370  0.187741  1
  Ir  Ir22  1  0.750000  0.256145  0.063796  1
  Ir  Ir23  1  0.250000  0.742813  0.935146  1
