# generated using pymatgen
data_YbSm4Zr3(B6Ru)4
_symmetry_space_group_name_H-M   'P 1'
_cell_length_a   3.63159100
_cell_length_b   9.10428425
_cell_length_c   11.49263085
_cell_angle_alpha   90.08062150
_cell_angle_beta   90.00000000
_cell_angle_gamma   90.00000000
_symmetry_Int_Tables_number   1
_chemical_formula_structural   YbSm4Zr3(B6Ru)4
_chemical_formula_sum   'Yb1 Sm4 Zr3 B24 Ru4'
_cell_volume   379.98089985
_cell_formula_units_Z   1
loop_
 _symmetry_equiv_pos_site_id
 _symmetry_equiv_pos_as_xyz
  1  'x, y, z'
loop_
 _atom_site_type_symbol
 _atom_site_label
 _atom_site_symmetry_multiplicity
 _atom_site_fract_x
 _atom_site_fract_y
 _atom_site_fract_z
 _atom_site_occupancy
  Yb  Yb0  1  0.000000  0.556351  0.871700  1
  Sm  Sm1  1  0.000000  0.321594  0.413932  1
  Sm  Sm2  1  0.000000  0.676828  0.586578  1
  Sm  Sm3  1  0.000000  0.820981  0.085594  1
  Sm  Sm4  1  0.000000  0.179385  0.913929  1
  Zr  Zr5  1  0.000000  0.943831  0.374088  1
  Zr  Zr6  1  0.000000  0.054807  0.625208  1
  Zr  Zr7  1  0.000000  0.444422  0.127027  1
  B  B8  1  0.500000  0.555686  0.432100  1
  B  B9  1  0.500000  0.443657  0.568306  1
  B  B10  1  0.500000  0.056047  0.068856  1
  B  B11  1  0.500000  0.946837  0.930810  1
  B  B12  1  0.500000  0.752167  0.417625  1
  B  B13  1  0.500000  0.247068  0.581974  1
  B  B14  1  0.500000  0.252341  0.083166  1
  B  B15  1  0.500000  0.751378  0.915758  1
  B  B16  1  0.500000  0.793646  0.264848  1
  B  B17  1  0.500000  0.206952  0.734038  1
  B  B18  1  0.500000  0.293750  0.235551  1
  B  B19  1  0.500000  0.708898  0.765607  1
  B  B20  1  0.500000  0.629618  0.183022  1
  B  B21  1  0.500000  0.369023  0.815153  1
  B  B22  1  0.500000  0.129028  0.316767  1
  B  B23  1  0.500000  0.871349  0.683782  1
  B  B24  1  0.500000  0.981926  0.213748  1
  B  B25  1  0.500000  0.018300  0.785409  1
  B  B26  1  0.500000  0.483296  0.286180  1
  B  B27  1  0.500000  0.513580  0.713836  1
  B  B28  1  0.500000  0.599866  0.030350  1
  B  B29  1  0.500000  0.397594  0.976011  1
  B  B30  1  0.500000  0.099402  0.472873  1
  B  B31  1  0.500000  0.899723  0.526457  1
  Ru  Ru32  1  0.000000  0.640760  0.320103  1
  Ru  Ru33  1  0.000000  0.356485  0.679195  1
  Ru  Ru34  1  0.000000  0.140544  0.184279  1
  Ru  Ru35  1  0.000000  0.862882  0.816141  1
