# generated using pymatgen
data_Sc6Co13Si7Ni3
_symmetry_space_group_name_H-M   'P 1'
_cell_length_a   8.06038460
_cell_length_b   8.06038500
_cell_length_c   8.06498666
_cell_angle_alpha   60.01887341
_cell_angle_beta   60.01887228
_cell_angle_gamma   60.00000091
_symmetry_Int_Tables_number   1
_chemical_formula_structural   Sc6Co13Si7Ni3
_chemical_formula_sum   'Sc6 Co13 Si7 Ni3'
_cell_volume   370.61589217
_cell_formula_units_Z   1
loop_
 _symmetry_equiv_pos_site_id
 _symmetry_equiv_pos_as_xyz
  1  'x, y, z'
loop_
 _atom_site_type_symbol
 _atom_site_label
 _atom_site_symmetry_multiplicity
 _atom_site_fract_x
 _atom_site_fract_y
 _atom_site_fract_z
 _atom_site_occupancy
  Sc  Sc0  1  0.715473  0.715473  0.284705  1
  Sc  Sc1  1  0.284350  0.715473  0.284705  1
  Sc  Sc2  1  0.715473  0.284350  0.284705  1
  Sc  Sc3  1  0.286751  0.286751  0.716681  1
  Sc  Sc4  1  0.709816  0.286751  0.716681  1
  Sc  Sc5  1  0.286751  0.709816  0.716681  1
  Co  Co6  1  0.879208  0.879208  0.362374  1
  Co  Co7  1  0.879028  0.363252  0.878690  1
  Co  Co8  1  0.363252  0.879028  0.878690  1
  Co  Co9  1  0.879028  0.879028  0.878690  1
  Co  Co10  1  0.119621  0.119621  0.641139  1
  Co  Co11  1  0.119553  0.640560  0.120335  1
  Co  Co12  1  0.640560  0.119553  0.120335  1
  Co  Co13  1  0.119553  0.119553  0.120335  1
  Co  Co14  1  0.672791  0.672791  0.981626  1
  Co  Co15  1  0.674043  0.979295  0.672619  1
  Co  Co16  1  0.979295  0.674043  0.672619  1
  Co  Co17  1  0.674043  0.674043  0.672619  1
  Co  Co18  1  0.332006  0.332006  0.003984  1
  Si  Si19  1  0.999684  0.999684  0.000947  1
  Si  Si20  1  0.001419  0.001419  0.499620  1
  Si  Si21  1  0.497541  0.001419  0.499620  1
  Si  Si22  1  0.001419  0.497541  0.499620  1
  Si  Si23  1  0.498788  0.498788  0.000164  1
  Si  Si24  1  0.002260  0.498788  0.000164  1
  Si  Si25  1  0.498788  0.002260  0.000164  1
  Ni  Ni26  1  0.331381  0.006744  0.330496  1
  Ni  Ni27  1  0.006744  0.331381  0.330496  1
  Ni  Ni28  1  0.331381  0.331381  0.330496  1
