# generated using pymatgen
data_Sm8Ho12Si15Sn
_symmetry_space_group_name_H-M   'P 1'
_cell_length_a   7.46387592
_cell_length_b   7.76967282
_cell_length_c   14.75643208
_cell_angle_alpha   90.09585542
_cell_angle_beta   89.17541438
_cell_angle_gamma   90.06437437
_symmetry_Int_Tables_number   1
_chemical_formula_structural   Sm8Ho12Si15Sn
_chemical_formula_sum   'Sm8 Ho12 Si15 Sn1'
_cell_volume   855.66281210
_cell_formula_units_Z   1
loop_
 _symmetry_equiv_pos_site_id
 _symmetry_equiv_pos_as_xyz
  1  'x, y, z'
loop_
 _atom_site_type_symbol
 _atom_site_label
 _atom_site_symmetry_multiplicity
 _atom_site_fract_x
 _atom_site_fract_y
 _atom_site_fract_z
 _atom_site_occupancy
  Sm  Sm0  1  0.020091  0.181124  0.097764  1
  Sm  Sm1  1  0.979194  0.819570  0.902768  1
  Sm  Sm2  1  0.479523  0.681328  0.902509  1
  Sm  Sm3  1  0.981909  0.824765  0.599380  1
  Sm  Sm4  1  0.520108  0.318935  0.098258  1
  Sm  Sm5  1  0.013298  0.173647  0.398988  1
  Sm  Sm6  1  0.518678  0.318059  0.400096  1
  Sm  Sm7  1  0.492792  0.687382  0.601109  1
  Ho  Ho8  1  0.158740  0.509940  0.753370  1
  Ho  Ho9  1  0.840247  0.488504  0.250039  1
  Ho  Ho10  1  0.341407  0.012121  0.249459  1
  Ho  Ho11  1  0.660866  0.988447  0.751791  1
  Ho  Ho12  1  0.336914  0.165384  0.628844  1
  Ho  Ho13  1  0.668901  0.822608  0.375101  1
  Ho  Ho14  1  0.166782  0.687013  0.370991  1
  Ho  Ho15  1  0.674841  0.820329  0.121946  1
  Ho  Ho16  1  0.821002  0.322150  0.624240  1
  Ho  Ho17  1  0.323199  0.178134  0.877994  1
  Ho  Ho18  1  0.823566  0.321095  0.877751  1
  Ho  Ho19  1  0.176192  0.678618  0.122609  1
  Si  Si20  1  0.031588  0.111332  0.751558  1
  Si  Si21  1  0.965945  0.892907  0.246478  1
  Si  Si22  1  0.467508  0.608860  0.248246  1
  Si  Si23  1  0.530830  0.391505  0.752739  1
  Si  Si24  1  0.276374  0.872542  0.752481  1
  Si  Si25  1  0.722825  0.123822  0.247864  1
  Si  Si26  1  0.222896  0.376197  0.249043  1
  Si  Si27  1  0.778520  0.624993  0.751459  1
  Si  Si28  1  0.835477  0.534629  0.458690  1
  Si  Si29  1  0.343266  0.968169  0.460598  1
  Si  Si30  1  0.851797  0.530266  0.039668  1
  Si  Si31  1  0.657847  0.033168  0.538012  1
  Si  Si32  1  0.147261  0.469124  0.961033  1
  Si  Si33  1  0.647796  0.031186  0.960821  1
  Si  Si34  1  0.351106  0.969593  0.039960  1
  Sn  Sn35  1  0.170713  0.462554  0.536343  1
