# generated using pymatgen
data_Y2Er6B24OsRu3
_symmetry_space_group_name_H-M   'P 1'
_cell_length_a   3.64102500
_cell_length_b   9.11062803
_cell_length_c   11.48962300
_cell_angle_alpha   90.03698459
_cell_angle_beta   90.00000000
_cell_angle_gamma   90.00000000
_symmetry_Int_Tables_number   1
_chemical_formula_structural   Y2Er6B24OsRu3
_chemical_formula_sum   'Y2 Er6 B24 Os1 Ru3'
_cell_volume   381.13397529
_cell_formula_units_Z   1
loop_
 _symmetry_equiv_pos_site_id
 _symmetry_equiv_pos_as_xyz
  1  'x, y, z'
loop_
 _atom_site_type_symbol
 _atom_site_label
 _atom_site_symmetry_multiplicity
 _atom_site_fract_x
 _atom_site_fract_y
 _atom_site_fract_z
 _atom_site_occupancy
  Y  Y0  1  0.000000  0.322225  0.414110  1
  Y  Y1  1  0.000000  0.678339  0.586255  1
  Er  Er2  1  0.000000  0.822025  0.085547  1
  Er  Er3  1  0.000000  0.177674  0.914311  1
  Er  Er4  1  0.000000  0.943613  0.371794  1
  Er  Er5  1  0.000000  0.056670  0.627391  1
  Er  Er6  1  0.000000  0.443436  0.127471  1
  Er  Er7  1  0.000000  0.555804  0.873062  1
  B  B8  1  0.500000  0.554420  0.432733  1
  B  B9  1  0.500000  0.445847  0.567303  1
  B  B10  1  0.500000  0.053826  0.066588  1
  B  B11  1  0.500000  0.946356  0.933605  1
  B  B12  1  0.500000  0.748803  0.419220  1
  B  B13  1  0.500000  0.251525  0.580640  1
  B  B14  1  0.500000  0.248122  0.079778  1
  B  B15  1  0.500000  0.751710  0.920246  1
  B  B16  1  0.500000  0.791388  0.265428  1
  B  B17  1  0.500000  0.208573  0.734392  1
  B  B18  1  0.500000  0.290838  0.233356  1
  B  B19  1  0.500000  0.708891  0.766749  1
  B  B20  1  0.500000  0.631745  0.184452  1
  B  B21  1  0.500000  0.368006  0.815623  1
  B  B22  1  0.500000  0.131097  0.314606  1
  B  B23  1  0.500000  0.869065  0.685463  1
  B  B24  1  0.500000  0.982718  0.212467  1
  B  B25  1  0.500000  0.017533  0.787417  1
  B  B26  1  0.500000  0.483432  0.286527  1
  B  B27  1  0.500000  0.516517  0.713612  1
  B  B28  1  0.500000  0.607261  0.029774  1
  B  B29  1  0.500000  0.392193  0.970460  1
  B  B30  1  0.500000  0.106231  0.470456  1
  B  B31  1  0.500000  0.894227  0.529125  1
  Os  Os32  1  0.000000  0.862764  0.821702  1
  Ru  Ru33  1  0.000000  0.638201  0.320345  1
  Ru  Ru34  1  0.000000  0.361810  0.679781  1
  Ru  Ru35  1  0.000000  0.137121  0.178212  1
