# generated using pymatgen
data_Y8AlPdPt23
_symmetry_space_group_name_H-M   'P 1'
_cell_length_a   8.35529200
_cell_length_b   8.35529200
_cell_length_c   8.40543100
_cell_angle_alpha   90.00000000
_cell_angle_beta   90.00000000
_cell_angle_gamma   90.00000000
_symmetry_Int_Tables_number   1
_chemical_formula_structural   Y8AlPdPt23
_chemical_formula_sum   'Y8 Al1 Pd1 Pt23'
_cell_volume   586.79074003
_cell_formula_units_Z   1
loop_
 _symmetry_equiv_pos_site_id
 _symmetry_equiv_pos_as_xyz
  1  'x, y, z'
loop_
 _atom_site_type_symbol
 _atom_site_label
 _atom_site_symmetry_multiplicity
 _atom_site_fract_x
 _atom_site_fract_y
 _atom_site_fract_z
 _atom_site_occupancy
  Y  Y0  1  0.250819  0.250819  0.250980  1
  Y  Y1  1  0.748897  0.748897  0.749053  1
  Y  Y2  1  0.749181  0.749181  0.250980  1
  Y  Y3  1  0.748897  0.251103  0.749053  1
  Y  Y4  1  0.251103  0.251103  0.749053  1
  Y  Y5  1  0.250819  0.749181  0.250980  1
  Y  Y6  1  0.251103  0.748897  0.749053  1
  Y  Y7  1  0.749181  0.250819  0.250980  1
  Al  Al8  1  0.000000  0.000000  0.000182  1
  Pd  Pd9  1  0.500000  0.500000  0.745560  1
  Pt  Pt10  1  0.262436  0.500000  0.000566  1
  Pt  Pt11  1  0.737564  0.500000  0.000566  1
  Pt  Pt12  1  0.000000  0.262369  0.500213  1
  Pt  Pt13  1  0.500000  0.262436  0.000566  1
  Pt  Pt14  1  0.000000  0.737631  0.500213  1
  Pt  Pt15  1  0.500000  0.737564  0.000566  1
  Pt  Pt16  1  0.500000  0.000000  0.262291  1
  Pt  Pt17  1  0.262369  0.000000  0.500213  1
  Pt  Pt18  1  0.500000  0.000000  0.737449  1
  Pt  Pt19  1  0.737631  0.000000  0.500213  1
  Pt  Pt20  1  0.000000  0.500000  0.262291  1
  Pt  Pt21  1  0.000000  0.500000  0.737449  1
  Pt  Pt22  1  0.253772  0.500000  0.499448  1
  Pt  Pt23  1  0.746228  0.500000  0.499448  1
  Pt  Pt24  1  0.500000  0.253772  0.499448  1
  Pt  Pt25  1  0.500000  0.746228  0.499448  1
  Pt  Pt26  1  0.500000  0.500000  0.254282  1
  Pt  Pt27  1  0.295888  0.000000  0.999738  1
  Pt  Pt28  1  0.704112  0.000000  0.999738  1
  Pt  Pt29  1  0.000000  0.295888  0.999738  1
  Pt  Pt30  1  0.000000  0.704112  0.999738  1
  Pt  Pt31  1  0.000000  0.000000  0.294421  1
  Pt  Pt32  1  0.000000  0.000000  0.706080  1
