# generated using pymatgen
data_K2CaNd(SbAu)4
_symmetry_space_group_name_H-M   'P 1'
_cell_length_a   4.66638500
_cell_length_b   4.66638392
_cell_length_c   19.17335700
_cell_angle_alpha   90.00000000
_cell_angle_beta   90.00000000
_cell_angle_gamma   120.00000054
_symmetry_Int_Tables_number   1
_chemical_formula_structural   K2CaNd(SbAu)4
_chemical_formula_sum   'K2 Ca1 Nd1 Sb4 Au4'
_cell_volume   361.56786325
_cell_formula_units_Z   1
loop_
 _symmetry_equiv_pos_site_id
 _symmetry_equiv_pos_as_xyz
  1  'x, y, z'
loop_
 _atom_site_type_symbol
 _atom_site_label
 _atom_site_symmetry_multiplicity
 _atom_site_fract_x
 _atom_site_fract_y
 _atom_site_fract_z
 _atom_site_occupancy
  K  K0  1  0.000000  0.000000  0.249260  1
  K  K1  1  0.000000  0.000000  0.750740  1
  Ca  Ca2  1  0.000000  0.000000  0.500000  1
  Nd  Nd3  1  0.000000  0.000000  0.000000  1
  Sb  Sb4  1  0.333333  0.666667  0.381769  1
  Sb  Sb5  1  0.666667  0.333333  0.618231  1
  Sb  Sb6  1  0.666667  0.333333  0.889714  1
  Sb  Sb7  1  0.333333  0.666667  0.110286  1
  Au  Au8  1  0.666667  0.333333  0.401895  1
  Au  Au9  1  0.333333  0.666667  0.598105  1
  Au  Au10  1  0.333333  0.666667  0.904082  1
  Au  Au11  1  0.666667  0.333333  0.095918  1
