# generated using pymatgen
data_DyHo3(InGa2)2
_symmetry_space_group_name_H-M   'P 1'
_cell_length_a   7.20576448
_cell_length_b   7.20576448
_cell_length_c   4.42909600
_cell_angle_alpha   90.00000000
_cell_angle_beta   90.00000000
_cell_angle_gamma   89.92664055
_symmetry_Int_Tables_number   1
_chemical_formula_structural   DyHo3(InGa2)2
_chemical_formula_sum   'Dy1 Ho3 In2 Ga4'
_cell_volume   229.97194777
_cell_formula_units_Z   1
loop_
 _symmetry_equiv_pos_site_id
 _symmetry_equiv_pos_as_xyz
  1  'x, y, z'
loop_
 _atom_site_type_symbol
 _atom_site_label
 _atom_site_symmetry_multiplicity
 _atom_site_fract_x
 _atom_site_fract_y
 _atom_site_fract_z
 _atom_site_occupancy
  Dy  Dy0  1  0.327667  0.827667  0.500000  1
  Ho  Ho1  1  0.827643  0.672242  0.500000  1
  Ho  Ho2  1  0.172242  0.327643  0.500000  1
  Ho  Ho3  1  0.672465  0.172465  0.500000  1
  In  In4  1  0.999937  0.000056  0.000000  1
  In  In5  1  0.500056  0.499937  0.000000  1
  Ga  Ga6  1  0.125803  0.625803  0.000000  1
  Ga  Ga7  1  0.626203  0.874026  0.000000  1
  Ga  Ga8  1  0.374026  0.126203  0.000000  1
  Ga  Ga9  1  0.873958  0.373958  0.000000  1
