# generated using pymatgen
data_SrLa5PrFeBr12
_symmetry_space_group_name_H-M   'P 1'
_cell_length_a   9.82127300
_cell_length_b   9.84522045
_cell_length_c   9.40729459
_cell_angle_alpha   106.13061859
_cell_angle_beta   105.95773891
_cell_angle_gamma   106.76513256
_symmetry_Int_Tables_number   1
_chemical_formula_structural   SrLa5PrFeBr12
_chemical_formula_sum   'Sr1 La5 Pr1 Fe1 Br12'
_cell_volume   771.81205155
_cell_formula_units_Z   1
loop_
 _symmetry_equiv_pos_site_id
 _symmetry_equiv_pos_as_xyz
  1  'x, y, z'
loop_
 _atom_site_type_symbol
 _atom_site_label
 _atom_site_symmetry_multiplicity
 _atom_site_fract_x
 _atom_site_fract_y
 _atom_site_fract_z
 _atom_site_occupancy
  Sr  Sr0  1  0.499745  0.500156  0.499516  1
  La  La1  1  0.316806  0.021025  0.109122  1
  La  La2  1  0.019394  0.094738  0.282599  1
  La  La3  1  0.980835  0.906290  0.717465  1
  La  La4  1  0.683402  0.979688  0.890825  1
  La  La5  1  0.891474  0.680990  0.983442  1
  Pr  Pr6  1  0.107463  0.313300  0.016791  1
  Fe  Fe7  1  0.000002  0.000384  0.000078  1
  Br  Br8  1  0.214817  0.682215  0.071547  1
  Br  Br9  1  0.448130  0.364539  0.146223  1
  Br  Br10  1  0.682067  0.072270  0.219862  1
  Br  Br11  1  0.931612  0.786706  0.326411  1
  Br  Br12  1  0.156215  0.447655  0.365559  1
  Br  Br13  1  0.368857  0.159338  0.456572  1
  Br  Br14  1  0.631325  0.841233  0.543610  1
  Br  Br15  1  0.843266  0.552031  0.631600  1
  Br  Br16  1  0.069282  0.215308  0.676851  1
  Br  Br17  1  0.318150  0.928174  0.780194  1
  Br  Br18  1  0.550059  0.636025  0.852853  1
  Br  Br19  1  0.787100  0.317938  0.928883  1
