# generated using pymatgen
data_TbHo7SiPd24
_symmetry_space_group_name_H-M   'P 1'
_cell_length_a   8.32721401
_cell_length_b   8.32721401
_cell_length_c   8.32721401
_cell_angle_alpha   90.00341270
_cell_angle_beta   90.00341270
_cell_angle_gamma   90.00341270
_symmetry_Int_Tables_number   1
_chemical_formula_structural   TbHo7SiPd24
_chemical_formula_sum   'Tb1 Ho7 Si1 Pd24'
_cell_volume   577.42977698
_cell_formula_units_Z   1
loop_
 _symmetry_equiv_pos_site_id
 _symmetry_equiv_pos_as_xyz
  1  'x, y, z'
loop_
 _atom_site_type_symbol
 _atom_site_label
 _atom_site_symmetry_multiplicity
 _atom_site_fract_x
 _atom_site_fract_y
 _atom_site_fract_z
 _atom_site_occupancy
  Tb  Tb0  1  0.253729  0.253729  0.253729  1
  Ho  Ho1  1  0.746225  0.746225  0.746225  1
  Ho  Ho2  1  0.746214  0.746214  0.253777  1
  Ho  Ho3  1  0.746214  0.253777  0.746214  1
  Ho  Ho4  1  0.253750  0.253750  0.746287  1
  Ho  Ho5  1  0.253750  0.746287  0.253750  1
  Ho  Ho6  1  0.253777  0.746214  0.746214  1
  Ho  Ho7  1  0.746287  0.253750  0.253750  1
  Si  Si8  1  0.000026  0.000026  0.000026  1
  Pd  Pd9  1  0.257146  0.500539  0.999406  1
  Pd  Pd10  1  0.742855  0.500029  0.999949  1
  Pd  Pd11  1  0.999406  0.257146  0.500539  1
  Pd  Pd12  1  0.500539  0.257146  0.999406  1
  Pd  Pd13  1  0.999949  0.742855  0.500029  1
  Pd  Pd14  1  0.500029  0.742855  0.999949  1
  Pd  Pd15  1  0.500539  0.999406  0.257146  1
  Pd  Pd16  1  0.257146  0.999406  0.500539  1
  Pd  Pd17  1  0.500029  0.999949  0.742855  1
  Pd  Pd18  1  0.742855  0.999949  0.500029  1
  Pd  Pd19  1  0.999406  0.500539  0.257146  1
  Pd  Pd20  1  0.999949  0.500029  0.742855  1
  Pd  Pd21  1  0.252368  0.500610  0.500610  1
  Pd  Pd22  1  0.747631  0.500041  0.500041  1
  Pd  Pd23  1  0.500610  0.252368  0.500610  1
  Pd  Pd24  1  0.500041  0.747631  0.500041  1
  Pd  Pd25  1  0.500610  0.500610  0.252368  1
  Pd  Pd26  1  0.500041  0.500041  0.747631  1
  Pd  Pd27  1  0.280415  0.999409  0.999409  1
  Pd  Pd28  1  0.719715  0.999965  0.999965  1
  Pd  Pd29  1  0.999409  0.280415  0.999409  1
  Pd  Pd30  1  0.999965  0.719715  0.999965  1
  Pd  Pd31  1  0.999409  0.999409  0.280415  1
  Pd  Pd32  1  0.999965  0.999965  0.719715  1
