# generated using pymatgen
data_LiHo2Er(Co4P3)2
_symmetry_space_group_name_H-M   'P 1'
_cell_length_a   3.70308300
_cell_length_b   10.55031800
_cell_length_c   12.14970200
_cell_angle_alpha   90.00000000
_cell_angle_beta   90.00000000
_cell_angle_gamma   90.00000000
_symmetry_Int_Tables_number   1
_chemical_formula_structural   LiHo2Er(Co4P3)2
_chemical_formula_sum   'Li2 Ho4 Er2 Co16 P12'
_cell_volume   474.67310178
_cell_formula_units_Z   2
loop_
 _symmetry_equiv_pos_site_id
 _symmetry_equiv_pos_as_xyz
  1  'x, y, z'
loop_
 _atom_site_type_symbol
 _atom_site_label
 _atom_site_symmetry_multiplicity
 _atom_site_fract_x
 _atom_site_fract_y
 _atom_site_fract_z
 _atom_site_occupancy
  Li  Li0  1  0.250000  0.250000  0.847108  1
  Li  Li1  1  0.750000  0.750000  0.153425  1
  Ho  Ho2  1  0.750000  0.250000  0.476755  1
  Ho  Ho3  1  0.250000  0.750000  0.522931  1
  Ho  Ho4  1  0.250000  0.930063  0.793842  1
  Ho  Ho5  1  0.250000  0.569937  0.793842  1
  Er  Er6  1  0.750000  0.070198  0.206275  1
  Er  Er7  1  0.750000  0.429802  0.206275  1
  Co  Co8  1  0.250000  0.250000  0.295343  1
  Co  Co9  1  0.750000  0.750000  0.704174  1
  Co  Co10  1  0.750000  0.250000  0.012862  1
  Co  Co11  1  0.250000  0.750000  0.987870  1
  Co  Co12  1  0.250000  0.417090  0.003160  1
  Co  Co13  1  0.250000  0.082910  0.003160  1
  Co  Co14  1  0.750000  0.582569  0.997400  1
  Co  Co15  1  0.750000  0.917431  0.997400  1
  Co  Co16  1  0.250000  0.453179  0.568768  1
  Co  Co17  1  0.250000  0.046821  0.568768  1
  Co  Co18  1  0.750000  0.546657  0.430651  1
  Co  Co19  1  0.750000  0.953343  0.430651  1
  Co  Co20  1  0.250000  0.871460  0.293315  1
  Co  Co21  1  0.250000  0.628540  0.293315  1
  Co  Co22  1  0.750000  0.128745  0.706350  1
  Co  Co23  1  0.750000  0.371255  0.706350  1
  P  P24  1  0.250000  0.250000  0.115122  1
  P  P25  1  0.750000  0.750000  0.885486  1
  P  P26  1  0.250000  0.250000  0.653621  1
  P  P27  1  0.750000  0.750000  0.346158  1
  P  P28  1  0.250000  0.439787  0.383526  1
  P  P29  1  0.250000  0.060213  0.383526  1
  P  P30  1  0.750000  0.560004  0.615841  1
  P  P31  1  0.750000  0.939996  0.615841  1
  P  P32  1  0.250000  0.907247  0.107450  1
  P  P33  1  0.250000  0.592753  0.107450  1
  P  P34  1  0.750000  0.093182  0.892995  1
  P  P35  1  0.750000  0.406818  0.892995  1
