# generated using pymatgen
data_Tm5P12Ir(Ru4Rh5)2
_symmetry_space_group_name_H-M   'P 1'
_cell_length_a   12.61972364
_cell_length_b   12.58841840
_cell_length_c   3.92956600
_cell_angle_alpha   90.00000000
_cell_angle_beta   90.00000000
_cell_angle_gamma   120.13851600
_symmetry_Int_Tables_number   1
_chemical_formula_structural   Tm5P12Ir(Ru4Rh5)2
_chemical_formula_sum   'Tm5 P12 Ir1 Ru8 Rh10'
_cell_volume   539.86896174
_cell_formula_units_Z   1
loop_
 _symmetry_equiv_pos_site_id
 _symmetry_equiv_pos_as_xyz
  1  'x, y, z'
loop_
 _atom_site_type_symbol
 _atom_site_label
 _atom_site_symmetry_multiplicity
 _atom_site_fract_x
 _atom_site_fract_y
 _atom_site_fract_z
 _atom_site_occupancy
  Tm  Tm0  1  0.335276  0.667524  0.500000  1
  Tm  Tm1  1  0.665632  0.332607  0.500000  1
  Tm  Tm2  1  0.184023  0.183759  0.000000  1
  Tm  Tm3  1  0.815514  0.000399  0.000000  1
  Tm  Tm4  1  0.999608  0.815900  0.000000  1
  P  P5  1  0.315991  0.831917  0.000000  1
  P  P6  1  0.173454  0.481583  0.000000  1
  P  P7  1  0.516880  0.687444  0.000000  1
  P  P8  1  0.828533  0.312910  0.000000  1
  P  P9  1  0.483511  0.171466  0.000000  1
  P  P10  1  0.688142  0.515586  0.000000  1
  P  P11  1  0.367408  0.367018  0.500000  1
  P  P12  1  0.632573  0.000685  0.500000  1
  P  P13  1  0.995726  0.632571  0.500000  1
  P  P14  1  0.817694  0.818432  0.500000  1
  P  P15  1  0.181083  0.998949  0.500000  1
  P  P16  1  0.998947  0.181931  0.500000  1
  Ir  Ir17  1  0.999871  0.000322  0.500000  1
  Ru  Ru18  1  0.360781  0.487656  0.000000  1
  Ru  Ru19  1  0.512783  0.872174  0.000000  1
  Ru  Ru20  1  0.638903  0.127962  0.000000  1
  Ru  Ru21  1  0.488941  0.360680  0.000000  1
  Ru  Ru22  1  0.874378  0.513981  0.000000  1
  Ru  Ru23  1  0.715009  0.715032  0.000000  1
  Ru  Ru24  1  0.283850  0.999187  0.000000  1
  Ru  Ru25  1  0.999619  0.285157  0.000000  1
  Rh  Rh26  1  0.190091  0.815209  0.500000  1
  Rh  Rh27  1  0.182263  0.374697  0.500000  1
  Rh  Rh28  1  0.626573  0.808980  0.500000  1
  Rh  Rh29  1  0.817438  0.192947  0.500000  1
  Rh  Rh30  1  0.373812  0.181693  0.500000  1
  Rh  Rh31  1  0.805057  0.624096  0.500000  1
  Rh  Rh32  1  0.132108  0.639028  0.000000  1
  Rh  Rh33  1  0.548436  0.550417  0.500000  1
  Rh  Rh34  1  0.449041  0.997319  0.500000  1
  Rh  Rh35  1  0.001050  0.452782  0.500000  1
