# generated using pymatgen
data_CsLa(Ni9As5)2
_symmetry_space_group_name_H-M   'P 1'
_cell_length_a   6.75613705
_cell_length_b   6.75290524
_cell_length_c   11.29506711
_cell_angle_alpha   90.01351326
_cell_angle_beta   89.98582379
_cell_angle_gamma   120.01558207
_symmetry_Int_Tables_number   1
_chemical_formula_structural   CsLa(Ni9As5)2
_chemical_formula_sum   'Cs1 La1 Ni18 As10'
_cell_volume   446.21105335
_cell_formula_units_Z   1
loop_
 _symmetry_equiv_pos_site_id
 _symmetry_equiv_pos_as_xyz
  1  'x, y, z'
loop_
 _atom_site_type_symbol
 _atom_site_label
 _atom_site_symmetry_multiplicity
 _atom_site_fract_x
 _atom_site_fract_y
 _atom_site_fract_z
 _atom_site_occupancy
  Cs  Cs0  1  0.000000  0.000000  0.000000  1
  La  La1  1  0.000000  0.000000  0.500000  1
  Ni  Ni2  1  0.464330  0.928820  0.891200  1
  Ni  Ni3  1  0.929192  0.464644  0.108701  1
  Ni  Ni4  1  0.535670  0.071180  0.108800  1
  Ni  Ni5  1  0.073350  0.536595  0.604163  1
  Ni  Ni6  1  0.208902  0.417990  0.254267  1
  Ni  Ni7  1  0.791245  0.208952  0.745710  1
  Ni  Ni8  1  0.418064  0.209029  0.745751  1
  Ni  Ni9  1  0.581936  0.790971  0.254249  1
  Ni  Ni10  1  0.208755  0.791048  0.254290  1
  Ni  Ni11  1  0.791098  0.582010  0.745733  1
  Ni  Ni12  1  0.463471  0.926800  0.604288  1
  Ni  Ni13  1  0.536573  0.463462  0.395789  1
  Ni  Ni14  1  0.926650  0.463405  0.395837  1
  Ni  Ni15  1  0.070808  0.535356  0.891299  1
  Ni  Ni16  1  0.464327  0.535418  0.891148  1
  Ni  Ni17  1  0.536529  0.073200  0.395712  1
  Ni  Ni18  1  0.535673  0.464582  0.108852  1
  Ni  Ni19  1  0.463427  0.536538  0.604211  1
  As  As20  1  0.172207  0.344126  0.746574  1
  As  As21  1  0.827884  0.172153  0.253380  1
  As  As22  1  0.172116  0.827847  0.746620  1
  As  As23  1  0.827793  0.655874  0.253426  1
  As  As24  1  0.333182  0.666546  0.438205  1
  As  As25  1  0.666634  0.333409  0.939417  1
  As  As26  1  0.666818  0.333454  0.561795  1
  As  As27  1  0.333366  0.666591  0.060583  1
  As  As28  1  0.344088  0.172193  0.253436  1
  As  As29  1  0.655912  0.827807  0.746564  1
