# generated using pymatgen
data_Ho2P7(Rh3W)3
_symmetry_space_group_name_H-M   'P 1'
_cell_length_a   3.94068368
_cell_length_b   9.52136746
_cell_length_c   9.52029074
_cell_angle_alpha   119.99995658
_cell_angle_beta   90.00305808
_cell_angle_gamma   89.99656984
_symmetry_Int_Tables_number   1
_chemical_formula_structural   Ho2P7(Rh3W)3
_chemical_formula_sum   'Ho2 P7 Rh9 W3'
_cell_volume   309.35129136
_cell_formula_units_Z   1
loop_
 _symmetry_equiv_pos_site_id
 _symmetry_equiv_pos_as_xyz
  1  'x, y, z'
loop_
 _atom_site_type_symbol
 _atom_site_label
 _atom_site_symmetry_multiplicity
 _atom_site_fract_x
 _atom_site_fract_y
 _atom_site_fract_z
 _atom_site_occupancy
  Ho  Ho0  1  0.261362  0.666625  0.333271  1
  Ho  Ho1  1  0.762191  0.333356  0.666701  1
  P  P2  1  0.262283  0.999999  0.999951  1
  P  P3  1  0.761726  0.880957  0.592008  1
  P  P4  1  0.761731  0.407978  0.288937  1
  P  P5  1  0.761699  0.711055  0.118994  1
  P  P6  1  0.262013  0.118656  0.412526  1
  P  P7  1  0.262024  0.587520  0.706190  1
  P  P8  1  0.262010  0.293862  0.881380  1
  Rh  Rh9  1  0.261856  0.885758  0.159509  1
  Rh  Rh10  1  0.261839  0.840437  0.726116  1
  Rh  Rh11  1  0.261849  0.273873  0.114362  1
  Rh  Rh12  1  0.761929  0.613563  0.558897  1
  Rh  Rh13  1  0.761904  0.440988  0.054555  1
  Rh  Rh14  1  0.761917  0.945337  0.386410  1
  Rh  Rh15  1  0.261930  0.370688  0.439460  1
  Rh  Rh16  1  0.261873  0.560643  0.931310  1
  Rh  Rh17  1  0.261905  0.068738  0.629360  1
  W  W18  1  0.761991  0.090883  0.869997  1
  W  W19  1  0.761997  0.130071  0.221050  1
  W  W20  1  0.761970  0.779012  0.909018  1
