# generated using pymatgen
data_Y2Ho2TmIr2
_symmetry_space_group_name_H-M   'P 1'
_cell_length_a   6.43935069
_cell_length_b   7.20698916
_cell_length_c   8.50157933
_cell_angle_alpha   96.74043824
_cell_angle_beta   112.25410376
_cell_angle_gamma   90.00000619
_symmetry_Int_Tables_number   1
_chemical_formula_structural   Y2Ho2TmIr2
_chemical_formula_sum   'Y4 Ho4 Tm2 Ir4'
_cell_volume   362.20758315
_cell_formula_units_Z   2
loop_
 _symmetry_equiv_pos_site_id
 _symmetry_equiv_pos_as_xyz
  1  'x, y, z'
loop_
 _atom_site_type_symbol
 _atom_site_label
 _atom_site_symmetry_multiplicity
 _atom_site_fract_x
 _atom_site_fract_y
 _atom_site_fract_z
 _atom_site_occupancy
  Y  Y0  1  0.971374  0.919909  0.185635  1
  Y  Y1  1  0.785737  0.580091  0.814365  1
  Y  Y2  1  0.028626  0.080091  0.814365  1
  Y  Y3  1  0.214263  0.419909  0.185635  1
  Ho  Ho4  1  0.650519  0.816847  0.440371  1
  Ho  Ho5  1  0.210147  0.683153  0.559629  1
  Ho  Ho6  1  0.349481  0.183153  0.559629  1
  Ho  Ho7  1  0.789853  0.316847  0.440371  1
  Tm  Tm8  1  0.428293  0.750000  0.000000  1
  Tm  Tm9  1  0.571707  0.250000  0.000000  1
  Ir  Ir10  1  0.819295  0.573334  0.220036  1
  Ir  Ir11  1  0.599259  0.926666  0.779964  1
  Ir  Ir12  1  0.180706  0.426666  0.779964  1
  Ir  Ir13  1  0.400741  0.073334  0.220036  1
