# generated using pymatgen
data_Tb16MgIn2AgIr4
_symmetry_space_group_name_H-M   'P 1'
_cell_length_a   9.68157614
_cell_length_b   9.68171697
_cell_length_c   9.68171688
_cell_angle_alpha   60.04335116
_cell_angle_beta   60.08468571
_cell_angle_gamma   60.08468220
_symmetry_Int_Tables_number   1
_chemical_formula_structural   Tb16MgIn2AgIr4
_chemical_formula_sum   'Tb16 Mg1 In2 Ag1 Ir4'
_cell_volume   642.73653530
_cell_formula_units_Z   1
loop_
 _symmetry_equiv_pos_site_id
 _symmetry_equiv_pos_as_xyz
  1  'x, y, z'
loop_
 _atom_site_type_symbol
 _atom_site_label
 _atom_site_symmetry_multiplicity
 _atom_site_fract_x
 _atom_site_fract_y
 _atom_site_fract_z
 _atom_site_occupancy
  Tb  Tb0  1  0.098953  0.703795  0.099357  1
  Tb  Tb1  1  0.941371  0.938850  0.559841  1
  Tb  Tb2  1  0.941371  0.559841  0.938850  1
  Tb  Tb3  1  0.311502  0.685327  0.310443  1
  Tb  Tb4  1  0.938036  0.561927  0.561927  1
  Tb  Tb5  1  0.311502  0.310443  0.685327  1
  Tb  Tb6  1  0.099566  0.098491  0.098491  1
  Tb  Tb7  1  0.558789  0.558853  0.939723  1
  Tb  Tb8  1  0.098953  0.099357  0.703795  1
  Tb  Tb9  1  0.687146  0.310608  0.689167  1
  Tb  Tb10  1  0.687146  0.689167  0.310608  1
  Tb  Tb11  1  0.685703  0.310712  0.310712  1
  Tb  Tb12  1  0.310434  0.689108  0.689108  1
  Tb  Tb13  1  0.558789  0.939723  0.558853  1
  Tb  Tb14  1  0.700962  0.099679  0.099679  1
  Tb  Tb15  1  0.557789  0.942139  0.942139  1
  Mg  Mg16  1  0.019102  0.327881  0.327881  1
  In  In17  1  0.332220  0.004679  0.332824  1
  In  In18  1  0.332220  0.332824  0.004679  1
  Ag  Ag19  1  0.331043  0.333918  0.333918  1
  Ir  Ir20  1  0.890917  0.892361  0.892361  1
  Ir  Ir21  1  0.890321  0.892762  0.325829  1
  Ir  Ir22  1  0.325843  0.891725  0.891725  1
  Ir  Ir23  1  0.890321  0.325829  0.892762  1
