# generated using pymatgen
data_Ti4Co16Si7W2
_symmetry_space_group_name_H-M   'P 1'
_cell_length_a   7.84222225
_cell_length_b   7.85086931
_cell_length_c   7.84222216
_cell_angle_alpha   59.96351610
_cell_angle_beta   60.04399061
_cell_angle_gamma   59.96352329
_symmetry_Int_Tables_number   1
_chemical_formula_structural   Ti4Co16Si7W2
_chemical_formula_sum   'Ti4 Co16 Si7 W2'
_cell_volume   341.33856989
_cell_formula_units_Z   1
loop_
 _symmetry_equiv_pos_site_id
 _symmetry_equiv_pos_as_xyz
  1  'x, y, z'
loop_
 _atom_site_type_symbol
 _atom_site_label
 _atom_site_symmetry_multiplicity
 _atom_site_fract_x
 _atom_site_fract_y
 _atom_site_fract_z
 _atom_site_occupancy
  Ti  Ti0  1  0.796487  0.202850  0.203513  1
  Ti  Ti1  1  0.203513  0.202850  0.796487  1
  Ti  Ti2  1  0.799186  0.200393  0.799186  1
  Ti  Ti3  1  0.200814  0.798764  0.200814  1
  Co  Co4  1  0.619663  0.620498  0.143635  1
  Co  Co5  1  0.165253  0.504239  0.165253  1
  Co  Co6  1  0.856365  0.383796  0.380337  1
  Co  Co7  1  0.495184  0.834451  0.834816  1
  Co  Co8  1  0.504816  0.164450  0.165184  1
  Co  Co9  1  0.834816  0.834451  0.495184  1
  Co  Co10  1  0.165184  0.164450  0.504816  1
  Co  Co11  1  0.143635  0.620498  0.619663  1
  Co  Co12  1  0.165554  0.165146  0.165554  1
  Co  Co13  1  0.380337  0.383796  0.856365  1
  Co  Co14  1  0.616710  0.620332  0.616710  1
  Co  Co15  1  0.383290  0.853752  0.383290  1
  Co  Co16  1  0.380161  0.380497  0.380161  1
  Co  Co17  1  0.834747  0.834746  0.834747  1
  Co  Co18  1  0.619839  0.140819  0.619839  1
  Co  Co19  1  0.834446  0.496255  0.834446  1
  Si  Si20  1  0.500000  0.000371  0.500000  1
  Si  Si21  1  0.501037  0.498897  0.000295  1
  Si  Si22  1  0.500000  0.495508  0.500000  1
  Si  Si23  1  0.999705  0.000229  0.498963  1
  Si  Si24  1  0.000000  0.497680  0.000000  1
  Si  Si25  1  0.000295  0.498897  0.501037  1
  Si  Si26  1  0.498963  0.000229  0.999705  1
  W  W27  1  0.198582  0.800579  0.801418  1
  W  W28  1  0.801418  0.800579  0.198582  1
