# generated using pymatgen
data_Tb6Al24PdRu5Pt2
_symmetry_space_group_name_H-M   'P 1'
_cell_length_a   8.84964913
_cell_length_b   8.82772139
_cell_length_c   9.55803341
_cell_angle_alpha   90.04549418
_cell_angle_beta   90.02302044
_cell_angle_gamma   119.51511494
_symmetry_Int_Tables_number   1
_chemical_formula_structural   Tb6Al24PdRu5Pt2
_chemical_formula_sum   'Tb6 Al24 Pd1 Ru5 Pt2'
_cell_volume   649.79270734
_cell_formula_units_Z   1
loop_
 _symmetry_equiv_pos_site_id
 _symmetry_equiv_pos_as_xyz
  1  'x, y, z'
loop_
 _atom_site_type_symbol
 _atom_site_label
 _atom_site_symmetry_multiplicity
 _atom_site_fract_x
 _atom_site_fract_y
 _atom_site_fract_z
 _atom_site_occupancy
  Tb  Tb0  1  0.383526  0.189261  0.249917  1
  Tb  Tb1  1  0.808015  0.193303  0.250110  1
  Tb  Tb2  1  0.811480  0.615166  0.248485  1
  Tb  Tb3  1  0.616474  0.810739  0.750083  1
  Tb  Tb4  1  0.191985  0.806697  0.749890  1
  Tb  Tb5  1  0.188520  0.384834  0.751515  1
  Al  Al6  1  0.437332  0.874591  0.246606  1
  Al  Al7  1  0.122509  0.560516  0.250292  1
  Al  Al8  1  0.435649  0.563216  0.249994  1
  Al  Al9  1  0.562668  0.125409  0.753394  1
  Al  Al10  1  0.877491  0.439484  0.749708  1
  Al  Al11  1  0.564351  0.436784  0.750006  1
  Al  Al12  1  0.158087  0.831895  0.421119  1
  Al  Al13  1  0.158224  0.325098  0.423400  1
  Al  Al14  1  0.676430  0.837242  0.422627  1
  Al  Al15  1  0.841913  0.168105  0.578881  1
  Al  Al16  1  0.841776  0.674902  0.576600  1
  Al  Al17  1  0.323570  0.162758  0.577373  1
  Al  Al18  1  0.835826  0.163545  0.922879  1
  Al  Al19  1  0.841951  0.674392  0.923166  1
  Al  Al20  1  0.324523  0.157217  0.924057  1
  Al  Al21  1  0.164174  0.836455  0.077121  1
  Al  Al22  1  0.158049  0.325608  0.076834  1
  Al  Al23  1  0.675477  0.842783  0.075943  1
  Al  Al24  1  0.327415  0.663887  0.527037  1
  Al  Al25  1  0.672585  0.336113  0.472963  1
  Al  Al26  1  0.670081  0.330085  0.026095  1
  Al  Al27  1  0.329919  0.669915  0.973905  1
  Al  Al28  1  0.003372  0.999200  0.249983  1
  Al  Al29  1  0.996628  0.000800  0.750017  1
  Pd  Pd30  1  0.500000  0.500000  0.000000  1
  Ru  Ru31  1  0.000000  0.000000  0.500000  1
  Ru  Ru32  1  0.000000  0.000000  0.000000  1
  Ru  Ru33  1  0.000000  0.500000  0.500000  1
  Ru  Ru34  1  0.500000  0.000000  0.000000  1
  Ru  Ru35  1  0.000000  0.500000  0.000000  1
  Pt  Pt36  1  0.500000  0.000000  0.500000  1
  Pt  Pt37  1  0.500000  0.500000  0.500000  1
