# generated using pymatgen
data_LiTm4Bi3C
_symmetry_space_group_name_H-M   'P 1'
_cell_length_a   8.90007200
_cell_length_b   8.90007111
_cell_length_c   6.39637500
_cell_angle_alpha   90.00000000
_cell_angle_beta   90.00000000
_cell_angle_gamma   119.99999587
_symmetry_Int_Tables_number   1
_chemical_formula_structural   LiTm4Bi3C
_chemical_formula_sum   'Li2 Tm8 Bi6 C2'
_cell_volume   438.78478889
_cell_formula_units_Z   2
loop_
 _symmetry_equiv_pos_site_id
 _symmetry_equiv_pos_as_xyz
  1  'x, y, z'
loop_
 _atom_site_type_symbol
 _atom_site_label
 _atom_site_symmetry_multiplicity
 _atom_site_fract_x
 _atom_site_fract_y
 _atom_site_fract_z
 _atom_site_occupancy
  Li  Li0  1  0.666667  0.333333  0.000000  1
  Li  Li1  1  0.333333  0.666667  0.000000  1
  Tm  Tm2  1  0.333333  0.666667  0.500000  1
  Tm  Tm3  1  0.666667  0.333333  0.500000  1
  Tm  Tm4  1  0.790882  0.790882  0.750641  1
  Tm  Tm5  1  0.209118  0.000000  0.750641  1
  Tm  Tm6  1  0.000000  0.209118  0.750641  1
  Tm  Tm7  1  0.209118  0.209118  0.249359  1
  Tm  Tm8  1  0.790882  0.000000  0.249359  1
  Tm  Tm9  1  0.000000  0.790882  0.249359  1
  Bi  Bi10  1  0.405328  0.405328  0.758962  1
  Bi  Bi11  1  0.594672  0.000000  0.758962  1
  Bi  Bi12  1  0.000000  0.594672  0.758962  1
  Bi  Bi13  1  0.594672  0.594672  0.241038  1
  Bi  Bi14  1  0.405328  0.000000  0.241038  1
  Bi  Bi15  1  0.000000  0.405328  0.241038  1
  C  C16  1  0.000000  0.000000  0.000000  1
  C  C17  1  0.000000  0.000000  0.500000  1
