# generated using pymatgen
data_Ho12In2Si3Os
_symmetry_space_group_name_H-M   'P 1'
_cell_length_a   8.50455921
_cell_length_b   8.50456023
_cell_length_c   8.50456077
_cell_angle_alpha   113.14482165
_cell_angle_beta   112.13687147
_cell_angle_gamma   103.30431861
_symmetry_Int_Tables_number   1
_chemical_formula_structural   Ho12In2Si3Os
_chemical_formula_sum   'Ho12 In2 Si3 Os1'
_cell_volume   469.42035544
_cell_formula_units_Z   1
loop_
 _symmetry_equiv_pos_site_id
 _symmetry_equiv_pos_as_xyz
  1  'x, y, z'
loop_
 _atom_site_type_symbol
 _atom_site_label
 _atom_site_symmetry_multiplicity
 _atom_site_fract_x
 _atom_site_fract_y
 _atom_site_fract_z
 _atom_site_occupancy
  Ho  Ho0  1  0.315685  0.621605  0.305919  1
  Ho  Ho1  1  0.677686  0.380814  0.703129  1
  Ho  Ho2  1  0.315685  0.009765  0.694081  1
  Ho  Ho3  1  0.677686  0.974557  0.296871  1
  Ho  Ho4  1  0.185876  0.290870  0.471455  1
  Ho  Ho5  1  0.819414  0.714420  0.528545  1
  Ho  Ho6  1  0.185876  0.714420  0.895006  1
  Ho  Ho7  1  0.819414  0.290870  0.104994  1
  Ho  Ho8  1  0.447444  0.242694  0.204752  1
  Ho  Ho9  1  0.547754  0.759324  0.788429  1
  Ho  Ho10  1  0.037942  0.242694  0.795248  1
  Ho  Ho11  1  0.970895  0.759324  0.211571  1
  In  In12  1  0.501780  0.501780  0.000000  1
  In  In13  1  0.994240  0.994240  0.000000  1
  Si  Si14  1  0.875108  0.375108  0.500000  1
  Si  Si15  1  0.361795  0.004662  0.357134  1
  Si  Si16  1  0.647528  0.004662  0.642866  1
  Os  Os17  1  0.118191  0.618191  0.500000  1
