# generated using pymatgen
data_NdNi2(PRu)3
_symmetry_space_group_name_H-M   'P 1'
_cell_length_a   3.83672200
_cell_length_b   10.78888900
_cell_length_c   12.20202500
_cell_angle_alpha   90.00000000
_cell_angle_beta   90.00000000
_cell_angle_gamma   90.00000000
_symmetry_Int_Tables_number   1
_chemical_formula_structural   NdNi2(PRu)3
_chemical_formula_sum   'Nd4 Ni8 P12 Ru12'
_cell_volume   505.09022972
_cell_formula_units_Z   4
loop_
 _symmetry_equiv_pos_site_id
 _symmetry_equiv_pos_as_xyz
  1  'x, y, z'
loop_
 _atom_site_type_symbol
 _atom_site_label
 _atom_site_symmetry_multiplicity
 _atom_site_fract_x
 _atom_site_fract_y
 _atom_site_fract_z
 _atom_site_occupancy
  Nd  Nd0  1  0.250000  0.589107  0.707124  1
  Nd  Nd1  1  0.250000  0.910893  0.207124  1
  Nd  Nd2  1  0.750000  0.410893  0.292876  1
  Nd  Nd3  1  0.750000  0.089107  0.792876  1
  Ni  Ni4  1  0.250000  0.891521  0.696807  1
  Ni  Ni5  1  0.250000  0.608479  0.196807  1
  Ni  Ni6  1  0.750000  0.108479  0.303193  1
  Ni  Ni7  1  0.750000  0.391521  0.803193  1
  Ni  Ni8  1  0.250000  0.463084  0.931095  1
  Ni  Ni9  1  0.250000  0.036916  0.431095  1
  Ni  Ni10  1  0.750000  0.536916  0.068905  1
  Ni  Ni11  1  0.750000  0.963084  0.568905  1
  P  P12  1  0.250000  0.417149  0.107610  1
  P  P13  1  0.250000  0.082851  0.607610  1
  P  P14  1  0.750000  0.582851  0.892390  1
  P  P15  1  0.750000  0.917149  0.392390  1
  P  P16  1  0.250000  0.272742  0.875900  1
  P  P17  1  0.250000  0.227258  0.375900  1
  P  P18  1  0.750000  0.727258  0.124100  1
  P  P19  1  0.750000  0.772742  0.624100  1
  P  P20  1  0.250000  0.603070  0.390461  1
  P  P21  1  0.250000  0.896930  0.890461  1
  P  P22  1  0.750000  0.396930  0.609539  1
  P  P23  1  0.750000  0.103070  0.109539  1
  Ru  Ru24  1  0.250000  0.708415  0.986106  1
  Ru  Ru25  1  0.250000  0.791585  0.486106  1
  Ru  Ru26  1  0.750000  0.291585  0.013894  1
  Ru  Ru27  1  0.750000  0.208415  0.513894  1
  Ru  Ru28  1  0.250000  0.405789  0.487859  1
  Ru  Ru29  1  0.250000  0.094211  0.987859  1
  Ru  Ru30  1  0.750000  0.594211  0.512141  1
  Ru  Ru31  1  0.750000  0.905789  0.012141  1
  Ru  Ru32  1  0.250000  0.219349  0.181970  1
  Ru  Ru33  1  0.250000  0.280651  0.681970  1
  Ru  Ru34  1  0.750000  0.780651  0.818030  1
  Ru  Ru35  1  0.750000  0.719349  0.318030  1
