# generated using pymatgen
data_U4Si4Ru2PtRh
_symmetry_space_group_name_H-M   'P 1'
_cell_length_a   3.85125100
_cell_length_b   7.11691994
_cell_length_c   7.44876600
_cell_angle_alpha   90.40162359
_cell_angle_beta   90.00000000
_cell_angle_gamma   90.00000000
_symmetry_Int_Tables_number   1
_chemical_formula_structural   U4Si4Ru2PtRh
_chemical_formula_sum   'U4 Si4 Ru2 Pt1 Rh1'
_cell_volume   204.15854713
_cell_formula_units_Z   1
loop_
 _symmetry_equiv_pos_site_id
 _symmetry_equiv_pos_as_xyz
  1  'x, y, z'
loop_
 _atom_site_type_symbol
 _atom_site_label
 _atom_site_symmetry_multiplicity
 _atom_site_fract_x
 _atom_site_fract_y
 _atom_site_fract_z
 _atom_site_occupancy
  U  U0  1  0.750000  0.633665  0.499569  1
  U  U1  1  0.250000  0.363587  0.502208  1
  U  U2  1  0.750000  0.870110  0.996257  1
  U  U3  1  0.250000  0.135138  0.996981  1
  Si  Si4  1  0.750000  0.129747  0.697948  1
  Si  Si5  1  0.250000  0.880211  0.300171  1
  Si  Si6  1  0.750000  0.363612  0.200506  1
  Si  Si7  1  0.250000  0.624648  0.798573  1
  Ru  Ru8  1  0.750000  0.430093  0.871627  1
  Ru  Ru9  1  0.750000  0.069287  0.370190  1
  Pt  Pt10  1  0.250000  0.571106  0.135013  1
  Rh  Rh11  1  0.250000  0.928797  0.630956  1
