# generated using pymatgen
data_Pa6Al8ReMo3
_symmetry_space_group_name_H-M   'P 1'
_cell_length_a   9.69435200
_cell_length_b   9.51328324
_cell_length_c   8.50377900
_cell_angle_alpha   90.00000000
_cell_angle_beta   90.00000000
_cell_angle_gamma   119.21705612
_symmetry_Int_Tables_number   1
_chemical_formula_structural   Pa6Al8ReMo3
_chemical_formula_sum   'Pa12 Al16 Re2 Mo6'
_cell_volume   684.48569377
_cell_formula_units_Z   2
loop_
 _symmetry_equiv_pos_site_id
 _symmetry_equiv_pos_as_xyz
  1  'x, y, z'
loop_
 _atom_site_type_symbol
 _atom_site_label
 _atom_site_symmetry_multiplicity
 _atom_site_fract_x
 _atom_site_fract_y
 _atom_site_fract_z
 _atom_site_occupancy
  Pa  Pa0  1  0.338332  0.021358  0.069048  1
  Pa  Pa1  1  0.661668  0.978642  0.930952  1
  Pa  Pa2  1  0.005069  0.336980  0.063753  1
  Pa  Pa3  1  0.661668  0.978642  0.569048  1
  Pa  Pa4  1  0.005069  0.336980  0.436247  1
  Pa  Pa5  1  0.994931  0.663020  0.936247  1
  Pa  Pa6  1  0.338332  0.021358  0.430952  1
  Pa  Pa7  1  0.994931  0.663020  0.563753  1
  Pa  Pa8  1  0.669353  0.678280  0.071837  1
  Pa  Pa9  1  0.330647  0.321720  0.928163  1
  Pa  Pa10  1  0.330647  0.321720  0.571837  1
  Pa  Pa11  1  0.669353  0.678280  0.428163  1
  Al  Al12  1  0.328958  0.831863  0.750000  1
  Al  Al13  1  0.663189  0.500680  0.750000  1
  Al  Al14  1  0.671042  0.168137  0.250000  1
  Al  Al15  1  0.336811  0.499320  0.250000  1
  Al  Al16  1  0.826461  0.320748  0.750000  1
  Al  Al17  1  0.173539  0.679252  0.250000  1
  Al  Al18  1  0.332657  0.662907  0.501759  1
  Al  Al19  1  0.667343  0.337093  0.498241  1
  Al  Al20  1  0.667343  0.337093  0.001759  1
  Al  Al21  1  0.332657  0.662907  0.998241  1
  Al  Al22  1  0.163140  0.995176  0.750000  1
  Al  Al23  1  0.836860  0.004824  0.250000  1
  Al  Al24  1  0.998930  0.163779  0.750000  1
  Al  Al25  1  0.001070  0.836221  0.250000  1
  Al  Al26  1  0.835050  0.830796  0.750000  1
  Al  Al27  1  0.164950  0.169204  0.250000  1
  Re  Re28  1  0.000000  0.000000  0.500000  1
  Re  Re29  1  0.000000  0.000000  0.000000  1
  Mo  Mo30  1  0.146698  0.495549  0.750000  1
  Mo  Mo31  1  0.853302  0.504451  0.250000  1
  Mo  Mo32  1  0.507538  0.664615  0.750000  1
  Mo  Mo33  1  0.492531  0.151703  0.750000  1
  Mo  Mo34  1  0.492462  0.335385  0.250000  1
  Mo  Mo35  1  0.507469  0.848297  0.250000  1
