# generated using pymatgen
data_Zr7Sc(TcIr)4
_symmetry_space_group_name_H-M   'P 1'
_cell_length_a   6.55710300
_cell_length_b   4.66330900
_cell_length_c   9.31800900
_cell_angle_alpha   90.00000000
_cell_angle_beta   90.00159452
_cell_angle_gamma   90.00000000
_symmetry_Int_Tables_number   1
_chemical_formula_structural   Zr7Sc(TcIr)4
_chemical_formula_sum   'Zr7 Sc1 Tc4 Ir4'
_cell_volume   284.92419163
_cell_formula_units_Z   1
loop_
 _symmetry_equiv_pos_site_id
 _symmetry_equiv_pos_as_xyz
  1  'x, y, z'
loop_
 _atom_site_type_symbol
 _atom_site_label
 _atom_site_symmetry_multiplicity
 _atom_site_fract_x
 _atom_site_fract_y
 _atom_site_fract_z
 _atom_site_occupancy
  Zr  Zr0  1  0.000286  0.749999  0.125022  1
  Zr  Zr1  1  0.500238  0.250000  0.371898  1
  Zr  Zr2  1  0.999872  0.250000  0.373720  1
  Zr  Zr3  1  0.999960  0.749999  0.625019  1
  Zr  Zr4  1  0.499195  0.749999  0.625018  1
  Zr  Zr5  1  0.999867  0.250000  0.876268  1
  Zr  Zr6  1  0.500244  0.250000  0.878083  1
  Sc  Sc7  1  0.500245  0.749999  0.124985  1
  Tc  Tc8  1  0.752058  0.250000  0.124997  1
  Tc  Tc9  1  0.249186  0.749999  0.376344  1
  Tc  Tc10  1  0.749470  0.250000  0.624997  1
  Tc  Tc11  1  0.249193  0.749999  0.873649  1
  Ir  Ir12  1  0.250858  0.250000  0.124993  1
  Ir  Ir13  1  0.749394  0.749999  0.375203  1
  Ir  Ir14  1  0.250535  0.250000  0.624993  1
  Ir  Ir15  1  0.749400  0.749999  0.874812  1
