# generated using pymatgen
data_Tb20OsRh11
_symmetry_space_group_name_H-M   'P 1'
_cell_length_a   10.93551400
_cell_length_b   10.93551400
_cell_length_c   6.41305700
_cell_angle_alpha   90.00000000
_cell_angle_beta   90.00000000
_cell_angle_gamma   90.00000000
_symmetry_Int_Tables_number   1
_chemical_formula_structural   Tb20OsRh11
_chemical_formula_sum   'Tb20 Os1 Rh11'
_cell_volume   766.90841268
_cell_formula_units_Z   1
loop_
 _symmetry_equiv_pos_site_id
 _symmetry_equiv_pos_as_xyz
  1  'x, y, z'
loop_
 _atom_site_type_symbol
 _atom_site_label
 _atom_site_symmetry_multiplicity
 _atom_site_fract_x
 _atom_site_fract_y
 _atom_site_fract_z
 _atom_site_occupancy
  Tb  Tb0  1  0.292542  0.087589  0.375625  1
  Tb  Tb1  1  0.293023  0.912501  0.881653  1
  Tb  Tb2  1  0.706977  0.087499  0.881653  1
  Tb  Tb3  1  0.707458  0.912411  0.375625  1
  Tb  Tb4  1  0.587499  0.793023  0.881653  1
  Tb  Tb5  1  0.587589  0.207458  0.375625  1
  Tb  Tb6  1  0.412411  0.792542  0.375625  1
  Tb  Tb7  1  0.412501  0.206977  0.881653  1
  Tb  Tb8  1  0.209478  0.411073  0.621064  1
  Tb  Tb9  1  0.209346  0.588458  0.120663  1
  Tb  Tb10  1  0.790654  0.411542  0.120663  1
  Tb  Tb11  1  0.790522  0.588927  0.621064  1
  Tb  Tb12  1  0.911542  0.709346  0.120663  1
  Tb  Tb13  1  0.911073  0.290522  0.621064  1
  Tb  Tb14  1  0.088927  0.709478  0.621064  1
  Tb  Tb15  1  0.088458  0.290654  0.120663  1
  Tb  Tb16  1  0.000000  0.000000  0.499356  1
  Tb  Tb17  1  0.000000  0.000000  0.999127  1
  Tb  Tb18  1  0.500000  0.500000  0.999127  1
  Tb  Tb19  1  0.500000  0.500000  0.499356  1
  Os  Os20  1  0.500000  0.000000  0.125404  1
  Rh  Rh21  1  0.847708  0.154533  0.250551  1
  Rh  Rh22  1  0.847647  0.845946  0.750062  1
  Rh  Rh23  1  0.152353  0.154054  0.750062  1
  Rh  Rh24  1  0.152292  0.845467  0.250551  1
  Rh  Rh25  1  0.654054  0.347647  0.750062  1
  Rh  Rh26  1  0.654533  0.652292  0.250551  1
  Rh  Rh27  1  0.345467  0.347708  0.250551  1
  Rh  Rh28  1  0.345946  0.652353  0.750062  1
  Rh  Rh29  1  0.500000  0.000000  0.623099  1
  Rh  Rh30  1  0.000000  0.500000  0.877849  1
  Rh  Rh31  1  0.000000  0.500000  0.378215  1
