# generated using pymatgen
data_Dy10Y9Ho(CoBi2)4
_symmetry_space_group_name_H-M   'P 1'
_cell_length_a   8.00566804
_cell_length_b   8.86285609
_cell_length_c   12.43413508
_cell_angle_alpha   90.01156268
_cell_angle_beta   90.00319488
_cell_angle_gamma   89.98800389
_symmetry_Int_Tables_number   1
_chemical_formula_structural   Dy10Y9Ho(CoBi2)4
_chemical_formula_sum   'Dy10 Y9 Ho1 Co4 Bi8'
_cell_volume   882.24018944
_cell_formula_units_Z   1
loop_
 _symmetry_equiv_pos_site_id
 _symmetry_equiv_pos_as_xyz
  1  'x, y, z'
loop_
 _atom_site_type_symbol
 _atom_site_label
 _atom_site_symmetry_multiplicity
 _atom_site_fract_x
 _atom_site_fract_y
 _atom_site_fract_z
 _atom_site_occupancy
  Dy  Dy0  1  0.676274  0.536674  0.563425  1
  Dy  Dy1  1  0.323709  0.463021  0.436934  1
  Dy  Dy2  1  0.176352  0.462682  0.936998  1
  Dy  Dy3  1  0.323711  0.036967  0.436904  1
  Dy  Dy4  1  0.823535  0.537152  0.062882  1
  Dy  Dy5  1  0.676259  0.963318  0.563426  1
  Dy  Dy6  1  0.823846  0.962843  0.062815  1
  Dy  Dy7  1  0.949204  0.249984  0.501971  1
  Dy  Dy8  1  0.550660  0.249885  0.002131  1
  Dy  Dy9  1  0.448643  0.750153  0.997897  1
  Y  Y10  1  0.347175  0.750045  0.700489  1
  Y  Y11  1  0.652763  0.249986  0.299225  1
  Y  Y12  1  0.847366  0.249905  0.799785  1
  Y  Y13  1  0.152591  0.750055  0.200120  1
  Y  Y14  1  0.882888  0.750106  0.809189  1
  Y  Y15  1  0.117901  0.249801  0.190631  1
  Y  Y16  1  0.382286  0.250021  0.691026  1
  Y  Y17  1  0.617626  0.750010  0.309049  1
  Y  Y18  1  0.049258  0.750002  0.497980  1
  Ho  Ho19  1  0.175372  0.037282  0.937062  1
  Co  Co20  1  0.065181  0.750271  0.991153  1
  Co  Co21  1  0.935514  0.249681  0.008638  1
  Co  Co22  1  0.564734  0.250003  0.508555  1
  Co  Co23  1  0.437159  0.750000  0.491815  1
  Bi  Bi24  1  0.572100  0.508976  0.826556  1
  Bi  Bi25  1  0.427824  0.491144  0.173532  1
  Bi  Bi26  1  0.072213  0.491114  0.673537  1
  Bi  Bi27  1  0.427917  0.008877  0.173510  1
  Bi  Bi28  1  0.927972  0.508969  0.326210  1
  Bi  Bi29  1  0.571716  0.991095  0.826656  1
  Bi  Bi30  1  0.927956  0.991056  0.326237  1
  Bi  Bi31  1  0.072296  0.008922  0.673664  1
