# generated using pymatgen
data_LuMn2FeNi2P3
_symmetry_space_group_name_H-M   'P 1'
_cell_length_a   3.61869400
_cell_length_b   10.38300300
_cell_length_c   12.09853200
_cell_angle_alpha   90.00000000
_cell_angle_beta   90.00000000
_cell_angle_gamma   90.00000000
_symmetry_Int_Tables_number   1
_chemical_formula_structural   LuMn2FeNi2P3
_chemical_formula_sum   'Lu4 Mn8 Fe4 Ni8 P12'
_cell_volume   454.57706193
_cell_formula_units_Z   4
loop_
 _symmetry_equiv_pos_site_id
 _symmetry_equiv_pos_as_xyz
  1  'x, y, z'
loop_
 _atom_site_type_symbol
 _atom_site_label
 _atom_site_symmetry_multiplicity
 _atom_site_fract_x
 _atom_site_fract_y
 _atom_site_fract_z
 _atom_site_occupancy
  Lu  Lu0  1  0.250000  0.580648  0.709384  1
  Lu  Lu1  1  0.250000  0.919352  0.209384  1
  Lu  Lu2  1  0.750000  0.419352  0.290616  1
  Lu  Lu3  1  0.750000  0.080648  0.790616  1
  Mn  Mn4  1  0.250000  0.712045  0.994063  1
  Mn  Mn5  1  0.250000  0.787955  0.494063  1
  Mn  Mn6  1  0.750000  0.287955  0.005937  1
  Mn  Mn7  1  0.750000  0.212045  0.505937  1
  Mn  Mn8  1  0.250000  0.407999  0.492200  1
  Mn  Mn9  1  0.250000  0.092001  0.992200  1
  Mn  Mn10  1  0.750000  0.592001  0.507800  1
  Mn  Mn11  1  0.750000  0.907999  0.007800  1
  Fe  Fe12  1  0.250000  0.463028  0.932409  1
  Fe  Fe13  1  0.250000  0.036972  0.432409  1
  Fe  Fe14  1  0.750000  0.536972  0.067591  1
  Fe  Fe15  1  0.750000  0.963028  0.567591  1
  Ni  Ni16  1  0.250000  0.229001  0.180260  1
  Ni  Ni17  1  0.250000  0.270999  0.680260  1
  Ni  Ni18  1  0.750000  0.770999  0.819740  1
  Ni  Ni19  1  0.750000  0.729001  0.319740  1
  Ni  Ni20  1  0.250000  0.881982  0.702357  1
  Ni  Ni21  1  0.250000  0.618018  0.202357  1
  Ni  Ni22  1  0.750000  0.118018  0.297643  1
  Ni  Ni23  1  0.750000  0.381982  0.797643  1
  P  P24  1  0.250000  0.424994  0.111009  1
  P  P25  1  0.250000  0.075006  0.611009  1
  P  P26  1  0.750000  0.575006  0.888991  1
  P  P27  1  0.750000  0.924994  0.388991  1
  P  P28  1  0.250000  0.264789  0.869707  1
  P  P29  1  0.250000  0.235211  0.369707  1
  P  P30  1  0.750000  0.735211  0.130293  1
  P  P31  1  0.750000  0.764789  0.630293  1
  P  P32  1  0.250000  0.597082  0.387490  1
  P  P33  1  0.250000  0.902918  0.887490  1
  P  P34  1  0.750000  0.402918  0.612510  1
  P  P35  1  0.750000  0.097082  0.112510  1
