# generated using pymatgen
data_Na3Cd2InAu3
_symmetry_space_group_name_H-M   'P 1'
_cell_length_a   7.59635700
_cell_length_b   7.69828898
_cell_length_c   4.08538000
_cell_angle_alpha   90.00000000
_cell_angle_beta   90.00000000
_cell_angle_gamma   120.44488004
_symmetry_Int_Tables_number   1
_chemical_formula_structural   Na3Cd2InAu3
_chemical_formula_sum   'Na3 Cd2 In1 Au3'
_cell_volume   205.96729101
_cell_formula_units_Z   1
loop_
 _symmetry_equiv_pos_site_id
 _symmetry_equiv_pos_as_xyz
  1  'x, y, z'
loop_
 _atom_site_type_symbol
 _atom_site_label
 _atom_site_symmetry_multiplicity
 _atom_site_fract_x
 _atom_site_fract_y
 _atom_site_fract_z
 _atom_site_occupancy
  Na  Na0  1  0.407997  0.407684  0.500000  1
  Na  Na1  1  0.592003  0.999688  0.500000  1
  Na  Na2  1  0.000000  0.596687  0.500000  1
  Cd  Cd3  1  0.737870  0.734243  0.000000  1
  Cd  Cd4  1  0.262130  0.996371  0.000000  1
  In  In5  1  0.000000  0.262146  0.000000  1
  Au  Au6  1  0.669951  0.334374  0.000000  1
  Au  Au7  1  0.330049  0.664424  0.000000  1
  Au  Au8  1  0.000000  0.004382  0.500000  1
