# generated using pymatgen
data_Ce3Dy13(HgRu)4
_symmetry_space_group_name_H-M   'P 1'
_cell_length_a   9.61081506
_cell_length_b   9.61081602
_cell_length_c   9.58744842
_cell_angle_alpha   59.91934005
_cell_angle_beta   59.91933750
_cell_angle_gamma   59.99999459
_symmetry_Int_Tables_number   1
_chemical_formula_structural   Ce3Dy13(HgRu)4
_chemical_formula_sum   'Ce3 Dy13 Hg4 Ru4'
_cell_volume   625.42889583
_cell_formula_units_Z   1
loop_
 _symmetry_equiv_pos_site_id
 _symmetry_equiv_pos_as_xyz
  1  'x, y, z'
loop_
 _atom_site_type_symbol
 _atom_site_label
 _atom_site_symmetry_multiplicity
 _atom_site_fract_x
 _atom_site_fract_y
 _atom_site_fract_z
 _atom_site_occupancy
  Ce  Ce0  1  0.347118  0.962759  0.343007  1
  Ce  Ce1  1  0.962759  0.347118  0.343007  1
  Ce  Ce2  1  0.347118  0.347118  0.343007  1
  Dy  Dy3  1  0.562796  0.562796  0.937191  1
  Dy  Dy4  1  0.937216  0.562796  0.937191  1
  Dy  Dy5  1  0.562796  0.937216  0.937191  1
  Dy  Dy6  1  0.938090  0.938090  0.561532  1
  Dy  Dy7  1  0.562288  0.938090  0.561532  1
  Dy  Dy8  1  0.938090  0.562288  0.561532  1
  Dy  Dy9  1  0.188488  0.188488  0.812790  1
  Dy  Dy10  1  0.810234  0.188488  0.812790  1
  Dy  Dy11  1  0.188487  0.810235  0.812790  1
  Dy  Dy12  1  0.810191  0.810192  0.190367  1
  Dy  Dy13  1  0.189251  0.810191  0.190366  1
  Dy  Dy14  1  0.810191  0.189252  0.190367  1
  Dy  Dy15  1  0.352718  0.352718  0.941845  1
  Hg  Hg16  1  0.584102  0.584102  0.247694  1
  Hg  Hg17  1  0.584538  0.247122  0.583801  1
  Hg  Hg18  1  0.247122  0.584538  0.583801  1
  Hg  Hg19  1  0.584538  0.584538  0.583801  1
  Ru  Ru20  1  0.144391  0.144391  0.566828  1
  Ru  Ru21  1  0.139497  0.568483  0.152523  1
  Ru  Ru22  1  0.568483  0.139497  0.152523  1
  Ru  Ru23  1  0.139497  0.139497  0.152523  1
