# generated using pymatgen
data_RbNd2Br7
_symmetry_space_group_name_H-M   'P 1'
_cell_length_a   7.53537355
_cell_length_b   8.86822429
_cell_length_c   7.91901791
_cell_angle_alpha   70.32458126
_cell_angle_beta   61.87894419
_cell_angle_gamma   88.88808109
_symmetry_Int_Tables_number   1
_chemical_formula_structural   RbNd2Br7
_chemical_formula_sum   'Rb1 Nd2 Br7'
_cell_volume   433.24710414
_cell_formula_units_Z   1
loop_
 _symmetry_equiv_pos_site_id
 _symmetry_equiv_pos_as_xyz
  1  'x, y, z'
loop_
 _atom_site_type_symbol
 _atom_site_label
 _atom_site_symmetry_multiplicity
 _atom_site_fract_x
 _atom_site_fract_y
 _atom_site_fract_z
 _atom_site_occupancy
  Rb  Rb0  1  0.777758  0.623538  0.790954  1
  Nd  Nd1  1  0.613725  0.040903  0.166541  1
  Nd  Nd2  1  0.311166  0.045614  0.765600  1
  Br  Br3  1  0.908226  0.819342  0.071469  1
  Br  Br4  1  0.430946  0.287544  0.348534  1
  Br  Br5  1  0.737645  0.003366  0.487820  1
  Br  Br6  1  0.265533  0.831180  0.565868  1
  Br  Br7  1  0.404147  0.819989  0.071794  1
  Br  Br8  1  0.011514  0.264697  0.893020  1
  Br  Br9  1  0.539343  0.263827  0.838398  1
