# generated using pymatgen
data_Dy10CoIr3Au2
_symmetry_space_group_name_H-M   'P 1'
_cell_length_a   8.58142480
_cell_length_b   8.58142447
_cell_length_c   8.64160275
_cell_angle_alpha   127.55223638
_cell_angle_beta   127.55223498
_cell_angle_gamma   76.84905227
_symmetry_Int_Tables_number   1
_chemical_formula_structural   Dy10CoIr3Au2
_chemical_formula_sum   'Dy10 Co1 Ir3 Au2'
_cell_volume   389.34788384
_cell_formula_units_Z   1
loop_
 _symmetry_equiv_pos_site_id
 _symmetry_equiv_pos_as_xyz
  1  'x, y, z'
loop_
 _atom_site_type_symbol
 _atom_site_label
 _atom_site_symmetry_multiplicity
 _atom_site_fract_x
 _atom_site_fract_y
 _atom_site_fract_z
 _atom_site_occupancy
  Dy  Dy0  1  0.000701  0.000777  0.001479  1
  Dy  Dy1  1  0.499223  0.499299  0.998521  1
  Dy  Dy2  1  0.801712  0.303967  0.829963  1
  Dy  Dy3  1  0.196033  0.698288  0.170038  1
  Dy  Dy4  1  0.471750  0.974004  0.170038  1
  Dy  Dy5  1  0.305221  0.465306  0.500000  1
  Dy  Dy6  1  0.034694  0.194779  0.500000  1
  Dy  Dy7  1  0.525996  0.028250  0.829962  1
  Dy  Dy8  1  0.696927  0.529761  0.500000  1
  Dy  Dy9  1  0.970239  0.803073  0.500000  1
  Co  Co10  1  0.369234  0.130766  0.500000  1
  Ir  Ir11  1  0.136312  0.635302  0.771616  1
  Ir  Ir12  1  0.864698  0.363688  0.228384  1
  Ir  Ir13  1  0.627407  0.872593  0.500000  1
  Au  Au14  1  0.249927  0.250073  0.000000  1
  Au  Au15  1  0.749927  0.750073  0.000000  1
