# generated using pymatgen
data_HoEr(CoOs)2
_symmetry_space_group_name_H-M   'P 1'
_cell_length_a   5.23678736
_cell_length_b   5.22021892
_cell_length_c   5.22021781
_cell_angle_alpha   58.54991936
_cell_angle_beta   59.89494506
_cell_angle_gamma   59.89494317
_symmetry_Int_Tables_number   1
_chemical_formula_structural   HoEr(CoOs)2
_chemical_formula_sum   'Ho1 Er1 Co2 Os2'
_cell_volume   99.60108214
_cell_formula_units_Z   1
loop_
 _symmetry_equiv_pos_site_id
 _symmetry_equiv_pos_as_xyz
  1  'x, y, z'
loop_
 _atom_site_type_symbol
 _atom_site_label
 _atom_site_symmetry_multiplicity
 _atom_site_fract_x
 _atom_site_fract_y
 _atom_site_fract_z
 _atom_site_occupancy
  Ho  Ho0  1  0.252668  0.247332  0.247332  1
  Er  Er1  1  0.997456  0.002544  0.002544  1
  Co  Co2  1  0.124439  0.625084  0.625084  1
  Co  Co3  1  0.625393  0.625084  0.625084  1
  Os  Os4  1  0.625022  0.624496  0.125461  1
  Os  Os5  1  0.625022  0.125461  0.624496  1
