# generated using pymatgen
data_Pr6CoI10
_symmetry_space_group_name_H-M   'P 1'
_cell_length_a   8.02119287
_cell_length_b   9.93177087
_cell_length_c   10.08039641
_cell_angle_alpha   107.44771470
_cell_angle_beta   97.19297697
_cell_angle_gamma   104.78905838
_symmetry_Int_Tables_number   1
_chemical_formula_structural   Pr6CoI10
_chemical_formula_sum   'Pr6 Co1 I10'
_cell_volume   722.78899402
_cell_formula_units_Z   1
loop_
 _symmetry_equiv_pos_site_id
 _symmetry_equiv_pos_as_xyz
  1  'x, y, z'
loop_
 _atom_site_type_symbol
 _atom_site_label
 _atom_site_symmetry_multiplicity
 _atom_site_fract_x
 _atom_site_fract_y
 _atom_site_fract_z
 _atom_site_occupancy
  Pr  Pr0  1  0.884277  0.957860  0.242253  1
  Pr  Pr1  1  0.115723  0.042140  0.757747  1
  Pr  Pr2  1  0.031369  0.724256  0.918224  1
  Pr  Pr3  1  0.968631  0.275744  0.081776  1
  Pr  Pr4  1  0.648272  0.874287  0.832202  1
  Pr  Pr5  1  0.351728  0.125713  0.167798  1
  Co  Co6  1  0.000000  0.000000  0.000000  1
  I  I7  1  0.647634  0.545979  0.727094  1
  I  I8  1  0.352366  0.454021  0.272906  1
  I  I9  1  0.739278  0.911280  0.538473  1
  I  I10  1  0.260722  0.088720  0.461527  1
  I  I11  1  0.085520  0.371833  0.820696  1
  I  I12  1  0.914480  0.628167  0.179304  1
  I  I13  1  0.453280  0.813015  0.091068  1
  I  I14  1  0.546720  0.186985  0.908932  1
  I  I15  1  0.217192  0.739876  0.653038  1
  I  I16  1  0.782808  0.260124  0.346962  1
