# generated using pymatgen
data_Ca2URu2
_symmetry_space_group_name_H-M   'P 1'
_cell_length_a   6.19102094
_cell_length_b   6.19102333
_cell_length_c   6.19102301
_cell_angle_alpha   141.22158592
_cell_angle_beta   125.35235683
_cell_angle_gamma   69.01171003
_symmetry_Int_Tables_number   1
_chemical_formula_structural   Ca2URu2
_chemical_formula_sum   'Ca2 U1 Ru2'
_cell_volume   119.19482501
_cell_formula_units_Z   1
loop_
 _symmetry_equiv_pos_site_id
 _symmetry_equiv_pos_as_xyz
  1  'x, y, z'
loop_
 _atom_site_type_symbol
 _atom_site_label
 _atom_site_symmetry_multiplicity
 _atom_site_fract_x
 _atom_site_fract_y
 _atom_site_fract_z
 _atom_site_occupancy
  Ca  Ca0  1  0.704439  0.204440  0.500000  1
  Ca  Ca1  1  0.295560  0.795560  0.500000  1
  U  U2  1  0.000000  0.000000  0.000000  1
  Ru  Ru3  1  0.746939  0.500000  0.246939  1
  Ru  Ru4  1  0.253060  0.500000  0.753060  1
