# generated using pymatgen
data_Ho20Cd6CoRu
_symmetry_space_group_name_H-M   'P 1'
_cell_length_a   9.54924400
_cell_length_b   9.54924323
_cell_length_c   9.74383000
_cell_angle_alpha   90.00000000
_cell_angle_beta   90.00000000
_cell_angle_gamma   120.00000267
_symmetry_Int_Tables_number   1
_chemical_formula_structural   Ho20Cd6CoRu
_chemical_formula_sum   'Ho20 Cd6 Co1 Ru1'
_cell_volume   769.48164384
_cell_formula_units_Z   1
loop_
 _symmetry_equiv_pos_site_id
 _symmetry_equiv_pos_as_xyz
  1  'x, y, z'
loop_
 _atom_site_type_symbol
 _atom_site_label
 _atom_site_symmetry_multiplicity
 _atom_site_fract_x
 _atom_site_fract_y
 _atom_site_fract_z
 _atom_site_occupancy
  Ho  Ho0  1  0.000000  0.000000  0.499869  1
  Ho  Ho1  1  0.000000  0.000000  0.000131  1
  Ho  Ho2  1  0.211945  0.788055  0.436493  1
  Ho  Ho3  1  0.211945  0.423891  0.436493  1
  Ho  Ho4  1  0.576109  0.788055  0.436493  1
  Ho  Ho5  1  0.790949  0.209051  0.559461  1
  Ho  Ho6  1  0.790949  0.581898  0.559461  1
  Ho  Ho7  1  0.418102  0.209051  0.559461  1
  Ho  Ho8  1  0.790949  0.209051  0.940539  1
  Ho  Ho9  1  0.790949  0.581898  0.940539  1
  Ho  Ho10  1  0.418102  0.209051  0.940539  1
  Ho  Ho11  1  0.211945  0.788055  0.063507  1
  Ho  Ho12  1  0.211945  0.423891  0.063507  1
  Ho  Ho13  1  0.576109  0.788055  0.063507  1
  Ho  Ho14  1  0.541579  0.458421  0.250000  1
  Ho  Ho15  1  0.541579  0.083157  0.250000  1
  Ho  Ho16  1  0.916843  0.458421  0.250000  1
  Ho  Ho17  1  0.458306  0.541694  0.750000  1
  Ho  Ho18  1  0.458306  0.916613  0.750000  1
  Ho  Ho19  1  0.083387  0.541694  0.750000  1
  Cd  Cd20  1  0.885308  0.114692  0.250000  1
  Cd  Cd21  1  0.885308  0.770618  0.250000  1
  Cd  Cd22  1  0.229382  0.114692  0.250000  1
  Cd  Cd23  1  0.114679  0.885321  0.750000  1
  Cd  Cd24  1  0.114679  0.229359  0.750000  1
  Cd  Cd25  1  0.770641  0.885321  0.750000  1
  Co  Co26  1  0.333333  0.666667  0.250000  1
  Ru  Ru27  1  0.666667  0.333333  0.750000  1
