# generated using pymatgen
data_DyEr3Al15Ga2GeIr6
_symmetry_space_group_name_H-M   'P 1'
_cell_length_a   7.52419200
_cell_length_b   7.52300385
_cell_length_c   9.50388700
_cell_angle_alpha   90.00000000
_cell_angle_beta   90.00000000
_cell_angle_gamma   119.43868307
_symmetry_Int_Tables_number   1
_chemical_formula_structural   DyEr3Al15Ga2GeIr6
_chemical_formula_sum   'Dy1 Er3 Al15 Ga2 Ge1 Ir6'
_cell_volume   468.50240197
_cell_formula_units_Z   1
loop_
 _symmetry_equiv_pos_site_id
 _symmetry_equiv_pos_as_xyz
  1  'x, y, z'
loop_
 _atom_site_type_symbol
 _atom_site_label
 _atom_site_symmetry_multiplicity
 _atom_site_fract_x
 _atom_site_fract_y
 _atom_site_fract_z
 _atom_site_occupancy
  Dy  Dy0  1  0.329279  0.008270  0.250000  1
  Er  Er1  1  0.994381  0.675856  0.750000  1
  Er  Er2  1  0.002273  0.324799  0.250000  1
  Er  Er3  1  0.676394  0.996157  0.750000  1
  Al  Al4  1  0.000367  0.337580  0.573273  1
  Al  Al5  1  0.997927  0.664261  0.426680  1
  Al  Al6  1  0.997927  0.664261  0.073320  1
  Al  Al7  1  0.337517  0.999723  0.926396  1
  Al  Al8  1  0.000367  0.337580  0.926727  1
  Al  Al9  1  0.664163  0.996661  0.073332  1
  Al  Al10  1  0.664163  0.996661  0.426668  1
  Al  Al11  1  0.337517  0.999723  0.573604  1
  Al  Al12  1  0.333742  0.334360  0.055943  1
  Al  Al13  1  0.664862  0.664805  0.940884  1
  Al  Al14  1  0.664862  0.664805  0.559116  1
  Al  Al15  1  0.333742  0.334360  0.444057  1
  Al  Al16  1  0.336377  0.553755  0.750000  1
  Al  Al17  1  0.553149  0.336424  0.750000  1
  Al  Al18  1  0.449037  0.660095  0.250000  1
  Ga  Ga19  1  0.868039  0.867566  0.250000  1
  Ga  Ga20  1  0.661372  0.453865  0.250000  1
  Ge  Ge21  1  0.136488  0.137040  0.750000  1
  Ir  Ir22  1  0.670305  0.326541  0.502720  1
  Ir  Ir23  1  0.327741  0.669445  0.500381  1
  Ir  Ir24  1  0.327741  0.669445  0.999619  1
  Ir  Ir25  1  0.670305  0.326541  0.997280  1
  Ir  Ir26  1  0.999979  0.999710  0.503659  1
  Ir  Ir27  1  0.999979  0.999710  0.996341  1
