# generated using pymatgen
data_Ba3AgBiO6
_symmetry_space_group_name_H-M   'P 1'
_cell_length_a   7.38288668
_cell_length_b   7.38288633
_cell_length_c   7.38288694
_cell_angle_alpha   90.78891188
_cell_angle_beta   90.78891224
_cell_angle_gamma   90.78891390
_symmetry_Int_Tables_number   1
_chemical_formula_structural   Ba3AgBiO6
_chemical_formula_sum   'Ba6 Ag2 Bi2 O12'
_cell_volume   402.30361446
_cell_formula_units_Z   2
loop_
 _symmetry_equiv_pos_site_id
 _symmetry_equiv_pos_as_xyz
  1  'x, y, z'
loop_
 _atom_site_type_symbol
 _atom_site_label
 _atom_site_symmetry_multiplicity
 _atom_site_fract_x
 _atom_site_fract_y
 _atom_site_fract_z
 _atom_site_occupancy
  Ba  Ba0  1  0.250000  0.900563  0.599437  1
  Ba  Ba1  1  0.750000  0.099437  0.400563  1
  Ba  Ba2  1  0.900563  0.599437  0.250000  1
  Ba  Ba3  1  0.400563  0.750000  0.099437  1
  Ba  Ba4  1  0.099437  0.400563  0.750000  1
  Ba  Ba5  1  0.599437  0.250000  0.900563  1
  Ag  Ag6  1  0.750000  0.750000  0.750000  1
  Ag  Ag7  1  0.250000  0.250000  0.250000  1
  Bi  Bi8  1  0.000000  0.000000  0.000000  1
  Bi  Bi9  1  0.500000  0.500000  0.500000  1
  O  O10  1  0.722560  0.921932  0.058196  1
  O  O11  1  0.058196  0.722560  0.921932  1
  O  O12  1  0.078068  0.941804  0.277440  1
  O  O13  1  0.921932  0.058196  0.722560  1
  O  O14  1  0.441804  0.578068  0.777440  1
  O  O15  1  0.578068  0.777440  0.441804  1
  O  O16  1  0.277440  0.078068  0.941804  1
  O  O17  1  0.941804  0.277440  0.078068  1
  O  O18  1  0.222560  0.558196  0.421932  1
  O  O19  1  0.558196  0.421932  0.222560  1
  O  O20  1  0.421932  0.222560  0.558196  1
  O  O21  1  0.777440  0.441804  0.578068  1
