# generated using pymatgen
data_Pr9ErSi5Sn
_symmetry_space_group_name_H-M   'P 1'
_cell_length_a   7.79079802
_cell_length_b   7.79079870
_cell_length_c   9.20323172
_cell_angle_alpha   115.04085935
_cell_angle_beta   115.04085935
_cell_angle_gamma   89.99999854
_symmetry_Int_Tables_number   1
_chemical_formula_structural   Pr9ErSi5Sn
_chemical_formula_sum   'Pr9 Er1 Si5 Sn1'
_cell_volume   447.47461753
_cell_formula_units_Z   1
loop_
 _symmetry_equiv_pos_site_id
 _symmetry_equiv_pos_as_xyz
  1  'x, y, z'
loop_
 _atom_site_type_symbol
 _atom_site_label
 _atom_site_symmetry_multiplicity
 _atom_site_fract_x
 _atom_site_fract_y
 _atom_site_fract_z
 _atom_site_occupancy
  Pr  Pr0  1  0.972736  0.972736  0.945471  1
  Pr  Pr1  1  0.976550  0.829832  0.281809  1
  Pr  Pr2  1  0.305260  0.451977  0.281809  1
  Pr  Pr3  1  0.829832  0.305260  0.281809  1
  Pr  Pr4  1  0.451977  0.976550  0.281809  1
  Pr  Pr5  1  0.046768  0.195628  0.719478  1
  Pr  Pr6  1  0.672710  0.523851  0.719478  1
  Pr  Pr7  1  0.195628  0.672710  0.719478  1
  Pr  Pr8  1  0.523851  0.046768  0.719478  1
  Er  Er9  1  0.517369  0.517369  0.034740  1
  Si  Si10  1  0.255443  0.255443  0.510885  1
  Si  Si11  1  0.615600  0.881582  0.003721  1
  Si  Si12  1  0.388122  0.122139  0.003721  1
  Si  Si13  1  0.881582  0.388122  0.003721  1
  Si  Si14  1  0.122139  0.615600  0.003721  1
  Sn  Sn15  1  0.744434  0.744434  0.488868  1
