# generated using pymatgen
data_Dy8Ta9Ti2Si16Ru
_symmetry_space_group_name_H-M   'P 1'
_cell_length_a   7.02970472
_cell_length_b   7.02970407
_cell_length_c   12.93476085
_cell_angle_alpha   89.82868852
_cell_angle_beta   90.17131143
_cell_angle_gamma   89.68400621
_symmetry_Int_Tables_number   1
_chemical_formula_structural   Dy8Ta9Ti2Si16Ru
_chemical_formula_sum   'Dy8 Ta9 Ti2 Si16 Ru1'
_cell_volume   639.17829717
_cell_formula_units_Z   1
loop_
 _symmetry_equiv_pos_site_id
 _symmetry_equiv_pos_as_xyz
  1  'x, y, z'
loop_
 _atom_site_type_symbol
 _atom_site_label
 _atom_site_symmetry_multiplicity
 _atom_site_fract_x
 _atom_site_fract_y
 _atom_site_fract_z
 _atom_site_occupancy
  Dy  Dy0  1  0.997923  0.658111  0.031984  1
  Dy  Dy1  1  0.002389  0.342153  0.531203  1
  Dy  Dy2  1  0.658111  0.997923  0.968016  1
  Dy  Dy3  1  0.159200  0.504191  0.780941  1
  Dy  Dy4  1  0.840520  0.498578  0.283340  1
  Dy  Dy5  1  0.504191  0.159200  0.219059  1
  Dy  Dy6  1  0.498578  0.840520  0.716660  1
  Dy  Dy7  1  0.342153  0.002389  0.468797  1
  Ta  Ta8  1  0.342155  0.506853  0.374933  1
  Ta  Ta9  1  0.852038  0.997748  0.375490  1
  Ta  Ta10  1  0.007560  0.152183  0.125748  1
  Ta  Ta11  1  0.997748  0.852038  0.624510  1
  Ta  Ta12  1  0.506853  0.342155  0.625067  1
  Ta  Ta13  1  0.152183  0.007560  0.874252  1
  Ta  Ta14  1  0.827124  0.170194  0.747934  1
  Ta  Ta15  1  0.170194  0.827124  0.252066  1
  Ta  Ta16  1  0.326771  0.326771  0.000000  1
  Ti  Ti17  1  0.493636  0.651730  0.125885  1
  Ti  Ti18  1  0.651730  0.493636  0.874115  1
  Si  Si19  1  0.043276  0.708462  0.438381  1
  Si  Si20  1  0.952181  0.295431  0.934642  1
  Si  Si21  1  0.708462  0.043276  0.561619  1
  Si  Si22  1  0.206650  0.455201  0.184996  1
  Si  Si23  1  0.791137  0.550618  0.682445  1
  Si  Si24  1  0.455201  0.206650  0.815004  1
  Si  Si25  1  0.550618  0.791137  0.317555  1
  Si  Si26  1  0.295431  0.952181  0.065358  1
  Si  Si27  1  0.795866  0.864041  0.183489  1
  Si  Si28  1  0.299991  0.630934  0.566942  1
  Si  Si29  1  0.700775  0.368480  0.065908  1
  Si  Si30  1  0.630934  0.299991  0.433058  1
  Si  Si31  1  0.368480  0.700775  0.934092  1
  Si  Si32  1  0.133637  0.205209  0.317472  1
  Si  Si33  1  0.205209  0.133637  0.682528  1
  Si  Si34  1  0.864041  0.795866  0.816511  1
  Ru  Ru35  1  0.667056  0.667056  0.500000  1
