# generated using pymatgen
data_Tb3Er2Cd2(InPd)2
_symmetry_space_group_name_H-M   'P 1'
_cell_length_a   3.61853800
_cell_length_b   8.10914600
_cell_length_c   18.37622300
_cell_angle_alpha   90.00000000
_cell_angle_beta   90.00000000
_cell_angle_gamma   90.00000000
_symmetry_Int_Tables_number   1
_chemical_formula_structural   Tb3Er2Cd2(InPd)2
_chemical_formula_sum   'Tb6 Er4 Cd4 In4 Pd4'
_cell_volume   539.21815973
_cell_formula_units_Z   2
loop_
 _symmetry_equiv_pos_site_id
 _symmetry_equiv_pos_as_xyz
  1  'x, y, z'
loop_
 _atom_site_type_symbol
 _atom_site_label
 _atom_site_symmetry_multiplicity
 _atom_site_fract_x
 _atom_site_fract_y
 _atom_site_fract_z
 _atom_site_occupancy
  Tb  Tb0  1  0.000000  0.500000  0.500000  1
  Tb  Tb1  1  0.000000  0.000000  0.000000  1
  Tb  Tb2  1  0.000000  0.744848  0.280700  1
  Tb  Tb3  1  0.000000  0.255152  0.719300  1
  Tb  Tb4  1  0.000000  0.755152  0.780700  1
  Tb  Tb5  1  0.000000  0.244848  0.219300  1
  Er  Er6  1  0.000000  0.614034  0.083803  1
  Er  Er7  1  0.000000  0.385966  0.916197  1
  Er  Er8  1  0.000000  0.885966  0.583803  1
  Er  Er9  1  0.000000  0.114034  0.416197  1
  Cd  Cd10  1  0.500000  0.708274  0.932351  1
  Cd  Cd11  1  0.500000  0.291726  0.067649  1
  Cd  Cd12  1  0.500000  0.791726  0.432351  1
  Cd  Cd13  1  0.500000  0.208274  0.567649  1
  In  In14  1  0.500000  0.573144  0.647429  1
  In  In15  1  0.500000  0.426856  0.352571  1
  In  In16  1  0.500000  0.926856  0.147429  1
  In  In17  1  0.500000  0.073144  0.852571  1
  Pd  Pd18  1  0.500000  0.527378  0.195967  1
  Pd  Pd19  1  0.500000  0.472622  0.804033  1
  Pd  Pd20  1  0.500000  0.972622  0.695967  1
  Pd  Pd21  1  0.500000  0.027378  0.304033  1
