# generated using pymatgen
data_NdLu9(AlSb)3
_symmetry_space_group_name_H-M   'P 1'
_cell_length_a   8.64690600
_cell_length_b   8.67319892
_cell_length_c   6.31404200
_cell_angle_alpha   90.00000000
_cell_angle_beta   90.00000000
_cell_angle_gamma   119.68420847
_symmetry_Int_Tables_number   1
_chemical_formula_structural   NdLu9(AlSb)3
_chemical_formula_sum   'Nd1 Lu9 Al3 Sb3'
_cell_volume   411.38774068
_cell_formula_units_Z   1
loop_
 _symmetry_equiv_pos_site_id
 _symmetry_equiv_pos_as_xyz
  1  'x, y, z'
loop_
 _atom_site_type_symbol
 _atom_site_label
 _atom_site_symmetry_multiplicity
 _atom_site_fract_x
 _atom_site_fract_y
 _atom_site_fract_z
 _atom_site_occupancy
  Nd  Nd0  1  0.765003  0.766699  0.250000  1
  Lu  Lu1  1  0.332007  0.678952  0.002633  1
  Lu  Lu2  1  0.665982  0.324672  0.497378  1
  Lu  Lu3  1  0.665982  0.324672  0.002622  1
  Lu  Lu4  1  0.332007  0.678952  0.497367  1
  Lu  Lu5  1  0.235073  0.990038  0.250000  1
  Lu  Lu6  1  0.760126  0.004092  0.750000  1
  Lu  Lu7  1  0.987567  0.233985  0.250000  1
  Lu  Lu8  1  0.241007  0.229444  0.750000  1
  Lu  Lu9  1  0.016064  0.771546  0.750000  1
  Al  Al10  1  0.596315  0.002031  0.250000  1
  Al  Al11  1  0.405188  0.004636  0.750000  1
  Al  Al12  1  0.997758  0.596472  0.250000  1
  Sb  Sb13  1  0.385054  0.389205  0.250000  1
  Sb  Sb14  1  0.609332  0.607317  0.750000  1
  Sb  Sb15  1  0.005535  0.397287  0.750000  1
