# generated using pymatgen
data_Ac2In3SnRh2
_symmetry_space_group_name_H-M   'P 1'
_cell_length_a   5.91668060
_cell_length_b   5.91668163
_cell_length_c   8.06078600
_cell_angle_alpha   89.93682308
_cell_angle_beta   90.06316725
_cell_angle_gamma   135.60751933
_symmetry_Int_Tables_number   1
_chemical_formula_structural   Ac2In3SnRh2
_chemical_formula_sum   'Ac2 In3 Sn1 Rh2'
_cell_volume   197.40780494
_cell_formula_units_Z   1
loop_
 _symmetry_equiv_pos_site_id
 _symmetry_equiv_pos_as_xyz
  1  'x, y, z'
loop_
 _atom_site_type_symbol
 _atom_site_label
 _atom_site_symmetry_multiplicity
 _atom_site_fract_x
 _atom_site_fract_y
 _atom_site_fract_z
 _atom_site_occupancy
  Ac  Ac0  1  0.935122  0.064878  0.751071  1
  Ac  Ac1  1  0.065143  0.934857  0.252429  1
  In  In2  1  0.652056  0.347944  0.948699  1
  In  In3  1  0.347709  0.652291  0.050866  1
  In  In4  1  0.351286  0.648714  0.445617  1
  Sn  Sn5  1  0.650905  0.349095  0.552504  1
  Rh  Rh6  1  0.213706  0.786294  0.744540  1
  Rh  Rh7  1  0.784075  0.215925  0.254275  1
