# generated using pymatgen
data_YTm9(SnSb)3
_symmetry_space_group_name_H-M   'P 1'
_cell_length_a   6.32681100
_cell_length_b   8.87886800
_cell_length_c   8.86370400
_cell_angle_alpha   119.94484164
_cell_angle_beta   90.00000390
_cell_angle_gamma   90.00001104
_symmetry_Int_Tables_number   1
_chemical_formula_structural   YTm9(SnSb)3
_chemical_formula_sum   'Y1 Tm9 Sn3 Sb3'
_cell_volume   431.44898792
_cell_formula_units_Z   1
loop_
 _symmetry_equiv_pos_site_id
 _symmetry_equiv_pos_as_xyz
  1  'x, y, z'
loop_
 _atom_site_type_symbol
 _atom_site_label
 _atom_site_symmetry_multiplicity
 _atom_site_fract_x
 _atom_site_fract_y
 _atom_site_fract_z
 _atom_site_occupancy
  Y  Y0  1  0.249999  0.999996  0.759736  1
  Tm  Tm1  1  0.501476  0.332722  0.666417  1
  Tm  Tm2  1  0.501479  0.667279  0.333698  1
  Tm  Tm3  1  0.998521  0.667281  0.333698  1
  Tm  Tm4  1  0.998527  0.332722  0.666416  1
  Tm  Tm5  1  0.749999  0.240615  0.000620  1
  Tm  Tm6  1  0.749998  0.759407  0.760014  1
  Tm  Tm7  1  0.750002  0.000006  0.238901  1
  Tm  Tm8  1  0.250000  0.758590  0.999639  1
  Tm  Tm9  1  0.250001  0.241391  0.241035  1
  Sn  Sn10  1  0.749999  0.606057  0.999813  1
  Sn  Sn11  1  0.749998  0.393943  0.393786  1
  Sn  Sn12  1  0.750001  0.000000  0.606120  1
  Sb  Sb13  1  0.250000  0.394590  0.001729  1
  Sb  Sb14  1  0.250000  0.605404  0.607132  1
  Sb  Sb15  1  0.250001  0.999997  0.391245  1
