# generated using pymatgen
data_Pr10NdIn9Rh4
_symmetry_space_group_name_H-M   'P 1'
_cell_length_a   13.47655224
_cell_length_b   13.47623976
_cell_length_c   3.87311400
_cell_angle_alpha   90.00000000
_cell_angle_beta   90.00000000
_cell_angle_gamma   112.32008114
_symmetry_Int_Tables_number   1
_chemical_formula_structural   Pr10NdIn9Rh4
_chemical_formula_sum   'Pr10 Nd1 In9 Rh4'
_cell_volume   650.70708605
_cell_formula_units_Z   1
loop_
 _symmetry_equiv_pos_site_id
 _symmetry_equiv_pos_as_xyz
  1  'x, y, z'
loop_
 _atom_site_type_symbol
 _atom_site_label
 _atom_site_symmetry_multiplicity
 _atom_site_fract_x
 _atom_site_fract_y
 _atom_site_fract_z
 _atom_site_occupancy
  Pr  Pr0  1  0.078846  0.418954  0.000000  1
  Pr  Pr1  1  0.921063  0.581086  0.000000  1
  Pr  Pr2  1  0.418951  0.078837  0.000000  1
  Pr  Pr3  1  0.581086  0.921066  0.000000  1
  Pr  Pr4  1  0.626042  0.374080  0.000000  1
  Pr  Pr5  1  0.374078  0.626036  0.000000  1
  Pr  Pr6  1  0.839908  0.160109  0.000000  1
  Pr  Pr7  1  0.160111  0.839909  0.000000  1
  Pr  Pr8  1  0.999985  0.999985  0.000000  1
  Pr  Pr9  1  0.312718  0.312719  0.000000  1
  Nd  Nd10  1  0.687207  0.687207  0.000000  1
  In  In11  1  0.837627  0.365981  0.500000  1
  In  In12  1  0.162364  0.634037  0.500000  1
  In  In13  1  0.365975  0.837637  0.500000  1
  In  In14  1  0.634037  0.162362  0.500000  1
  In  In15  1  0.078418  0.219624  0.500000  1
  In  In16  1  0.921318  0.780263  0.500000  1
  In  In17  1  0.219621  0.078417  0.500000  1
  In  In18  1  0.780262  0.921316  0.500000  1
  In  In19  1  0.500230  0.500235  0.500000  1
  Rh  Rh20  1  0.247348  0.453243  0.500000  1
  Rh  Rh21  1  0.752501  0.547021  0.500000  1
  Rh  Rh22  1  0.453266  0.247368  0.500000  1
  Rh  Rh23  1  0.547038  0.752507  0.500000  1
