# generated using pymatgen
data_TaNb(SiRh)2
_symmetry_space_group_name_H-M   'P 1'
_cell_length_a   3.77282100
_cell_length_b   6.42922961
_cell_length_c   7.35321314
_cell_angle_alpha   90.12148184
_cell_angle_beta   90.00000000
_cell_angle_gamma   90.00000000
_symmetry_Int_Tables_number   1
_chemical_formula_structural   TaNb(SiRh)2
_chemical_formula_sum   'Ta2 Nb2 Si4 Rh4'
_cell_volume   178.36158174
_cell_formula_units_Z   2
loop_
 _symmetry_equiv_pos_site_id
 _symmetry_equiv_pos_as_xyz
  1  'x, y, z'
loop_
 _atom_site_type_symbol
 _atom_site_label
 _atom_site_symmetry_multiplicity
 _atom_site_fract_x
 _atom_site_fract_y
 _atom_site_fract_z
 _atom_site_occupancy
  Ta  Ta0  1  0.250000  0.025609  0.827013  1
  Ta  Ta1  1  0.750000  0.974391  0.172987  1
  Nb  Nb2  1  0.250000  0.526131  0.673423  1
  Nb  Nb3  1  0.750000  0.473869  0.326577  1
  Si  Si4  1  0.250000  0.267693  0.124447  1
  Si  Si5  1  0.750000  0.732307  0.875553  1
  Si  Si6  1  0.250000  0.767694  0.375517  1
  Si  Si7  1  0.750000  0.232306  0.624483  1
  Rh  Rh8  1  0.750000  0.856110  0.563655  1
  Rh  Rh9  1  0.250000  0.143890  0.436345  1
  Rh  Rh10  1  0.750000  0.353478  0.936931  1
  Rh  Rh11  1  0.250000  0.646522  0.063069  1
