# generated using pymatgen
data_Dy3Tm(Zn2Cd)4
_symmetry_space_group_name_H-M   'P 1'
_cell_length_a   4.39498900
_cell_length_b   7.17053602
_cell_length_c   10.09355300
_cell_angle_alpha   90.00444269
_cell_angle_beta   90.00000000
_cell_angle_gamma   90.00000000
_symmetry_Int_Tables_number   1
_chemical_formula_structural   Dy3Tm(Zn2Cd)4
_chemical_formula_sum   'Dy3 Tm1 Zn8 Cd4'
_cell_volume   318.09253762
_cell_formula_units_Z   1
loop_
 _symmetry_equiv_pos_site_id
 _symmetry_equiv_pos_as_xyz
  1  'x, y, z'
loop_
 _atom_site_type_symbol
 _atom_site_label
 _atom_site_symmetry_multiplicity
 _atom_site_fract_x
 _atom_site_fract_y
 _atom_site_fract_z
 _atom_site_occupancy
  Dy  Dy0  1  0.250000  0.802404  0.825866  1
  Dy  Dy1  1  0.750000  0.698404  0.325831  1
  Dy  Dy2  1  0.750000  0.197694  0.173496  1
  Tm  Tm3  1  0.250000  0.302328  0.674235  1
  Zn  Zn4  1  0.250000  0.916780  0.143017  1
  Zn  Zn5  1  0.250000  0.416539  0.357054  1
  Zn  Zn6  1  0.750000  0.084291  0.856154  1
  Zn  Zn7  1  0.750000  0.581728  0.643809  1
  Zn  Zn8  1  0.250000  0.191470  0.962359  1
  Zn  Zn9  1  0.250000  0.688547  0.536537  1
  Zn  Zn10  1  0.750000  0.809608  0.036339  1
  Zn  Zn11  1  0.750000  0.309445  0.464439  1
  Cd  Cd12  1  0.250000  0.534626  0.099087  1
  Cd  Cd13  1  0.250000  0.035189  0.401311  1
  Cd  Cd14  1  0.750000  0.465527  0.900858  1
  Cd  Cd15  1  0.750000  0.965422  0.599612  1
