# generated using pymatgen
data_CeDyTm8(Al2Ru3)2
_symmetry_space_group_name_H-M   'P 1'
_cell_length_a   8.32993989
_cell_length_b   8.33102644
_cell_length_c   8.22748887
_cell_angle_alpha   110.10439214
_cell_angle_beta   109.37843980
_cell_angle_gamma   109.47987442
_symmetry_Int_Tables_number   1
_chemical_formula_structural   CeDyTm8(Al2Ru3)2
_chemical_formula_sum   'Ce1 Dy1 Tm8 Al4 Ru6'
_cell_volume   436.50822468
_cell_formula_units_Z   1
loop_
 _symmetry_equiv_pos_site_id
 _symmetry_equiv_pos_as_xyz
  1  'x, y, z'
loop_
 _atom_site_type_symbol
 _atom_site_label
 _atom_site_symmetry_multiplicity
 _atom_site_fract_x
 _atom_site_fract_y
 _atom_site_fract_z
 _atom_site_occupancy
  Ce  Ce0  1  0.193438  0.941423  0.250612  1
  Dy  Dy1  1  0.930683  0.252308  0.182707  1
  Tm  Tm2  1  0.781486  0.787324  0.784269  1
  Tm  Tm3  1  0.320068  0.569877  0.751420  1
  Tm  Tm4  1  0.753314  0.321340  0.570701  1
  Tm  Tm5  1  0.570181  0.747646  0.317974  1
  Tm  Tm6  1  0.714332  0.500526  0.997456  1
  Tm  Tm7  1  0.002226  0.717351  0.504144  1
  Tm  Tm8  1  0.502506  0.995964  0.714739  1
  Tm  Tm9  1  0.251437  0.183847  0.929055  1
  Al  Al10  1  0.414756  0.415326  0.409859  1
  Al  Al11  1  0.091308  0.494854  0.001834  1
  Al  Al12  1  0.992792  0.087222  0.496370  1
  Al  Al13  1  0.504811  0.006064  0.090970  1
  Ru  Ru14  1  0.872882  0.122103  0.747585  1
  Ru  Ru15  1  0.738716  0.869430  0.117111  1
  Ru  Ru16  1  0.127612  0.760714  0.902848  1
  Ru  Ru17  1  0.252454  0.623089  0.382112  1
  Ru  Ru18  1  0.358460  0.225300  0.597403  1
  Ru  Ru19  1  0.626535  0.378293  0.250834  1
