# generated using pymatgen
data_AgBiRu2O7
_symmetry_space_group_name_H-M   'P 1'
_cell_length_a   7.20692377
_cell_length_b   7.26155168
_cell_length_c   7.26155196
_cell_angle_alpha   61.03266994
_cell_angle_beta   60.24854313
_cell_angle_gamma   60.24853979
_symmetry_Int_Tables_number   1
_chemical_formula_structural   AgBiRu2O7
_chemical_formula_sum   'Ag2 Bi2 Ru4 O14'
_cell_volume   271.77908509
_cell_formula_units_Z   2
loop_
 _symmetry_equiv_pos_site_id
 _symmetry_equiv_pos_as_xyz
  1  'x, y, z'
loop_
 _atom_site_type_symbol
 _atom_site_label
 _atom_site_symmetry_multiplicity
 _atom_site_fract_x
 _atom_site_fract_y
 _atom_site_fract_z
 _atom_site_occupancy
  Ag  Ag0  1  0.625000  0.125000  0.125000  1
  Ag  Ag1  1  0.125000  0.125000  0.125000  1
  Bi  Bi2  1  0.125000  0.125000  0.625000  1
  Bi  Bi3  1  0.125000  0.625000  0.125000  1
  Ru  Ru4  1  0.625000  0.625000  0.125000  1
  Ru  Ru5  1  0.625000  0.125000  0.625000  1
  Ru  Ru6  1  0.125000  0.625000  0.625000  1
  Ru  Ru7  1  0.625000  0.625000  0.625000  1
  O  O8  1  0.260467  0.239533  0.239533  1
  O  O9  1  0.989533  0.010467  0.010467  1
  O  O10  1  0.541233  0.944841  0.564255  1
  O  O11  1  0.300329  0.685745  0.305159  1
  O  O12  1  0.541233  0.564255  0.944841  1
  O  O13  1  0.956897  0.543103  0.543103  1
  O  O14  1  0.561363  0.938637  0.938637  1
  O  O15  1  0.949671  0.944841  0.564255  1
  O  O16  1  0.949671  0.564255  0.944841  1
  O  O17  1  0.688637  0.311363  0.311363  1
  O  O18  1  0.293103  0.706897  0.706897  1
  O  O19  1  0.708767  0.305159  0.685745  1
  O  O20  1  0.300329  0.305159  0.685745  1
  O  O21  1  0.708767  0.685745  0.305159  1
