# generated using pymatgen
data_Tb6Er5Lu5(CdIr)4
_symmetry_space_group_name_H-M   'P 1'
_cell_length_a   9.56834265
_cell_length_b   9.55753467
_cell_length_c   9.55753605
_cell_angle_alpha   59.97957395
_cell_angle_beta   59.96258857
_cell_angle_gamma   59.96258468
_symmetry_Int_Tables_number   1
_chemical_formula_structural   Tb6Er5Lu5(CdIr)4
_chemical_formula_sum   'Tb6 Er5 Lu5 Cd4 Ir4'
_cell_volume   617.59064797
_cell_formula_units_Z   1
loop_
 _symmetry_equiv_pos_site_id
 _symmetry_equiv_pos_as_xyz
  1  'x, y, z'
loop_
 _atom_site_type_symbol
 _atom_site_label
 _atom_site_symmetry_multiplicity
 _atom_site_fract_x
 _atom_site_fract_y
 _atom_site_fract_z
 _atom_site_occupancy
  Tb  Tb0  1  0.189234  0.810766  0.810766  1
  Tb  Tb1  1  0.810667  0.189333  0.189333  1
  Tb  Tb2  1  0.810495  0.189191  0.811006  1
  Tb  Tb3  1  0.189309  0.811006  0.189191  1
  Tb  Tb4  1  0.810495  0.811006  0.189191  1
  Tb  Tb5  1  0.189309  0.189191  0.811006  1
  Er  Er6  1  0.598162  0.598971  0.598971  1
  Er  Er7  1  0.598774  0.599336  0.203118  1
  Er  Er8  1  0.598774  0.203118  0.599336  1
  Er  Er9  1  0.203898  0.598971  0.598971  1
  Er  Er10  1  0.062325  0.437675  0.437675  1
  Lu  Lu11  1  0.437238  0.062762  0.062762  1
  Lu  Lu12  1  0.438013  0.061922  0.437067  1
  Lu  Lu13  1  0.062998  0.437067  0.061922  1
  Lu  Lu14  1  0.438013  0.437067  0.061922  1
  Lu  Lu15  1  0.062998  0.061922  0.437067  1
  Cd  Cd16  1  0.830314  0.830253  0.830253  1
  Cd  Cd17  1  0.830313  0.830486  0.508889  1
  Cd  Cd18  1  0.830313  0.508889  0.830486  1
  Cd  Cd19  1  0.509183  0.830253  0.830253  1
  Ir  Ir20  1  0.391651  0.391105  0.391105  1
  Ir  Ir21  1  0.390695  0.391517  0.827095  1
  Ir  Ir22  1  0.390695  0.827095  0.391517  1
  Ir  Ir23  1  0.826140  0.391105  0.391105  1
