# generated using pymatgen
data_Y5Ho3(TcC2)4
_symmetry_space_group_name_H-M   'P 1'
_cell_length_a   5.10025200
_cell_length_b   6.57207207
_cell_length_c   9.86819411
_cell_angle_alpha   90.01708738
_cell_angle_beta   90.00000000
_cell_angle_gamma   90.00000000
_symmetry_Int_Tables_number   1
_chemical_formula_structural   Y5Ho3(TcC2)4
_chemical_formula_sum   'Y5 Ho3 Tc4 C8'
_cell_volume   330.77419151
_cell_formula_units_Z   1
loop_
 _symmetry_equiv_pos_site_id
 _symmetry_equiv_pos_as_xyz
  1  'x, y, z'
loop_
 _atom_site_type_symbol
 _atom_site_label
 _atom_site_symmetry_multiplicity
 _atom_site_fract_x
 _atom_site_fract_y
 _atom_site_fract_z
 _atom_site_occupancy
  Y  Y0  1  0.250000  0.466802  0.783861  1
  Y  Y1  1  0.750000  0.033134  0.284083  1
  Y  Y2  1  0.250000  0.967001  0.715774  1
  Y  Y3  1  0.750000  0.533005  0.216061  1
  Y  Y4  1  0.250000  0.822478  0.057649  1
  Ho  Ho5  1  0.750000  0.676527  0.558207  1
  Ho  Ho6  1  0.250000  0.323403  0.441906  1
  Ho  Ho7  1  0.750000  0.176694  0.941718  1
  Tc  Tc8  1  0.250000  0.281436  0.133711  1
  Tc  Tc9  1  0.750000  0.218608  0.633587  1
  Tc  Tc10  1  0.250000  0.781399  0.366573  1
  Tc  Tc11  1  0.750000  0.718573  0.866143  1
  C  C12  1  0.250000  0.178463  0.951313  1
  C  C13  1  0.750000  0.822402  0.048250  1
  C  C14  1  0.250000  0.677453  0.548542  1
  C  C15  1  0.750000  0.322529  0.451543  1
  C  C16  1  0.250000  0.049567  0.258963  1
  C  C17  1  0.750000  0.451019  0.758355  1
  C  C18  1  0.250000  0.548431  0.242154  1
  C  C19  1  0.750000  0.951076  0.741605  1
