# generated using pymatgen
data_Ho8Ta10Ti2Si15Ge
_symmetry_space_group_name_H-M   'P 1'
_cell_length_a   7.04372047
_cell_length_b   7.02886680
_cell_length_c   12.95240955
_cell_angle_alpha   90.00697245
_cell_angle_beta   89.96842145
_cell_angle_gamma   89.95167853
_symmetry_Int_Tables_number   1
_chemical_formula_structural   Ho8Ta10Ti2Si15Ge
_chemical_formula_sum   'Ho8 Ta10 Ti2 Si15 Ge1'
_cell_volume   641.26534469
_cell_formula_units_Z   1
loop_
 _symmetry_equiv_pos_site_id
 _symmetry_equiv_pos_as_xyz
  1  'x, y, z'
loop_
 _atom_site_type_symbol
 _atom_site_label
 _atom_site_symmetry_multiplicity
 _atom_site_fract_x
 _atom_site_fract_y
 _atom_site_fract_z
 _atom_site_occupancy
  Ho  Ho0  1  0.342562  0.001825  0.466598  1
  Ho  Ho1  1  0.499387  0.841248  0.718371  1
  Ho  Ho2  1  0.501569  0.158200  0.217990  1
  Ho  Ho3  1  0.841775  0.498296  0.282271  1
  Ho  Ho4  1  0.158525  0.502265  0.782781  1
  Ho  Ho5  1  0.658642  0.997131  0.968318  1
  Ho  Ho6  1  0.000449  0.342481  0.530612  1
  Ho  Ho7  1  0.997794  0.659209  0.032278  1
  Ta  Ta8  1  0.329052  0.329310  0.999870  1
  Ta  Ta9  1  0.172916  0.826734  0.250015  1
  Ta  Ta10  1  0.824141  0.173980  0.750598  1
  Ta  Ta11  1  0.671021  0.670647  0.499725  1
  Ta  Ta12  1  0.153041  0.007553  0.875720  1
  Ta  Ta13  1  0.493007  0.651949  0.124464  1
  Ta  Ta14  1  0.509563  0.349589  0.624186  1
  Ta  Ta15  1  0.652290  0.492467  0.876508  1
  Ta  Ta16  1  0.347793  0.508020  0.375818  1
  Ta  Ta17  1  0.847093  0.992481  0.373962  1
  Ti  Ti18  1  0.008234  0.153139  0.125930  1
  Ti  Ti19  1  0.989173  0.843629  0.624818  1
  Si  Si20  1  0.366001  0.705132  0.932077  1
  Si  Si21  1  0.633667  0.295439  0.431654  1
  Si  Si22  1  0.704881  0.364592  0.068774  1
  Si  Si23  1  0.295127  0.635337  0.568533  1
  Si  Si24  1  0.798220  0.867970  0.181862  1
  Si  Si25  1  0.134025  0.202730  0.317542  1
  Si  Si26  1  0.866526  0.797972  0.817769  1
  Si  Si27  1  0.292648  0.954731  0.064890  1
  Si  Si28  1  0.546855  0.794165  0.313453  1
  Si  Si29  1  0.455573  0.205587  0.815033  1
  Si  Si30  1  0.796825  0.547076  0.685778  1
  Si  Si31  1  0.203955  0.452489  0.185325  1
  Si  Si32  1  0.707352  0.045378  0.564504  1
  Si  Si33  1  0.954164  0.294277  0.936901  1
  Si  Si34  1  0.046128  0.706396  0.436501  1
  Ge  Ge35  1  0.200023  0.130576  0.678574  1
