# generated using pymatgen
data_LiHf4ReOs2
_symmetry_space_group_name_H-M   'P 1'
_cell_length_a   6.53044500
_cell_length_b   4.60228100
_cell_length_c   9.27588600
_cell_angle_alpha   90.00000000
_cell_angle_beta   90.00018916
_cell_angle_gamma   90.00000000
_symmetry_Int_Tables_number   1
_chemical_formula_structural   LiHf4ReOs2
_chemical_formula_sum   'Li2 Hf8 Re2 Os4'
_cell_volume   278.78622449
_cell_formula_units_Z   2
loop_
 _symmetry_equiv_pos_site_id
 _symmetry_equiv_pos_as_xyz
  1  'x, y, z'
loop_
 _atom_site_type_symbol
 _atom_site_label
 _atom_site_symmetry_multiplicity
 _atom_site_fract_x
 _atom_site_fract_y
 _atom_site_fract_z
 _atom_site_occupancy
  Li  Li0  1  0.750002  0.250000  0.125173  1
  Li  Li1  1  0.249998  0.749999  0.374822  1
  Hf  Hf2  1  0.497833  0.749999  0.122503  1
  Hf  Hf3  1  0.002173  0.749999  0.122506  1
  Hf  Hf4  1  0.502175  0.250000  0.377495  1
  Hf  Hf5  1  0.997828  0.250000  0.377497  1
  Hf  Hf6  1  0.501105  0.749999  0.627288  1
  Hf  Hf7  1  0.998895  0.749999  0.627299  1
  Hf  Hf8  1  0.498885  0.250000  0.872721  1
  Hf  Hf9  1  0.001113  0.250000  0.872726  1
  Re  Re10  1  0.749999  0.250000  0.624712  1
  Re  Re11  1  0.250005  0.749999  0.875257  1
  Os  Os12  1  0.249991  0.250000  0.127971  1
  Os  Os13  1  0.749999  0.749999  0.372032  1
  Os  Os14  1  0.249992  0.250000  0.619776  1
  Os  Os15  1  0.750002  0.749999  0.880224  1
