# generated using pymatgen
data_Ho9LuSi5Bi
_symmetry_space_group_name_H-M   'P 1'
_cell_length_a   8.48612536
_cell_length_b   8.52681487
_cell_length_c   6.30245513
_cell_angle_alpha   90.01266753
_cell_angle_beta   90.01075702
_cell_angle_gamma   119.81082277
_symmetry_Int_Tables_number   1
_chemical_formula_structural   Ho9LuSi5Bi
_chemical_formula_sum   'Ho9 Lu1 Si5 Bi1'
_cell_volume   395.69573319
_cell_formula_units_Z   1
loop_
 _symmetry_equiv_pos_site_id
 _symmetry_equiv_pos_as_xyz
  1  'x, y, z'
loop_
 _atom_site_type_symbol
 _atom_site_label
 _atom_site_symmetry_multiplicity
 _atom_site_fract_x
 _atom_site_fract_y
 _atom_site_fract_z
 _atom_site_occupancy
  Ho  Ho0  1  0.985065  0.744944  0.749498  1
  Ho  Ho1  1  0.998301  0.243531  0.250571  1
  Ho  Ho2  1  0.754431  0.756834  0.250824  1
  Ho  Ho3  1  0.767638  0.999734  0.749549  1
  Ho  Ho4  1  0.240170  0.255333  0.749365  1
  Ho  Ho5  1  0.240469  0.999811  0.250240  1
  Ho  Ho6  1  0.677131  0.346899  0.004954  1
  Ho  Ho7  1  0.676773  0.345996  0.495032  1
  Ho  Ho8  1  0.330397  0.653354  0.004777  1
  Lu  Lu9  1  0.330376  0.652747  0.495096  1
  Si  Si10  1  0.392379  0.391104  0.252325  1
  Si  Si11  1  0.004779  0.610613  0.252008  1
  Si  Si12  1  0.000125  0.395746  0.747988  1
  Si  Si13  1  0.602929  0.606206  0.747841  1
  Si  Si14  1  0.605822  0.998632  0.251230  1
  Bi  Bi15  1  0.393214  0.998517  0.748702  1
