# generated using pymatgen
data_LiLa6NiBr12
_symmetry_space_group_name_H-M   'P 1'
_cell_length_a   9.81252271
_cell_length_b   9.59370051
_cell_length_c   9.78711365
_cell_angle_alpha   107.90089377
_cell_angle_beta   108.30761985
_cell_angle_gamma   108.14294833
_symmetry_Int_Tables_number   1
_chemical_formula_structural   LiLa6NiBr12
_chemical_formula_sum   'Li1 La6 Ni1 Br12'
_cell_volume   742.67314704
_cell_formula_units_Z   1
loop_
 _symmetry_equiv_pos_site_id
 _symmetry_equiv_pos_as_xyz
  1  'x, y, z'
loop_
 _atom_site_type_symbol
 _atom_site_label
 _atom_site_symmetry_multiplicity
 _atom_site_fract_x
 _atom_site_fract_y
 _atom_site_fract_z
 _atom_site_occupancy
  Li  Li0  1  0.500000  0.500000  0.500000  1
  La  La1  1  0.330229  0.128889  0.034767  1
  La  La2  1  0.032535  0.312022  0.116870  1
  La  La3  1  0.126827  0.034216  0.329579  1
  La  La4  1  0.873173  0.965784  0.670422  1
  La  La5  1  0.967465  0.687979  0.883131  1
  La  La6  1  0.669772  0.871111  0.965234  1
  Ni  Ni7  1  0.000000  0.000000  0.000000  1
  Br  Br8  1  0.685124  0.210317  0.066648  1
  Br  Br9  1  0.382762  0.473750  0.185405  1
  Br  Br10  1  0.065189  0.679608  0.209023  1
  Br  Br11  1  0.792586  0.933967  0.315986  1
  Br  Br12  1  0.467351  0.182490  0.380349  1
  Br  Br13  1  0.184942  0.384895  0.467334  1
  Br  Br14  1  0.815058  0.615106  0.532666  1
  Br  Br15  1  0.532649  0.817511  0.619651  1
  Br  Br16  1  0.207415  0.066034  0.684014  1
  Br  Br17  1  0.934811  0.320392  0.790978  1
  Br  Br18  1  0.617239  0.526250  0.814595  1
  Br  Br19  1  0.314877  0.789683  0.933352  1
