# generated using pymatgen
data_CeEu6HoSb6
_symmetry_space_group_name_H-M   'P 1'
_cell_length_a   8.40979107
_cell_length_b   8.40434631
_cell_length_c   8.32640800
_cell_angle_alpha   109.25716816
_cell_angle_beta   109.36338504
_cell_angle_gamma   109.61848227
_symmetry_Int_Tables_number   1
_chemical_formula_structural   CeEu6HoSb6
_chemical_formula_sum   'Ce1 Eu6 Ho1 Sb6'
_cell_volume   453.99801957
_cell_formula_units_Z   1
loop_
 _symmetry_equiv_pos_site_id
 _symmetry_equiv_pos_as_xyz
  1  'x, y, z'
loop_
 _atom_site_type_symbol
 _atom_site_label
 _atom_site_symmetry_multiplicity
 _atom_site_fract_x
 _atom_site_fract_y
 _atom_site_fract_z
 _atom_site_occupancy
  Ce  Ce0  1  0.643783  0.498929  0.999230  1
  Eu  Eu1  1  0.137900  0.494734  0.998368  1
  Eu  Eu2  1  0.499470  0.998027  0.641247  1
  Eu  Eu3  1  0.355885  0.360369  0.359246  1
  Eu  Eu4  1  0.005295  0.144105  0.502924  1
  Eu  Eu5  1  0.855595  0.857377  0.853837  1
  Eu  Eu6  1  0.002365  0.645775  0.501838  1
  Ho  Ho7  1  0.501238  0.000744  0.142978  1
  Sb  Sb8  1  0.862489  0.243952  0.125509  1
  Sb  Sb9  1  0.129044  0.874108  0.243810  1
  Sb  Sb10  1  0.379390  0.633932  0.763545  1
  Sb  Sb11  1  0.261245  0.125906  0.886292  1
  Sb  Sb12  1  0.743222  0.367726  0.615597  1
  Sb  Sb13  1  0.623080  0.754317  0.365578  1
