# generated using pymatgen
data_Tl2FeF5
_symmetry_space_group_name_H-M   'P 1'
_cell_length_a   5.95714400
_cell_length_b   7.75962800
_cell_length_c   12.25866700
_cell_angle_alpha   90.00000000
_cell_angle_beta   90.00000000
_cell_angle_gamma   90.00000000
_symmetry_Int_Tables_number   1
_chemical_formula_structural   Tl2FeF5
_chemical_formula_sum   'Tl8 Fe4 F20'
_cell_volume   566.65959593
_cell_formula_units_Z   4
loop_
 _symmetry_equiv_pos_site_id
 _symmetry_equiv_pos_as_xyz
  1  'x, y, z'
loop_
 _atom_site_type_symbol
 _atom_site_label
 _atom_site_symmetry_multiplicity
 _atom_site_fract_x
 _atom_site_fract_y
 _atom_site_fract_z
 _atom_site_occupancy
  Tl  Tl0  1  0.250000  0.487683  0.273909  1
  Tl  Tl1  1  0.750000  0.512317  0.726091  1
  Tl  Tl2  1  0.250000  0.987683  0.226091  1
  Tl  Tl3  1  0.750000  0.012317  0.773909  1
  Tl  Tl4  1  0.250000  0.152586  0.583436  1
  Tl  Tl5  1  0.750000  0.847414  0.416564  1
  Tl  Tl6  1  0.250000  0.652586  0.916564  1
  Tl  Tl7  1  0.750000  0.347414  0.083436  1
  Fe  Fe8  1  0.250000  0.660557  0.561753  1
  Fe  Fe9  1  0.750000  0.339443  0.438247  1
  Fe  Fe10  1  0.250000  0.160557  0.938247  1
  Fe  Fe11  1  0.750000  0.839443  0.061753  1
  F  F12  1  0.514549  0.189783  0.386216  1
  F  F13  1  0.014549  0.810217  0.613784  1
  F  F14  1  0.985451  0.689783  0.113784  1
  F  F15  1  0.485451  0.310217  0.886216  1
  F  F16  1  0.485451  0.810217  0.613784  1
  F  F17  1  0.985451  0.189783  0.386216  1
  F  F18  1  0.014549  0.310217  0.886216  1
  F  F19  1  0.514549  0.689783  0.113784  1
  F  F20  1  0.250000  0.773256  0.418774  1
  F  F21  1  0.750000  0.226744  0.581226  1
  F  F22  1  0.250000  0.273256  0.081226  1
  F  F23  1  0.750000  0.726744  0.918774  1
  F  F24  1  0.500000  0.500000  0.500000  1
  F  F25  1  0.000000  0.500000  0.500000  1
  F  F26  1  0.000000  0.000000  0.000000  1
  F  F27  1  0.500000  0.000000  0.000000  1
  F  F28  1  0.750000  0.981745  0.188984  1
  F  F29  1  0.250000  0.018255  0.811016  1
  F  F30  1  0.750000  0.481745  0.311016  1
  F  F31  1  0.250000  0.518255  0.688984  1
