# generated using pymatgen
data_TmLu9(InSb)3
_symmetry_space_group_name_H-M   'P 1'
_cell_length_a   6.38089802
_cell_length_b   8.78278100
_cell_length_c   8.78593352
_cell_angle_alpha   120.00239329
_cell_angle_beta   89.99556005
_cell_angle_gamma   90.00334122
_symmetry_Int_Tables_number   1
_chemical_formula_structural   TmLu9(InSb)3
_chemical_formula_sum   'Tm1 Lu9 In3 Sb3'
_cell_volume   426.40464449
_cell_formula_units_Z   1
loop_
 _symmetry_equiv_pos_site_id
 _symmetry_equiv_pos_as_xyz
  1  'x, y, z'
loop_
 _atom_site_type_symbol
 _atom_site_label
 _atom_site_symmetry_multiplicity
 _atom_site_fract_x
 _atom_site_fract_y
 _atom_site_fract_z
 _atom_site_occupancy
  Tm  Tm0  1  0.750139  0.236762  0.000164  1
  Lu  Lu1  1  0.496439  0.333598  0.666827  1
  Lu  Lu2  1  0.496449  0.666584  0.333195  1
  Lu  Lu3  1  0.003526  0.666786  0.333228  1
  Lu  Lu4  1  0.003505  0.333326  0.666650  1
  Lu  Lu5  1  0.750023  0.763616  0.763564  1
  Lu  Lu6  1  0.750171  0.000243  0.236921  1
  Lu  Lu7  1  0.250031  0.763185  0.999843  1
  Lu  Lu8  1  0.249989  0.236466  0.236726  1
  Lu  Lu9  1  0.250040  0.999661  0.763182  1
  In  In10  1  0.249838  0.393729  0.999969  1
  In  In11  1  0.249735  0.605703  0.605365  1
  In  In12  1  0.250212  0.999945  0.394103  1
  Sb  Sb13  1  0.750033  0.604208  0.999989  1
  Sb  Sb14  1  0.749939  0.396403  0.396611  1
  Sb  Sb15  1  0.749933  0.999787  0.603662  1
