# generated using pymatgen
data_Lu2Ga2CoRu
_symmetry_space_group_name_H-M   'P 1'
_cell_length_a   4.40947700
_cell_length_b   6.92271658
_cell_length_c   6.97819160
_cell_angle_alpha   90.31768112
_cell_angle_beta   90.00000000
_cell_angle_gamma   90.00000000
_symmetry_Int_Tables_number   1
_chemical_formula_structural   Lu2Ga2CoRu
_chemical_formula_sum   'Lu4 Ga4 Co2 Ru2'
_cell_volume   213.00992893
_cell_formula_units_Z   2
loop_
 _symmetry_equiv_pos_site_id
 _symmetry_equiv_pos_as_xyz
  1  'x, y, z'
loop_
 _atom_site_type_symbol
 _atom_site_label
 _atom_site_symmetry_multiplicity
 _atom_site_fract_x
 _atom_site_fract_y
 _atom_site_fract_z
 _atom_site_occupancy
  Lu  Lu0  1  0.250000  0.487014  0.198012  1
  Lu  Lu1  1  0.750000  0.512986  0.801988  1
  Lu  Lu2  1  0.750000  0.021257  0.697442  1
  Lu  Lu3  1  0.250000  0.978743  0.302558  1
  Ga  Ga4  1  0.250000  0.794317  0.887679  1
  Ga  Ga5  1  0.750000  0.205683  0.112321  1
  Ga  Ga6  1  0.750000  0.692294  0.404544  1
  Ga  Ga7  1  0.250000  0.307706  0.595456  1
  Co  Co8  1  0.250000  0.659032  0.560221  1
  Co  Co9  1  0.750000  0.340968  0.439779  1
  Ru  Ru10  1  0.750000  0.836507  0.066713  1
  Ru  Ru11  1  0.250000  0.163493  0.933287  1
