# generated using pymatgen
data_Ir3Ru5
_symmetry_space_group_name_H-M   'P 1'
_cell_length_a   5.46850800
_cell_length_b   5.47218532
_cell_length_c   4.36293100
_cell_angle_alpha   90.00000000
_cell_angle_beta   90.00000000
_cell_angle_gamma   119.97778493
_symmetry_Int_Tables_number   1
_chemical_formula_structural   Ir3Ru5
_chemical_formula_sum   'Ir3 Ru5'
_cell_volume   113.09301956
_cell_formula_units_Z   1
loop_
 _symmetry_equiv_pos_site_id
 _symmetry_equiv_pos_as_xyz
  1  'x, y, z'
loop_
 _atom_site_type_symbol
 _atom_site_label
 _atom_site_symmetry_multiplicity
 _atom_site_fract_x
 _atom_site_fract_y
 _atom_site_fract_z
 _atom_site_occupancy
  Ir  Ir0  1  0.333598  0.667197  0.750000  1
  Ir  Ir1  1  0.666713  0.333425  0.250000  1
  Ir  Ir2  1  0.166622  0.333246  0.250000  1
  Ru  Ru3  1  0.667102  0.834053  0.250000  1
  Ru  Ru4  1  0.166950  0.834053  0.250000  1
  Ru  Ru5  1  0.833381  0.666761  0.750000  1
  Ru  Ru6  1  0.332845  0.165633  0.750000  1
  Ru  Ru7  1  0.832789  0.165633  0.750000  1
