# generated using pymatgen
data_Ce2FeSi2IrPd2
_symmetry_space_group_name_H-M   'P 1'
_cell_length_a   9.36487756
_cell_length_b   9.36487788
_cell_length_c   4.04915000
_cell_angle_alpha   90.00000000
_cell_angle_beta   90.00000000
_cell_angle_gamma   155.29464782
_symmetry_Int_Tables_number   1
_chemical_formula_structural   Ce2FeSi2IrPd2
_chemical_formula_sum   'Ce2 Fe1 Si2 Ir1 Pd2'
_cell_volume   148.42068503
_cell_formula_units_Z   1
loop_
 _symmetry_equiv_pos_site_id
 _symmetry_equiv_pos_as_xyz
  1  'x, y, z'
loop_
 _atom_site_type_symbol
 _atom_site_label
 _atom_site_symmetry_multiplicity
 _atom_site_fract_x
 _atom_site_fract_y
 _atom_site_fract_z
 _atom_site_occupancy
  Ce  Ce0  1  0.612868  0.387132  0.250000  1
  Ce  Ce1  1  0.386762  0.613238  0.750000  1
  Fe  Fe2  1  0.750153  0.249847  0.750000  1
  Si  Si3  1  0.816525  0.183475  0.250000  1
  Si  Si4  1  0.183734  0.816266  0.750000  1
  Ir  Ir5  1  0.250004  0.749996  0.250000  1
  Pd  Pd6  1  0.949636  0.050364  0.250000  1
  Pd  Pd7  1  0.050317  0.949683  0.750000  1
