# generated using pymatgen
data_TbPr2Pa(Ga3Ir)6
_symmetry_space_group_name_H-M   'P 1'
_cell_length_a   7.65980053
_cell_length_b   7.65482149
_cell_length_c   9.52169700
_cell_angle_alpha   90.00000000
_cell_angle_beta   90.00000000
_cell_angle_gamma   119.80907104
_symmetry_Int_Tables_number   1
_chemical_formula_structural   TbPr2Pa(Ga3Ir)6
_chemical_formula_sum   'Tb1 Pr2 Pa1 Ga18 Ir6'
_cell_volume   484.42869074
_cell_formula_units_Z   1
loop_
 _symmetry_equiv_pos_site_id
 _symmetry_equiv_pos_as_xyz
  1  'x, y, z'
loop_
 _atom_site_type_symbol
 _atom_site_label
 _atom_site_symmetry_multiplicity
 _atom_site_fract_x
 _atom_site_fract_y
 _atom_site_fract_z
 _atom_site_occupancy
  Tb  Tb0  1  0.670446  0.996329  0.250000  1
  Pr  Pr1  1  0.003664  0.331087  0.750000  1
  Pr  Pr2  1  0.331087  0.003112  0.750000  1
  Pa  Pa3  1  0.998191  0.669758  0.250000  1
  Ga  Ga4  1  0.130683  0.129910  0.250000  1
  Ga  Ga5  1  0.869615  0.870738  0.750000  1
  Ga  Ga6  1  0.998727  0.331024  0.082236  1
  Ga  Ga7  1  0.998365  0.665378  0.921706  1
  Ga  Ga8  1  0.998365  0.665378  0.578294  1
  Ga  Ga9  1  0.338664  0.002518  0.417576  1
  Ga  Ga10  1  0.998727  0.331024  0.417764  1
  Ga  Ga11  1  0.665609  0.999205  0.575817  1
  Ga  Ga12  1  0.665609  0.999205  0.924183  1
  Ga  Ga13  1  0.338664  0.002518  0.082424  1
  Ga  Ga14  1  0.333713  0.333634  0.561993  1
  Ga  Ga15  1  0.664008  0.667360  0.433585  1
  Ga  Ga16  1  0.664008  0.667360  0.066415  1
  Ga  Ga17  1  0.333713  0.333634  0.938007  1
  Ga  Ga18  1  0.339412  0.545158  0.250000  1
  Ga  Ga19  1  0.661151  0.455663  0.750000  1
  Ga  Ga20  1  0.545306  0.341374  0.250000  1
  Ga  Ga21  1  0.455690  0.662318  0.750000  1
  Ir  Ir22  1  0.673734  0.331948  0.003662  1
  Ir  Ir23  1  0.326188  0.670984  0.003781  1
  Ir  Ir24  1  0.326188  0.670984  0.496219  1
  Ir  Ir25  1  0.673734  0.331948  0.496338  1
  Ir  Ir26  1  0.998370  0.995227  0.004692  1
  Ir  Ir27  1  0.998370  0.995227  0.495308  1
