# generated using pymatgen
data_Nd5YAl24(Os3Rh)2
_symmetry_space_group_name_H-M   'P 1'
_cell_length_a   8.85865994
_cell_length_b   8.87253757
_cell_length_c   9.67726400
_cell_angle_alpha   90.00000000
_cell_angle_beta   90.00000000
_cell_angle_gamma   119.22728832
_symmetry_Int_Tables_number   1
_chemical_formula_structural   Nd5YAl24(Os3Rh)2
_chemical_formula_sum   'Nd5 Y1 Al24 Os6 Rh2'
_cell_volume   663.78629219
_cell_formula_units_Z   1
loop_
 _symmetry_equiv_pos_site_id
 _symmetry_equiv_pos_as_xyz
  1  'x, y, z'
loop_
 _atom_site_type_symbol
 _atom_site_label
 _atom_site_symmetry_multiplicity
 _atom_site_fract_x
 _atom_site_fract_y
 _atom_site_fract_z
 _atom_site_occupancy
  Nd  Nd0  1  0.814478  0.616459  0.750000  1
  Nd  Nd1  1  0.617885  0.815623  0.250000  1
  Nd  Nd2  1  0.382716  0.184019  0.750000  1
  Nd  Nd3  1  0.191433  0.807364  0.250000  1
  Nd  Nd4  1  0.807718  0.192487  0.750000  1
  Y  Y5  1  0.185707  0.387071  0.250000  1
  Al  Al6  1  0.332447  0.666491  0.018585  1
  Al  Al7  1  0.667313  0.332492  0.983517  1
  Al  Al8  1  0.667313  0.332492  0.516483  1
  Al  Al9  1  0.332447  0.666491  0.481415  1
  Al  Al10  1  0.162118  0.326170  0.572868  1
  Al  Al11  1  0.837701  0.673387  0.424592  1
  Al  Al12  1  0.673706  0.838058  0.574605  1
  Al  Al13  1  0.837701  0.673387  0.075408  1
  Al  Al14  1  0.325654  0.162906  0.424116  1
  Al  Al15  1  0.162118  0.326170  0.927132  1
  Al  Al16  1  0.165039  0.834979  0.573553  1
  Al  Al17  1  0.325654  0.162906  0.075884  1
  Al  Al18  1  0.836710  0.165561  0.425512  1
  Al  Al19  1  0.673706  0.838058  0.925395  1
  Al  Al20  1  0.836710  0.165561  0.074488  1
  Al  Al21  1  0.165039  0.834979  0.926447  1
  Al  Al22  1  0.561704  0.127867  0.250000  1
  Al  Al23  1  0.437826  0.871794  0.750000  1
  Al  Al24  1  0.873857  0.437761  0.250000  1
  Al  Al25  1  0.127491  0.561467  0.750000  1
  Al  Al26  1  0.558387  0.439027  0.250000  1
  Al  Al27  1  0.438766  0.560146  0.750000  1
  Al  Al28  1  0.000604  0.005277  0.250000  1
  Al  Al29  1  0.001345  0.998037  0.750000  1
  Os  Os30  1  0.499926  0.999603  0.000386  1
  Os  Os31  1  0.000847  0.499296  0.001164  1
  Os  Os32  1  0.499926  0.999603  0.499614  1
  Os  Os33  1  0.000847  0.499296  0.498836  1
  Os  Os34  1  0.000108  0.999872  0.000545  1
  Os  Os35  1  0.000108  0.999872  0.499455  1
  Rh  Rh36  1  0.498472  0.498986  0.000788  1
  Rh  Rh37  1  0.498472  0.498986  0.499212  1
