# generated using pymatgen
data_Dy6Tm10Cd4Ir3Os
_symmetry_space_group_name_H-M   'P 1'
_cell_length_a   9.59731767
_cell_length_b   9.59731768
_cell_length_c   9.59731714
_cell_angle_alpha   59.46603970
_cell_angle_beta   59.46604181
_cell_angle_gamma   59.46604134
_symmetry_Int_Tables_number   1
_chemical_formula_structural   Dy6Tm10Cd4Ir3Os
_chemical_formula_sum   'Dy6 Tm10 Cd4 Ir3 Os1'
_cell_volume   617.48623578
_cell_formula_units_Z   1
loop_
 _symmetry_equiv_pos_site_id
 _symmetry_equiv_pos_as_xyz
  1  'x, y, z'
loop_
 _atom_site_type_symbol
 _atom_site_label
 _atom_site_symmetry_multiplicity
 _atom_site_fract_x
 _atom_site_fract_y
 _atom_site_fract_z
 _atom_site_occupancy
  Dy  Dy0  1  0.189089  0.810796  0.810796  1
  Dy  Dy1  1  0.806103  0.189863  0.189863  1
  Dy  Dy2  1  0.810796  0.189089  0.810796  1
  Dy  Dy3  1  0.189863  0.806103  0.189863  1
  Dy  Dy4  1  0.810796  0.810796  0.189089  1
  Dy  Dy5  1  0.189863  0.189863  0.806103  1
  Tm  Tm6  1  0.599400  0.599400  0.599400  1
  Tm  Tm7  1  0.598565  0.598565  0.207428  1
  Tm  Tm8  1  0.598565  0.207428  0.598565  1
  Tm  Tm9  1  0.207428  0.598565  0.598565  1
  Tm  Tm10  1  0.062099  0.438479  0.438479  1
  Tm  Tm11  1  0.437008  0.060036  0.060036  1
  Tm  Tm12  1  0.438479  0.062099  0.438479  1
  Tm  Tm13  1  0.060036  0.437008  0.060036  1
  Tm  Tm14  1  0.438479  0.438479  0.062099  1
  Tm  Tm15  1  0.060036  0.060036  0.437008  1
  Cd  Cd16  1  0.829729  0.829729  0.829729  1
  Cd  Cd17  1  0.830487  0.830487  0.506775  1
  Cd  Cd18  1  0.830487  0.506775  0.830487  1
  Cd  Cd19  1  0.506775  0.830487  0.830487  1
  Ir  Ir20  1  0.393420  0.393420  0.827291  1
  Ir  Ir21  1  0.393420  0.827291  0.393420  1
  Ir  Ir22  1  0.827291  0.393420  0.393420  1
  Os  Os23  1  0.391787  0.391787  0.391787  1
