# generated using pymatgen
data_CdHgBi2(Ru2O7)2
_symmetry_space_group_name_H-M   'P 1'
_cell_length_a   7.28519439
_cell_length_b   7.33713813
_cell_length_c   7.33713811
_cell_angle_alpha   118.85644400
_cell_angle_beta   120.99816913
_cell_angle_gamma   90.34730876
_symmetry_Int_Tables_number   1
_chemical_formula_structural   CdHgBi2(Ru2O7)2
_chemical_formula_sum   'Cd1 Hg1 Bi2 Ru4 O14'
_cell_volume   276.98459303
_cell_formula_units_Z   1
loop_
 _symmetry_equiv_pos_site_id
 _symmetry_equiv_pos_as_xyz
  1  'x, y, z'
loop_
 _atom_site_type_symbol
 _atom_site_label
 _atom_site_symmetry_multiplicity
 _atom_site_fract_x
 _atom_site_fract_y
 _atom_site_fract_z
 _atom_site_occupancy
  Cd  Cd0  1  0.500000  0.500000  0.000000  1
  Hg  Hg1  1  0.000000  0.500000  0.500000  1
  Bi  Bi2  1  0.500000  0.500000  0.500000  1
  Bi  Bi3  1  0.500000  0.000000  0.000000  1
  Ru  Ru4  1  0.000000  0.000000  0.500000  1
  Ru  Ru5  1  0.000000  0.500000  0.000000  1
  Ru  Ru6  1  0.000000  0.000000  0.000000  1
  Ru  Ru7  1  0.500000  0.000000  0.500000  1
  O  O8  1  0.325179  0.059865  0.645195  1
  O  O9  1  0.914952  0.055189  0.233711  1
  O  O10  1  0.918431  0.674567  0.243864  1
  O  O11  1  0.914952  0.681239  0.859763  1
  O  O12  1  0.325179  0.679982  0.265314  1
  O  O13  1  0.331621  0.080919  0.250703  1
  O  O14  1  0.674821  0.940135  0.354805  1
  O  O15  1  0.085048  0.944811  0.766289  1
  O  O16  1  0.081569  0.325433  0.756136  1
  O  O17  1  0.085048  0.318761  0.140237  1
  O  O18  1  0.674821  0.320018  0.734686  1
  O  O19  1  0.668379  0.919081  0.749297  1
  O  O20  1  0.632431  0.382105  0.250326  1
  O  O21  1  0.367569  0.617895  0.749674  1
