# generated using pymatgen
data_Zr6MnAl(Os2N)2
_symmetry_space_group_name_H-M   'P 1'
_cell_length_a   8.56438687
_cell_length_b   8.56438708
_cell_length_c   8.52402900
_cell_angle_alpha   60.15575617
_cell_angle_beta   60.15575538
_cell_angle_gamma   60.11755265
_symmetry_Int_Tables_number   1
_chemical_formula_structural   Zr6MnAl(Os2N)2
_chemical_formula_sum   'Zr12 Mn2 Al2 Os8 N4'
_cell_volume   443.53416008
_cell_formula_units_Z   2
loop_
 _symmetry_equiv_pos_site_id
 _symmetry_equiv_pos_as_xyz
  1  'x, y, z'
loop_
 _atom_site_type_symbol
 _atom_site_label
 _atom_site_symmetry_multiplicity
 _atom_site_fract_x
 _atom_site_fract_y
 _atom_site_fract_z
 _atom_site_occupancy
  Zr  Zr0  1  0.808681  0.808681  0.191319  1
  Zr  Zr1  1  0.193084  0.193084  0.806916  1
  Zr  Zr2  1  0.807122  0.193961  0.806087  1
  Zr  Zr3  1  0.193961  0.807122  0.192829  1
  Zr  Zr4  1  0.193961  0.807122  0.806087  1
  Zr  Zr5  1  0.807122  0.193961  0.192829  1
  Zr  Zr6  1  0.441319  0.441319  0.058681  1
  Zr  Zr7  1  0.056916  0.056916  0.443084  1
  Zr  Zr8  1  0.442878  0.056039  0.443913  1
  Zr  Zr9  1  0.056039  0.442878  0.057171  1
  Zr  Zr10  1  0.056039  0.442878  0.443913  1
  Zr  Zr11  1  0.442878  0.056039  0.057171  1
  Mn  Mn12  1  0.125000  0.625000  0.625000  1
  Mn  Mn13  1  0.625000  0.125000  0.625000  1
  Al  Al14  1  0.625000  0.625000  0.125000  1
  Al  Al15  1  0.625000  0.625000  0.625000  1
  Os  Os16  1  0.741378  0.414999  0.421810  1
  Os  Os17  1  0.414999  0.741378  0.421810  1
  Os  Os18  1  0.417826  0.417826  0.741653  1
  Os  Os19  1  0.417826  0.417826  0.422692  1
  Os  Os20  1  0.508622  0.835001  0.828190  1
  Os  Os21  1  0.835001  0.508622  0.828190  1
  Os  Os22  1  0.832174  0.832174  0.508347  1
  Os  Os23  1  0.832174  0.832174  0.827308  1
  N  N24  1  0.625000  0.125000  0.125000  1
  N  N25  1  0.125000  0.625000  0.125000  1
  N  N26  1  0.125000  0.125000  0.625000  1
  N  N27  1  0.125000  0.125000  0.125000  1
