# generated using pymatgen
data_Tb6YbPdI12
_symmetry_space_group_name_H-M   'P 1'
_cell_length_a   9.82417209
_cell_length_b   9.82417113
_cell_length_c   9.82417097
_cell_angle_alpha   106.97810642
_cell_angle_beta   106.97809792
_cell_angle_gamma   106.97809521
_symmetry_Int_Tables_number   1
_chemical_formula_structural   Tb6YbPdI12
_chemical_formula_sum   'Tb6 Yb1 Pd1 I12'
_cell_volume   790.11919807
_cell_formula_units_Z   1
loop_
 _symmetry_equiv_pos_site_id
 _symmetry_equiv_pos_as_xyz
  1  'x, y, z'
loop_
 _atom_site_type_symbol
 _atom_site_label
 _atom_site_symmetry_multiplicity
 _atom_site_fract_x
 _atom_site_fract_y
 _atom_site_fract_z
 _atom_site_occupancy
  Tb  Tb0  1  0.901037  0.697092  0.973459  1
  Tb  Tb1  1  0.973459  0.901037  0.697092  1
  Tb  Tb2  1  0.697092  0.973459  0.901037  1
  Tb  Tb3  1  0.098963  0.302908  0.026541  1
  Tb  Tb4  1  0.026541  0.098963  0.302908  1
  Tb  Tb5  1  0.302908  0.026541  0.098963  1
  Yb  Yb6  1  0.500000  0.500000  0.500000  1
  Pd  Pd7  1  0.000000  0.000000  0.000000  1
  I  I8  1  0.618507  0.846130  0.540505  1
  I  I9  1  0.540505  0.618507  0.846130  1
  I  I10  1  0.846130  0.540505  0.618507  1
  I  I11  1  0.381493  0.153870  0.459495  1
  I  I12  1  0.459495  0.381493  0.153870  1
  I  I13  1  0.153870  0.459495  0.381493  1
  I  I14  1  0.678661  0.072977  0.223724  1
  I  I15  1  0.223724  0.678661  0.072977  1
  I  I16  1  0.072977  0.223724  0.678661  1
  I  I17  1  0.321339  0.927023  0.776276  1
  I  I18  1  0.776276  0.321339  0.927023  1
  I  I19  1  0.927023  0.776276  0.321339  1
