# generated using pymatgen
data_Tm3LuRe5Os3
_symmetry_space_group_name_H-M   'P 1'
_cell_length_a   5.34083101
_cell_length_b   5.23486783
_cell_length_c   8.95105500
_cell_angle_alpha   90.00050742
_cell_angle_beta   89.99755445
_cell_angle_gamma   119.46087934
_symmetry_Int_Tables_number   1
_chemical_formula_structural   Tm3LuRe5Os3
_chemical_formula_sum   'Tm3 Lu1 Re5 Os3'
_cell_volume   217.89797473
_cell_formula_units_Z   1
loop_
 _symmetry_equiv_pos_site_id
 _symmetry_equiv_pos_as_xyz
  1  'x, y, z'
loop_
 _atom_site_type_symbol
 _atom_site_label
 _atom_site_symmetry_multiplicity
 _atom_site_fract_x
 _atom_site_fract_y
 _atom_site_fract_z
 _atom_site_occupancy
  Tm  Tm0  1  0.328888  0.664247  0.436188  1
  Tm  Tm1  1  0.328889  0.664243  0.063866  1
  Tm  Tm2  1  0.669227  0.334977  0.937607  1
  Lu  Lu3  1  0.669291  0.335014  0.562387  1
  Re  Re4  1  0.171239  0.341422  0.749861  1
  Re  Re5  1  0.171436  0.831857  0.749874  1
  Re  Re6  1  0.656047  0.827310  0.749847  1
  Re  Re7  1  0.832645  0.662618  0.250107  1
  Re  Re8  1  0.833395  0.170513  0.250105  1
  Os  Os9  1  0.993203  0.995724  0.499350  1
  Os  Os10  1  0.993280  0.995755  0.000699  1
  Os  Os11  1  0.352461  0.176322  0.250109  1
