# generated using pymatgen
data_ScIn(BO3)2
_symmetry_space_group_name_H-M   'P 1'
_cell_length_a   5.90274849
_cell_length_b   5.90274863
_cell_length_c   5.90274946
_cell_angle_alpha   48.48546515
_cell_angle_beta   48.48546341
_cell_angle_gamma   48.48546438
_symmetry_Int_Tables_number   1
_chemical_formula_structural   ScIn(BO3)2
_chemical_formula_sum   'Sc1 In1 B2 O6'
_cell_volume   105.75646954
_cell_formula_units_Z   1
loop_
 _symmetry_equiv_pos_site_id
 _symmetry_equiv_pos_as_xyz
  1  'x, y, z'
loop_
 _atom_site_type_symbol
 _atom_site_label
 _atom_site_symmetry_multiplicity
 _atom_site_fract_x
 _atom_site_fract_y
 _atom_site_fract_z
 _atom_site_occupancy
  Sc  Sc0  1  0.000000  0.000000  0.000000  1
  In  In1  1  0.500000  0.500000  0.500000  1
  B  B2  1  0.749132  0.749132  0.749132  1
  B  B3  1  0.250868  0.250868  0.250868  1
  O  O4  1  0.030243  0.458443  0.757569  1
  O  O5  1  0.458443  0.757569  0.030243  1
  O  O6  1  0.757569  0.030243  0.458443  1
  O  O7  1  0.541557  0.242431  0.969757  1
  O  O8  1  0.242431  0.969757  0.541557  1
  O  O9  1  0.969757  0.541557  0.242431  1
