# generated using pymatgen
data_Dy5Tc3P12Ir15Rh
_symmetry_space_group_name_H-M   'P 1'
_cell_length_a   12.66447534
_cell_length_b   12.67203967
_cell_length_c   3.98126400
_cell_angle_alpha   90.00000000
_cell_angle_beta   90.00000000
_cell_angle_gamma   120.00680548
_symmetry_Int_Tables_number   1
_chemical_formula_structural   Dy5Tc3P12Ir15Rh
_chemical_formula_sum   'Dy5 Tc3 P12 Ir15 Rh1'
_cell_volume   553.29347503
_cell_formula_units_Z   1
loop_
 _symmetry_equiv_pos_site_id
 _symmetry_equiv_pos_as_xyz
  1  'x, y, z'
loop_
 _atom_site_type_symbol
 _atom_site_label
 _atom_site_symmetry_multiplicity
 _atom_site_fract_x
 _atom_site_fract_y
 _atom_site_fract_z
 _atom_site_occupancy
  Dy  Dy0  1  0.333592  0.666635  0.500000  1
  Dy  Dy1  1  0.666675  0.333407  0.500000  1
  Dy  Dy2  1  0.999720  0.816862  0.000000  1
  Dy  Dy3  1  0.182981  0.182983  0.000000  1
  Dy  Dy4  1  0.817001  0.999897  0.000000  1
  Tc  Tc5  1  0.999994  0.455203  0.500000  1
  Tc  Tc6  1  0.544576  0.544917  0.500000  1
  Tc  Tc7  1  0.454768  0.000391  0.500000  1
  P  P8  1  0.000032  0.638630  0.500000  1
  P  P9  1  0.361525  0.361550  0.500000  1
  P  P10  1  0.638147  0.999549  0.500000  1
  P  P11  1  0.516276  0.685444  0.000000  1
  P  P12  1  0.315020  0.830456  0.000000  1
  P  P13  1  0.169750  0.484379  0.000000  1
  P  P14  1  0.484334  0.169533  0.000000  1
  P  P15  1  0.685043  0.515741  0.000000  1
  P  P16  1  0.830327  0.314613  0.000000  1
  P  P17  1  0.999990  0.176495  0.500000  1
  P  P18  1  0.823181  0.823113  0.500000  1
  P  P19  1  0.176352  0.999930  0.500000  1
  Ir  Ir20  1  0.510721  0.869071  0.000000  1
  Ir  Ir21  1  0.131524  0.641505  0.000000  1
  Ir  Ir22  1  0.358256  0.489817  0.000000  1
  Ir  Ir23  1  0.490050  0.358339  0.000000  1
  Ir  Ir24  1  0.868348  0.509869  0.000000  1
  Ir  Ir25  1  0.641509  0.131508  0.000000  1
  Ir  Ir26  1  0.000018  0.290798  0.000000  1
  Ir  Ir27  1  0.710143  0.709525  0.000000  1
  Ir  Ir28  1  0.290733  0.000017  0.000000  1
  Ir  Ir29  1  0.194267  0.820879  0.500000  1
  Ir  Ir30  1  0.179036  0.373255  0.500000  1
  Ir  Ir31  1  0.373325  0.179033  0.500000  1
  Ir  Ir32  1  0.805705  0.626365  0.500000  1
  Ir  Ir33  1  0.820917  0.194624  0.500000  1
  Ir  Ir34  1  0.999819  0.000045  0.500000  1
  Rh  Rh35  1  0.626345  0.805622  0.500000  1
