# generated using pymatgen
data_PrNd5Ho10(CdIr)4
_symmetry_space_group_name_H-M   'P 1'
_cell_length_a   9.74170014
_cell_length_b   9.74170003
_cell_length_c   9.74037600
_cell_angle_alpha   60.00449587
_cell_angle_beta   60.00449625
_cell_angle_gamma   60.00625642
_symmetry_Int_Tables_number   1
_chemical_formula_structural   PrNd5Ho10(CdIr)4
_chemical_formula_sum   'Pr1 Nd5 Ho10 Cd4 Ir4'
_cell_volume   653.70269790
_cell_formula_units_Z   1
loop_
 _symmetry_equiv_pos_site_id
 _symmetry_equiv_pos_as_xyz
  1  'x, y, z'
loop_
 _atom_site_type_symbol
 _atom_site_label
 _atom_site_symmetry_multiplicity
 _atom_site_fract_x
 _atom_site_fract_y
 _atom_site_fract_z
 _atom_site_occupancy
  Pr  Pr0  1  0.941027  0.941027  0.558973  1
  Nd  Nd1  1  0.941082  0.558717  0.558951  1
  Nd  Nd2  1  0.558717  0.941082  0.941249  1
  Nd  Nd3  1  0.558717  0.941082  0.558951  1
  Nd  Nd4  1  0.941082  0.558717  0.941249  1
  Nd  Nd5  1  0.559016  0.559016  0.940984  1
  Ho  Ho6  1  0.347063  0.347063  0.346739  1
  Ho  Ho7  1  0.347063  0.347063  0.959134  1
  Ho  Ho8  1  0.347459  0.958826  0.346857  1
  Ho  Ho9  1  0.958826  0.347459  0.346857  1
  Ho  Ho10  1  0.812377  0.187167  0.187432  1
  Ho  Ho11  1  0.187167  0.812377  0.813024  1
  Ho  Ho12  1  0.187167  0.812377  0.187432  1
  Ho  Ho13  1  0.812377  0.187167  0.813024  1
  Ho  Ho14  1  0.187359  0.187359  0.812641  1
  Ho  Ho15  1  0.812683  0.812683  0.187317  1
  Cd  Cd16  1  0.579305  0.579305  0.579268  1
  Cd  Cd17  1  0.579305  0.579305  0.262121  1
  Cd  Cd18  1  0.579158  0.262127  0.579357  1
  Cd  Cd19  1  0.262127  0.579158  0.579357  1
  Ir  Ir20  1  0.141504  0.141504  0.140693  1
  Ir  Ir21  1  0.141504  0.141504  0.576300  1
  Ir  Ir22  1  0.141538  0.576376  0.141044  1
  Ir  Ir23  1  0.576376  0.141538  0.141044  1
