# generated using pymatgen
data_CeSmZn3CuRu
_symmetry_space_group_name_H-M   'P 1'
_cell_length_a   7.15876500
_cell_length_b   7.13866907
_cell_length_c   5.10114230
_cell_angle_alpha   90.14907869
_cell_angle_beta   90.00000000
_cell_angle_gamma   90.00000000
_symmetry_Int_Tables_number   1
_chemical_formula_structural   CeSmZn3CuRu
_chemical_formula_sum   'Ce2 Sm2 Zn6 Cu2 Ru2'
_cell_volume   260.68817039
_cell_formula_units_Z   2
loop_
 _symmetry_equiv_pos_site_id
 _symmetry_equiv_pos_as_xyz
  1  'x, y, z'
loop_
 _atom_site_type_symbol
 _atom_site_label
 _atom_site_symmetry_multiplicity
 _atom_site_fract_x
 _atom_site_fract_y
 _atom_site_fract_z
 _atom_site_occupancy
  Ce  Ce0  1  0.000000  0.992795  0.010914  1
  Ce  Ce1  1  0.500000  0.506330  0.008912  1
  Sm  Sm2  1  0.000000  0.508921  0.760612  1
  Sm  Sm3  1  0.500000  0.993518  0.232694  1
  Zn  Zn4  1  0.813966  0.318586  0.288003  1
  Zn  Zn5  1  0.313033  0.186413  0.714952  1
  Zn  Zn6  1  0.186034  0.318586  0.288003  1
  Zn  Zn7  1  0.686967  0.186413  0.714952  1
  Zn  Zn8  1  0.689663  0.810531  0.703707  1
  Zn  Zn9  1  0.310337  0.810531  0.703707  1
  Cu  Cu10  1  0.180952  0.682806  0.283341  1
  Cu  Cu11  1  0.819048  0.682806  0.283341  1
  Ru  Ru12  1  0.500000  0.496558  0.503802  1
  Ru  Ru13  1  0.000000  0.005205  0.503061  1
