# generated using pymatgen
data_YU7TaS17
_symmetry_space_group_name_H-M   'P 1'
_cell_length_a   7.83621177
_cell_length_b   7.85600900
_cell_length_c   10.41441000
_cell_angle_alpha   81.05955987
_cell_angle_beta   80.90232592
_cell_angle_gamma   65.28545348
_symmetry_Int_Tables_number   1
_chemical_formula_structural   YU7TaS17
_chemical_formula_sum   'Y1 U7 Ta1 S17'
_cell_volume   572.21597979
_cell_formula_units_Z   1
loop_
 _symmetry_equiv_pos_site_id
 _symmetry_equiv_pos_as_xyz
  1  'x, y, z'
loop_
 _atom_site_type_symbol
 _atom_site_label
 _atom_site_symmetry_multiplicity
 _atom_site_fract_x
 _atom_site_fract_y
 _atom_site_fract_z
 _atom_site_occupancy
  Y  Y0  1  0.809735  0.308701  0.299439  1
  U  U1  1  0.298625  0.819266  0.300734  1
  U  U2  1  0.184154  0.698872  0.698985  1
  U  U3  1  0.700219  0.181611  0.700735  1
  U  U4  1  0.796576  0.791702  0.459146  1
  U  U5  1  0.206628  0.205473  0.539376  1
  U  U6  1  0.316048  0.319622  0.017697  1
  U  U7  1  0.678278  0.678569  0.983331  1
  Ta  Ta8  1  0.997994  0.997952  0.996621  1
  S  S9  1  0.179128  0.567181  0.464051  1
  S  S10  1  0.571698  0.171886  0.469054  1
  S  S11  1  0.824938  0.429717  0.537728  1
  S  S12  1  0.432930  0.821986  0.535372  1
  S  S13  1  0.940361  0.324701  0.027015  1
  S  S14  1  0.323244  0.941538  0.028913  1
  S  S15  1  0.061354  0.675519  0.970328  1
  S  S16  1  0.673427  0.061937  0.971059  1
  S  S17  1  0.939527  0.939319  0.230970  1
  S  S18  1  0.065420  0.063621  0.768193  1
  S  S19  1  0.790100  0.788792  0.724734  1
  S  S20  1  0.213986  0.207230  0.276732  1
  S  S21  1  0.692499  0.702442  0.245493  1
  S  S22  1  0.304495  0.304560  0.753281  1
  S  S23  1  0.473662  0.484600  0.164549  1
  S  S24  1  0.520605  0.521128  0.830617  1
  S  S25  1  0.004368  0.992073  0.505846  1
