# generated using pymatgen
data_Sm4Ho4Re3TcB24
_symmetry_space_group_name_H-M   'P 1'
_cell_length_a   3.70819400
_cell_length_b   9.20710191
_cell_length_c   11.63232002
_cell_angle_alpha   90.02213069
_cell_angle_beta   90.00000000
_cell_angle_gamma   90.00000000
_symmetry_Int_Tables_number   1
_chemical_formula_structural   Sm4Ho4Re3TcB24
_chemical_formula_sum   'Sm4 Ho4 Re3 Tc1 B24'
_cell_volume   397.14738437
_cell_formula_units_Z   1
loop_
 _symmetry_equiv_pos_site_id
 _symmetry_equiv_pos_as_xyz
  1  'x, y, z'
loop_
 _atom_site_type_symbol
 _atom_site_label
 _atom_site_symmetry_multiplicity
 _atom_site_fract_x
 _atom_site_fract_y
 _atom_site_fract_z
 _atom_site_occupancy
  Sm  Sm0  1  0.000000  0.323460  0.413926  1
  Sm  Sm1  1  0.000000  0.676849  0.585812  1
  Sm  Sm2  1  0.000000  0.823150  0.086024  1
  Sm  Sm3  1  0.000000  0.177059  0.914018  1
  Ho  Ho4  1  0.000000  0.941951  0.369329  1
  Ho  Ho5  1  0.000000  0.057002  0.630154  1
  Ho  Ho6  1  0.000000  0.443499  0.131048  1
  Ho  Ho7  1  0.000000  0.557031  0.869835  1
  Re  Re8  1  0.000000  0.361029  0.680072  1
  Re  Re9  1  0.000000  0.139000  0.180207  1
  Re  Re10  1  0.000000  0.861050  0.819861  1
  Tc  Tc11  1  0.000000  0.639126  0.319803  1
  B  B12  1  0.500000  0.554320  0.431417  1
  B  B13  1  0.500000  0.445864  0.568347  1
  B  B14  1  0.500000  0.054260  0.068374  1
  B  B15  1  0.500000  0.945911  0.931564  1
  B  B16  1  0.500000  0.749161  0.416943  1
  B  B17  1  0.500000  0.250482  0.582821  1
  B  B18  1  0.500000  0.249730  0.082939  1
  B  B19  1  0.500000  0.750557  0.917130  1
  B  B20  1  0.500000  0.791326  0.265996  1
  B  B21  1  0.500000  0.208311  0.733874  1
  B  B22  1  0.500000  0.291641  0.234111  1
  B  B23  1  0.500000  0.708312  0.766050  1
  B  B24  1  0.500000  0.630169  0.186287  1
  B  B25  1  0.500000  0.369998  0.813850  1
  B  B26  1  0.500000  0.129843  0.313944  1
  B  B27  1  0.500000  0.869927  0.686052  1
  B  B28  1  0.500000  0.983077  0.212601  1
  B  B29  1  0.500000  0.016855  0.787228  1
  B  B30  1  0.500000  0.483443  0.287477  1
  B  B31  1  0.500000  0.516900  0.712728  1
  B  B32  1  0.500000  0.597903  0.027411  1
  B  B33  1  0.500000  0.402322  0.973020  1
  B  B34  1  0.500000  0.097446  0.472558  1
  B  B35  1  0.500000  0.902039  0.527189  1
