# generated using pymatgen
data_YbY3CrB16Os3
_symmetry_space_group_name_H-M   'P 1'
_cell_length_a   3.53714500
_cell_length_b   5.96661863
_cell_length_c   11.53322336
_cell_angle_alpha   89.74160996
_cell_angle_beta   90.00000000
_cell_angle_gamma   90.00000000
_symmetry_Int_Tables_number   1
_chemical_formula_structural   YbY3CrB16Os3
_chemical_formula_sum   'Yb1 Y3 Cr1 B16 Os3'
_cell_volume   243.40384235
_cell_formula_units_Z   1
loop_
 _symmetry_equiv_pos_site_id
 _symmetry_equiv_pos_as_xyz
  1  'x, y, z'
loop_
 _atom_site_type_symbol
 _atom_site_label
 _atom_site_symmetry_multiplicity
 _atom_site_fract_x
 _atom_site_fract_y
 _atom_site_fract_z
 _atom_site_occupancy
  Yb  Yb0  1  0.000000  0.373235  0.149420  1
  Y  Y1  1  0.000000  0.128504  0.652095  1
  Y  Y2  1  0.000000  0.871894  0.348805  1
  Y  Y3  1  0.000000  0.625821  0.850428  1
  Cr  Cr4  1  0.000000  0.132212  0.913859  1
  B  B5  1  0.500000  0.473707  0.692230  1
  B  B6  1  0.500000  0.526449  0.307707  1
  B  B7  1  0.500000  0.977527  0.809521  1
  B  B8  1  0.500000  0.023776  0.190616  1
  B  B9  1  0.500000  0.285667  0.816447  1
  B  B10  1  0.500000  0.712836  0.183555  1
  B  B11  1  0.500000  0.786872  0.686560  1
  B  B12  1  0.500000  0.213502  0.312968  1
  B  B13  1  0.500000  0.362885  0.968384  1
  B  B14  1  0.500000  0.635918  0.031327  1
  B  B15  1  0.500000  0.863258  0.530507  1
  B  B16  1  0.500000  0.136468  0.469897  1
  B  B17  1  0.500000  0.386946  0.547256  1
  B  B18  1  0.500000  0.611843  0.452667  1
  B  B19  1  0.500000  0.887673  0.953750  1
  B  B20  1  0.500000  0.114469  0.046759  1
  Os  Os21  1  0.000000  0.869759  0.086068  1
  Os  Os22  1  0.000000  0.641178  0.591359  1
  Os  Os23  1  0.000000  0.357600  0.407815  1
