# generated using pymatgen
data_Tb13Dy3InAg3Rh4
_symmetry_space_group_name_H-M   'P 1'
_cell_length_a   9.57547388
_cell_length_b   9.57210818
_cell_length_c   9.57169609
_cell_angle_alpha   60.32480087
_cell_angle_beta   60.38179103
_cell_angle_gamma   60.37284635
_symmetry_Int_Tables_number   1
_chemical_formula_structural   Tb13Dy3InAg3Rh4
_chemical_formula_sum   'Tb13 Dy3 In1 Ag3 Rh4'
_cell_volume   625.40594817
_cell_formula_units_Z   1
loop_
 _symmetry_equiv_pos_site_id
 _symmetry_equiv_pos_as_xyz
  1  'x, y, z'
loop_
 _atom_site_type_symbol
 _atom_site_label
 _atom_site_symmetry_multiplicity
 _atom_site_fract_x
 _atom_site_fract_y
 _atom_site_fract_z
 _atom_site_occupancy
  Tb  Tb0  1  0.688725  0.312612  0.312540  1
  Tb  Tb1  1  0.689892  0.690043  0.310666  1
  Tb  Tb2  1  0.312634  0.688695  0.312780  1
  Tb  Tb3  1  0.935162  0.935182  0.561081  1
  Tb  Tb4  1  0.148706  0.148822  0.553195  1
  Tb  Tb5  1  0.562580  0.935920  0.562889  1
  Tb  Tb6  1  0.148433  0.148087  0.148168  1
  Tb  Tb7  1  0.312801  0.313001  0.688524  1
  Tb  Tb8  1  0.935771  0.562852  0.563153  1
  Tb  Tb9  1  0.562761  0.562776  0.935780  1
  Tb  Tb10  1  0.560909  0.935341  0.935106  1
  Tb  Tb11  1  0.935244  0.561092  0.935086  1
  Tb  Tb12  1  0.149191  0.552622  0.148837  1
  Dy  Dy13  1  0.310589  0.689756  0.689901  1
  Dy  Dy14  1  0.689824  0.310361  0.690086  1
  Dy  Dy15  1  0.552755  0.149227  0.148671  1
  In  In16  1  0.921158  0.921751  0.921548  1
  Ag  Ag17  1  0.916311  0.916998  0.249054  1
  Ag  Ag18  1  0.249158  0.916599  0.916662  1
  Ag  Ag19  1  0.916168  0.249157  0.916900  1
  Rh  Rh20  1  0.358169  0.357165  0.357137  1
  Rh  Rh21  1  0.928857  0.356241  0.356913  1
  Rh  Rh22  1  0.357405  0.356540  0.928763  1
  Rh  Rh23  1  0.356800  0.929163  0.356562  1
