# generated using pymatgen
data_Ca3Mn(BrO3)8
_symmetry_space_group_name_H-M   'P 1'
_cell_length_a   5.78948243
_cell_length_b   11.23518893
_cell_length_c   11.30965900
_cell_angle_alpha   119.39638013
_cell_angle_beta   90.19470468
_cell_angle_gamma   90.25847831
_symmetry_Int_Tables_number   1
_chemical_formula_structural   Ca3Mn(BrO3)8
_chemical_formula_sum   'Ca3 Mn1 Br8 O24'
_cell_volume   640.90905950
_cell_formula_units_Z   1
loop_
 _symmetry_equiv_pos_site_id
 _symmetry_equiv_pos_as_xyz
  1  'x, y, z'
loop_
 _atom_site_type_symbol
 _atom_site_label
 _atom_site_symmetry_multiplicity
 _atom_site_fract_x
 _atom_site_fract_y
 _atom_site_fract_z
 _atom_site_occupancy
  Ca  Ca0  1  0.642657  0.237095  0.491959  1
  Ca  Ca1  1  0.139614  0.266395  0.007674  1
  Ca  Ca2  1  0.636460  0.733060  0.993728  1
  Mn  Mn3  1  0.147775  0.763065  0.509000  1
  Br  Br4  1  0.267983  0.427193  0.356456  1
  Br  Br5  1  0.777047  0.589417  0.647951  1
  Br  Br6  1  0.267007  0.913517  0.841629  1
  Br  Br7  1  0.763713  0.082636  0.145505  1
  Br  Br8  1  0.788442  0.071765  0.680173  1
  Br  Br9  1  0.277036  0.907807  0.316682  1
  Br  Br10  1  0.279182  0.413242  0.802942  1
  Br  Br11  1  0.785588  0.591412  0.205079  1
  O  O12  1  0.422116  0.879629  0.947162  1
  O  O13  1  0.922848  0.109096  0.036842  1
  O  O14  1  0.373674  0.808247  0.684619  1
  O  O15  1  0.865736  0.195356  0.300838  1
  O  O16  1  0.373086  0.319210  0.201015  1
  O  O17  1  0.877551  0.695984  0.805746  1
  O  O18  1  0.913952  0.207240  0.812805  1
  O  O19  1  0.410712  0.778502  0.184446  1
  O  O20  1  0.938291  0.932942  0.656884  1
  O  O21  1  0.413815  0.050168  0.339865  1
  O  O22  1  0.365915  0.069364  0.877835  1
  O  O23  1  0.858667  0.930947  0.122186  1
  O  O24  1  0.411990  0.277743  0.677222  1
  O  O25  1  0.929779  0.722699  0.333920  1
  O  O26  1  0.345672  0.404680  0.943709  1
  O  O27  1  0.851982  0.605981  0.067643  1
  O  O28  1  0.426489  0.551034  0.821960  1
  O  O29  1  0.921212  0.447975  0.177714  1
  O  O30  1  0.365148  0.583059  0.387967  1
  O  O31  1  0.871706  0.434829  0.617740  1
  O  O32  1  0.425981  0.395491  0.462450  1
  O  O33  1  0.938309  0.621210  0.542285  1
  O  O34  1  0.856606  0.092718  0.546766  1
  O  O35  1  0.355861  0.889296  0.451598  1
