# generated using pymatgen
data_LuMg2ScIr8
_symmetry_space_group_name_H-M   'P 1'
_cell_length_a   5.24046900
_cell_length_b   5.24046764
_cell_length_c   8.52779000
_cell_angle_alpha   90.00000000
_cell_angle_beta   90.00000000
_cell_angle_gamma   120.00000227
_symmetry_Int_Tables_number   1
_chemical_formula_structural   LuMg2ScIr8
_chemical_formula_sum   'Lu1 Mg2 Sc1 Ir8'
_cell_volume   202.81838430
_cell_formula_units_Z   1
loop_
 _symmetry_equiv_pos_site_id
 _symmetry_equiv_pos_as_xyz
  1  'x, y, z'
loop_
 _atom_site_type_symbol
 _atom_site_label
 _atom_site_symmetry_multiplicity
 _atom_site_fract_x
 _atom_site_fract_y
 _atom_site_fract_z
 _atom_site_occupancy
  Lu  Lu0  1  0.333333  0.666667  0.069562  1
  Mg  Mg1  1  0.666667  0.333333  0.933227  1
  Mg  Mg2  1  0.333333  0.666667  0.437442  1
  Sc  Sc3  1  0.666667  0.333333  0.572297  1
  Ir  Ir4  1  0.000000  0.000000  0.996372  1
  Ir  Ir5  1  0.000000  0.000000  0.496541  1
  Ir  Ir6  1  0.828733  0.657466  0.250671  1
  Ir  Ir7  1  0.170993  0.829007  0.747516  1
  Ir  Ir8  1  0.658014  0.829007  0.747516  1
  Ir  Ir9  1  0.342534  0.171267  0.250671  1
  Ir  Ir10  1  0.828733  0.171267  0.250671  1
  Ir  Ir11  1  0.170993  0.341986  0.747516  1
