# generated using pymatgen
data_Yb2AlPtO6
_symmetry_space_group_name_H-M   'P 1'
_cell_length_a   5.29302824
_cell_length_b   5.44481500
_cell_length_c   7.53476742
_cell_angle_alpha   90.00000000
_cell_angle_beta   89.87461850
_cell_angle_gamma   90.00000000
_symmetry_Int_Tables_number   1
_chemical_formula_structural   Yb2AlPtO6
_chemical_formula_sum   'Yb4 Al2 Pt2 O12'
_cell_volume   217.14815816
_cell_formula_units_Z   2
loop_
 _symmetry_equiv_pos_site_id
 _symmetry_equiv_pos_as_xyz
  1  'x, y, z'
loop_
 _atom_site_type_symbol
 _atom_site_label
 _atom_site_symmetry_multiplicity
 _atom_site_fract_x
 _atom_site_fract_y
 _atom_site_fract_z
 _atom_site_occupancy
  Yb  Yb0  1  0.513752  0.556241  0.249850  1
  Yb  Yb1  1  0.986248  0.056241  0.250150  1
  Yb  Yb2  1  0.486248  0.443759  0.750150  1
  Yb  Yb3  1  0.013752  0.943759  0.749850  1
  Al  Al4  1  0.000000  0.500000  0.500000  1
  Al  Al5  1  0.500000  0.000000  0.000000  1
  Pt  Pt6  1  0.000000  0.500000  0.000000  1
  Pt  Pt7  1  0.500000  0.000000  0.500000  1
  O  O8  1  0.410528  0.976036  0.242519  1
  O  O9  1  0.089472  0.476036  0.257481  1
  O  O10  1  0.589472  0.023964  0.757481  1
  O  O11  1  0.910528  0.523964  0.742519  1
  O  O12  1  0.793741  0.804082  0.044954  1
  O  O13  1  0.706259  0.304082  0.455046  1
  O  O14  1  0.193660  0.210350  0.547714  1
  O  O15  1  0.306340  0.710350  0.952286  1
  O  O16  1  0.206259  0.195918  0.955046  1
  O  O17  1  0.293741  0.695918  0.544954  1
  O  O18  1  0.806340  0.789650  0.452286  1
  O  O19  1  0.693660  0.289650  0.047714  1
