# generated using pymatgen
data_HoTm2Lu3MnBi2
_symmetry_space_group_name_H-M   'P 1'
_cell_length_a   8.15865800
_cell_length_b   8.15284672
_cell_length_c   4.23258600
_cell_angle_alpha   90.00000000
_cell_angle_beta   90.00000000
_cell_angle_gamma   120.02358177
_symmetry_Int_Tables_number   1
_chemical_formula_structural   HoTm2Lu3MnBi2
_chemical_formula_sum   'Ho1 Tm2 Lu3 Mn1 Bi2'
_cell_volume   243.75929207
_cell_formula_units_Z   1
loop_
 _symmetry_equiv_pos_site_id
 _symmetry_equiv_pos_as_xyz
  1  'x, y, z'
loop_
 _atom_site_type_symbol
 _atom_site_label
 _atom_site_symmetry_multiplicity
 _atom_site_fract_x
 _atom_site_fract_y
 _atom_site_fract_z
 _atom_site_occupancy
  Ho  Ho0  1  0.612696  0.000000  0.000000  1
  Tm  Tm1  1  0.999920  0.613249  0.000000  1
  Tm  Tm2  1  0.386670  0.386751  0.000000  1
  Lu  Lu3  1  0.230423  0.000000  0.500000  1
  Lu  Lu4  1  0.000350  0.230662  0.500000  1
  Lu  Lu5  1  0.769688  0.769338  0.500000  1
  Mn  Mn6  1  0.000567  0.000000  0.000000  1
  Bi  Bi7  1  0.333002  0.666320  0.500000  1
  Bi  Bi8  1  0.666682  0.333680  0.500000  1
