# generated using pymatgen
data_PrEr2(P2Rh3)3
_symmetry_space_group_name_H-M   'P 1'
_cell_length_a   3.92880100
_cell_length_b   11.22992600
_cell_length_c   12.83765400
_cell_angle_alpha   90.00000000
_cell_angle_beta   90.00000000
_cell_angle_gamma   90.00000000
_symmetry_Int_Tables_number   1
_chemical_formula_structural   PrEr2(P2Rh3)3
_chemical_formula_sum   'Pr2 Er4 P12 Rh18'
_cell_volume   566.39914950
_cell_formula_units_Z   2
loop_
 _symmetry_equiv_pos_site_id
 _symmetry_equiv_pos_as_xyz
  1  'x, y, z'
loop_
 _atom_site_type_symbol
 _atom_site_label
 _atom_site_symmetry_multiplicity
 _atom_site_fract_x
 _atom_site_fract_y
 _atom_site_fract_z
 _atom_site_occupancy
  Pr  Pr0  1  0.750000  0.250000  0.478889  1
  Pr  Pr1  1  0.250000  0.750000  0.521111  1
  Er  Er2  1  0.250000  0.935375  0.796139  1
  Er  Er3  1  0.250000  0.564625  0.796139  1
  Er  Er4  1  0.750000  0.064625  0.203861  1
  Er  Er5  1  0.750000  0.435375  0.203861  1
  P  P6  1  0.250000  0.250000  0.120857  1
  P  P7  1  0.750000  0.750000  0.879143  1
  P  P8  1  0.250000  0.250000  0.653066  1
  P  P9  1  0.750000  0.750000  0.346934  1
  P  P10  1  0.250000  0.436530  0.379590  1
  P  P11  1  0.250000  0.063470  0.379590  1
  P  P12  1  0.750000  0.563470  0.620410  1
  P  P13  1  0.750000  0.936530  0.620410  1
  P  P14  1  0.250000  0.903898  0.106421  1
  P  P15  1  0.250000  0.596102  0.106421  1
  P  P16  1  0.750000  0.096102  0.893579  1
  P  P17  1  0.750000  0.403898  0.893579  1
  Rh  Rh18  1  0.250000  0.250000  0.832855  1
  Rh  Rh19  1  0.750000  0.750000  0.167145  1
  Rh  Rh20  1  0.250000  0.250000  0.295165  1
  Rh  Rh21  1  0.750000  0.750000  0.704835  1
  Rh  Rh22  1  0.750000  0.250000  0.021544  1
  Rh  Rh23  1  0.250000  0.750000  0.978456  1
  Rh  Rh24  1  0.250000  0.415820  0.006120  1
  Rh  Rh25  1  0.250000  0.084180  0.006120  1
  Rh  Rh26  1  0.750000  0.584180  0.993880  1
  Rh  Rh27  1  0.750000  0.915820  0.993880  1
  Rh  Rh28  1  0.250000  0.458187  0.571184  1
  Rh  Rh29  1  0.250000  0.041813  0.571184  1
  Rh  Rh30  1  0.750000  0.541813  0.428816  1
  Rh  Rh31  1  0.750000  0.958187  0.428816  1
  Rh  Rh32  1  0.250000  0.877712  0.286513  1
  Rh  Rh33  1  0.250000  0.622288  0.286513  1
  Rh  Rh34  1  0.750000  0.122288  0.713487  1
  Rh  Rh35  1  0.750000  0.377712  0.713487  1
