# generated using pymatgen
data_YEr19(IrPt2)4
_symmetry_space_group_name_H-M   'P 1'
_cell_length_a   10.96083596
_cell_length_b   10.96479728
_cell_length_c   6.34255197
_cell_angle_alpha   89.94012105
_cell_angle_beta   90.02178354
_cell_angle_gamma   90.04271570
_symmetry_Int_Tables_number   1
_chemical_formula_structural   YEr19(IrPt2)4
_chemical_formula_sum   'Y1 Er19 Ir4 Pt8'
_cell_volume   762.26842399
_cell_formula_units_Z   1
loop_
 _symmetry_equiv_pos_site_id
 _symmetry_equiv_pos_as_xyz
  1  'x, y, z'
loop_
 _atom_site_type_symbol
 _atom_site_label
 _atom_site_symmetry_multiplicity
 _atom_site_fract_x
 _atom_site_fract_y
 _atom_site_fract_z
 _atom_site_occupancy
  Y  Y0  1  0.087562  0.294496  0.126252  1
  Er  Er1  1  0.296441  0.086755  0.375089  1
  Er  Er2  1  0.296015  0.912700  0.875004  1
  Er  Er3  1  0.703966  0.087207  0.874764  1
  Er  Er4  1  0.703883  0.912615  0.375013  1
  Er  Er5  1  0.587271  0.796074  0.874864  1
  Er  Er6  1  0.587273  0.203933  0.374984  1
  Er  Er7  1  0.412735  0.796028  0.374938  1
  Er  Er8  1  0.412931  0.203934  0.874821  1
  Er  Er9  1  0.204123  0.413198  0.625140  1
  Er  Er10  1  0.203970  0.587821  0.125088  1
  Er  Er11  1  0.795685  0.413036  0.125188  1
  Er  Er12  1  0.795960  0.587364  0.625082  1
  Er  Er13  1  0.912693  0.703944  0.125099  1
  Er  Er14  1  0.912328  0.296202  0.625133  1
  Er  Er15  1  0.087329  0.704101  0.625134  1
  Er  Er16  1  0.999888  0.999873  0.499967  1
  Er  Er17  1  0.999743  0.999282  0.999801  1
  Er  Er18  1  0.499957  0.500129  0.999934  1
  Er  Er19  1  0.500064  0.500137  0.500164  1
  Ir  Ir20  1  0.500160  0.999853  0.120871  1
  Ir  Ir21  1  0.500128  0.999921  0.620980  1
  Ir  Ir22  1  0.999382  0.501359  0.877929  1
  Ir  Ir23  1  0.999381  0.501239  0.380193  1
  Pt  Pt24  1  0.845244  0.153358  0.250389  1
  Pt  Pt25  1  0.846010  0.845922  0.750179  1
  Pt  Pt26  1  0.154413  0.152930  0.747416  1
  Pt  Pt27  1  0.153946  0.846096  0.249961  1
  Pt  Pt28  1  0.653887  0.346106  0.750002  1
  Pt  Pt29  1  0.653912  0.654039  0.249868  1
  Pt  Pt30  1  0.347574  0.346263  0.250702  1
  Pt  Pt31  1  0.346146  0.654086  0.750050  1
