# generated using pymatgen
data_Ta9Zn2GeRh2
_symmetry_space_group_name_H-M   'P 1'
_cell_length_a   5.18099889
_cell_length_b   9.82889726
_cell_length_c   9.82876336
_cell_angle_alpha   85.96815948
_cell_angle_beta   74.71082732
_cell_angle_gamma   74.71128193
_symmetry_Int_Tables_number   1
_chemical_formula_structural   Ta9Zn2GeRh2
_chemical_formula_sum   'Ta18 Zn4 Ge2 Rh4'
_cell_volume   465.71370740
_cell_formula_units_Z   2
loop_
 _symmetry_equiv_pos_site_id
 _symmetry_equiv_pos_as_xyz
  1  'x, y, z'
loop_
 _atom_site_type_symbol
 _atom_site_label
 _atom_site_symmetry_multiplicity
 _atom_site_fract_x
 _atom_site_fract_y
 _atom_site_fract_z
 _atom_site_occupancy
  Ta  Ta0  1  0.750002  0.499985  0.500013  1
  Ta  Ta1  1  0.249998  0.500015  0.499987  1
  Ta  Ta2  1  0.792954  0.773483  0.640272  1
  Ta  Ta3  1  0.207046  0.226517  0.359728  1
  Ta  Ta4  1  0.707042  0.359720  0.226521  1
  Ta  Ta5  1  0.292958  0.640280  0.773479  1
  Ta  Ta6  1  0.566343  0.640440  0.226065  1
  Ta  Ta7  1  0.433657  0.359560  0.773935  1
  Ta  Ta8  1  0.066354  0.226063  0.640436  1
  Ta  Ta9  1  0.933646  0.773937  0.359564  1
  Ta  Ta10  1  0.583238  0.076945  0.755919  1
  Ta  Ta11  1  0.416762  0.923055  0.244081  1
  Ta  Ta12  1  0.916765  0.244077  0.923049  1
  Ta  Ta13  1  0.083235  0.755923  0.076951  1
  Ta  Ta14  1  0.660569  0.756100  0.923247  1
  Ta  Ta15  1  0.339431  0.243900  0.076753  1
  Ta  Ta16  1  0.160569  0.923254  0.756096  1
  Ta  Ta17  1  0.839431  0.076746  0.243904  1
  Zn  Zn18  1  0.500000  0.000000  0.500000  1
  Zn  Zn19  1  0.000000  0.000000  0.500000  1
  Zn  Zn20  1  0.500000  0.500000  0.000000  1
  Zn  Zn21  1  0.000000  0.500000  0.000000  1
  Ge  Ge22  1  0.249996  0.999917  0.000083  1
  Ge  Ge23  1  0.750004  0.000083  0.999917  1
  Rh  Rh24  1  0.129133  0.499839  0.242500  1
  Rh  Rh25  1  0.870867  0.500161  0.757500  1
  Rh  Rh26  1  0.370858  0.757501  0.500162  1
  Rh  Rh27  1  0.629142  0.242499  0.499838  1
