# generated using pymatgen
data_CeNd7Zn3Si12Pd
_symmetry_space_group_name_H-M   'P 1'
_cell_length_a   8.22003381
_cell_length_b   8.22003504
_cell_length_c   8.55481531
_cell_angle_alpha   90.08712339
_cell_angle_beta   89.91287652
_cell_angle_gamma   120.10499988
_symmetry_Int_Tables_number   1
_chemical_formula_structural   CeNd7Zn3Si12Pd
_chemical_formula_sum   'Ce1 Nd7 Zn3 Si12 Pd1'
_cell_volume   500.06607888
_cell_formula_units_Z   1
loop_
 _symmetry_equiv_pos_site_id
 _symmetry_equiv_pos_as_xyz
  1  'x, y, z'
loop_
 _atom_site_type_symbol
 _atom_site_label
 _atom_site_symmetry_multiplicity
 _atom_site_fract_x
 _atom_site_fract_y
 _atom_site_fract_z
 _atom_site_occupancy
  Ce  Ce0  1  0.500115  0.499885  0.750172  1
  Nd  Nd1  1  0.499989  0.500011  0.249161  1
  Nd  Nd2  1  0.001318  0.500763  0.750749  1
  Nd  Nd3  1  0.999388  0.499858  0.249689  1
  Nd  Nd4  1  0.499237  0.998682  0.750749  1
  Nd  Nd5  1  0.500142  0.000612  0.249689  1
  Nd  Nd6  1  0.000093  0.999907  0.748833  1
  Nd  Nd7  1  0.999818  0.000182  0.251219  1
  Zn  Zn8  1  0.667130  0.332870  0.996268  1
  Zn  Zn9  1  0.332999  0.667001  0.002353  1
  Zn  Zn10  1  0.333024  0.666976  0.498284  1
  Si  Si11  1  0.834263  0.165737  0.001968  1
  Si  Si12  1  0.165850  0.834150  0.000063  1
  Si  Si13  1  0.333307  0.167644  0.999088  1
  Si  Si14  1  0.164010  0.835990  0.499290  1
  Si  Si15  1  0.666318  0.831922  0.996744  1
  Si  Si16  1  0.832397  0.167603  0.499791  1
  Si  Si17  1  0.832356  0.666693  0.999088  1
  Si  Si18  1  0.670661  0.834467  0.501931  1
  Si  Si19  1  0.168078  0.333682  0.996744  1
  Si  Si20  1  0.335613  0.168442  0.502270  1
  Si  Si21  1  0.165533  0.329339  0.501931  1
  Si  Si22  1  0.831558  0.664387  0.502270  1
  Pd  Pd23  1  0.666802  0.333198  0.501655  1
