# generated using pymatgen
data_Zr10Sn2Bi4P
_symmetry_space_group_name_H-M   'P 1'
_cell_length_a   5.88804595
_cell_length_b   8.71420549
_cell_length_c   8.69758663
_cell_angle_alpha   120.06323313
_cell_angle_beta   89.96771009
_cell_angle_gamma   90.06446637
_symmetry_Int_Tables_number   1
_chemical_formula_structural   Zr10Sn2Bi4P
_chemical_formula_sum   'Zr10 Sn2 Bi4 P1'
_cell_volume   386.23447056
_cell_formula_units_Z   1
loop_
 _symmetry_equiv_pos_site_id
 _symmetry_equiv_pos_as_xyz
  1  'x, y, z'
loop_
 _atom_site_type_symbol
 _atom_site_label
 _atom_site_symmetry_multiplicity
 _atom_site_fract_x
 _atom_site_fract_y
 _atom_site_fract_z
 _atom_site_occupancy
  Zr  Zr0  1  0.496899  0.332980  0.663722  1
  Zr  Zr1  1  0.496899  0.669258  0.336278  1
  Zr  Zr2  1  0.003504  0.669193  0.336345  1
  Zr  Zr3  1  0.003504  0.332848  0.663655  1
  Zr  Zr4  1  0.755492  0.245863  0.000000  1
  Zr  Zr5  1  0.757049  0.753347  0.752221  1
  Zr  Zr6  1  0.757049  0.001125  0.247779  1
  Zr  Zr7  1  0.243302  0.754588  0.000000  1
  Zr  Zr8  1  0.243619  0.246167  0.252265  1
  Zr  Zr9  1  0.243619  0.993902  0.747735  1
  Sn  Sn10  1  0.249202  0.607807  0.608466  1
  Sn  Sn11  1  0.249202  0.999341  0.391534  1
  Bi  Bi12  1  0.750633  0.607260  0.000000  1
  Bi  Bi13  1  0.751027  0.395459  0.394717  1
  Bi  Bi14  1  0.751027  0.000743  0.605283  1
  Bi  Bi15  1  0.248627  0.389669  0.000000  1
  P  P16  1  0.499347  0.000454  0.000000  1
