# generated using pymatgen
data_TbHf8(In2Co)7
_symmetry_space_group_name_H-M   'P 1'
_cell_length_a   9.44784245
_cell_length_b   9.44964122
_cell_length_c   9.44719802
_cell_angle_alpha   60.19728704
_cell_angle_beta   60.20736684
_cell_angle_gamma   60.20300694
_symmetry_Int_Tables_number   1
_chemical_formula_structural   TbHf8(In2Co)7
_chemical_formula_sum   'Tb1 Hf8 In14 Co7'
_cell_volume   599.13309861
_cell_formula_units_Z   1
loop_
 _symmetry_equiv_pos_site_id
 _symmetry_equiv_pos_as_xyz
  1  'x, y, z'
loop_
 _atom_site_type_symbol
 _atom_site_label
 _atom_site_symmetry_multiplicity
 _atom_site_fract_x
 _atom_site_fract_y
 _atom_site_fract_z
 _atom_site_occupancy
  Tb  Tb0  1  0.500000  0.500000  0.500000  1
  Hf  Hf1  1  0.119069  0.642674  0.119037  1
  Hf  Hf2  1  0.357346  0.880890  0.881070  1
  Hf  Hf3  1  0.880664  0.880757  0.880649  1
  Hf  Hf4  1  0.642654  0.119110  0.118930  1
  Hf  Hf5  1  0.881046  0.880902  0.357355  1
  Hf  Hf6  1  0.119336  0.119243  0.119351  1
  Hf  Hf7  1  0.880931  0.357326  0.880963  1
  Hf  Hf8  1  0.118954  0.119098  0.642645  1
  In  In9  1  0.499984  0.845289  0.154683  1
  In  In10  1  0.500542  0.844910  0.500581  1
  In  In11  1  0.499458  0.155090  0.499419  1
  In  In12  1  0.500524  0.500545  0.845072  1
  In  In13  1  0.154924  0.499477  0.499445  1
  In  In14  1  0.845317  0.154698  0.500012  1
  In  In15  1  0.154683  0.845302  0.499988  1
  In  In16  1  0.500016  0.154711  0.845317  1
  In  In17  1  0.154844  0.500010  0.845168  1
  In  In18  1  0.499476  0.499455  0.154928  1
  In  In19  1  0.845076  0.500523  0.500555  1
  In  In20  1  0.845156  0.499990  0.154832  1
  In  In21  1  0.250054  0.249902  0.250042  1
  In  In22  1  0.749946  0.750098  0.749958  1
  Co  Co23  1  0.781326  0.781340  0.218345  1
  Co  Co24  1  0.000000  0.000000  0.000000  1
  Co  Co25  1  0.218862  0.781607  0.218865  1
  Co  Co26  1  0.218299  0.781344  0.781312  1
  Co  Co27  1  0.218674  0.218660  0.781655  1
  Co  Co28  1  0.781138  0.218393  0.781135  1
  Co  Co29  1  0.781701  0.218656  0.218688  1
