# generated using pymatgen
data_Ho3Sc(SiRh2)8
_symmetry_space_group_name_H-M   'P 1'
_cell_length_a   4.11115100
_cell_length_b   9.06155021
_cell_length_c   11.24735306
_cell_angle_alpha   90.79430888
_cell_angle_beta   90.00000000
_cell_angle_gamma   90.00000000
_symmetry_Int_Tables_number   1
_chemical_formula_structural   Ho3Sc(SiRh2)8
_chemical_formula_sum   'Ho3 Sc1 Si8 Rh16'
_cell_volume   418.96189211
_cell_formula_units_Z   1
loop_
 _symmetry_equiv_pos_site_id
 _symmetry_equiv_pos_as_xyz
  1  'x, y, z'
loop_
 _atom_site_type_symbol
 _atom_site_label
 _atom_site_symmetry_multiplicity
 _atom_site_fract_x
 _atom_site_fract_y
 _atom_site_fract_z
 _atom_site_occupancy
  Ho  Ho0  1  0.250000  0.146015  0.823574  1
  Ho  Ho1  1  0.250000  0.353694  0.326261  1
  Ho  Ho2  1  0.750000  0.850813  0.173982  1
  Sc  Sc3  1  0.750000  0.644287  0.675550  1
  Si  Si4  1  0.250000  0.417060  0.638433  1
  Si  Si5  1  0.250000  0.088059  0.135125  1
  Si  Si6  1  0.750000  0.589130  0.365029  1
  Si  Si7  1  0.750000  0.907386  0.860570  1
  Si  Si8  1  0.250000  0.618483  0.059888  1
  Si  Si9  1  0.250000  0.886934  0.559435  1
  Si  Si10  1  0.750000  0.382638  0.941727  1
  Si  Si11  1  0.750000  0.117998  0.441247  1
  Rh  Rh12  1  0.250000  0.621828  0.509130  1
  Rh  Rh13  1  0.250000  0.884355  0.995067  1
  Rh  Rh14  1  0.750000  0.388727  0.500618  1
  Rh  Rh15  1  0.750000  0.114257  0.998139  1
  Rh  Rh16  1  0.250000  0.683737  0.273283  1
  Rh  Rh17  1  0.250000  0.799670  0.762193  1
  Rh  Rh18  1  0.750000  0.316034  0.730627  1
  Rh  Rh19  1  0.750000  0.185431  0.231112  1
  Rh  Rh20  1  0.250000  0.174333  0.560496  1
  Rh  Rh21  1  0.250000  0.327437  0.057927  1
  Rh  Rh22  1  0.750000  0.829410  0.442255  1
  Rh  Rh23  1  0.750000  0.670331  0.937819  1
  Rh  Rh24  1  0.250000  0.007544  0.343061  1
  Rh  Rh25  1  0.250000  0.493526  0.843838  1
  Rh  Rh26  1  0.750000  0.991871  0.658375  1
  Rh  Rh27  1  0.750000  0.509013  0.155237  1
