# generated using pymatgen
data_YbTmSc2(ReB6)2
_symmetry_space_group_name_H-M   'P 1'
_cell_length_a   3.56167400
_cell_length_b   9.01981522
_cell_length_c   11.35708327
_cell_angle_alpha   89.97494050
_cell_angle_beta   90.00000000
_cell_angle_gamma   90.00000000
_symmetry_Int_Tables_number   1
_chemical_formula_structural   YbTmSc2(ReB6)2
_chemical_formula_sum   'Yb2 Tm2 Sc4 Re4 B24'
_cell_volume   364.85354894
_cell_formula_units_Z   2
loop_
 _symmetry_equiv_pos_site_id
 _symmetry_equiv_pos_as_xyz
  1  'x, y, z'
loop_
 _atom_site_type_symbol
 _atom_site_label
 _atom_site_symmetry_multiplicity
 _atom_site_fract_x
 _atom_site_fract_y
 _atom_site_fract_z
 _atom_site_occupancy
  Yb  Yb0  1  0.000000  0.823524  0.085325  1
  Yb  Yb1  1  0.000000  0.176476  0.914675  1
  Tm  Tm2  1  0.000000  0.322558  0.414440  1
  Tm  Tm3  1  0.000000  0.677442  0.585560  1
  Sc  Sc4  1  0.000000  0.944752  0.369284  1
  Sc  Sc5  1  0.000000  0.055248  0.630716  1
  Sc  Sc6  1  0.000000  0.443620  0.132091  1
  Sc  Sc7  1  0.000000  0.556380  0.867909  1
  Re  Re8  1  0.000000  0.641061  0.318322  1
  Re  Re9  1  0.000000  0.358939  0.681678  1
  Re  Re10  1  0.000000  0.144612  0.182883  1
  Re  Re11  1  0.000000  0.855388  0.817117  1
  B  B12  1  0.500000  0.554480  0.433440  1
  B  B13  1  0.500000  0.445520  0.566560  1
  B  B14  1  0.500000  0.054479  0.067634  1
  B  B15  1  0.500000  0.945521  0.932366  1
  B  B16  1  0.500000  0.754655  0.418875  1
  B  B17  1  0.500000  0.245345  0.581125  1
  B  B18  1  0.500000  0.254728  0.081349  1
  B  B19  1  0.500000  0.745272  0.918651  1
  B  B20  1  0.500000  0.796202  0.264007  1
  B  B21  1  0.500000  0.203798  0.735993  1
  B  B22  1  0.500000  0.296546  0.236885  1
  B  B23  1  0.500000  0.703454  0.763115  1
  B  B24  1  0.500000  0.629975  0.182389  1
  B  B25  1  0.500000  0.370025  0.817611  1
  B  B26  1  0.500000  0.129959  0.317971  1
  B  B27  1  0.500000  0.870041  0.682029  1
  B  B28  1  0.500000  0.982105  0.213198  1
  B  B29  1  0.500000  0.017895  0.786802  1
  B  B30  1  0.500000  0.481574  0.287133  1
  B  B31  1  0.500000  0.518426  0.712867  1
  B  B32  1  0.500000  0.592375  0.025072  1
  B  B33  1  0.500000  0.407625  0.974928  1
  B  B34  1  0.500000  0.095025  0.474270  1
  B  B35  1  0.500000  0.904975  0.525730  1
