# generated using pymatgen
data_Mg3In9IrRh3
_symmetry_space_group_name_H-M   'P 1'
_cell_length_a   7.08183576
_cell_length_b   7.15380760
_cell_length_c   7.10779400
_cell_angle_alpha   90.00000000
_cell_angle_beta   90.00000000
_cell_angle_gamma   89.99701801
_symmetry_Int_Tables_number   1
_chemical_formula_structural   Mg3In9IrRh3
_chemical_formula_sum   'Mg3 In9 Ir1 Rh3'
_cell_volume   360.09570243
_cell_formula_units_Z   1
loop_
 _symmetry_equiv_pos_site_id
 _symmetry_equiv_pos_as_xyz
  1  'x, y, z'
loop_
 _atom_site_type_symbol
 _atom_site_label
 _atom_site_symmetry_multiplicity
 _atom_site_fract_x
 _atom_site_fract_y
 _atom_site_fract_z
 _atom_site_occupancy
  Mg  Mg0  1  0.999756  0.499778  0.500000  1
  Mg  Mg1  1  0.500544  0.000489  0.000000  1
  Mg  Mg2  1  0.500212  0.000283  0.500000  1
  In  In3  1  0.999423  0.499404  0.000000  1
  In  In4  1  0.346060  0.660337  0.241013  1
  In  In5  1  0.654740  0.338913  0.241647  1
  In  In6  1  0.161896  0.157314  0.735443  1
  In  In7  1  0.837611  0.843238  0.735425  1
  In  In8  1  0.654740  0.338913  0.758353  1
  In  In9  1  0.346060  0.660337  0.758987  1
  In  In10  1  0.837611  0.843238  0.264575  1
  In  In11  1  0.161896  0.157314  0.264557  1
  Ir  Ir12  1  0.150149  0.848185  0.500000  1
  Rh  Rh13  1  0.849858  0.151559  0.500000  1
  Rh  Rh14  1  0.348455  0.348803  0.000000  1
  Rh  Rh15  1  0.650988  0.651895  0.000000  1
