# generated using pymatgen
data_Cs2Pa(SiO3)3
_symmetry_space_group_name_H-M   'P 1'
_cell_length_a   7.52803700
_cell_length_b   7.52803577
_cell_length_c   10.84054100
_cell_angle_alpha   90.00000000
_cell_angle_beta   90.00000000
_cell_angle_gamma   119.99998813
_symmetry_Int_Tables_number   1
_chemical_formula_structural   Cs2Pa(SiO3)3
_chemical_formula_sum   'Cs4 Pa2 Si6 O18'
_cell_volume   532.04094861
_cell_formula_units_Z   2
loop_
 _symmetry_equiv_pos_site_id
 _symmetry_equiv_pos_as_xyz
  1  'x, y, z'
loop_
 _atom_site_type_symbol
 _atom_site_label
 _atom_site_symmetry_multiplicity
 _atom_site_fract_x
 _atom_site_fract_y
 _atom_site_fract_z
 _atom_site_occupancy
  Cs  Cs0  1  0.333333  0.666667  0.436101  1
  Cs  Cs1  1  0.666667  0.333333  0.936101  1
  Cs  Cs2  1  0.666667  0.333333  0.563899  1
  Cs  Cs3  1  0.333333  0.666667  0.063899  1
  Pa  Pa4  1  0.000000  0.000000  0.500000  1
  Pa  Pa5  1  0.000000  0.000000  0.000000  1
  Si  Si6  1  0.601173  0.757832  0.750000  1
  Si  Si7  1  0.843341  0.601173  0.250000  1
  Si  Si8  1  0.757832  0.156659  0.250000  1
  Si  Si9  1  0.242168  0.843341  0.750000  1
  Si  Si10  1  0.156659  0.398827  0.750000  1
  Si  Si11  1  0.398827  0.242168  0.250000  1
  O  O12  1  0.271996  0.205572  0.377238  1
  O  O13  1  0.066423  0.271996  0.877238  1
  O  O14  1  0.205572  0.933577  0.877238  1
  O  O15  1  0.794428  0.066423  0.377238  1
  O  O16  1  0.933577  0.728004  0.377238  1
  O  O17  1  0.728004  0.794428  0.877238  1
  O  O18  1  0.728004  0.794428  0.622762  1
  O  O19  1  0.933577  0.728004  0.122762  1
  O  O20  1  0.794428  0.066423  0.122762  1
  O  O21  1  0.205572  0.933577  0.622762  1
  O  O22  1  0.066423  0.271996  0.622762  1
  O  O23  1  0.271996  0.205572  0.122762  1
  O  O24  1  0.512404  0.100373  0.250000  1
  O  O25  1  0.412030  0.512404  0.750000  1
  O  O26  1  0.100373  0.587970  0.750000  1
  O  O27  1  0.899627  0.412030  0.250000  1
  O  O28  1  0.587970  0.487596  0.250000  1
  O  O29  1  0.487596  0.899627  0.750000  1
