# generated using pymatgen
data_Dy9HoGa3Bi2Pt
_symmetry_space_group_name_H-M   'P 1'
_cell_length_a   8.63747438
_cell_length_b   8.63747557
_cell_length_c   8.77445719
_cell_angle_alpha   124.40154345
_cell_angle_beta   124.40458199
_cell_angle_gamma   81.49223817
_symmetry_Int_Tables_number   1
_chemical_formula_structural   Dy9HoGa3Bi2Pt
_chemical_formula_sum   'Dy9 Ho1 Ga3 Bi2 Pt1'
_cell_volume   431.30715746
_cell_formula_units_Z   1
loop_
 _symmetry_equiv_pos_site_id
 _symmetry_equiv_pos_as_xyz
  1  'x, y, z'
loop_
 _atom_site_type_symbol
 _atom_site_label
 _atom_site_symmetry_multiplicity
 _atom_site_fract_x
 _atom_site_fract_y
 _atom_site_fract_z
 _atom_site_occupancy
  Dy  Dy0  1  0.501831  0.503727  0.005559  1
  Dy  Dy1  1  0.785026  0.295874  0.799385  1
  Dy  Dy2  1  0.203989  0.715046  0.200596  1
  Dy  Dy3  1  0.485551  0.996607  0.200596  1
  Dy  Dy4  1  0.299649  0.467295  0.499901  1
  Dy  Dy5  1  0.032605  0.200252  0.499901  1
  Dy  Dy6  1  0.503511  0.014359  0.799385  1
  Dy  Dy7  1  0.703735  0.515246  0.500093  1
  Dy  Dy8  1  0.984847  0.796358  0.500093  1
  Ho  Ho9  1  0.996376  0.998201  0.994577  1
  Ga  Ga10  1  0.144299  0.645203  0.789501  1
  Ga  Ga11  1  0.855008  0.355509  0.210518  1
  Ga  Ga12  1  0.638792  0.861420  0.500212  1
  Bi  Bi13  1  0.246230  0.253524  0.999994  1
  Bi  Bi14  1  0.746470  0.753764  0.999994  1
  Pt  Pt15  1  0.372081  0.127614  0.499695  1
