# generated using pymatgen
data_Ta3(Ga2Ni)2
_symmetry_space_group_name_H-M   'P 1'
_cell_length_a   8.72750704
_cell_length_b   8.77708868
_cell_length_c   8.09417700
_cell_angle_alpha   90.00000000
_cell_angle_beta   90.00000000
_cell_angle_gamma   121.06776527
_symmetry_Int_Tables_number   1
_chemical_formula_structural   Ta3(Ga2Ni)2
_chemical_formula_sum   'Ta12 Ga16 Ni8'
_cell_volume   531.09222035
_cell_formula_units_Z   4
loop_
 _symmetry_equiv_pos_site_id
 _symmetry_equiv_pos_as_xyz
  1  'x, y, z'
loop_
 _atom_site_type_symbol
 _atom_site_label
 _atom_site_symmetry_multiplicity
 _atom_site_fract_x
 _atom_site_fract_y
 _atom_site_fract_z
 _atom_site_occupancy
  Ta  Ta0  1  0.329748  0.995038  0.065961  1
  Ta  Ta1  1  0.670252  0.004962  0.934039  1
  Ta  Ta2  1  0.998216  0.329555  0.067346  1
  Ta  Ta3  1  0.670252  0.004962  0.565961  1
  Ta  Ta4  1  0.998216  0.329555  0.432654  1
  Ta  Ta5  1  0.001784  0.670445  0.932654  1
  Ta  Ta6  1  0.329748  0.995038  0.434039  1
  Ta  Ta7  1  0.001784  0.670445  0.567346  1
  Ta  Ta8  1  0.668052  0.664455  0.067594  1
  Ta  Ta9  1  0.331948  0.335545  0.932406  1
  Ta  Ta10  1  0.331948  0.335545  0.567594  1
  Ta  Ta11  1  0.668052  0.664455  0.432406  1
  Ga  Ga12  1  0.344269  0.848420  0.750000  1
  Ga  Ga13  1  0.653554  0.507135  0.750000  1
  Ga  Ga14  1  0.655731  0.151580  0.250000  1
  Ga  Ga15  1  0.346446  0.492865  0.250000  1
  Ga  Ga16  1  0.846229  0.341533  0.750000  1
  Ga  Ga17  1  0.153771  0.658467  0.250000  1
  Ga  Ga18  1  0.342047  0.665194  0.506901  1
  Ga  Ga19  1  0.657953  0.334806  0.493099  1
  Ga  Ga20  1  0.657953  0.334806  0.006901  1
  Ga  Ga21  1  0.342047  0.665194  0.993099  1
  Ga  Ga22  1  0.181201  0.011077  0.750000  1
  Ga  Ga23  1  0.818799  0.988923  0.250000  1
  Ga  Ga24  1  0.009972  0.181393  0.750000  1
  Ga  Ga25  1  0.990028  0.818607  0.250000  1
  Ga  Ga26  1  0.825767  0.835639  0.750000  1
  Ga  Ga27  1  0.174233  0.164361  0.250000  1
  Ni  Ni28  1  0.167138  0.501348  0.750000  1
  Ni  Ni29  1  0.832862  0.498652  0.250000  1
  Ni  Ni30  1  0.508272  0.674047  0.750000  1
  Ni  Ni31  1  0.505445  0.172361  0.750000  1
  Ni  Ni32  1  0.491728  0.325953  0.250000  1
  Ni  Ni33  1  0.494555  0.827639  0.250000  1
  Ni  Ni34  1  0.000000  0.000000  0.500000  1
  Ni  Ni35  1  0.000000  0.000000  0.000000  1
