# generated using pymatgen
data_Dy9Er(GaCo5)2
_symmetry_space_group_name_H-M   'P 1'
_cell_length_a   5.50146266
_cell_length_b   5.50146251
_cell_length_c   20.56345800
_cell_angle_alpha   90.00000000
_cell_angle_beta   90.00000000
_cell_angle_gamma   136.99068340
_symmetry_Int_Tables_number   1
_chemical_formula_structural   Dy9Er(GaCo5)2
_chemical_formula_sum   'Dy9 Er1 Ga2 Co10'
_cell_volume   424.53306670
_cell_formula_units_Z   1
loop_
 _symmetry_equiv_pos_site_id
 _symmetry_equiv_pos_as_xyz
  1  'x, y, z'
loop_
 _atom_site_type_symbol
 _atom_site_label
 _atom_site_symmetry_multiplicity
 _atom_site_fract_x
 _atom_site_fract_y
 _atom_site_fract_z
 _atom_site_occupancy
  Dy  Dy0  1  0.288646  0.711354  0.250000  1
  Dy  Dy1  1  0.291465  0.708535  0.065752  1
  Dy  Dy2  1  0.997354  0.002646  0.842628  1
  Dy  Dy3  1  0.708522  0.291478  0.565979  1
  Dy  Dy4  1  0.002905  0.997095  0.342988  1
  Dy  Dy5  1  0.997354  0.002646  0.657372  1
  Dy  Dy6  1  0.708522  0.291478  0.934021  1
  Dy  Dy7  1  0.002905  0.997095  0.157012  1
  Dy  Dy8  1  0.291465  0.708535  0.434248  1
  Er  Er9  1  0.712488  0.287512  0.750000  1
  Ga  Ga10  1  0.999992  0.000008  0.500151  1
  Ga  Ga11  1  0.999992  0.000008  0.999849  1
  Co  Co12  1  0.294651  0.705349  0.654444  1
  Co  Co13  1  0.582226  0.417774  0.441447  1
  Co  Co14  1  0.411924  0.588076  0.750000  1
  Co  Co15  1  0.417543  0.582457  0.941344  1
  Co  Co16  1  0.587031  0.412969  0.250000  1
  Co  Co17  1  0.417543  0.582457  0.558656  1
  Co  Co18  1  0.705298  0.294702  0.345701  1
  Co  Co19  1  0.705298  0.294702  0.154299  1
  Co  Co20  1  0.582226  0.417774  0.058553  1
  Co  Co21  1  0.294651  0.705349  0.845556  1
