# generated using pymatgen
data_Cs6Ti2Se6S
_symmetry_space_group_name_H-M   'P 1'
_cell_length_a   12.00417600
_cell_length_b   8.94708462
_cell_length_c   14.69736521
_cell_angle_alpha   54.49378654
_cell_angle_beta   90.00000000
_cell_angle_gamma   90.00000000
_symmetry_Int_Tables_number   1
_chemical_formula_structural   Cs6Ti2Se6S
_chemical_formula_sum   'Cs12 Ti4 Se12 S2'
_cell_volume   1285.00796656
_cell_formula_units_Z   2
loop_
 _symmetry_equiv_pos_site_id
 _symmetry_equiv_pos_as_xyz
  1  'x, y, z'
loop_
 _atom_site_type_symbol
 _atom_site_label
 _atom_site_symmetry_multiplicity
 _atom_site_fract_x
 _atom_site_fract_y
 _atom_site_fract_z
 _atom_site_occupancy
  Cs  Cs0  1  0.796676  0.563379  0.296711  1
  Cs  Cs1  1  0.650709  0.938856  0.917672  1
  Cs  Cs2  1  0.528859  0.178630  0.574558  1
  Cs  Cs3  1  0.028859  0.821370  0.925442  1
  Cs  Cs4  1  0.296676  0.436621  0.203289  1
  Cs  Cs5  1  0.150709  0.061144  0.582328  1
  Cs  Cs6  1  0.849291  0.938856  0.417672  1
  Cs  Cs7  1  0.703324  0.563379  0.796711  1
  Cs  Cs8  1  0.971141  0.178630  0.074558  1
  Cs  Cs9  1  0.471141  0.821370  0.425442  1
  Cs  Cs10  1  0.349291  0.061144  0.082328  1
  Cs  Cs11  1  0.203324  0.436621  0.703289  1
  Ti  Ti12  1  0.862731  0.323899  0.631950  1
  Ti  Ti13  1  0.362731  0.676101  0.868050  1
  Ti  Ti14  1  0.637269  0.323899  0.131950  1
  Ti  Ti15  1  0.137269  0.676101  0.368050  1
  Se  Se16  1  0.085570  0.735224  0.193989  1
  Se  Se17  1  0.301629  0.493776  0.431025  1
  Se  Se18  1  0.337903  0.956133  0.853009  1
  Se  Se19  1  0.837903  0.043867  0.646991  1
  Se  Se20  1  0.801629  0.506224  0.068975  1
  Se  Se21  1  0.585570  0.264776  0.306011  1
  Se  Se22  1  0.414430  0.735224  0.693989  1
  Se  Se23  1  0.198371  0.493776  0.931025  1
  Se  Se24  1  0.162097  0.956133  0.353009  1
  Se  Se25  1  0.662097  0.043867  0.146991  1
  Se  Se26  1  0.698371  0.506224  0.568975  1
  Se  Se27  1  0.914430  0.264776  0.806011  1
  S  S28  1  0.000000  0.500000  0.500000  1
  S  S29  1  0.500000  0.500000  0.000000  1
