# generated using pymatgen
data_Sr2FeCo3As4
_symmetry_space_group_name_H-M   'P 1'
_cell_length_a   5.54833500
_cell_length_b   6.62024169
_cell_length_c   5.55331284
_cell_angle_alpha   65.05684633
_cell_angle_beta   90.00004131
_cell_angle_gamma   90.00004336
_symmetry_Int_Tables_number   1
_chemical_formula_structural   Sr2FeCo3As4
_chemical_formula_sum   'Sr2 Fe1 Co3 As4'
_cell_volume   184.95455756
_cell_formula_units_Z   1
loop_
 _symmetry_equiv_pos_site_id
 _symmetry_equiv_pos_as_xyz
  1  'x, y, z'
loop_
 _atom_site_type_symbol
 _atom_site_label
 _atom_site_symmetry_multiplicity
 _atom_site_fract_x
 _atom_site_fract_y
 _atom_site_fract_z
 _atom_site_occupancy
  Sr  Sr0  1  0.999040  0.000001  0.999999  1
  Sr  Sr1  1  0.500957  0.999999  0.500000  1
  Fe  Fe2  1  0.250302  0.500000  0.500002  1
  Co  Co3  1  0.250248  0.499999  0.000000  1
  Co  Co4  1  0.749623  0.500001  0.000000  1
  Co  Co5  1  0.749796  0.499999  0.500000  1
  As  As6  1  0.498799  0.710251  0.145357  1
  As  As7  1  0.001217  0.709352  0.643849  1
  As  As8  1  0.001218  0.290647  0.356150  1
  As  As9  1  0.498801  0.289748  0.854643  1
