# generated using pymatgen
data_TbHo4Er(Si3Ru)8
_symmetry_space_group_name_H-M   'P 1'
_cell_length_a   10.11824859
_cell_length_b   10.11834532
_cell_length_c   8.13492202
_cell_angle_alpha   90.07275303
_cell_angle_beta   89.92479026
_cell_angle_gamma   132.58528477
_symmetry_Int_Tables_number   1
_chemical_formula_structural   TbHo4Er(Si3Ru)8
_chemical_formula_sum   'Tb1 Ho4 Er1 Si24 Ru8'
_cell_volume   613.20465471
_cell_formula_units_Z   1
loop_
 _symmetry_equiv_pos_site_id
 _symmetry_equiv_pos_as_xyz
  1  'x, y, z'
loop_
 _atom_site_type_symbol
 _atom_site_label
 _atom_site_symmetry_multiplicity
 _atom_site_fract_x
 _atom_site_fract_y
 _atom_site_fract_z
 _atom_site_occupancy
  Tb  Tb0  1  0.497579  0.997581  0.249989  1
  Ho  Ho1  1  0.002081  0.502081  0.750000  1
  Ho  Ho2  1  0.502301  0.002299  0.750007  1
  Ho  Ho3  1  0.997383  0.497379  0.249995  1
  Ho  Ho4  1  0.499989  0.499956  0.500080  1
  Er  Er5  1  0.999900  0.999939  0.999898  1
  Si  Si6  1  0.387236  0.152782  0.004394  1
  Si  Si7  1  0.652814  0.887310  0.495626  1
  Si  Si8  1  0.110534  0.343228  0.503549  1
  Si  Si9  1  0.843258  0.610608  0.996430  1
  Si  Si10  1  0.612973  0.847847  0.993437  1
  Si  Si11  1  0.347812  0.112894  0.506546  1
  Si  Si12  1  0.889350  0.656575  0.495304  1
  Si  Si13  1  0.156549  0.389275  0.004714  1
  Si  Si14  1  0.612768  0.378144  0.228522  1
  Si  Si15  1  0.878134  0.112710  0.271420  1
  Si  Si16  1  0.886453  0.120269  0.728000  1
  Si  Si17  1  0.620280  0.386409  0.772069  1
  Si  Si18  1  0.388833  0.623090  0.771973  1
  Si  Si19  1  0.123094  0.888884  0.728092  1
  Si  Si20  1  0.704488  0.293901  0.999660  1
  Si  Si21  1  0.793904  0.204491  0.500340  1
  Si  Si22  1  0.295384  0.705927  0.999831  1
  Si  Si23  1  0.205921  0.795376  0.500171  1
  Si  Si24  1  0.168173  0.166625  0.332913  1
  Si  Si25  1  0.666723  0.668268  0.166975  1
  Si  Si26  1  0.332547  0.332436  0.833212  1
  Si  Si27  1  0.832528  0.832645  0.666909  1
  Si  Si28  1  0.377919  0.612466  0.229107  1
  Si  Si29  1  0.112419  0.877924  0.270833  1
  Ru  Ru30  1  0.626478  0.626792  0.873180  1
  Ru  Ru31  1  0.126494  0.126183  0.627136  1
  Ru  Ru32  1  0.873576  0.874189  0.372485  1
  Ru  Ru33  1  0.373880  0.373277  0.127204  1
  Ru  Ru34  1  0.327393  0.665832  0.501319  1
  Ru  Ru35  1  0.165715  0.827504  0.998670  1
  Ru  Ru36  1  0.672703  0.334316  0.500916  1
  Ru  Ru37  1  0.834432  0.172586  0.999095  1
