# generated using pymatgen
data_Tm2Mn2CoNi9P7
_symmetry_space_group_name_H-M   'P 1'
_cell_length_a   9.07618460
_cell_length_b   9.04208429
_cell_length_c   3.65336900
_cell_angle_alpha   90.00000000
_cell_angle_beta   90.00000000
_cell_angle_gamma   119.94177500
_symmetry_Int_Tables_number   1
_chemical_formula_structural   Tm2Mn2CoNi9P7
_chemical_formula_sum   'Tm2 Mn2 Co1 Ni9 P7'
_cell_volume   259.80682200
_cell_formula_units_Z   1
loop_
 _symmetry_equiv_pos_site_id
 _symmetry_equiv_pos_as_xyz
  1  'x, y, z'
loop_
 _atom_site_type_symbol
 _atom_site_label
 _atom_site_symmetry_multiplicity
 _atom_site_fract_x
 _atom_site_fract_y
 _atom_site_fract_z
 _atom_site_occupancy
  Tm  Tm0  1  0.997559  0.998220  0.000000  1
  Tm  Tm1  1  0.667702  0.334081  0.500000  1
  Mn  Mn2  1  0.429262  0.883938  0.500000  1
  Mn  Mn3  1  0.115642  0.544322  0.500000  1
  Co  Co4  1  0.176734  0.791537  0.000000  1
  Ni  Ni5  1  0.706904  0.603287  0.000000  1
  Ni  Ni6  1  0.396401  0.103213  0.000000  1
  Ni  Ni7  1  0.900095  0.295514  0.000000  1
  Ni  Ni8  1  0.213354  0.389139  0.000000  1
  Ni  Ni9  1  0.608688  0.819195  0.000000  1
  Ni  Ni10  1  0.282738  0.230750  0.500000  1
  Ni  Ni11  1  0.768973  0.051429  0.500000  1
  Ni  Ni12  1  0.949006  0.719182  0.500000  1
  Ni  Ni13  1  0.456871  0.569208  0.500000  1
  P  P14  1  0.449449  0.373738  0.000000  1
  P  P15  1  0.628394  0.075664  0.000000  1
  P  P16  1  0.927992  0.555197  0.000000  1
  P  P17  1  0.040898  0.259450  0.500000  1
  P  P18  1  0.736025  0.779889  0.500000  1
  P  P19  1  0.217398  0.954802  0.500000  1
  P  P20  1  0.329915  0.668249  0.000000  1
