# generated using pymatgen
data_Ta2BeNb3(B2Ru5)2
_symmetry_space_group_name_H-M   'P 1'
_cell_length_a   9.31371329
_cell_length_b   9.31687429
_cell_length_c   3.00122800
_cell_angle_alpha   90.00000000
_cell_angle_beta   90.00000000
_cell_angle_gamma   89.93961221
_symmetry_Int_Tables_number   1
_chemical_formula_structural   Ta2BeNb3(B2Ru5)2
_chemical_formula_sum   'Ta2 Be1 Nb3 B4 Ru10'
_cell_volume   260.43050256
_cell_formula_units_Z   1
loop_
 _symmetry_equiv_pos_site_id
 _symmetry_equiv_pos_as_xyz
  1  'x, y, z'
loop_
 _atom_site_type_symbol
 _atom_site_label
 _atom_site_symmetry_multiplicity
 _atom_site_fract_x
 _atom_site_fract_y
 _atom_site_fract_z
 _atom_site_occupancy
  Ta  Ta0  1  0.818108  0.673592  0.000000  1
  Ta  Ta1  1  0.000169  0.000032  0.000000  1
  Be  Be2  1  0.499879  0.499870  0.000000  1
  Nb  Nb3  1  0.181261  0.326454  0.000000  1
  Nb  Nb4  1  0.326402  0.818352  0.000000  1
  Nb  Nb5  1  0.673727  0.181606  0.000000  1
  B  B6  1  0.613581  0.865283  0.000000  1
  B  B7  1  0.386407  0.134904  0.000000  1
  B  B8  1  0.135041  0.613766  0.000000  1
  B  B9  1  0.865247  0.386332  0.000000  1
  Ru  Ru10  1  0.564804  0.706811  0.500000  1
  Ru  Ru11  1  0.436061  0.293062  0.500000  1
  Ru  Ru12  1  0.073248  0.779533  0.500000  1
  Ru  Ru13  1  0.925945  0.220420  0.500000  1
  Ru  Ru14  1  0.292909  0.563931  0.500000  1
  Ru  Ru15  1  0.707342  0.436715  0.500000  1
  Ru  Ru16  1  0.220368  0.074169  0.500000  1
  Ru  Ru17  1  0.780062  0.924511  0.500000  1
  Ru  Ru18  1  0.500200  0.999898  0.500000  1
  Ru  Ru19  1  0.999239  0.500759  0.500000  1
