# generated using pymatgen
data_Hf16Fe2Ni2IrRh3
_symmetry_space_group_name_H-M   'P 1'
_cell_length_a   8.60438559
_cell_length_b   8.60209014
_cell_length_c   8.60040200
_cell_angle_alpha   60.00649159
_cell_angle_beta   60.01531383
_cell_angle_gamma   60.11888018
_symmetry_Int_Tables_number   1
_chemical_formula_structural   Hf16Fe2Ni2IrRh3
_chemical_formula_sum   'Hf16 Fe2 Ni2 Ir1 Rh3'
_cell_volume   450.59663900
_cell_formula_units_Z   1
loop_
 _symmetry_equiv_pos_site_id
 _symmetry_equiv_pos_as_xyz
  1  'x, y, z'
loop_
 _atom_site_type_symbol
 _atom_site_label
 _atom_site_symmetry_multiplicity
 _atom_site_fract_x
 _atom_site_fract_y
 _atom_site_fract_z
 _atom_site_occupancy
  Hf  Hf0  1  0.673464  0.110560  0.107988  1
  Hf  Hf1  1  0.109613  0.676628  0.106879  1
  Hf  Hf2  1  0.107513  0.107003  0.681340  1
  Hf  Hf3  1  0.107513  0.107003  0.104145  1
  Hf  Hf4  1  0.312386  0.311822  0.687896  1
  Hf  Hf5  1  0.688369  0.685066  0.313283  1
  Hf  Hf6  1  0.314519  0.687730  0.311495  1
  Hf  Hf7  1  0.689184  0.313749  0.685714  1
  Hf  Hf8  1  0.689184  0.313749  0.311353  1
  Hf  Hf9  1  0.314519  0.687730  0.686256  1
  Hf  Hf10  1  0.947463  0.947907  0.552315  1
  Hf  Hf11  1  0.558091  0.557928  0.941990  1
  Hf  Hf12  1  0.944082  0.551548  0.943354  1
  Hf  Hf13  1  0.552704  0.942947  0.561908  1
  Hf  Hf14  1  0.552704  0.942947  0.942442  1
  Hf  Hf15  1  0.944082  0.551548  0.561017  1
  Fe  Fe16  1  0.320053  0.893835  0.893057  1
  Fe  Fe17  1  0.893527  0.318589  0.893942  1
  Ni  Ni18  1  0.893353  0.894964  0.316461  1
  Ni  Ni19  1  0.893353  0.894964  0.895222  1
  Ir  Ir20  1  0.993451  0.334713  0.335918  1
  Rh  Rh21  1  0.333025  0.995307  0.335834  1
  Rh  Rh22  1  0.333926  0.335883  0.995226  1
  Rh  Rh23  1  0.333926  0.335883  0.334965  1
