# generated using pymatgen
data_Mn8Nb8Si13P
_symmetry_space_group_name_H-M   'P 1'
_cell_length_a   9.37337745
_cell_length_b   9.37339922
_cell_length_c   9.37341261
_cell_angle_alpha   93.95932395
_cell_angle_beta   94.23374168
_cell_angle_gamma   148.99529788
_symmetry_Int_Tables_number   1
_chemical_formula_structural   Mn8Nb8Si13P
_chemical_formula_sum   'Mn8 Nb8 Si13 P1'
_cell_volume   408.78412564
_cell_formula_units_Z   1
loop_
 _symmetry_equiv_pos_site_id
 _symmetry_equiv_pos_as_xyz
  1  'x, y, z'
loop_
 _atom_site_type_symbol
 _atom_site_label
 _atom_site_symmetry_multiplicity
 _atom_site_fract_x
 _atom_site_fract_y
 _atom_site_fract_z
 _atom_site_occupancy
  Mn  Mn0  1  0.399432  0.901592  0.795136  1
  Mn  Mn1  1  0.102494  0.602274  0.201759  1
  Mn  Mn2  1  0.106391  0.901595  0.502096  1
  Mn  Mn3  1  0.400468  0.602281  0.499762  1
  Mn  Mn4  1  0.600587  0.395626  0.502101  1
  Mn  Mn5  1  0.897504  0.099299  0.499752  1
  Mn  Mn6  1  0.893527  0.395605  0.795080  1
  Mn  Mn7  1  0.599552  0.099270  0.201815  1
  Nb  Nb8  1  0.135579  0.135905  0.271591  1
  Nb  Nb9  1  0.864794  0.864431  0.729119  1
  Nb  Nb10  1  0.864354  0.135951  0.000328  1
  Nb  Nb11  1  0.135277  0.864390  0.999645  1
  Nb  Nb12  1  0.500004  0.308996  0.809016  1
  Nb  Nb13  1  0.500044  0.691047  0.191009  1
  Nb  Nb14  1  0.691274  0.500002  0.191294  1
  Nb  Nb15  1  0.308686  0.499991  0.808738  1
  Si  Si16  1  0.499698  0.909737  0.410052  1
  Si  Si17  1  0.905757  0.498457  0.404216  1
  Si  Si18  1  0.094545  0.498745  0.592669  1
  Si  Si19  1  0.750971  0.751049  0.000112  1
  Si  Si20  1  0.249054  0.249136  0.000100  1
  Si  Si21  1  0.293453  0.293802  0.586671  1
  Si  Si22  1  0.707330  0.705726  0.413630  1
  Si  Si23  1  0.706863  0.293553  0.000389  1
  Si  Si24  1  0.292388  0.706032  0.998441  1
  Si  Si25  1  0.000240  0.292346  0.292128  1
  Si  Si26  1  0.999960  0.710321  0.710320  1
  Si  Si27  1  0.709463  0.999095  0.708958  1
  Si  Si28  1  0.290327  0.999333  0.289656  1
  P  P29  1  0.499984  0.094413  0.594421  1
