# generated using pymatgen
data_Er12AlTcNi4
_symmetry_space_group_name_H-M   'P 1'
_cell_length_a   8.21510132
_cell_length_b   8.21510120
_cell_length_c   8.21510200
_cell_angle_alpha   111.61835320
_cell_angle_beta   109.83698366
_cell_angle_gamma   106.99166696
_symmetry_Int_Tables_number   1
_chemical_formula_structural   Er12AlTcNi4
_chemical_formula_sum   'Er12 Al1 Tc1 Ni4'
_cell_volume   426.08843773
_cell_formula_units_Z   1
loop_
 _symmetry_equiv_pos_site_id
 _symmetry_equiv_pos_as_xyz
  1  'x, y, z'
loop_
 _atom_site_type_symbol
 _atom_site_label
 _atom_site_symmetry_multiplicity
 _atom_site_fract_x
 _atom_site_fract_y
 _atom_site_fract_z
 _atom_site_occupancy
  Er  Er0  1  0.322791  0.126452  0.803661  1
  Er  Er1  1  0.677209  0.480871  0.803661  1
  Er  Er2  1  0.416350  0.726529  0.689821  1
  Er  Er3  1  0.583650  0.273471  0.310179  1
  Er  Er4  1  0.963291  0.273471  0.689821  1
  Er  Er5  1  0.036709  0.726529  0.310179  1
  Er  Er6  1  0.322791  0.519129  0.196339  1
  Er  Er7  1  0.677209  0.873548  0.196339  1
  Er  Er8  1  0.180262  0.780827  0.961089  1
  Er  Er9  1  0.819738  0.780827  0.600564  1
  Er  Er10  1  0.180262  0.219173  0.399436  1
  Er  Er11  1  0.819738  0.219173  0.038911  1
  Al  Al12  1  0.500000  0.000000  0.500000  1
  Tc  Tc13  1  0.000000  0.500000  0.500000  1
  Ni  Ni14  1  0.880394  0.880394  0.000000  1
  Ni  Ni15  1  0.119606  0.119606  0.000000  1
  Ni  Ni16  1  0.644201  0.500000  0.144201  1
  Ni  Ni17  1  0.355799  0.500000  0.855799  1
