# generated using pymatgen
data_Nd4CdPd4Au
_symmetry_space_group_name_H-M   'P 1'
_cell_length_a   7.81161200
_cell_length_b   7.81161200
_cell_length_c   3.90047400
_cell_angle_alpha   90.00000000
_cell_angle_beta   90.00000000
_cell_angle_gamma   90.00000000
_symmetry_Int_Tables_number   1
_chemical_formula_structural   Nd4CdPd4Au
_chemical_formula_sum   'Nd4 Cd1 Pd4 Au1'
_cell_volume   238.01192404
_cell_formula_units_Z   1
loop_
 _symmetry_equiv_pos_site_id
 _symmetry_equiv_pos_as_xyz
  1  'x, y, z'
loop_
 _atom_site_type_symbol
 _atom_site_label
 _atom_site_symmetry_multiplicity
 _atom_site_fract_x
 _atom_site_fract_y
 _atom_site_fract_z
 _atom_site_occupancy
  Nd  Nd0  1  0.689828  0.160028  0.500000  1
  Nd  Nd1  1  0.310172  0.839972  0.500000  1
  Nd  Nd2  1  0.160028  0.310172  0.500000  1
  Nd  Nd3  1  0.839972  0.689828  0.500000  1
  Cd  Cd4  1  0.500000  0.500000  0.000000  1
  Pd  Pd5  1  0.139512  0.615217  0.000000  1
  Pd  Pd6  1  0.860488  0.384783  0.000000  1
  Pd  Pd7  1  0.615217  0.860488  0.000000  1
  Pd  Pd8  1  0.384783  0.139512  0.000000  1
  Au  Au9  1  0.000000  0.000000  0.000000  1
