# generated using pymatgen
data_Er6Zn17PIr6
_symmetry_space_group_name_H-M   'P 1'
_cell_length_a   8.96147854
_cell_length_b   8.96201637
_cell_length_c   8.96164001
_cell_angle_alpha   59.99588375
_cell_angle_beta   59.99868868
_cell_angle_gamma   59.99282838
_symmetry_Int_Tables_number   1
_chemical_formula_structural   Er6Zn17PIr6
_chemical_formula_sum   'Er6 Zn17 P1 Ir6'
_cell_volume   508.88135639
_cell_formula_units_Z   1
loop_
 _symmetry_equiv_pos_site_id
 _symmetry_equiv_pos_as_xyz
  1  'x, y, z'
loop_
 _atom_site_type_symbol
 _atom_site_label
 _atom_site_symmetry_multiplicity
 _atom_site_fract_x
 _atom_site_fract_y
 _atom_site_fract_z
 _atom_site_occupancy
  Er  Er0  1  0.717834  0.282161  0.282094  1
  Er  Er1  1  0.717825  0.282162  0.717907  1
  Er  Er2  1  0.717875  0.717893  0.282104  1
  Er  Er3  1  0.282166  0.717839  0.717906  1
  Er  Er4  1  0.282175  0.717838  0.282093  1
  Er  Er5  1  0.282125  0.282107  0.717896  1
  Zn  Zn6  1  0.626108  0.124625  0.124622  1
  Zn  Zn7  1  0.124623  0.626110  0.124626  1
  Zn  Zn8  1  0.124621  0.124629  0.626108  1
  Zn  Zn9  1  0.124637  0.124632  0.124634  1
  Zn  Zn10  1  0.373892  0.875375  0.875378  1
  Zn  Zn11  1  0.875377  0.373890  0.875374  1
  Zn  Zn12  1  0.875379  0.875371  0.373892  1
  Zn  Zn13  1  0.875363  0.875368  0.875366  1
  Zn  Zn14  1  0.000000  0.000000  0.000000  1
  Zn  Zn15  1  0.006161  0.331276  0.331278  1
  Zn  Zn16  1  0.331289  0.006133  0.331275  1
  Zn  Zn17  1  0.331301  0.331291  0.006100  1
  Zn  Zn18  1  0.331299  0.331304  0.331299  1
  Zn  Zn19  1  0.993839  0.668724  0.668722  1
  Zn  Zn20  1  0.668711  0.993867  0.668725  1
  Zn  Zn21  1  0.668699  0.668709  0.993900  1
  Zn  Zn22  1  0.668701  0.668696  0.668701  1
  P  P23  1  0.500000  0.500000  0.500000  1
  Ir  Ir24  1  0.500000  0.000000  0.000000  1
  Ir  Ir25  1  0.500000  0.000000  0.500000  1
  Ir  Ir26  1  0.500000  0.500000  0.000000  1
  Ir  Ir27  1  0.000000  0.500000  0.500000  1
  Ir  Ir28  1  0.000000  0.500000  0.000000  1
  Ir  Ir29  1  0.000000  0.000000  0.500000  1
