# generated using pymatgen
data_Zr3Be2PIr3
_symmetry_space_group_name_H-M   'P 1'
_cell_length_a   6.52725300
_cell_length_b   6.52725196
_cell_length_c   3.66170700
_cell_angle_alpha   90.00000000
_cell_angle_beta   90.00000000
_cell_angle_gamma   120.00000021
_symmetry_Int_Tables_number   1
_chemical_formula_structural   Zr3Be2PIr3
_chemical_formula_sum   'Zr3 Be2 P1 Ir3'
_cell_volume   135.10612706
_cell_formula_units_Z   1
loop_
 _symmetry_equiv_pos_site_id
 _symmetry_equiv_pos_as_xyz
  1  'x, y, z'
loop_
 _atom_site_type_symbol
 _atom_site_label
 _atom_site_symmetry_multiplicity
 _atom_site_fract_x
 _atom_site_fract_y
 _atom_site_fract_z
 _atom_site_occupancy
  Zr  Zr0  1  0.416210  0.406722  0.500000  1
  Zr  Zr1  1  0.593278  0.009488  0.500000  1
  Zr  Zr2  1  0.990512  0.583790  0.500000  1
  Be  Be3  1  0.666667  0.333333  0.000000  1
  Be  Be4  1  0.000000  0.000000  0.500000  1
  P  P5  1  0.333333  0.666667  0.000000  1
  Ir  Ir6  1  0.755323  0.756739  0.000000  1
  Ir  Ir7  1  0.243261  0.998585  0.000000  1
  Ir  Ir8  1  0.001415  0.244677  0.000000  1
