# generated using pymatgen
data_Dy4Zn2Os5W
_symmetry_space_group_name_H-M   'P 1'
_cell_length_a   5.31500286
_cell_length_b   5.31483881
_cell_length_c   8.90423300
_cell_angle_alpha   90.00000000
_cell_angle_beta   90.00000000
_cell_angle_gamma   117.88161508
_symmetry_Int_Tables_number   1
_chemical_formula_structural   Dy4Zn2Os5W
_chemical_formula_sum   'Dy4 Zn2 Os5 W1'
_cell_volume   222.33149075
_cell_formula_units_Z   1
loop_
 _symmetry_equiv_pos_site_id
 _symmetry_equiv_pos_as_xyz
  1  'x, y, z'
loop_
 _atom_site_type_symbol
 _atom_site_label
 _atom_site_symmetry_multiplicity
 _atom_site_fract_x
 _atom_site_fract_y
 _atom_site_fract_z
 _atom_site_occupancy
  Dy  Dy0  1  0.325332  0.668139  0.435962  1
  Dy  Dy1  1  0.654938  0.327915  0.558036  1
  Dy  Dy2  1  0.654938  0.327915  0.941964  1
  Dy  Dy3  1  0.325332  0.668139  0.064038  1
  Zn  Zn4  1  0.194384  0.839119  0.750000  1
  Zn  Zn5  1  0.187298  0.348374  0.750000  1
  Os  Os6  1  0.973479  0.994544  0.504825  1
  Os  Os7  1  0.973479  0.994544  0.995175  1
  Os  Os8  1  0.828457  0.654002  0.250000  1
  Os  Os9  1  0.351085  0.172013  0.250000  1
  Os  Os10  1  0.692235  0.842698  0.750000  1
  W  W11  1  0.839042  0.162600  0.250000  1
