# generated using pymatgen
data_Dy8In3Ni
_symmetry_space_group_name_H-M   'P 1'
_cell_length_a   10.45701702
_cell_length_b   10.45701660
_cell_length_c   6.96457103
_cell_angle_alpha   89.99244189
_cell_angle_beta   90.00755501
_cell_angle_gamma   119.99603324
_symmetry_Int_Tables_number   1
_chemical_formula_structural   Dy8In3Ni
_chemical_formula_sum   'Dy16 In6 Ni2'
_cell_volume   659.56555832
_cell_formula_units_Z   2
loop_
 _symmetry_equiv_pos_site_id
 _symmetry_equiv_pos_as_xyz
  1  'x, y, z'
loop_
 _atom_site_type_symbol
 _atom_site_label
 _atom_site_symmetry_multiplicity
 _atom_site_fract_x
 _atom_site_fract_y
 _atom_site_fract_z
 _atom_site_occupancy
  Dy  Dy0  1  0.533092  0.066234  0.506660  1
  Dy  Dy1  1  0.933766  0.466908  0.506660  1
  Dy  Dy2  1  0.533179  0.466821  0.506693  1
  Dy  Dy3  1  0.466858  0.933826  0.006713  1
  Dy  Dy4  1  0.066174  0.533142  0.006713  1
  Dy  Dy5  1  0.466904  0.533096  0.006756  1
  Dy  Dy6  1  0.177140  0.354232  0.713556  1
  Dy  Dy7  1  0.645768  0.822860  0.713556  1
  Dy  Dy8  1  0.177130  0.822870  0.713499  1
  Dy  Dy9  1  0.822854  0.645725  0.213564  1
  Dy  Dy10  1  0.354275  0.177146  0.213564  1
  Dy  Dy11  1  0.822862  0.177138  0.213575  1
  Dy  Dy12  1  0.666673  0.333327  0.892762  1
  Dy  Dy13  1  0.333332  0.666668  0.392552  1
  Dy  Dy14  1  0.000014  0.999986  0.492229  1
  Dy  Dy15  1  0.000053  0.999947  0.992311  1
  In  In16  1  0.837246  0.674467  0.750888  1
  In  In17  1  0.325533  0.162754  0.750888  1
  In  In18  1  0.837223  0.162777  0.750790  1
  In  In19  1  0.162752  0.325501  0.250664  1
  In  In20  1  0.674499  0.837248  0.250664  1
  In  In21  1  0.162729  0.837271  0.250834  1
  Ni  Ni22  1  0.666671  0.333329  0.280952  1
  Ni  Ni23  1  0.333272  0.666728  0.780995  1
