# generated using pymatgen
data_Hf2Co2P3Ru
_symmetry_space_group_name_H-M   'P 1'
_cell_length_a   3.64870300
_cell_length_b   10.00569600
_cell_length_c   12.38334700
_cell_angle_alpha   90.00000000
_cell_angle_beta   90.00000000
_cell_angle_gamma   90.00000000
_symmetry_Int_Tables_number   1
_chemical_formula_structural   Hf2Co2P3Ru
_chemical_formula_sum   'Hf8 Co8 P12 Ru4'
_cell_volume   452.08891674
_cell_formula_units_Z   4
loop_
 _symmetry_equiv_pos_site_id
 _symmetry_equiv_pos_as_xyz
  1  'x, y, z'
loop_
 _atom_site_type_symbol
 _atom_site_label
 _atom_site_symmetry_multiplicity
 _atom_site_fract_x
 _atom_site_fract_y
 _atom_site_fract_z
 _atom_site_occupancy
  Hf  Hf0  1  0.250000  0.342375  0.995572  1
  Hf  Hf1  1  0.250000  0.157625  0.495572  1
  Hf  Hf2  1  0.750000  0.657625  0.004428  1
  Hf  Hf3  1  0.750000  0.842375  0.504428  1
  Hf  Hf4  1  0.250000  0.427507  0.710448  1
  Hf  Hf5  1  0.250000  0.072493  0.210448  1
  Hf  Hf6  1  0.750000  0.572493  0.289552  1
  Hf  Hf7  1  0.750000  0.927507  0.789552  1
  Co  Co8  1  0.250000  0.133021  0.715174  1
  Co  Co9  1  0.250000  0.366979  0.215174  1
  Co  Co10  1  0.750000  0.866979  0.284826  1
  Co  Co11  1  0.750000  0.633021  0.784826  1
  Co  Co12  1  0.250000  0.768851  0.167815  1
  Co  Co13  1  0.250000  0.731149  0.667815  1
  Co  Co14  1  0.750000  0.231149  0.832185  1
  Co  Co15  1  0.750000  0.268851  0.332185  1
  P  P16  1  0.250000  0.107443  0.891834  1
  P  P17  1  0.250000  0.392557  0.391834  1
  P  P18  1  0.750000  0.892557  0.108166  1
  P  P19  1  0.750000  0.607443  0.608166  1
  P  P20  1  0.250000  0.730633  0.848026  1
  P  P21  1  0.250000  0.769367  0.348026  1
  P  P22  1  0.750000  0.269367  0.151974  1
  P  P23  1  0.750000  0.230633  0.651974  1
  P  P24  1  0.250000  0.553554  0.127610  1
  P  P25  1  0.250000  0.946446  0.627610  1
  P  P26  1  0.750000  0.446446  0.872390  1
  P  P27  1  0.750000  0.053554  0.372390  1
  Ru  Ru28  1  0.250000  0.897316  0.978150  1
  Ru  Ru29  1  0.250000  0.602684  0.478150  1
  Ru  Ru30  1  0.750000  0.102684  0.021850  1
  Ru  Ru31  1  0.750000  0.397316  0.521850  1
