# generated using pymatgen
data_Hf6Ga5SnIr6
_symmetry_space_group_name_H-M   'P 1'
_cell_length_a   7.21569993
_cell_length_b   7.21569923
_cell_length_c   6.98411700
_cell_angle_alpha   90.02285061
_cell_angle_beta   89.97714952
_cell_angle_gamma   119.80467204
_symmetry_Int_Tables_number   1
_chemical_formula_structural   Hf6Ga5SnIr6
_chemical_formula_sum   'Hf6 Ga5 Sn1 Ir6'
_cell_volume   315.53709289
_cell_formula_units_Z   1
loop_
 _symmetry_equiv_pos_site_id
 _symmetry_equiv_pos_as_xyz
  1  'x, y, z'
loop_
 _atom_site_type_symbol
 _atom_site_label
 _atom_site_symmetry_multiplicity
 _atom_site_fract_x
 _atom_site_fract_y
 _atom_site_fract_z
 _atom_site_occupancy
  Hf  Hf0  1  0.999786  0.400322  0.747899  1
  Hf  Hf1  1  0.607985  0.613469  0.746507  1
  Hf  Hf2  1  0.394523  0.987729  0.748561  1
  Hf  Hf3  1  0.987729  0.394523  0.251439  1
  Hf  Hf4  1  0.613469  0.607985  0.253493  1
  Hf  Hf5  1  0.400322  0.999786  0.252101  1
  Ga  Ga6  1  0.276431  0.276431  0.500000  1
  Ga  Ga7  1  0.003038  0.721916  0.499795  1
  Ga  Ga8  1  0.999883  0.742428  0.999830  1
  Ga  Ga9  1  0.721916  0.003038  0.500205  1
  Ga  Ga10  1  0.742428  0.999883  0.000170  1
  Sn  Sn11  1  0.255090  0.255090  0.000000  1
  Ir  Ir12  1  0.335151  0.666259  0.491711  1
  Ir  Ir13  1  0.666259  0.335151  0.508289  1
  Ir  Ir14  1  0.335776  0.672420  0.008230  1
  Ir  Ir15  1  0.994013  0.993780  0.724059  1
  Ir  Ir16  1  0.993780  0.994013  0.275941  1
  Ir  Ir17  1  0.672420  0.335776  0.991770  1
