# generated using pymatgen
data_YHo7Sc12Si15Pb
_symmetry_space_group_name_H-M   'P 1'
_cell_length_a   7.12735263
_cell_length_b   7.41308515
_cell_length_c   14.05737025
_cell_angle_alpha   90.01264363
_cell_angle_beta   89.52627258
_cell_angle_gamma   90.04232190
_symmetry_Int_Tables_number   1
_chemical_formula_structural   YHo7Sc12Si15Pb
_chemical_formula_sum   'Y1 Ho7 Sc12 Si15 Pb1'
_cell_volume   742.70499658
_cell_formula_units_Z   1
loop_
 _symmetry_equiv_pos_site_id
 _symmetry_equiv_pos_as_xyz
  1  'x, y, z'
loop_
 _atom_site_type_symbol
 _atom_site_label
 _atom_site_symmetry_multiplicity
 _atom_site_fract_x
 _atom_site_fract_y
 _atom_site_fract_z
 _atom_site_occupancy
  Y  Y0  1  0.012692  0.175794  0.096577  1
  Ho  Ho1  1  0.987447  0.824280  0.903890  1
  Ho  Ho2  1  0.488375  0.676504  0.903772  1
  Ho  Ho3  1  0.986731  0.832388  0.598561  1
  Ho  Ho4  1  0.512009  0.323583  0.097082  1
  Ho  Ho5  1  0.006087  0.168866  0.398593  1
  Ho  Ho6  1  0.514751  0.319111  0.398679  1
  Ho  Ho7  1  0.502870  0.685906  0.600259  1
  Sc  Sc8  1  0.161283  0.502808  0.756669  1
  Sc  Sc9  1  0.838149  0.497610  0.249405  1
  Sc  Sc10  1  0.338772  0.002655  0.249421  1
  Sc  Sc11  1  0.662739  0.997195  0.751465  1
  Sc  Sc12  1  0.342425  0.160062  0.631209  1
  Sc  Sc13  1  0.664948  0.825595  0.372729  1
  Sc  Sc14  1  0.164538  0.684215  0.368994  1
  Sc  Sc15  1  0.669061  0.822994  0.124198  1
  Sc  Sc16  1  0.820777  0.322864  0.626743  1
  Sc  Sc17  1  0.330185  0.175602  0.875352  1
  Sc  Sc18  1  0.830219  0.323456  0.875379  1
  Sc  Sc19  1  0.169478  0.676880  0.125034  1
  Si  Si20  1  0.033733  0.118689  0.751311  1
  Si  Si21  1  0.964581  0.884960  0.247111  1
  Si  Si22  1  0.466743  0.615565  0.248666  1
  Si  Si23  1  0.531173  0.385649  0.751616  1
  Si  Si24  1  0.285270  0.869390  0.752169  1
  Si  Si25  1  0.713398  0.126769  0.247758  1
  Si  Si26  1  0.213380  0.372779  0.249477  1
  Si  Si27  1  0.788954  0.628109  0.751276  1
  Si  Si28  1  0.826211  0.539381  0.458201  1
  Si  Si29  1  0.338656  0.964366  0.459982  1
  Si  Si30  1  0.842406  0.534794  0.039327  1
  Si  Si31  1  0.661040  0.037208  0.538185  1
  Si  Si32  1  0.157024  0.465247  0.961567  1
  Si  Si33  1  0.656746  0.034952  0.960544  1
  Si  Si34  1  0.342914  0.965028  0.039672  1
  Pb  Pb35  1  0.174234  0.458748  0.539127  1
