# generated using pymatgen
data_SrEu(UI6)2
_symmetry_space_group_name_H-M   'P 1'
_cell_length_a   8.08210439
_cell_length_b   8.07647999
_cell_length_c   15.29616100
_cell_angle_alpha   84.38376420
_cell_angle_beta   84.43792405
_cell_angle_gamma   120.13332266
_symmetry_Int_Tables_number   1
_chemical_formula_structural   SrEu(UI6)2
_chemical_formula_sum   'Sr1 Eu1 U2 I12'
_cell_volume   846.91609262
_cell_formula_units_Z   1
loop_
 _symmetry_equiv_pos_site_id
 _symmetry_equiv_pos_as_xyz
  1  'x, y, z'
loop_
 _atom_site_type_symbol
 _atom_site_label
 _atom_site_symmetry_multiplicity
 _atom_site_fract_x
 _atom_site_fract_y
 _atom_site_fract_z
 _atom_site_occupancy
  Sr  Sr0  1  0.334648  0.173956  0.497760  1
  Eu  Eu1  1  0.173572  0.334674  0.998341  1
  U  U2  1  0.666627  0.840503  0.499617  1
  U  U3  1  0.840424  0.666894  0.999483  1
  I  I4  1  0.568604  0.695679  0.882065  1
  I  I5  1  0.708511  0.578482  0.381764  1
  I  I6  1  0.905144  0.416649  0.879481  1
  I  I7  1  0.609290  0.091142  0.619662  1
  I  I8  1  0.412440  0.891338  0.379499  1
  I  I9  1  0.018274  0.188661  0.381694  1
  I  I10  1  0.185880  0.027389  0.882027  1
  I  I11  1  0.931789  0.805058  0.617313  1
  I  I12  1  0.088913  0.598674  0.119186  1
  I  I13  1  0.478549  0.324092  0.117070  1
  I  I14  1  0.321726  0.486290  0.617490  1
  I  I15  1  0.815607  0.940519  0.116748  1
