# generated using pymatgen
data_TbTmMgNi7B2
_symmetry_space_group_name_H-M   'P 1'
_cell_length_a   4.98142100
_cell_length_b   4.98142113
_cell_length_c   14.18997000
_cell_angle_alpha   90.00000000
_cell_angle_beta   90.00000000
_cell_angle_gamma   120.00000575
_symmetry_Int_Tables_number   1
_chemical_formula_structural   TbTmMgNi7B2
_chemical_formula_sum   'Tb2 Tm2 Mg2 Ni14 B4'
_cell_volume   304.94294495
_cell_formula_units_Z   2
loop_
 _symmetry_equiv_pos_site_id
 _symmetry_equiv_pos_as_xyz
  1  'x, y, z'
loop_
 _atom_site_type_symbol
 _atom_site_label
 _atom_site_symmetry_multiplicity
 _atom_site_fract_x
 _atom_site_fract_y
 _atom_site_fract_z
 _atom_site_occupancy
  Tb  Tb0  1  0.666667  0.333333  0.469632  1
  Tb  Tb1  1  0.333333  0.666667  0.969632  1
  Tm  Tm2  1  0.333333  0.666667  0.744468  1
  Tm  Tm3  1  0.666667  0.333333  0.244468  1
  Mg  Mg4  1  0.333333  0.666667  0.533878  1
  Mg  Mg5  1  0.666667  0.333333  0.033878  1
  Ni  Ni6  1  0.000000  0.000000  0.001166  1
  Ni  Ni7  1  0.000000  0.000000  0.501166  1
  Ni  Ni8  1  0.165386  0.330773  0.147530  1
  Ni  Ni9  1  0.834614  0.669227  0.647530  1
  Ni  Ni10  1  0.669227  0.834614  0.147530  1
  Ni  Ni11  1  0.165386  0.834614  0.147530  1
  Ni  Ni12  1  0.834614  0.165386  0.647530  1
  Ni  Ni13  1  0.330773  0.165386  0.647530  1
  Ni  Ni14  1  0.833723  0.667446  0.852045  1
  Ni  Ni15  1  0.833723  0.166277  0.852045  1
  Ni  Ni16  1  0.332554  0.166277  0.852045  1
  Ni  Ni17  1  0.667446  0.833723  0.352045  1
  Ni  Ni18  1  0.166277  0.833723  0.352045  1
  Ni  Ni19  1  0.166277  0.332554  0.352045  1
  B  B20  1  0.333333  0.666667  0.249969  1
  B  B21  1  0.666667  0.333333  0.749969  1
  B  B22  1  0.000000  0.000000  0.252160  1
  B  B23  1  0.000000  0.000000  0.752160  1
