# generated using pymatgen
data_HoLu(Pa2Ga5)2
_symmetry_space_group_name_H-M   'P 1'
_cell_length_a   6.05680800
_cell_length_b   9.49093200
_cell_length_c   11.66203000
_cell_angle_alpha   90.00000000
_cell_angle_beta   90.00000000
_cell_angle_gamma   90.00000000
_symmetry_Int_Tables_number   1
_chemical_formula_structural   HoLu(Pa2Ga5)2
_chemical_formula_sum   'Ho2 Lu2 Pa8 Ga20'
_cell_volume   670.38891245
_cell_formula_units_Z   2
loop_
 _symmetry_equiv_pos_site_id
 _symmetry_equiv_pos_as_xyz
  1  'x, y, z'
loop_
 _atom_site_type_symbol
 _atom_site_label
 _atom_site_symmetry_multiplicity
 _atom_site_fract_x
 _atom_site_fract_y
 _atom_site_fract_z
 _atom_site_occupancy
  Ho  Ho0  1  0.857829  0.750000  0.071930  1
  Ho  Ho1  1  0.642171  0.750000  0.571930  1
  Lu  Lu2  1  0.142015  0.250000  0.927731  1
  Lu  Lu3  1  0.357985  0.250000  0.427731  1
  Pa  Pa4  1  0.879839  0.501733  0.351964  1
  Pa  Pa5  1  0.620161  0.998267  0.851964  1
  Pa  Pa6  1  0.121030  0.002227  0.647733  1
  Pa  Pa7  1  0.378970  0.497773  0.147733  1
  Pa  Pa8  1  0.121030  0.497773  0.647733  1
  Pa  Pa9  1  0.378970  0.002227  0.147733  1
  Pa  Pa10  1  0.879839  0.998267  0.351964  1
  Pa  Pa11  1  0.620161  0.501733  0.851964  1
  Ga  Ga12  1  0.870821  0.052788  0.090470  1
  Ga  Ga13  1  0.629179  0.447212  0.590470  1
  Ga  Ga14  1  0.128447  0.550370  0.909176  1
  Ga  Ga15  1  0.371553  0.949630  0.409176  1
  Ga  Ga16  1  0.128447  0.949630  0.909176  1
  Ga  Ga17  1  0.371553  0.550370  0.409176  1
  Ga  Ga18  1  0.870821  0.447212  0.090470  1
  Ga  Ga19  1  0.629179  0.052788  0.590470  1
  Ga  Ga20  1  0.153579  0.750000  0.264531  1
  Ga  Ga21  1  0.346421  0.750000  0.764531  1
  Ga  Ga22  1  0.847763  0.250000  0.736371  1
  Ga  Ga23  1  0.652237  0.250000  0.236371  1
  Ga  Ga24  1  0.390918  0.750000  0.994182  1
  Ga  Ga25  1  0.109082  0.750000  0.494182  1
  Ga  Ga26  1  0.604612  0.250000  0.005500  1
  Ga  Ga27  1  0.895388  0.250000  0.505500  1
  Ga  Ga28  1  0.595314  0.750000  0.292410  1
  Ga  Ga29  1  0.904686  0.750000  0.792410  1
  Ga  Ga30  1  0.404626  0.250000  0.708661  1
  Ga  Ga31  1  0.095374  0.250000  0.208661  1
