# generated using pymatgen
data_Ta2Ti6Fe7Si14Ru
_symmetry_space_group_name_H-M   'P 1'
_cell_length_a   9.28058812
_cell_length_b   9.28753894
_cell_length_c   9.21063032
_cell_angle_alpha   94.24926527
_cell_angle_beta   94.21099655
_cell_angle_gamma   148.60801407
_symmetry_Int_Tables_number   1
_chemical_formula_structural   Ta2Ti6Fe7Si14Ru
_chemical_formula_sum   'Ta2 Ti6 Fe7 Si14 Ru1'
_cell_volume   397.86620449
_cell_formula_units_Z   1
loop_
 _symmetry_equiv_pos_site_id
 _symmetry_equiv_pos_as_xyz
  1  'x, y, z'
loop_
 _atom_site_type_symbol
 _atom_site_label
 _atom_site_symmetry_multiplicity
 _atom_site_fract_x
 _atom_site_fract_y
 _atom_site_fract_z
 _atom_site_occupancy
  Ta  Ta0  1  0.135880  0.135866  0.271827  1
  Ta  Ta1  1  0.864292  0.864292  0.728514  1
  Ti  Ti2  1  0.863798  0.136258  0.001561  1
  Ti  Ti3  1  0.137709  0.865339  0.001549  1
  Ti  Ti4  1  0.501210  0.693118  0.194910  1
  Ti  Ti5  1  0.498954  0.307441  0.806755  1
  Ti  Ti6  1  0.307714  0.499248  0.806762  1
  Ti  Ti7  1  0.693755  0.501846  0.194943  1
  Fe  Fe8  1  0.103163  0.603146  0.206191  1
  Fe  Fe9  1  0.100408  0.899300  0.499924  1
  Fe  Fe10  1  0.399523  0.600689  0.499945  1
  Fe  Fe11  1  0.596803  0.400243  0.496685  1
  Fe  Fe12  1  0.899925  0.096345  0.496691  1
  Fe  Fe13  1  0.900459  0.400398  0.800853  1
  Fe  Fe14  1  0.598745  0.098671  0.197389  1
  Si  Si15  1  0.293102  0.292997  0.585867  1
  Si  Si16  1  0.706501  0.706424  0.413160  1
  Si  Si17  1  0.720041  0.312292  0.006633  1
  Si  Si18  1  0.286603  0.694369  0.006620  1
  Si  Si19  1  0.996844  0.293491  0.294559  1
  Si  Si20  1  0.986491  0.696885  0.703472  1
  Si  Si21  1  0.716766  0.006469  0.703415  1
  Si  Si22  1  0.297819  0.001251  0.294558  1
  Si  Si23  1  0.506253  0.908845  0.406727  1
  Si  Si24  1  0.508210  0.108194  0.586671  1
  Si  Si25  1  0.078582  0.478676  0.586766  1
  Si  Si26  1  0.900398  0.497859  0.406802  1
  Si  Si27  1  0.750955  0.751309  0.000399  1
  Si  Si28  1  0.249436  0.249079  0.000390  1
  Ru  Ru29  1  0.399660  0.899655  0.799460  1
