# generated using pymatgen
data_Ho20Ir7Ru3Rh2
_symmetry_space_group_name_H-M   'P 1'
_cell_length_a   10.78181919
_cell_length_b   10.78161948
_cell_length_c   6.40140177
_cell_angle_alpha   90.00300446
_cell_angle_beta   90.01296252
_cell_angle_gamma   89.96531230
_symmetry_Int_Tables_number   1
_chemical_formula_structural   Ho20Ir7Ru3Rh2
_chemical_formula_sum   'Ho20 Ir7 Ru3 Rh2'
_cell_volume   744.13381319
_cell_formula_units_Z   1
loop_
 _symmetry_equiv_pos_site_id
 _symmetry_equiv_pos_as_xyz
  1  'x, y, z'
loop_
 _atom_site_type_symbol
 _atom_site_label
 _atom_site_symmetry_multiplicity
 _atom_site_fract_x
 _atom_site_fract_y
 _atom_site_fract_z
 _atom_site_occupancy
  Ho  Ho0  1  0.291880  0.087332  0.380683  1
  Ho  Ho1  1  0.291422  0.912666  0.875531  1
  Ho  Ho2  1  0.707810  0.086921  0.874535  1
  Ho  Ho3  1  0.707562  0.911298  0.380679  1
  Ho  Ho4  1  0.587421  0.791592  0.875883  1
  Ho  Ho5  1  0.586240  0.208235  0.381194  1
  Ho  Ho6  1  0.412410  0.791992  0.380678  1
  Ho  Ho7  1  0.412496  0.208456  0.875441  1
  Ho  Ho8  1  0.206362  0.413582  0.622049  1
  Ho  Ho9  1  0.206244  0.586695  0.122107  1
  Ho  Ho10  1  0.793518  0.414553  0.121902  1
  Ho  Ho11  1  0.793684  0.586468  0.622385  1
  Ho  Ho12  1  0.913593  0.706365  0.122129  1
  Ho  Ho13  1  0.914197  0.294272  0.623093  1
  Ho  Ho14  1  0.086307  0.706425  0.622272  1
  Ho  Ho15  1  0.087802  0.294141  0.122106  1
  Ho  Ho16  1  0.000351  0.999924  0.500137  1
  Ho  Ho17  1  0.000113  0.999631  0.000437  1
  Ho  Ho18  1  0.500016  0.500148  0.000388  1
  Ho  Ho19  1  0.499875  0.499959  0.500293  1
  Ir  Ir20  1  0.846759  0.848256  0.749849  1
  Ir  Ir21  1  0.152584  0.152354  0.750453  1
  Ir  Ir22  1  0.153335  0.848105  0.249445  1
  Ir  Ir23  1  0.652433  0.346723  0.750154  1
  Ir  Ir24  1  0.652106  0.653254  0.249735  1
  Ir  Ir25  1  0.348231  0.346358  0.249281  1
  Ir  Ir26  1  0.347819  0.653051  0.750190  1
  Ru  Ru27  1  0.500703  0.000272  0.621985  1
  Ru  Ru28  1  0.999669  0.499421  0.877156  1
  Ru  Ru29  1  0.999533  0.499419  0.376733  1
  Rh  Rh30  1  0.846897  0.151725  0.249586  1
  Rh  Rh31  1  0.500630  0.000405  0.121511  1
