# generated using pymatgen
data_Y4Ga3SiNi4
_symmetry_space_group_name_H-M   'P 1'
_cell_length_a   4.26632500
_cell_length_b   6.90502121
_cell_length_c   7.28823738
_cell_angle_alpha   90.49163505
_cell_angle_beta   90.00000000
_cell_angle_gamma   90.00000000
_symmetry_Int_Tables_number   1
_chemical_formula_structural   Y4Ga3SiNi4
_chemical_formula_sum   'Y4 Ga3 Si1 Ni4'
_cell_volume   214.69675196
_cell_formula_units_Z   1
loop_
 _symmetry_equiv_pos_site_id
 _symmetry_equiv_pos_as_xyz
  1  'x, y, z'
loop_
 _atom_site_type_symbol
 _atom_site_label
 _atom_site_symmetry_multiplicity
 _atom_site_fract_x
 _atom_site_fract_y
 _atom_site_fract_z
 _atom_site_occupancy
  Y  Y0  1  0.250000  0.488213  0.203319  1
  Y  Y1  1  0.750000  0.513634  0.795958  1
  Y  Y2  1  0.250000  0.984481  0.297852  1
  Y  Y3  1  0.750000  0.008499  0.698352  1
  Ga  Ga4  1  0.250000  0.810120  0.916363  1
  Ga  Ga5  1  0.750000  0.187017  0.083489  1
  Ga  Ga6  1  0.250000  0.306255  0.585172  1
  Si  Si7  1  0.750000  0.685220  0.416347  1
  Ni  Ni8  1  0.750000  0.793726  0.096872  1
  Ni  Ni9  1  0.250000  0.200458  0.913670  1
  Ni  Ni10  1  0.750000  0.318805  0.415400  1
  Ni  Ni11  1  0.250000  0.703571  0.577207  1
