# generated using pymatgen
data_Gd14HoLu5Pb16
_symmetry_space_group_name_H-M   'P 1'
_cell_length_a   8.17706201
_cell_length_b   8.26799091
_cell_length_c   15.64601800
_cell_angle_alpha   89.99363842
_cell_angle_beta   89.99767371
_cell_angle_gamma   89.97388814
_symmetry_Int_Tables_number   1
_chemical_formula_structural   Gd14HoLu5Pb16
_chemical_formula_sum   'Gd14 Ho1 Lu5 Pb16'
_cell_volume   1057.79390160
_cell_formula_units_Z   1
loop_
 _symmetry_equiv_pos_site_id
 _symmetry_equiv_pos_as_xyz
  1  'x, y, z'
loop_
 _atom_site_type_symbol
 _atom_site_label
 _atom_site_symmetry_multiplicity
 _atom_site_fract_x
 _atom_site_fract_y
 _atom_site_fract_z
 _atom_site_occupancy
  Gd  Gd0  1  0.629765  0.156818  0.381078  1
  Gd  Gd1  1  0.129230  0.343760  0.119953  1
  Gd  Gd2  1  0.628330  0.156682  0.120727  1
  Gd  Gd3  1  0.127670  0.342660  0.378822  1
  Gd  Gd4  1  0.373216  0.844238  0.620904  1
  Gd  Gd5  1  0.872891  0.656491  0.878883  1
  Gd  Gd6  1  0.530934  0.321570  0.902358  1
  Gd  Gd7  1  0.030514  0.179440  0.597146  1
  Gd  Gd8  1  0.467274  0.677988  0.402736  1
  Gd  Gd9  1  0.969066  0.821491  0.096319  1
  Gd  Gd10  1  0.470067  0.678468  0.096699  1
  Gd  Gd11  1  0.971645  0.819078  0.405028  1
  Gd  Gd12  1  0.529649  0.322718  0.598157  1
  Gd  Gd13  1  0.029625  0.178263  0.901999  1
  Ho  Ho14  1  0.370505  0.844205  0.876785  1
  Lu  Lu15  1  0.869574  0.654680  0.623658  1
  Lu  Lu16  1  0.203493  0.505221  0.749494  1
  Lu  Lu17  1  0.704600  0.994751  0.749365  1
  Lu  Lu18  1  0.796281  0.495362  0.251014  1
  Lu  Lu19  1  0.296589  0.005263  0.249425  1
  Pb  Pb20  1  0.286039  0.033676  0.042846  1
  Pb  Pb21  1  0.785644  0.467928  0.458206  1
  Pb  Pb22  1  0.718467  0.960521  0.545868  1
  Pb  Pb23  1  0.217332  0.536992  0.954223  1
  Pb  Pb24  1  0.710541  0.964290  0.954056  1
  Pb  Pb25  1  0.208058  0.537277  0.545356  1
  Pb  Pb26  1  0.286541  0.034487  0.454886  1
  Pb  Pb27  1  0.785965  0.465621  0.045063  1
  Pb  Pb28  1  0.565748  0.623671  0.749381  1
  Pb  Pb29  1  0.064838  0.875121  0.749206  1
  Pb  Pb30  1  0.435165  0.376483  0.250385  1
  Pb  Pb31  1  0.934106  0.122542  0.249936  1
  Pb  Pb32  1  0.341316  0.156567  0.750348  1
  Pb  Pb33  1  0.841614  0.344405  0.749435  1
  Pb  Pb34  1  0.659469  0.844249  0.250490  1
  Pb  Pb35  1  0.158236  0.657023  0.249769  1
