# generated using pymatgen
data_Y3Tm13(HgRh)4
_symmetry_space_group_name_H-M   'P 1'
_cell_length_a   9.51119059
_cell_length_b   9.50127018
_cell_length_c   9.51028850
_cell_angle_alpha   59.83925806
_cell_angle_beta   59.75513905
_cell_angle_gamma   59.78630935
_symmetry_Int_Tables_number   1
_chemical_formula_structural   Y3Tm13(HgRh)4
_chemical_formula_sum   'Y3 Tm13 Hg4 Rh4'
_cell_volume   604.85980365
_cell_formula_units_Z   1
loop_
 _symmetry_equiv_pos_site_id
 _symmetry_equiv_pos_as_xyz
  1  'x, y, z'
loop_
 _atom_site_type_symbol
 _atom_site_label
 _atom_site_symmetry_multiplicity
 _atom_site_fract_x
 _atom_site_fract_y
 _atom_site_fract_z
 _atom_site_occupancy
  Y  Y0  1  0.062405  0.062612  0.437732  1
  Y  Y1  1  0.437218  0.062284  0.435893  1
  Y  Y2  1  0.063700  0.437637  0.062631  1
  Tm  Tm3  1  0.054089  0.647094  0.647470  1
  Tm  Tm4  1  0.437740  0.437808  0.060458  1
  Tm  Tm5  1  0.647093  0.053655  0.648301  1
  Tm  Tm6  1  0.188594  0.812452  0.187848  1
  Tm  Tm7  1  0.188161  0.188138  0.813028  1
  Tm  Tm8  1  0.811995  0.811979  0.189642  1
  Tm  Tm9  1  0.439232  0.062252  0.061068  1
  Tm  Tm10  1  0.812419  0.188288  0.187692  1
  Tm  Tm11  1  0.060519  0.439121  0.437777  1
  Tm  Tm12  1  0.811147  0.189796  0.812574  1
  Tm  Tm13  1  0.189922  0.811431  0.812765  1
  Tm  Tm14  1  0.646890  0.647689  0.053850  1
  Tm  Tm15  1  0.649265  0.649185  0.649538  1
  Hg  Hg16  1  0.415565  0.417520  0.415662  1
  Hg  Hg17  1  0.753530  0.416447  0.416544  1
  Hg  Hg18  1  0.416681  0.753490  0.414891  1
  Hg  Hg19  1  0.416502  0.414528  0.755761  1
  Rh  Rh20  1  0.856607  0.854848  0.429492  1
  Rh  Rh21  1  0.855596  0.857013  0.856807  1
  Rh  Rh22  1  0.429650  0.855140  0.856971  1
  Rh  Rh23  1  0.855483  0.429596  0.855606  1
