# generated using pymatgen
data_HoTmHf2(Al8Pt3)3
_symmetry_space_group_name_H-M   'P 1'
_cell_length_a   7.49833920
_cell_length_b   7.49589191
_cell_length_c   13.01233170
_cell_angle_alpha   84.47607647
_cell_angle_beta   101.04140484
_cell_angle_gamma   119.92544995
_symmetry_Int_Tables_number   1
_chemical_formula_structural   HoTmHf2(Al8Pt3)3
_chemical_formula_sum   'Ho1 Tm1 Hf2 Al24 Pt9'
_cell_volume   622.13582903
_cell_formula_units_Z   1
loop_
 _symmetry_equiv_pos_site_id
 _symmetry_equiv_pos_as_xyz
  1  'x, y, z'
loop_
 _atom_site_type_symbol
 _atom_site_label
 _atom_site_symmetry_multiplicity
 _atom_site_fract_x
 _atom_site_fract_y
 _atom_site_fract_z
 _atom_site_occupancy
  Ho  Ho0  1  0.768269  0.501744  0.808441  1
  Tm  Tm1  1  0.232300  0.498491  0.192235  1
  Hf  Hf2  1  0.437527  0.831937  0.808541  1
  Hf  Hf3  1  0.562328  0.167860  0.191537  1
  Al  Al4  1  0.482729  0.163660  0.943401  1
  Al  Al5  1  0.516902  0.835789  0.057221  1
  Al  Al6  1  0.020797  0.167059  0.562932  1
  Al  Al7  1  0.979156  0.832964  0.436860  1
  Al  Al8  1  0.353156  0.833211  0.560663  1
  Al  Al9  1  0.646693  0.166755  0.439111  1
  Al  Al10  1  0.615589  0.835902  0.325785  1
  Al  Al11  1  0.384099  0.163929  0.673715  1
  Al  Al12  1  0.058812  0.495266  0.673828  1
  Al  Al13  1  0.941218  0.504737  0.325640  1
  Al  Al14  1  0.729223  0.839744  0.672701  1
  Al  Al15  1  0.270507  0.160406  0.326833  1
  Al  Al16  1  0.150083  0.503193  0.942365  1
  Al  Al17  1  0.850761  0.496448  0.058690  1
  Al  Al18  1  0.813112  0.832274  0.950637  1
  Al  Al19  1  0.187347  0.168331  0.050130  1
  Al  Al20  1  0.313693  0.500397  0.440299  1
  Al  Al21  1  0.686178  0.499631  0.559448  1
  Al  Al22  1  0.107900  0.841579  0.183166  1
  Al  Al23  1  0.892332  0.158318  0.816743  1
  Al  Al24  1  0.307297  0.373855  0.815456  1
  Al  Al25  1  0.692209  0.626159  0.184414  1
  Al  Al26  1  0.109326  0.959834  0.816001  1
  Al  Al27  1  0.890945  0.040808  0.183970  1
  Pt  Pt28  1  0.389134  0.510169  0.639563  1
  Pt  Pt29  1  0.610671  0.489927  0.360082  1
  Pt  Pt30  1  0.170432  0.826993  0.999491  1
  Pt  Pt31  1  0.829389  0.172761  0.000496  1
  Pt  Pt32  1  0.296847  0.833901  0.360430  1
  Pt  Pt33  1  0.702824  0.165960  0.639332  1
  Pt  Pt34  1  0.046326  0.823816  0.638128  1
  Pt  Pt35  1  0.953762  0.176174  0.361740  1
  Pt  Pt36  1  0.500132  0.500015  0.999973  1
