# generated using pymatgen
data_Hf2Nb3ZnSn3
_symmetry_space_group_name_H-M   'P 1'
_cell_length_a   8.44145411
_cell_length_b   8.46558869
_cell_length_c   5.70167600
_cell_angle_alpha   90.00000000
_cell_angle_beta   90.00000000
_cell_angle_gamma   120.09462171
_symmetry_Int_Tables_number   1
_chemical_formula_structural   Hf2Nb3ZnSn3
_chemical_formula_sum   'Hf4 Nb6 Zn2 Sn6'
_cell_volume   352.52726914
_cell_formula_units_Z   2
loop_
 _symmetry_equiv_pos_site_id
 _symmetry_equiv_pos_as_xyz
  1  'x, y, z'
loop_
 _atom_site_type_symbol
 _atom_site_label
 _atom_site_symmetry_multiplicity
 _atom_site_fract_x
 _atom_site_fract_y
 _atom_site_fract_z
 _atom_site_occupancy
  Hf  Hf0  1  0.000000  0.277301  0.750000  1
  Hf  Hf1  1  0.262908  0.263744  0.250000  1
  Hf  Hf2  1  0.737092  0.000837  0.250000  1
  Hf  Hf3  1  0.000000  0.731085  0.250000  1
  Nb  Nb4  1  0.666961  0.333304  0.999455  1
  Nb  Nb5  1  0.333039  0.666344  0.999455  1
  Nb  Nb6  1  0.333039  0.666344  0.500545  1
  Nb  Nb7  1  0.666961  0.333304  0.500545  1
  Nb  Nb8  1  0.721084  0.725526  0.750000  1
  Nb  Nb9  1  0.278916  0.004442  0.750000  1
  Zn  Zn10  1  0.000000  0.995636  0.983657  1
  Zn  Zn11  1  0.000000  0.995636  0.516343  1
  Sn  Sn12  1  0.387282  0.385928  0.750000  1
  Sn  Sn13  1  0.612718  0.998646  0.750000  1
  Sn  Sn14  1  0.000000  0.622507  0.750000  1
  Sn  Sn15  1  0.610464  0.610534  0.250000  1
  Sn  Sn16  1  0.389536  0.000070  0.250000  1
  Sn  Sn17  1  0.000000  0.388814  0.250000  1
