# generated using pymatgen
data_Tb2Ho3SiBi2
_symmetry_space_group_name_H-M   'P 1'
_cell_length_a   8.04146500
_cell_length_b   9.13511100
_cell_length_c   12.13702900
_cell_angle_alpha   90.00000000
_cell_angle_beta   90.00000000
_cell_angle_gamma   90.00000000
_symmetry_Int_Tables_number   1
_chemical_formula_structural   Tb2Ho3SiBi2
_chemical_formula_sum   'Tb8 Ho12 Si4 Bi8'
_cell_volume   891.58221039
_cell_formula_units_Z   4
loop_
 _symmetry_equiv_pos_site_id
 _symmetry_equiv_pos_as_xyz
  1  'x, y, z'
loop_
 _atom_site_type_symbol
 _atom_site_label
 _atom_site_symmetry_multiplicity
 _atom_site_fract_x
 _atom_site_fract_y
 _atom_site_fract_z
 _atom_site_occupancy
  Tb  Tb0  1  0.342672  0.750000  0.711386  1
  Tb  Tb1  1  0.657328  0.250000  0.288614  1
  Tb  Tb2  1  0.842672  0.250000  0.788614  1
  Tb  Tb3  1  0.157328  0.750000  0.211386  1
  Tb  Tb4  1  0.867208  0.750000  0.794575  1
  Tb  Tb5  1  0.132792  0.250000  0.205425  1
  Tb  Tb6  1  0.367208  0.250000  0.705425  1
  Tb  Tb7  1  0.632792  0.750000  0.294575  1
  Ho  Ho8  1  0.680479  0.551692  0.564825  1
  Ho  Ho9  1  0.319521  0.448308  0.435175  1
  Ho  Ho10  1  0.180479  0.448308  0.935175  1
  Ho  Ho11  1  0.319521  0.051692  0.435175  1
  Ho  Ho12  1  0.819521  0.551692  0.064825  1
  Ho  Ho13  1  0.680479  0.948308  0.564825  1
  Ho  Ho14  1  0.819521  0.948308  0.064825  1
  Ho  Ho15  1  0.180479  0.051692  0.935175  1
  Ho  Ho16  1  0.042331  0.750000  0.499954  1
  Ho  Ho17  1  0.957669  0.250000  0.500046  1
  Ho  Ho18  1  0.542331  0.250000  0.000046  1
  Ho  Ho19  1  0.457669  0.750000  0.999954  1
  Si  Si20  1  0.083921  0.750000  0.980365  1
  Si  Si21  1  0.916079  0.250000  0.019635  1
  Si  Si22  1  0.583921  0.250000  0.519635  1
  Si  Si23  1  0.416079  0.750000  0.480365  1
  Bi  Bi24  1  0.573750  0.509983  0.828762  1
  Bi  Bi25  1  0.426250  0.490017  0.171238  1
  Bi  Bi26  1  0.073750  0.490017  0.671238  1
  Bi  Bi27  1  0.426250  0.009983  0.171238  1
  Bi  Bi28  1  0.926250  0.509983  0.328762  1
  Bi  Bi29  1  0.573750  0.990017  0.828762  1
  Bi  Bi30  1  0.926250  0.990017  0.328762  1
  Bi  Bi31  1  0.073750  0.009983  0.671238  1
