# generated using pymatgen
data_Hf2Pa6Ge9Sb
_symmetry_space_group_name_H-M   'P 1'
_cell_length_a   8.71076200
_cell_length_b   8.71076321
_cell_length_c   5.91261300
_cell_angle_alpha   90.00000000
_cell_angle_beta   90.00000000
_cell_angle_gamma   120.00000299
_symmetry_Int_Tables_number   1
_chemical_formula_structural   Hf2Pa6Ge9Sb
_chemical_formula_sum   'Hf2 Pa6 Ge9 Sb1'
_cell_volume   388.52809498
_cell_formula_units_Z   1
loop_
 _symmetry_equiv_pos_site_id
 _symmetry_equiv_pos_as_xyz
  1  'x, y, z'
loop_
 _atom_site_type_symbol
 _atom_site_label
 _atom_site_symmetry_multiplicity
 _atom_site_fract_x
 _atom_site_fract_y
 _atom_site_fract_z
 _atom_site_occupancy
  Hf  Hf0  1  0.000000  0.000000  0.000000  1
  Hf  Hf1  1  0.000000  0.000000  0.500000  1
  Pa  Pa2  1  0.623097  0.008933  0.244746  1
  Pa  Pa3  1  0.385836  0.008933  0.755254  1
  Pa  Pa4  1  0.991067  0.614164  0.244746  1
  Pa  Pa5  1  0.991067  0.376903  0.755254  1
  Pa  Pa6  1  0.385836  0.376903  0.244746  1
  Pa  Pa7  1  0.623097  0.614164  0.755254  1
  Ge  Ge8  1  0.270003  0.998289  0.250750  1
  Ge  Ge9  1  0.728286  0.998289  0.749250  1
  Ge  Ge10  1  0.001711  0.271714  0.250750  1
  Ge  Ge11  1  0.001711  0.729997  0.749250  1
  Ge  Ge12  1  0.728286  0.729997  0.250750  1
  Ge  Ge13  1  0.270003  0.271714  0.749250  1
  Ge  Ge14  1  0.333333  0.666667  0.000000  1
  Ge  Ge15  1  0.666667  0.333333  0.000000  1
  Ge  Ge16  1  0.666667  0.333333  0.500000  1
  Sb  Sb17  1  0.333333  0.666667  0.500000  1
