# generated using pymatgen
data_Tm3ThAl17SiRh6
_symmetry_space_group_name_H-M   'P 1'
_cell_length_a   7.55739206
_cell_length_b   7.55173429
_cell_length_c   9.42515435
_cell_angle_alpha   90.02239055
_cell_angle_beta   89.92117945
_cell_angle_gamma   119.48514365
_symmetry_Int_Tables_number   1
_chemical_formula_structural   Tm3ThAl17SiRh6
_chemical_formula_sum   'Tm3 Th1 Al17 Si1 Rh6'
_cell_volume   468.23854153
_cell_formula_units_Z   1
loop_
 _symmetry_equiv_pos_site_id
 _symmetry_equiv_pos_as_xyz
  1  'x, y, z'
loop_
 _atom_site_type_symbol
 _atom_site_label
 _atom_site_symmetry_multiplicity
 _atom_site_fract_x
 _atom_site_fract_y
 _atom_site_fract_z
 _atom_site_occupancy
  Tm  Tm0  1  0.004131  0.327573  0.754448  1
  Tm  Tm1  1  0.677798  0.000219  0.247410  1
  Tm  Tm2  1  0.327825  0.005520  0.750372  1
  Th  Th3  1  0.994430  0.666000  0.247273  1
  Al  Al4  1  0.131447  0.133729  0.249453  1
  Al  Al5  1  0.871760  0.875475  0.749361  1
  Al  Al6  1  0.999800  0.668174  0.915173  1
  Al  Al7  1  0.000365  0.664352  0.582795  1
  Al  Al8  1  0.339915  0.003923  0.427758  1
  Al  Al9  1  0.001344  0.330776  0.432928  1
  Al  Al10  1  0.663987  0.001351  0.577147  1
  Al  Al11  1  0.660792  0.997780  0.921142  1
  Al  Al12  1  0.339998  0.004266  0.072552  1
  Al  Al13  1  0.331833  0.331497  0.557153  1
  Al  Al14  1  0.663868  0.667640  0.455367  1
  Al  Al15  1  0.662791  0.666917  0.045333  1
  Al  Al16  1  0.333653  0.332168  0.943755  1
  Al  Al17  1  0.347045  0.550242  0.250423  1
  Al  Al18  1  0.658588  0.447110  0.750179  1
  Al  Al19  1  0.543149  0.336583  0.249738  1
  Al  Al20  1  0.447074  0.659343  0.749661  1
  Si  Si21  1  0.000732  0.330053  0.071364  1
  Rh  Rh22  1  0.681100  0.329412  0.001233  1
  Rh  Rh23  1  0.318298  0.663768  0.000358  1
  Rh  Rh24  1  0.326046  0.671375  0.499513  1
  Rh  Rh25  1  0.673300  0.328772  0.499051  1
  Rh  Rh26  1  0.998836  0.006469  0.000090  1
  Rh  Rh27  1  0.000098  0.999513  0.498971  1
