# generated using pymatgen
data_K16PuThAs8
_symmetry_space_group_name_H-M   'P 1'
_cell_length_a   11.16650045
_cell_length_b   11.16732740
_cell_length_c   11.16715000
_cell_angle_alpha   60.02830680
_cell_angle_beta   60.02285071
_cell_angle_gamma   60.02367520
_symmetry_Int_Tables_number   1
_chemical_formula_structural   K16PuThAs8
_chemical_formula_sum   'K16 Pu1 Th1 As8'
_cell_volume   985.23355022
_cell_formula_units_Z   1
loop_
 _symmetry_equiv_pos_site_id
 _symmetry_equiv_pos_as_xyz
  1  'x, y, z'
loop_
 _atom_site_type_symbol
 _atom_site_label
 _atom_site_symmetry_multiplicity
 _atom_site_fract_x
 _atom_site_fract_y
 _atom_site_fract_z
 _atom_site_occupancy
  K  K0  1  0.622923  0.131152  0.623059  1
  K  K1  1  0.622962  0.622972  0.131085  1
  K  K2  1  0.131166  0.622984  0.623039  1
  K  K3  1  0.622881  0.622950  0.623018  1
  K  K4  1  0.034356  0.034217  0.465515  1
  K  K5  1  0.784091  0.215839  0.215872  1
  K  K6  1  0.215863  0.784095  0.784202  1
  K  K7  1  0.784166  0.784197  0.215813  1
  K  K8  1  0.784102  0.215838  0.784230  1
  K  K9  1  0.215798  0.784178  0.215808  1
  K  K10  1  0.465984  0.034394  0.465478  1
  K  K11  1  0.465693  0.034313  0.034315  1
  K  K12  1  0.034166  0.465972  0.465379  1
  K  K13  1  0.034331  0.465533  0.034171  1
  K  K14  1  0.215775  0.215777  0.784190  1
  K  K15  1  0.465711  0.465787  0.034281  1
  Pu  Pu16  1  0.500011  0.500073  0.500002  1
  Th  Th17  1  0.749999  0.749910  0.750098  1
  As  As18  1  0.397012  0.809246  0.396943  1
  As  As19  1  0.855163  0.855129  0.434543  1
  As  As20  1  0.434347  0.855182  0.855251  1
  As  As21  1  0.855254  0.855216  0.855266  1
  As  As22  1  0.809238  0.396978  0.396856  1
  As  As23  1  0.396925  0.396948  0.396910  1
  As  As24  1  0.396876  0.396867  0.809407  1
  As  As25  1  0.855206  0.434257  0.855271  1
