# generated using pymatgen
data_Mn4Nb3MoP4
_symmetry_space_group_name_H-M   'P 1'
_cell_length_a   3.57426000
_cell_length_b   6.16413911
_cell_length_c   7.12229892
_cell_angle_alpha   91.01593390
_cell_angle_beta   90.00000000
_cell_angle_gamma   90.00000000
_symmetry_Int_Tables_number   1
_chemical_formula_structural   Mn4Nb3MoP4
_chemical_formula_sum   'Mn4 Nb3 Mo1 P4'
_cell_volume   156.89550216
_cell_formula_units_Z   1
loop_
 _symmetry_equiv_pos_site_id
 _symmetry_equiv_pos_as_xyz
  1  'x, y, z'
loop_
 _atom_site_type_symbol
 _atom_site_label
 _atom_site_symmetry_multiplicity
 _atom_site_fract_x
 _atom_site_fract_y
 _atom_site_fract_z
 _atom_site_occupancy
  Mn  Mn0  1  0.750000  0.857223  0.560378  1
  Mn  Mn1  1  0.250000  0.146924  0.443143  1
  Mn  Mn2  1  0.750000  0.358994  0.938192  1
  Mn  Mn3  1  0.250000  0.640349  0.059325  1
  Nb  Nb4  1  0.750000  0.473033  0.330127  1
  Nb  Nb5  1  0.250000  0.026405  0.823031  1
  Nb  Nb6  1  0.750000  0.970643  0.176228  1
  Mo  Mo7  1  0.250000  0.528226  0.667578  1
  P  P8  1  0.250000  0.269838  0.131600  1
  P  P9  1  0.750000  0.724634  0.864345  1
  P  P10  1  0.250000  0.778917  0.383472  1
  P  P11  1  0.750000  0.224812  0.622580  1
