# generated using pymatgen
data_Pa2TcSn2Ru
_symmetry_space_group_name_H-M   'P 1'
_cell_length_a   7.44819100
_cell_length_b   7.44819158
_cell_length_c   8.11071800
_cell_angle_alpha   90.00000000
_cell_angle_beta   90.00000000
_cell_angle_gamma   120.00000186
_symmetry_Int_Tables_number   1
_chemical_formula_structural   Pa2TcSn2Ru
_chemical_formula_sum   'Pa6 Tc3 Sn6 Ru3'
_cell_volume   389.66515292
_cell_formula_units_Z   3
loop_
 _symmetry_equiv_pos_site_id
 _symmetry_equiv_pos_as_xyz
  1  'x, y, z'
loop_
 _atom_site_type_symbol
 _atom_site_label
 _atom_site_symmetry_multiplicity
 _atom_site_fract_x
 _atom_site_fract_y
 _atom_site_fract_z
 _atom_site_occupancy
  Pa  Pa0  1  0.410993  0.001355  0.250963  1
  Pa  Pa1  1  0.590077  0.589648  0.749100  1
  Pa  Pa2  1  0.590363  0.589007  0.250963  1
  Pa  Pa3  1  0.998645  0.409637  0.250963  1
  Pa  Pa4  1  0.999569  0.409923  0.749100  1
  Pa  Pa5  1  0.410352  0.000431  0.749100  1
  Tc  Tc6  1  0.666667  0.333333  0.500527  1
  Tc  Tc7  1  0.000000  0.000000  0.751255  1
  Tc  Tc8  1  0.000000  0.000000  0.248762  1
  Sn  Sn9  1  0.253747  0.254212  0.499993  1
  Sn  Sn10  1  0.256135  0.256502  0.000016  1
  Sn  Sn11  1  0.743498  0.999633  0.000016  1
  Sn  Sn12  1  0.000464  0.746253  0.499993  1
  Sn  Sn13  1  0.745788  0.999536  0.499993  1
  Sn  Sn14  1  0.000367  0.743865  0.000016  1
  Ru  Ru15  1  0.666667  0.333333  0.998887  1
  Ru  Ru16  1  0.333333  0.666667  0.000898  1
  Ru  Ru17  1  0.333333  0.666667  0.499456  1
