# generated using pymatgen
data_YbSm4Dy3(B6Ru)4
_symmetry_space_group_name_H-M   'P 1'
_cell_length_a   3.70229500
_cell_length_b   9.17959144
_cell_length_c   11.58025055
_cell_angle_alpha   90.03545889
_cell_angle_beta   90.00000000
_cell_angle_gamma   90.00000000
_symmetry_Int_Tables_number   1
_chemical_formula_structural   YbSm4Dy3(B6Ru)4
_chemical_formula_sum   'Yb1 Sm4 Dy3 B24 Ru4'
_cell_volume   393.56117242
_cell_formula_units_Z   1
loop_
 _symmetry_equiv_pos_site_id
 _symmetry_equiv_pos_as_xyz
  1  'x, y, z'
loop_
 _atom_site_type_symbol
 _atom_site_label
 _atom_site_symmetry_multiplicity
 _atom_site_fract_x
 _atom_site_fract_y
 _atom_site_fract_z
 _atom_site_occupancy
  Yb  Yb0  1  0.000000  0.557511  0.870459  1
  Sm  Sm1  1  0.000000  0.322972  0.415532  1
  Sm  Sm2  1  0.000000  0.676599  0.587859  1
  Sm  Sm3  1  0.000000  0.821774  0.083718  1
  Sm  Sm4  1  0.000000  0.178309  0.913214  1
  Dy  Dy5  1  0.000000  0.942697  0.371570  1
  Dy  Dy6  1  0.000000  0.057008  0.628925  1
  Dy  Dy7  1  0.000000  0.443320  0.127350  1
  B  B8  1  0.500000  0.554570  0.431650  1
  B  B9  1  0.500000  0.445425  0.569377  1
  B  B10  1  0.500000  0.054886  0.068217  1
  B  B11  1  0.500000  0.944920  0.931044  1
  B  B12  1  0.500000  0.748026  0.418430  1
  B  B13  1  0.500000  0.252027  0.582186  1
  B  B14  1  0.500000  0.248791  0.081419  1
  B  B15  1  0.500000  0.750773  0.917438  1
  B  B16  1  0.500000  0.789183  0.266378  1
  B  B17  1  0.500000  0.211514  0.733466  1
  B  B18  1  0.500000  0.289732  0.233314  1
  B  B19  1  0.500000  0.709789  0.767039  1
  B  B20  1  0.500000  0.630289  0.184688  1
  B  B21  1  0.500000  0.371152  0.814761  1
  B  B22  1  0.500000  0.130602  0.314559  1
  B  B23  1  0.500000  0.869183  0.686230  1
  B  B24  1  0.500000  0.984148  0.212923  1
  B  B25  1  0.500000  0.015781  0.787198  1
  B  B26  1  0.500000  0.484116  0.286789  1
  B  B27  1  0.500000  0.516032  0.713804  1
  B  B28  1  0.500000  0.603315  0.028234  1
  B  B29  1  0.500000  0.396890  0.971271  1
  B  B30  1  0.500000  0.105840  0.470941  1
  B  B31  1  0.500000  0.893723  0.529281  1
  Ru  Ru32  1  0.000000  0.637684  0.320781  1
  Ru  Ru33  1  0.000000  0.361836  0.679810  1
  Ru  Ru34  1  0.000000  0.138037  0.180050  1
  Ru  Ru35  1  0.000000  0.861543  0.820095  1
