# generated using pymatgen
data_TmLu3ZnNi
_symmetry_space_group_name_H-M   'P 1'
_cell_length_a   9.20330035
_cell_length_b   9.20329924
_cell_length_c   9.20330000
_cell_angle_alpha   59.99999725
_cell_angle_beta   60.00000125
_cell_angle_gamma   59.99999684
_symmetry_Int_Tables_number   1
_chemical_formula_structural   TmLu3ZnNi
_chemical_formula_sum   'Tm4 Lu12 Zn4 Ni4'
_cell_volume   551.20824364
_cell_formula_units_Z   4
loop_
 _symmetry_equiv_pos_site_id
 _symmetry_equiv_pos_as_xyz
  1  'x, y, z'
loop_
 _atom_site_type_symbol
 _atom_site_label
 _atom_site_symmetry_multiplicity
 _atom_site_fract_x
 _atom_site_fract_y
 _atom_site_fract_z
 _atom_site_occupancy
  Tm  Tm0  1  0.354103  0.354103  0.354103  1
  Tm  Tm1  1  0.354103  0.354103  0.937689  1
  Tm  Tm2  1  0.354103  0.937689  0.354103  1
  Tm  Tm3  1  0.937689  0.354103  0.354103  1
  Lu  Lu4  1  0.809784  0.190216  0.190216  1
  Lu  Lu5  1  0.190216  0.809784  0.809784  1
  Lu  Lu6  1  0.190216  0.809784  0.190216  1
  Lu  Lu7  1  0.809784  0.190216  0.809784  1
  Lu  Lu8  1  0.190216  0.190216  0.809784  1
  Lu  Lu9  1  0.809784  0.809784  0.190216  1
  Lu  Lu10  1  0.935739  0.564261  0.564261  1
  Lu  Lu11  1  0.564261  0.935739  0.935739  1
  Lu  Lu12  1  0.564261  0.935739  0.564261  1
  Lu  Lu13  1  0.935739  0.564261  0.935739  1
  Lu  Lu14  1  0.564261  0.564261  0.935739  1
  Lu  Lu15  1  0.935739  0.935739  0.564261  1
  Zn  Zn16  1  0.579526  0.579526  0.579526  1
  Zn  Zn17  1  0.579526  0.579526  0.261421  1
  Zn  Zn18  1  0.579526  0.261421  0.579526  1
  Zn  Zn19  1  0.261421  0.579526  0.579526  1
  Ni  Ni20  1  0.143425  0.143425  0.143425  1
  Ni  Ni21  1  0.143425  0.143425  0.569726  1
  Ni  Ni22  1  0.143425  0.569726  0.143425  1
  Ni  Ni23  1  0.569726  0.143425  0.143425  1
