# generated using pymatgen
data_Pr12InCoNi3Rh
_symmetry_space_group_name_H-M   'P 1'
_cell_length_a   8.69905522
_cell_length_b   8.69905510
_cell_length_c   8.69905543
_cell_angle_alpha   111.72227568
_cell_angle_beta   109.17114265
_cell_angle_gamma   107.54777959
_symmetry_Int_Tables_number   1
_chemical_formula_structural   Pr12InCoNi3Rh
_chemical_formula_sum   'Pr12 In1 Co1 Ni3 Rh1'
_cell_volume   506.06404411
_cell_formula_units_Z   1
loop_
 _symmetry_equiv_pos_site_id
 _symmetry_equiv_pos_as_xyz
  1  'x, y, z'
loop_
 _atom_site_type_symbol
 _atom_site_label
 _atom_site_symmetry_multiplicity
 _atom_site_fract_x
 _atom_site_fract_y
 _atom_site_fract_z
 _atom_site_occupancy
  Pr  Pr0  1  0.395046  0.205584  0.189462  1
  Pr  Pr1  1  0.603887  0.793304  0.810583  1
  Pr  Pr2  1  0.016123  0.205584  0.810538  1
  Pr  Pr3  1  0.982720  0.793304  0.189417  1
  Pr  Pr4  1  0.177914  0.302464  0.482611  1
  Pr  Pr5  1  0.819853  0.695303  0.517389  1
  Pr  Pr6  1  0.177914  0.695303  0.875451  1
  Pr  Pr7  1  0.819853  0.302464  0.124549  1
  Pr  Pr8  1  0.324787  0.629976  0.305190  1
  Pr  Pr9  1  0.680574  0.373932  0.693358  1
  Pr  Pr10  1  0.324787  0.019597  0.694810  1
  Pr  Pr11  1  0.680574  0.987216  0.306642  1
  In  In12  1  0.499921  0.499921  0.000000  1
  Co  Co13  1  0.874767  0.374767  0.500000  1
  Ni  Ni14  1  0.371238  0.999319  0.371919  1
  Ni  Ni15  1  0.627400  0.999319  0.628081  1
  Ni  Ni16  1  0.124574  0.624574  0.500000  1
  Rh  Rh17  1  0.998071  0.998071  0.000000  1
