# generated using pymatgen
data_Nd6Nb2Co(Ni5P4)3
_symmetry_space_group_name_H-M   'P 1'
_cell_length_a   3.85679400
_cell_length_b   10.82747600
_cell_length_c   12.54118600
_cell_angle_alpha   90.00000000
_cell_angle_beta   90.00000000
_cell_angle_gamma   90.00000000
_symmetry_Int_Tables_number   1
_chemical_formula_structural   Nd6Nb2Co(Ni5P4)3
_chemical_formula_sum   'Nd6 Nb2 Co1 Ni15 P12'
_cell_volume   523.71170626
_cell_formula_units_Z   1
loop_
 _symmetry_equiv_pos_site_id
 _symmetry_equiv_pos_as_xyz
  1  'x, y, z'
loop_
 _atom_site_type_symbol
 _atom_site_label
 _atom_site_symmetry_multiplicity
 _atom_site_fract_x
 _atom_site_fract_y
 _atom_site_fract_z
 _atom_site_occupancy
  Nd  Nd0  1  0.000000  0.500000  0.522149  1
  Nd  Nd1  1  0.500000  0.000000  0.477313  1
  Nd  Nd2  1  0.500000  0.818028  0.205270  1
  Nd  Nd3  1  0.500000  0.181972  0.205270  1
  Nd  Nd4  1  0.000000  0.682200  0.794240  1
  Nd  Nd5  1  0.000000  0.317800  0.794240  1
  Nb  Nb6  1  0.500000  0.500000  0.149386  1
  Nb  Nb7  1  0.000000  0.000000  0.849975  1
  Co  Co8  1  0.500000  0.000000  0.016207  1
  Ni  Ni9  1  0.500000  0.500000  0.701388  1
  Ni  Ni10  1  0.000000  0.000000  0.298011  1
  Ni  Ni11  1  0.000000  0.500000  0.983475  1
  Ni  Ni12  1  0.500000  0.331451  0.988989  1
  Ni  Ni13  1  0.500000  0.668549  0.988989  1
  Ni  Ni14  1  0.000000  0.165285  0.010927  1
  Ni  Ni15  1  0.000000  0.834715  0.010927  1
  Ni  Ni16  1  0.500000  0.300789  0.426373  1
  Ni  Ni17  1  0.500000  0.699211  0.426373  1
  Ni  Ni18  1  0.000000  0.199156  0.574012  1
  Ni  Ni19  1  0.000000  0.800844  0.574012  1
  Ni  Ni20  1  0.500000  0.881576  0.710287  1
  Ni  Ni21  1  0.500000  0.118424  0.710287  1
  Ni  Ni22  1  0.000000  0.618356  0.290037  1
  Ni  Ni23  1  0.000000  0.381644  0.290037  1
  P  P24  1  0.500000  0.500000  0.882738  1
  P  P25  1  0.000000  0.000000  0.116943  1
  P  P26  1  0.500000  0.500000  0.346357  1
  P  P27  1  0.000000  0.000000  0.652986  1
  P  P28  1  0.500000  0.309256  0.612166  1
  P  P29  1  0.500000  0.690744  0.612166  1
  P  P30  1  0.000000  0.190839  0.388122  1
  P  P31  1  0.000000  0.809161  0.388122  1
  P  P32  1  0.500000  0.845636  0.897803  1
  P  P33  1  0.500000  0.154364  0.897803  1
  P  P34  1  0.000000  0.655582  0.103310  1
  P  P35  1  0.000000  0.344418  0.103310  1
