# generated using pymatgen
data_Tb3In4CoPd
_symmetry_space_group_name_H-M   'P 1'
_cell_length_a   7.95639500
_cell_length_b   7.95639595
_cell_length_c   3.71668100
_cell_angle_alpha   90.00000000
_cell_angle_beta   90.00000000
_cell_angle_gamma   120.00000021
_symmetry_Int_Tables_number   1
_chemical_formula_structural   Tb3In4CoPd
_chemical_formula_sum   'Tb3 In4 Co1 Pd1'
_cell_volume   203.75986382
_cell_formula_units_Z   1
loop_
 _symmetry_equiv_pos_site_id
 _symmetry_equiv_pos_as_xyz
  1  'x, y, z'
loop_
 _atom_site_type_symbol
 _atom_site_label
 _atom_site_symmetry_multiplicity
 _atom_site_fract_x
 _atom_site_fract_y
 _atom_site_fract_z
 _atom_site_occupancy
  Tb  Tb0  1  0.385300  0.424664  0.500000  1
  Tb  Tb1  1  0.039364  0.614701  0.500000  1
  Tb  Tb2  1  0.575336  0.960636  0.500000  1
  In  In3  1  0.003806  0.262487  0.000000  1
  In  In4  1  0.666667  0.333334  0.000000  1
  In  In5  1  0.737512  0.741319  0.000000  1
  In  In6  1  0.258682  0.996194  0.000000  1
  Co  Co7  1  0.333334  0.666667  0.000000  1
  Pd  Pd8  1  0.000000  0.000000  0.500000  1
