# generated using pymatgen
data_LaNd7(Si3Pt)4
_symmetry_space_group_name_H-M   'P 1'
_cell_length_a   8.23101176
_cell_length_b   8.23101240
_cell_length_c   8.62363500
_cell_angle_alpha   90.00000000
_cell_angle_beta   90.00000000
_cell_angle_gamma   119.87678693
_symmetry_Int_Tables_number   1
_chemical_formula_structural   LaNd7(Si3Pt)4
_chemical_formula_sum   'La1 Nd7 Si12 Pt4'
_cell_volume   506.60018971
_cell_formula_units_Z   1
loop_
 _symmetry_equiv_pos_site_id
 _symmetry_equiv_pos_as_xyz
  1  'x, y, z'
loop_
 _atom_site_type_symbol
 _atom_site_label
 _atom_site_symmetry_multiplicity
 _atom_site_fract_x
 _atom_site_fract_y
 _atom_site_fract_z
 _atom_site_occupancy
  La  La0  1  0.499689  0.500311  0.750000  1
  Nd  Nd1  1  0.500297  0.499703  0.250000  1
  Nd  Nd2  1  0.000585  0.500290  0.750000  1
  Nd  Nd3  1  0.999394  0.499721  0.250000  1
  Nd  Nd4  1  0.499710  0.999415  0.750000  1
  Nd  Nd5  1  0.500279  0.000606  0.250000  1
  Nd  Nd6  1  0.000007  0.999993  0.750000  1
  Nd  Nd7  1  0.999995  0.000005  0.250000  1
  Si  Si8  1  0.834205  0.165795  0.999188  1
  Si  Si9  1  0.165797  0.834203  0.000982  1
  Si  Si10  1  0.331480  0.165086  0.999598  1
  Si  Si11  1  0.165797  0.834203  0.499018  1
  Si  Si12  1  0.668519  0.834907  0.001383  1
  Si  Si13  1  0.834205  0.165795  0.500812  1
  Si  Si14  1  0.834914  0.668520  0.999598  1
  Si  Si15  1  0.668519  0.834907  0.498617  1
  Si  Si16  1  0.165093  0.331481  0.001383  1
  Si  Si17  1  0.331480  0.165086  0.500402  1
  Si  Si18  1  0.165093  0.331481  0.498617  1
  Si  Si19  1  0.834914  0.668520  0.500402  1
  Pt  Pt20  1  0.666783  0.333217  0.000566  1
  Pt  Pt21  1  0.333231  0.666769  0.000973  1
  Pt  Pt22  1  0.333231  0.666769  0.499027  1
  Pt  Pt23  1  0.666783  0.333217  0.499434  1
