# generated using pymatgen
data_Ho4Nb(ReN4)3
_symmetry_space_group_name_H-M   'P 1'
_cell_length_a   7.37601979
_cell_length_b   7.43826261
_cell_length_c   6.31244563
_cell_angle_alpha   72.33487460
_cell_angle_beta   73.10828049
_cell_angle_gamma   81.40744323
_symmetry_Int_Tables_number   1
_chemical_formula_structural   Ho4Nb(ReN4)3
_chemical_formula_sum   'Ho4 Nb1 Re3 N12'
_cell_volume   315.04949539
_cell_formula_units_Z   1
loop_
 _symmetry_equiv_pos_site_id
 _symmetry_equiv_pos_as_xyz
  1  'x, y, z'
loop_
 _atom_site_type_symbol
 _atom_site_label
 _atom_site_symmetry_multiplicity
 _atom_site_fract_x
 _atom_site_fract_y
 _atom_site_fract_z
 _atom_site_occupancy
  Ho  Ho0  1  0.908751  0.091666  0.751266  1
  Ho  Ho1  1  0.095946  0.908056  0.247417  1
  Ho  Ho2  1  0.706255  0.276365  0.253698  1
  Ho  Ho3  1  0.285862  0.711606  0.752115  1
  Nb  Nb4  1  0.623907  0.796705  0.280769  1
  Re  Re5  1  0.200505  0.378710  0.217924  1
  Re  Re6  1  0.377496  0.205515  0.719347  1
  Re  Re7  1  0.796198  0.618440  0.785650  1
  N  N8  1  0.664197  0.614767  0.082062  1
  N  N9  1  0.369472  0.878156  0.351597  1
  N  N10  1  0.358917  0.331634  0.418811  1
  N  N11  1  0.128072  0.629119  0.156853  1
  N  N12  1  0.002918  0.223635  0.334538  1
  N  N13  1  0.792702  0.003395  0.146438  1
  N  N14  1  0.226013  0.004501  0.837569  1
  N  N15  1  0.630879  0.137571  0.655590  1
  N  N16  1  0.330965  0.362598  0.918114  1
  N  N17  1  0.887502  0.380093  0.823279  1
  N  N18  1  0.625407  0.663227  0.605497  1
  N  N19  1  0.988034  0.784241  0.661468  1
