# generated using pymatgen
data_Sc4BeFeOs6
_symmetry_space_group_name_H-M   'P 1'
_cell_length_a   5.09418403
_cell_length_b   5.13734282
_cell_length_c   8.56928300
_cell_angle_alpha   90.00000000
_cell_angle_beta   90.00000000
_cell_angle_gamma   121.26084356
_symmetry_Int_Tables_number   1
_chemical_formula_structural   Sc4BeFeOs6
_chemical_formula_sum   'Sc4 Be1 Fe1 Os6'
_cell_volume   191.70309510
_cell_formula_units_Z   1
loop_
 _symmetry_equiv_pos_site_id
 _symmetry_equiv_pos_as_xyz
  1  'x, y, z'
loop_
 _atom_site_type_symbol
 _atom_site_label
 _atom_site_symmetry_multiplicity
 _atom_site_fract_x
 _atom_site_fract_y
 _atom_site_fract_z
 _atom_site_occupancy
  Sc  Sc0  1  0.331275  0.662838  0.436613  1
  Sc  Sc1  1  0.660728  0.330797  0.564618  1
  Sc  Sc2  1  0.660728  0.330797  0.935382  1
  Sc  Sc3  1  0.331275  0.662838  0.063387  1
  Be  Be4  1  0.343173  0.172307  0.250000  1
  Fe  Fe5  1  0.173848  0.341913  0.750000  1
  Os  Os6  1  0.177587  0.829734  0.750000  1
  Os  Os7  1  0.831906  0.658150  0.250000  1
  Os  Os8  1  0.665944  0.834700  0.750000  1
  Os  Os9  1  0.996239  0.998354  0.002333  1
  Os  Os10  1  0.831055  0.179220  0.250000  1
  Os  Os11  1  0.996239  0.998354  0.497667  1
