# generated using pymatgen
data_Dy4GaCo2Au
_symmetry_space_group_name_H-M   'P 1'
_cell_length_a   8.66870937
_cell_length_b   8.66871068
_cell_length_c   8.66871050
_cell_angle_alpha   132.18556959
_cell_angle_beta   132.18556445
_cell_angle_gamma   69.93609509
_symmetry_Int_Tables_number   1
_chemical_formula_structural   Dy4GaCo2Au
_chemical_formula_sum   'Dy8 Ga2 Co4 Au2'
_cell_volume   350.68559839
_cell_formula_units_Z   2
loop_
 _symmetry_equiv_pos_site_id
 _symmetry_equiv_pos_as_xyz
  1  'x, y, z'
loop_
 _atom_site_type_symbol
 _atom_site_label
 _atom_site_symmetry_multiplicity
 _atom_site_fract_x
 _atom_site_fract_y
 _atom_site_fract_z
 _atom_site_occupancy
  Dy  Dy0  1  0.808612  0.308612  0.862248  1
  Dy  Dy1  1  0.191388  0.691388  0.137753  1
  Dy  Dy2  1  0.446365  0.946365  0.137753  1
  Dy  Dy3  1  0.308612  0.446365  0.500000  1
  Dy  Dy4  1  0.053635  0.191388  0.500000  1
  Dy  Dy5  1  0.553635  0.053635  0.862247  1
  Dy  Dy6  1  0.691388  0.553635  0.500000  1
  Dy  Dy7  1  0.946365  0.808612  0.500000  1
  Ga  Ga8  1  0.000000  0.000000  0.000000  1
  Ga  Ga9  1  0.500000  0.500000  0.000000  1
  Co  Co10  1  0.117947  0.617947  0.735895  1
  Co  Co11  1  0.882053  0.382053  0.264105  1
  Co  Co12  1  0.617947  0.882053  0.500000  1
  Co  Co13  1  0.382053  0.117947  0.500000  1
  Au  Au14  1  0.250000  0.250000  0.000000  1
  Au  Au15  1  0.750000  0.750000  0.000000  1
