# generated using pymatgen
data_Ba6NiPd4O15
_symmetry_space_group_name_H-M   'P 1'
_cell_length_a   7.47004294
_cell_length_b   7.47008294
_cell_length_c   7.46999125
_cell_angle_alpha   85.62643884
_cell_angle_beta   85.62684563
_cell_angle_gamma   85.62569284
_symmetry_Int_Tables_number   1
_chemical_formula_structural   Ba6NiPd4O15
_chemical_formula_sum   'Ba6 Ni1 Pd4 O15'
_cell_volume   413.37338955
_cell_formula_units_Z   1
loop_
 _symmetry_equiv_pos_site_id
 _symmetry_equiv_pos_as_xyz
  1  'x, y, z'
loop_
 _atom_site_type_symbol
 _atom_site_label
 _atom_site_symmetry_multiplicity
 _atom_site_fract_x
 _atom_site_fract_y
 _atom_site_fract_z
 _atom_site_occupancy
  Ba  Ba0  1  0.337521  0.662465  0.000012  1
  Ba  Ba1  1  0.000004  0.337520  0.662471  1
  Ba  Ba2  1  0.662467  0.000012  0.337521  1
  Ba  Ba3  1  0.149834  0.850154  0.499994  1
  Ba  Ba4  1  0.499994  0.149848  0.850157  1
  Ba  Ba5  1  0.850141  0.499990  0.149841  1
  Ni  Ni6  1  0.500197  0.500161  0.500111  1
  Pd  Pd7  1  0.295994  0.295994  0.296001  1
  Pd  Pd8  1  0.703979  0.703980  0.703976  1
  Pd  Pd9  1  0.097390  0.097391  0.097394  1
  Pd  Pd10  1  0.902591  0.902593  0.902594  1
  O  O11  1  0.151630  0.999993  0.848362  1
  O  O12  1  0.848359  0.151631  0.999996  1
  O  O13  1  0.999995  0.848362  0.151635  1
  O  O14  1  0.033551  0.199853  0.341932  1
  O  O15  1  0.341927  0.033553  0.199859  1
  O  O16  1  0.199852  0.341927  0.033558  1
  O  O17  1  0.800138  0.966438  0.658063  1
  O  O18  1  0.658063  0.800141  0.966437  1
  O  O19  1  0.966436  0.658066  0.800138  1
  O  O20  1  0.372121  0.242782  0.545488  1
  O  O21  1  0.545472  0.372113  0.242776  1
  O  O22  1  0.242784  0.545475  0.372129  1
  O  O23  1  0.757178  0.627864  0.454510  1
  O  O24  1  0.454513  0.757173  0.627859  1
  O  O25  1  0.627869  0.454520  0.757186  1
