# generated using pymatgen
data_Tb6Y6CoTc3
_symmetry_space_group_name_H-M   'P 1'
_cell_length_a   6.31504735
_cell_length_b   7.33126125
_cell_length_c   9.27639987
_cell_angle_alpha   90.01778595
_cell_angle_beta   89.95342772
_cell_angle_gamma   90.08015329
_symmetry_Int_Tables_number   1
_chemical_formula_structural   Tb6Y6CoTc3
_chemical_formula_sum   'Tb6 Y6 Co1 Tc3'
_cell_volume   429.47133186
_cell_formula_units_Z   1
loop_
 _symmetry_equiv_pos_site_id
 _symmetry_equiv_pos_as_xyz
  1  'x, y, z'
loop_
 _atom_site_type_symbol
 _atom_site_label
 _atom_site_symmetry_multiplicity
 _atom_site_fract_x
 _atom_site_fract_y
 _atom_site_fract_z
 _atom_site_occupancy
  Tb  Tb0  1  0.331307  0.676917  0.065881  1
  Tb  Tb1  1  0.163536  0.176739  0.436638  1
  Tb  Tb2  1  0.871399  0.542254  0.249989  1
  Tb  Tb3  1  0.627260  0.041474  0.250093  1
  Tb  Tb4  1  0.142295  0.455873  0.749849  1
  Tb  Tb5  1  0.372555  0.950289  0.750317  1
  Y  Y6  1  0.664189  0.326766  0.564629  1
  Y  Y7  1  0.833639  0.821986  0.935998  1
  Y  Y8  1  0.664847  0.326409  0.935066  1
  Y  Y9  1  0.833180  0.821666  0.564110  1
  Y  Y10  1  0.331957  0.677779  0.434950  1
  Y  Y11  1  0.162816  0.177142  0.062541  1
  Co  Co12  1  0.535717  0.616856  0.749871  1
  Tc  Tc13  1  0.034353  0.885699  0.250662  1
  Tc  Tc14  1  0.463319  0.387961  0.249394  1
  Tc  Tc15  1  0.967632  0.114189  0.750010  1
