# generated using pymatgen
data_Nb3Ga4SiRu8
_symmetry_space_group_name_H-M   'P 1'
_cell_length_a   6.15185500
_cell_length_b   4.36191100
_cell_length_c   8.69339800
_cell_angle_alpha   90.00000000
_cell_angle_beta   89.99698350
_cell_angle_gamma   90.00000000
_symmetry_Int_Tables_number   1
_chemical_formula_structural   Nb3Ga4SiRu8
_chemical_formula_sum   'Nb3 Ga4 Si1 Ru8'
_cell_volume   233.27728556
_cell_formula_units_Z   1
loop_
 _symmetry_equiv_pos_site_id
 _symmetry_equiv_pos_as_xyz
  1  'x, y, z'
loop_
 _atom_site_type_symbol
 _atom_site_label
 _atom_site_symmetry_multiplicity
 _atom_site_fract_x
 _atom_site_fract_y
 _atom_site_fract_z
 _atom_site_occupancy
  Nb  Nb0  1  0.250081  0.250000  0.116132  1
  Nb  Nb1  1  0.750064  0.750001  0.374993  1
  Nb  Nb2  1  0.249932  0.250000  0.633812  1
  Ga  Ga3  1  0.750091  0.250000  0.132630  1
  Ga  Ga4  1  0.250017  0.750001  0.375017  1
  Ga  Ga5  1  0.749923  0.250000  0.617334  1
  Ga  Ga6  1  0.249929  0.750001  0.874997  1
  Si  Si7  1  0.749935  0.750001  0.874987  1
  Ru  Ru8  1  0.508176  0.750001  0.115236  1
  Ru  Ru9  1  0.991997  0.750001  0.115314  1
  Ru  Ru10  1  0.495581  0.250000  0.374994  1
  Ru  Ru11  1  0.004541  0.250000  0.375031  1
  Ru  Ru12  1  0.991802  0.750001  0.634756  1
  Ru  Ru13  1  0.508050  0.750001  0.634748  1
  Ru  Ru14  1  0.982942  0.250000  0.875012  1
  Ru  Ru15  1  0.516943  0.250000  0.875009  1
