# generated using pymatgen
data_PrI31
_symmetry_space_group_name_H-M   'P 1'
_cell_length_a   9.16918000
_cell_length_b   10.38510117
_cell_length_c   20.67628600
_cell_angle_alpha   85.30545102
_cell_angle_beta   90.00000000
_cell_angle_gamma   90.00000000
_symmetry_Int_Tables_number   1
_chemical_formula_structural   PrI31
_chemical_formula_sum   'Pr1 I31'
_cell_volume   1962.24996806
_cell_formula_units_Z   1
loop_
 _symmetry_equiv_pos_site_id
 _symmetry_equiv_pos_as_xyz
  1  'x, y, z'
loop_
 _atom_site_type_symbol
 _atom_site_label
 _atom_site_symmetry_multiplicity
 _atom_site_fract_x
 _atom_site_fract_y
 _atom_site_fract_z
 _atom_site_occupancy
  Pr  Pr0  1  0.750000  0.869984  0.192759  1
  I  I1  1  0.750000  0.370829  0.301110  1
  I  I2  1  0.250000  0.672005  0.662880  1
  I  I3  1  0.250000  0.139772  0.831562  1
  I  I4  1  0.250000  0.300459  0.154164  1
  I  I5  1  0.750000  0.987930  0.747638  1
  I  I6  1  0.750000  0.892557  0.342272  1
  I  I7  1  0.506374  0.697173  0.168210  1
  I  I8  1  0.250000  0.547132  0.342042  1
  I  I9  1  0.501301  0.809147  0.600257  1
  I  I10  1  0.250000  0.724907  0.812967  1
  I  I11  1  0.250000  0.090302  0.422812  1
  I  I12  1  0.750000  0.608238  0.413655  1
  I  I13  1  0.502486  0.270954  0.886860  1
  I  I14  1  0.250000  0.744895  0.946521  1
  I  I15  1  0.750000  0.209798  0.184407  1
  I  I16  1  0.496555  0.232984  0.367809  1
  I  I17  1  0.750000  0.247172  0.672336  1
  I  I18  1  0.250000  0.807263  0.349139  1
  I  I19  1  0.003445  0.232984  0.367809  1
  I  I20  1  0.750000  0.944017  0.539772  1
  I  I21  1  0.993626  0.697173  0.168210  1
  I  I22  1  0.250000  0.037698  0.217746  1
  I  I23  1  0.750000  0.063744  0.066690  1
  I  I24  1  0.750000  0.725602  0.807982  1
  I  I25  1  0.750000  0.489688  0.732394  1
  I  I26  1  0.250000  0.476669  0.039288  1
  I  I27  1  0.998699  0.809147  0.600257  1
  I  I28  1  0.750000  0.401785  0.939832  1
  I  I29  1  0.250000  0.366104  0.553497  1
  I  I30  1  0.250000  0.260927  0.680265  1
  I  I31  1  0.997514  0.270954  0.886860  1
