# generated using pymatgen
data_Dy5ErAl24Os5Rh3
_symmetry_space_group_name_H-M   'P 1'
_cell_length_a   8.77850807
_cell_length_b   8.79907747
_cell_length_c   9.57609024
_cell_angle_alpha   89.98251493
_cell_angle_beta   89.83065129
_cell_angle_gamma   119.37759122
_symmetry_Int_Tables_number   1
_chemical_formula_structural   Dy5ErAl24Os5Rh3
_chemical_formula_sum   'Dy5 Er1 Al24 Os5 Rh3'
_cell_volume   644.56055245
_cell_formula_units_Z   1
loop_
 _symmetry_equiv_pos_site_id
 _symmetry_equiv_pos_as_xyz
  1  'x, y, z'
loop_
 _atom_site_type_symbol
 _atom_site_label
 _atom_site_symmetry_multiplicity
 _atom_site_fract_x
 _atom_site_fract_y
 _atom_site_fract_z
 _atom_site_occupancy
  Dy  Dy0  1  0.187253  0.384270  0.251882  1
  Dy  Dy1  1  0.812745  0.615630  0.748142  1
  Dy  Dy2  1  0.613791  0.814158  0.251288  1
  Dy  Dy3  1  0.386406  0.185846  0.748723  1
  Dy  Dy4  1  0.195931  0.809083  0.251549  1
  Er  Er5  1  0.803161  0.191613  0.748254  1
  Al  Al6  1  0.333657  0.667637  0.024473  1
  Al  Al7  1  0.666634  0.332265  0.975029  1
  Al  Al8  1  0.667634  0.332720  0.522720  1
  Al  Al9  1  0.332497  0.667125  0.477732  1
  Al  Al10  1  0.161719  0.325620  0.577210  1
  Al  Al11  1  0.837910  0.674063  0.423163  1
  Al  Al12  1  0.673502  0.837082  0.576656  1
  Al  Al13  1  0.835799  0.674180  0.077166  1
  Al  Al14  1  0.326774  0.163234  0.423701  1
  Al  Al15  1  0.163874  0.325535  0.922494  1
  Al  Al16  1  0.163858  0.834488  0.576001  1
  Al  Al17  1  0.326654  0.162981  0.076291  1
  Al  Al18  1  0.836155  0.165435  0.424538  1
  Al  Al19  1  0.673656  0.837353  0.923342  1
  Al  Al20  1  0.834003  0.162995  0.075824  1
  Al  Al21  1  0.166076  0.836990  0.923645  1
  Al  Al22  1  0.561703  0.126714  0.249575  1
  Al  Al23  1  0.438893  0.873633  0.750428  1
  Al  Al24  1  0.875541  0.439401  0.250034  1
  Al  Al25  1  0.124069  0.559999  0.750064  1
  Al  Al26  1  0.560479  0.440227  0.249606  1
  Al  Al27  1  0.439498  0.559770  0.750393  1
  Al  Al28  1  0.998970  0.002024  0.250090  1
  Al  Al29  1  0.000545  0.998470  0.749947  1
  Os  Os30  1  0.500356  0.000202  0.999734  1
  Os  Os31  1  0.500304  0.000160  0.500266  1
  Os  Os32  1  0.999825  0.499650  0.500271  1
  Os  Os33  1  0.000059  0.999960  0.999963  1
  Os  Os34  1  0.000040  0.999936  0.500023  1
  Rh  Rh35  1  0.999903  0.499804  0.999898  1
  Rh  Rh36  1  0.500018  0.499862  0.999894  1
  Rh  Rh37  1  0.500107  0.499889  0.499992  1
