# generated using pymatgen
data_Sc11(SbO8)3
_symmetry_space_group_name_H-M   'P 1'
_cell_length_a   7.93853228
_cell_length_b   7.96701329
_cell_length_c   8.01311292
_cell_angle_alpha   71.56974181
_cell_angle_beta   72.57833590
_cell_angle_gamma   72.38045162
_symmetry_Int_Tables_number   1
_chemical_formula_structural   Sc11(SbO8)3
_chemical_formula_sum   'Sc11 Sb3 O24'
_cell_volume   446.47000001
_cell_formula_units_Z   1
loop_
 _symmetry_equiv_pos_site_id
 _symmetry_equiv_pos_as_xyz
  1  'x, y, z'
loop_
 _atom_site_type_symbol
 _atom_site_label
 _atom_site_symmetry_multiplicity
 _atom_site_fract_x
 _atom_site_fract_y
 _atom_site_fract_z
 _atom_site_occupancy
  Sc  Sc0  1  0.390488  0.924357  0.223888  1
  Sc  Sc1  1  0.710770  0.895533  0.438460  1
  Sc  Sc2  1  0.412381  0.718444  0.893761  1
  Sc  Sc3  1  0.074371  0.789312  0.602719  1
  Sc  Sc4  1  0.896902  0.425474  0.703923  1
  Sc  Sc5  1  0.223521  0.387411  0.923684  1
  Sc  Sc6  1  0.111455  0.574884  0.285619  1
  Sc  Sc7  1  0.929984  0.209145  0.395292  1
  Sc  Sc8  1  0.570587  0.277552  0.105543  1
  Sc  Sc9  1  0.286948  0.108379  0.571837  1
  Sc  Sc10  1  0.608390  0.080717  0.778211  1
  Sb  Sb11  1  0.998523  0.002227  0.997606  1
  Sb  Sb12  1  0.500471  0.505745  0.501559  1
  Sb  Sb13  1  0.792264  0.601948  0.059619  1
  O  O14  1  0.139042  0.911924  0.776346  1
  O  O15  1  0.578522  0.735862  0.381304  1
  O  O16  1  0.506431  0.916107  0.680542  1
  O  O17  1  0.221058  0.859016  0.090781  1
  O  O18  1  0.830889  0.993175  0.589047  1
  O  O19  1  0.917167  0.671716  0.505116  1
  O  O20  1  0.592538  0.814535  0.004810  1
  O  O21  1  0.680042  0.504776  0.916949  1
  O  O22  1  0.276195  0.639837  0.411608  1
  O  O23  1  0.987789  0.595574  0.832138  1
  O  O24  1  0.910104  0.762624  0.127759  1
  O  O25  1  0.639427  0.433093  0.264228  1
  O  O26  1  0.364323  0.582541  0.729995  1
  O  O27  1  0.084292  0.230678  0.861395  1
  O  O28  1  0.995801  0.415825  0.163594  1
  O  O29  1  0.725395  0.360571  0.588167  1
  O  O30  1  0.327408  0.485947  0.087365  1
  O  O31  1  0.414606  0.162920  0.006395  1
  O  O32  1  0.087091  0.330493  0.485520  1
  O  O33  1  0.171038  0.009029  0.412891  1
  O  O34  1  0.771380  0.133112  0.914165  1
  O  O35  1  0.491836  0.091760  0.332155  1
  O  O36  1  0.415108  0.277698  0.629794  1
  O  O37  1  0.865464  0.080058  0.226218  1
