# generated using pymatgen
data_Dy2U(GaPt)3
_symmetry_space_group_name_H-M   'P 1'
_cell_length_a   7.28675228
_cell_length_b   7.28675207
_cell_length_c   3.87504100
_cell_angle_alpha   90.00000000
_cell_angle_beta   90.00000000
_cell_angle_gamma   119.93280428
_symmetry_Int_Tables_number   1
_chemical_formula_structural   Dy2U(GaPt)3
_chemical_formula_sum   'Dy2 U1 Ga3 Pt3'
_cell_volume   178.30708426
_cell_formula_units_Z   1
loop_
 _symmetry_equiv_pos_site_id
 _symmetry_equiv_pos_as_xyz
  1  'x, y, z'
loop_
 _atom_site_type_symbol
 _atom_site_label
 _atom_site_symmetry_multiplicity
 _atom_site_fract_x
 _atom_site_fract_y
 _atom_site_fract_z
 _atom_site_occupancy
  Dy  Dy0  1  0.408032  0.000418  0.500000  1
  Dy  Dy1  1  0.000418  0.408032  0.500000  1
  U  U2  1  0.586068  0.586068  0.500000  1
  Ga  Ga3  1  0.748795  0.008719  0.000000  1
  Ga  Ga4  1  0.008719  0.748795  0.000000  1
  Ga  Ga5  1  0.243990  0.243990  0.000000  1
  Pt  Pt6  1  0.352990  0.665523  0.000000  1
  Pt  Pt7  1  0.665523  0.352990  0.000000  1
  Pt  Pt8  1  0.985465  0.985465  0.500000  1
