# generated using pymatgen
data_Sm6EuOsBr12
_symmetry_space_group_name_H-M   'P 1'
_cell_length_a   9.54581289
_cell_length_b   9.42948475
_cell_length_c   9.43769617
_cell_angle_alpha   106.29146670
_cell_angle_beta   106.18813234
_cell_angle_gamma   106.50942875
_symmetry_Int_Tables_number   1
_chemical_formula_structural   Sm6EuOsBr12
_chemical_formula_sum   'Sm6 Eu1 Os1 Br12'
_cell_volume   720.01796869
_cell_formula_units_Z   1
loop_
 _symmetry_equiv_pos_site_id
 _symmetry_equiv_pos_as_xyz
  1  'x, y, z'
loop_
 _atom_site_type_symbol
 _atom_site_label
 _atom_site_symmetry_multiplicity
 _atom_site_fract_x
 _atom_site_fract_y
 _atom_site_fract_z
 _atom_site_occupancy
  Sm  Sm0  1  0.101622  0.307479  0.020241  1
  Sm  Sm1  1  0.316325  0.020319  0.105504  1
  Sm  Sm2  1  0.020646  0.101610  0.306643  1
  Sm  Sm3  1  0.979353  0.898390  0.693357  1
  Sm  Sm4  1  0.683675  0.979680  0.894495  1
  Sm  Sm5  1  0.898378  0.692521  0.979759  1
  Eu  Eu6  1  0.500000  0.500000  0.500000  1
  Os  Os7  1  0.000000  0.000000  0.000000  1
  Br  Br8  1  0.217477  0.679456  0.072017  1
  Br  Br9  1  0.448126  0.367510  0.149222  1
  Br  Br10  1  0.681233  0.073189  0.219283  1
  Br  Br11  1  0.927797  0.780977  0.319598  1
  Br  Br12  1  0.151933  0.450197  0.368092  1
  Br  Br13  1  0.366009  0.148977  0.449689  1
  Br  Br14  1  0.633991  0.851023  0.550311  1
  Br  Br15  1  0.848066  0.549803  0.631908  1
  Br  Br16  1  0.072204  0.219024  0.680403  1
  Br  Br17  1  0.318768  0.926812  0.780717  1
  Br  Br18  1  0.551873  0.632489  0.850778  1
  Br  Br19  1  0.782523  0.320545  0.927983  1
