# generated using pymatgen
data_Ba5TbOs3O16
_symmetry_space_group_name_H-M   'P 1'
_cell_length_a   6.04229546
_cell_length_b   6.04698608
_cell_length_c   10.69583542
_cell_angle_alpha   93.17291933
_cell_angle_beta   93.10580424
_cell_angle_gamma   90.10784781
_symmetry_Int_Tables_number   1
_chemical_formula_structural   Ba5TbOs3O16
_chemical_formula_sum   'Ba5 Tb1 Os3 O16'
_cell_volume   389.62408753
_cell_formula_units_Z   1
loop_
 _symmetry_equiv_pos_site_id
 _symmetry_equiv_pos_as_xyz
  1  'x, y, z'
loop_
 _atom_site_type_symbol
 _atom_site_label
 _atom_site_symmetry_multiplicity
 _atom_site_fract_x
 _atom_site_fract_y
 _atom_site_fract_z
 _atom_site_occupancy
  Ba  Ba0  1  0.511541  0.027572  0.203998  1
  Ba  Ba1  1  0.028548  0.509230  0.204829  1
  Ba  Ba2  1  0.999983  0.000028  0.500008  1
  Ba  Ba3  1  0.971440  0.490723  0.795176  1
  Ba  Ba4  1  0.488494  0.972461  0.796013  1
  Tb  Tb5  1  0.500013  0.499998  0.999996  1
  Os  Os6  1  0.000016  0.999984  0.999989  1
  Os  Os7  1  0.561903  0.561923  0.394266  1
  Os  Os8  1  0.438070  0.438093  0.605728  1
  O  O9  1  0.755229  0.220533  0.000258  1
  O  O10  1  0.782842  0.759346  0.018821  1
  O  O11  1  0.039928  0.041460  0.172148  1
  O  O12  1  0.481785  0.481056  0.207182  1
  O  O13  1  0.762779  0.763067  0.332962  1
  O  O14  1  0.319547  0.748372  0.377134  1
  O  O15  1  0.749935  0.320706  0.377385  1
  O  O16  1  0.327503  0.326361  0.438088  1
  O  O17  1  0.672478  0.673640  0.561912  1
  O  O18  1  0.250055  0.679311  0.622615  1
  O  O19  1  0.680432  0.251634  0.622875  1
  O  O20  1  0.237214  0.236916  0.667047  1
  O  O21  1  0.518203  0.518927  0.792817  1
  O  O22  1  0.960092  0.958535  0.827852  1
  O  O23  1  0.217176  0.240647  0.981175  1
  O  O24  1  0.244793  0.779465  0.999737  1
