# generated using pymatgen
data_SrLaMg2Au3
_symmetry_space_group_name_H-M   'P 1'
_cell_length_a   4.56163500
_cell_length_b   8.35265300
_cell_length_c   9.38621600
_cell_angle_alpha   90.00000000
_cell_angle_beta   90.00000000
_cell_angle_gamma   90.00000000
_symmetry_Int_Tables_number   1
_chemical_formula_structural   SrLaMg2Au3
_chemical_formula_sum   'Sr2 La2 Mg4 Au6'
_cell_volume   357.63129554
_cell_formula_units_Z   2
loop_
 _symmetry_equiv_pos_site_id
 _symmetry_equiv_pos_as_xyz
  1  'x, y, z'
loop_
 _atom_site_type_symbol
 _atom_site_label
 _atom_site_symmetry_multiplicity
 _atom_site_fract_x
 _atom_site_fract_y
 _atom_site_fract_z
 _atom_site_occupancy
  Sr  Sr0  1  0.500000  0.000000  0.728612  1
  Sr  Sr1  1  0.000000  0.500000  0.271388  1
  La  La2  1  0.000000  0.000000  0.344452  1
  La  La3  1  0.500000  0.500000  0.655548  1
  Mg  Mg4  1  0.000000  0.309477  0.899776  1
  Mg  Mg5  1  0.500000  0.190523  0.100224  1
  Mg  Mg6  1  0.000000  0.690523  0.899776  1
  Mg  Mg7  1  0.500000  0.809477  0.100224  1
  Au  Au8  1  0.000000  0.744563  0.602189  1
  Au  Au9  1  0.500000  0.755437  0.397811  1
  Au  Au10  1  0.500000  0.500000  0.984299  1
  Au  Au11  1  0.000000  0.000000  0.015701  1
  Au  Au12  1  0.500000  0.244563  0.397811  1
  Au  Au13  1  0.000000  0.255437  0.602189  1
