# generated using pymatgen
data_Cs4Na2DyAlAs4
_symmetry_space_group_name_H-M   'P 1'
_cell_length_a   9.75145126
_cell_length_b   9.75145116
_cell_length_c   9.75144422
_cell_angle_alpha   138.92134013
_cell_angle_beta   137.19417507
_cell_angle_gamma   60.82569101
_symmetry_Int_Tables_number   1
_chemical_formula_structural   Cs4Na2DyAlAs4
_chemical_formula_sum   'Cs4 Na2 Dy1 Al1 As4'
_cell_volume   409.54407878
_cell_formula_units_Z   1
loop_
 _symmetry_equiv_pos_site_id
 _symmetry_equiv_pos_as_xyz
  1  'x, y, z'
loop_
 _atom_site_type_symbol
 _atom_site_label
 _atom_site_symmetry_multiplicity
 _atom_site_fract_x
 _atom_site_fract_y
 _atom_site_fract_z
 _atom_site_occupancy
  Cs  Cs0  1  0.097789  0.325519  0.778364  1
  Cs  Cs1  1  0.452846  0.174483  0.272273  1
  Cs  Cs2  1  0.902210  0.680573  0.227727  1
  Cs  Cs3  1  0.547155  0.819425  0.721636  1
  Na  Na4  1  0.500000  0.750000  0.250000  1
  Na  Na5  1  0.500000  0.250000  0.750000  1
  Dy  Dy6  1  0.000000  0.250000  0.250000  1
  Al  Al7  1  0.000000  0.750000  0.750000  1
  As  As8  1  0.119794  0.890099  0.187377  1
  As  As9  1  0.880206  0.067584  0.770306  1
  As  As10  1  0.297278  0.609902  0.729694  1
  As  As11  1  0.702722  0.432417  0.312623  1
