# generated using pymatgen
data_ThNi4(AuO4)3
_symmetry_space_group_name_H-M   'P 1'
_cell_length_a   6.59093606
_cell_length_b   6.59093634
_cell_length_c   6.59093600
_cell_angle_alpha   109.47122268
_cell_angle_beta   109.47122352
_cell_angle_gamma   109.47121690
_symmetry_Int_Tables_number   1
_chemical_formula_structural   ThNi4(AuO4)3
_chemical_formula_sum   'Th1 Ni4 Au3 O12'
_cell_volume   220.40396983
_cell_formula_units_Z   1
loop_
 _symmetry_equiv_pos_site_id
 _symmetry_equiv_pos_as_xyz
  1  'x, y, z'
loop_
 _atom_site_type_symbol
 _atom_site_label
 _atom_site_symmetry_multiplicity
 _atom_site_fract_x
 _atom_site_fract_y
 _atom_site_fract_z
 _atom_site_occupancy
  Th  Th0  1  0.000000  0.000000  0.000000  1
  Ni  Ni1  1  0.000000  0.000000  0.500000  1
  Ni  Ni2  1  0.000000  0.500000  0.000000  1
  Ni  Ni3  1  0.500000  0.000000  0.000000  1
  Ni  Ni4  1  0.500000  0.500000  0.500000  1
  Au  Au5  1  0.000000  0.500000  0.500000  1
  Au  Au6  1  0.500000  0.000000  0.500000  1
  Au  Au7  1  0.500000  0.500000  0.000000  1
  O  O8  1  0.294729  0.122925  0.828195  1
  O  O9  1  0.705271  0.877075  0.171805  1
  O  O10  1  0.705271  0.533465  0.828195  1
  O  O11  1  0.466535  0.171805  0.294729  1
  O  O12  1  0.171805  0.294729  0.466535  1
  O  O13  1  0.828195  0.294729  0.122925  1
  O  O14  1  0.877075  0.171805  0.705271  1
  O  O15  1  0.828195  0.705271  0.533465  1
  O  O16  1  0.294729  0.466535  0.171805  1
  O  O17  1  0.533465  0.828195  0.705271  1
  O  O18  1  0.171805  0.705271  0.877075  1
  O  O19  1  0.122925  0.828195  0.294729  1
