# generated using pymatgen
data_Ti8Al14Os5Rh2S
_symmetry_space_group_name_H-M   'P 1'
_cell_length_a   8.63857313
_cell_length_b   8.63857199
_cell_length_c   8.63857203
_cell_angle_alpha   119.73123802
_cell_angle_beta   119.99014813
_cell_angle_gamma   90.24159758
_symmetry_Int_Tables_number   1
_chemical_formula_structural   Ti8Al14Os5Rh2S
_chemical_formula_sum   'Ti8 Al14 Os5 Rh2 S1'
_cell_volume   456.79096912
_cell_formula_units_Z   1
loop_
 _symmetry_equiv_pos_site_id
 _symmetry_equiv_pos_as_xyz
  1  'x, y, z'
loop_
 _atom_site_type_symbol
 _atom_site_label
 _atom_site_symmetry_multiplicity
 _atom_site_fract_x
 _atom_site_fract_y
 _atom_site_fract_z
 _atom_site_occupancy
  Ti  Ti0  1  0.802546  0.309885  0.104372  1
  Ti  Ti1  1  0.205513  0.309885  0.507339  1
  Ti  Ti2  1  0.196155  0.696155  0.500000  1
  Ti  Ti3  1  0.205513  0.698174  0.895628  1
  Ti  Ti4  1  0.802546  0.698174  0.492661  1
  Ti  Ti5  1  0.797186  0.297186  0.500000  1
  Ti  Ti6  1  0.376696  0.118488  0.741792  1
  Ti  Ti7  1  0.376696  0.634903  0.258208  1
  Al  Al8  1  0.158726  0.336218  0.177490  1
  Al  Al9  1  0.158726  0.981236  0.822510  1
  Al  Al10  1  0.157363  0.338886  0.818479  1
  Al  Al11  1  0.520405  0.338886  0.181521  1
  Al  Al12  1  0.841889  0.661767  0.819879  1
  Al  Al13  1  0.841889  0.022012  0.180121  1
  Al  Al14  1  0.838491  0.663145  0.175347  1
  Al  Al15  1  0.487798  0.663145  0.824653  1
  Al  Al16  1  0.381718  0.119420  0.262298  1
  Al  Al17  1  0.857124  0.119420  0.737702  1
  Al  Al18  1  0.619578  0.878625  0.259048  1
  Al  Al19  1  0.619578  0.360532  0.740952  1
  Al  Al20  1  0.617516  0.878657  0.738859  1
  Al  Al21  1  0.139796  0.878657  0.261141  1
  Os  Os22  1  0.001770  0.000665  0.501556  1
  Os  Os23  1  0.499110  0.000665  0.998895  1
  Os  Os24  1  0.498344  0.498344  0.000000  1
  Os  Os25  1  0.499110  0.500214  0.498444  1
  Os  Os26  1  0.001770  0.500214  0.001105  1
  Rh  Rh27  1  0.000506  0.000506  0.000000  1
  Rh  Rh28  1  0.498778  0.998778  0.500000  1
  S  S29  1  0.997156  0.497156  0.500000  1
