# generated using pymatgen
data_MnNb4Cr(B2Ru5)2
_symmetry_space_group_name_H-M   'P 1'
_cell_length_a   9.35214000
_cell_length_b   9.35214000
_cell_length_c   2.97113000
_cell_angle_alpha   90.00000000
_cell_angle_beta   90.00000000
_cell_angle_gamma   90.00000000
_symmetry_Int_Tables_number   1
_chemical_formula_structural   MnNb4Cr(B2Ru5)2
_chemical_formula_sum   'Mn1 Nb4 Cr1 B4 Ru10'
_cell_volume   259.86252471
_cell_formula_units_Z   1
loop_
 _symmetry_equiv_pos_site_id
 _symmetry_equiv_pos_as_xyz
  1  'x, y, z'
loop_
 _atom_site_type_symbol
 _atom_site_label
 _atom_site_symmetry_multiplicity
 _atom_site_fract_x
 _atom_site_fract_y
 _atom_site_fract_z
 _atom_site_occupancy
  Mn  Mn0  1  0.000000  0.000000  0.000000  1
  Nb  Nb1  1  0.822896  0.677437  0.000000  1
  Nb  Nb2  1  0.177104  0.322563  0.000000  1
  Nb  Nb3  1  0.322563  0.822896  0.000000  1
  Nb  Nb4  1  0.677437  0.177104  0.000000  1
  Cr  Cr5  1  0.500000  0.500000  0.000000  1
  B  B6  1  0.624332  0.876810  0.000000  1
  B  B7  1  0.375668  0.123190  0.000000  1
  B  B8  1  0.123190  0.624332  0.000000  1
  B  B9  1  0.876810  0.375668  0.000000  1
  Ru  Ru10  1  0.569908  0.714371  0.500000  1
  Ru  Ru11  1  0.430092  0.285629  0.500000  1
  Ru  Ru12  1  0.070237  0.785569  0.500000  1
  Ru  Ru13  1  0.929763  0.214431  0.500000  1
  Ru  Ru14  1  0.285629  0.569908  0.500000  1
  Ru  Ru15  1  0.714371  0.430092  0.500000  1
  Ru  Ru16  1  0.214431  0.070237  0.500000  1
  Ru  Ru17  1  0.785569  0.929763  0.500000  1
  Ru  Ru18  1  0.500000  0.000000  0.500000  1
  Ru  Ru19  1  0.000000  0.500000  0.500000  1
