# generated using pymatgen
data_Er6TiCo16P12Os
_symmetry_space_group_name_H-M   'P 1'
_cell_length_a   3.69188100
_cell_length_b   10.51691300
_cell_length_c   12.21889600
_cell_angle_alpha   90.00000000
_cell_angle_beta   90.00000000
_cell_angle_gamma   90.00000000
_symmetry_Int_Tables_number   1
_chemical_formula_structural   Er6TiCo16P12Os
_chemical_formula_sum   'Er6 Ti1 Co16 P12 Os1'
_cell_volume   474.42541226
_cell_formula_units_Z   1
loop_
 _symmetry_equiv_pos_site_id
 _symmetry_equiv_pos_as_xyz
  1  'x, y, z'
loop_
 _atom_site_type_symbol
 _atom_site_label
 _atom_site_symmetry_multiplicity
 _atom_site_fract_x
 _atom_site_fract_y
 _atom_site_fract_z
 _atom_site_occupancy
  Er  Er0  1  0.750000  0.250000  0.473642  1
  Er  Er1  1  0.250000  0.750000  0.525253  1
  Er  Er2  1  0.250000  0.931324  0.795582  1
  Er  Er3  1  0.250000  0.568676  0.795582  1
  Er  Er4  1  0.750000  0.069486  0.206674  1
  Er  Er5  1  0.750000  0.430514  0.206674  1
  Ti  Ti6  1  0.750000  0.750000  0.152883  1
  Co  Co7  1  0.250000  0.250000  0.297741  1
  Co  Co8  1  0.750000  0.750000  0.703264  1
  Co  Co9  1  0.750000  0.250000  0.012625  1
  Co  Co10  1  0.250000  0.750000  0.986605  1
  Co  Co11  1  0.250000  0.414699  0.008128  1
  Co  Co12  1  0.250000  0.085301  0.008128  1
  Co  Co13  1  0.750000  0.579842  0.991406  1
  Co  Co14  1  0.750000  0.920158  0.991406  1
  Co  Co15  1  0.250000  0.452509  0.569777  1
  Co  Co16  1  0.250000  0.047491  0.569777  1
  Co  Co17  1  0.750000  0.545750  0.433061  1
  Co  Co18  1  0.750000  0.954250  0.433061  1
  Co  Co19  1  0.250000  0.872362  0.292939  1
  Co  Co20  1  0.250000  0.627638  0.292939  1
  Co  Co21  1  0.750000  0.129203  0.707035  1
  Co  Co22  1  0.750000  0.370797  0.707035  1
  P  P23  1  0.250000  0.250000  0.119597  1
  P  P24  1  0.750000  0.750000  0.882208  1
  P  P25  1  0.250000  0.250000  0.647500  1
  P  P26  1  0.750000  0.750000  0.353671  1
  P  P27  1  0.250000  0.438377  0.384653  1
  P  P28  1  0.250000  0.061623  0.384653  1
  P  P29  1  0.750000  0.562261  0.617114  1
  P  P30  1  0.750000  0.937739  0.617114  1
  P  P31  1  0.250000  0.908298  0.105950  1
  P  P32  1  0.250000  0.591702  0.105950  1
  P  P33  1  0.750000  0.096963  0.890943  1
  P  P34  1  0.750000  0.403037  0.890943  1
  Os  Os35  1  0.250000  0.250000  0.838482  1
