# generated using pymatgen
data_Li8Ac7SmSi7Sn
_symmetry_space_group_name_H-M   'P 1'
_cell_length_a   9.31556600
_cell_length_b   9.31556617
_cell_length_c   7.98805300
_cell_angle_alpha   90.00000000
_cell_angle_beta   90.00000000
_cell_angle_gamma   119.99999941
_symmetry_Int_Tables_number   1
_chemical_formula_structural   Li8Ac7SmSi7Sn
_chemical_formula_sum   'Li8 Ac7 Sm1 Si7 Sn1'
_cell_volume   600.33003785
_cell_formula_units_Z   1
loop_
 _symmetry_equiv_pos_site_id
 _symmetry_equiv_pos_as_xyz
  1  'x, y, z'
loop_
 _atom_site_type_symbol
 _atom_site_label
 _atom_site_symmetry_multiplicity
 _atom_site_fract_x
 _atom_site_fract_y
 _atom_site_fract_z
 _atom_site_occupancy
  Li  Li0  1  0.836592  0.163408  0.723343  1
  Li  Li1  1  0.836592  0.673184  0.723343  1
  Li  Li2  1  0.326816  0.163408  0.723343  1
  Li  Li3  1  0.159370  0.840630  0.204816  1
  Li  Li4  1  0.159370  0.318739  0.204816  1
  Li  Li5  1  0.681261  0.840630  0.204816  1
  Li  Li6  1  0.666667  0.333333  0.325822  1
  Li  Li7  1  0.333333  0.666667  0.831015  1
  Ac  Ac8  1  0.490565  0.509435  0.508205  1
  Ac  Ac9  1  0.490565  0.981130  0.508205  1
  Ac  Ac10  1  0.018870  0.509435  0.508205  1
  Ac  Ac11  1  0.515422  0.484578  0.002605  1
  Ac  Ac12  1  0.515422  0.030842  0.002605  1
  Ac  Ac13  1  0.969158  0.484578  0.002605  1
  Ac  Ac14  1  0.000000  0.000000  0.492114  1
  Sm  Sm15  1  0.000000  0.000000  0.985159  1
  Si  Si16  1  0.834180  0.165820  0.271139  1
  Si  Si17  1  0.834180  0.668360  0.271139  1
  Si  Si18  1  0.331640  0.165820  0.271139  1
  Si  Si19  1  0.163073  0.836927  0.785830  1
  Si  Si20  1  0.163073  0.326148  0.785830  1
  Si  Si21  1  0.673852  0.836927  0.785830  1
  Si  Si22  1  0.666667  0.333333  0.715307  1
  Sn  Sn23  1  0.333333  0.666667  0.220786  1
