# generated using pymatgen
data_Ti10V9Si16Pd
_symmetry_space_group_name_H-M   'P 1'
_cell_length_a   6.51788392
_cell_length_b   6.51788337
_cell_length_c   12.00233134
_cell_angle_alpha   89.82540323
_cell_angle_beta   90.17459857
_cell_angle_gamma   89.86222895
_symmetry_Int_Tables_number   1
_chemical_formula_structural   Ti10V9Si16Pd
_chemical_formula_sum   'Ti10 V9 Si16 Pd1'
_cell_volume   509.88650749
_cell_formula_units_Z   1
loop_
 _symmetry_equiv_pos_site_id
 _symmetry_equiv_pos_as_xyz
  1  'x, y, z'
loop_
 _atom_site_type_symbol
 _atom_site_label
 _atom_site_symmetry_multiplicity
 _atom_site_fract_x
 _atom_site_fract_y
 _atom_site_fract_z
 _atom_site_occupancy
  Ti  Ti0  1  0.997693  0.342766  0.221784  1
  Ti  Ti1  1  0.159399  0.503561  0.469164  1
  Ti  Ti2  1  0.835724  0.499057  0.969414  1
  Ti  Ti3  1  0.503561  0.159399  0.530836  1
  Ti  Ti4  1  0.499057  0.835724  0.030586  1
  Ti  Ti5  1  0.997330  0.658642  0.719542  1
  Ti  Ti6  1  0.342766  0.997693  0.778216  1
  Ti  Ti7  1  0.658642  0.997330  0.280458  1
  Ti  Ti8  1  0.332455  0.668590  0.249991  1
  Ti  Ti9  1  0.668590  0.332455  0.750009  1
  V  V10  1  0.994544  0.154348  0.621192  1
  V  V11  1  0.347269  0.500164  0.869648  1
  V  V12  1  0.653809  0.505991  0.371657  1
  V  V13  1  0.500164  0.347269  0.130352  1
  V  V14  1  0.505991  0.653809  0.628343  1
  V  V15  1  0.004490  0.838137  0.122655  1
  V  V16  1  0.154348  0.994544  0.378808  1
  V  V17  1  0.838137  0.004490  0.877345  1
  V  V18  1  0.833935  0.833935  0.500000  1
  Si  Si19  1  0.044399  0.296300  0.814310  1
  Si  Si20  1  0.208299  0.543639  0.060737  1
  Si  Si21  1  0.798448  0.461195  0.561884  1
  Si  Si22  1  0.543639  0.208299  0.939263  1
  Si  Si23  1  0.461195  0.798448  0.438116  1
  Si  Si24  1  0.955770  0.704665  0.314854  1
  Si  Si25  1  0.296300  0.044399  0.185690  1
  Si  Si26  1  0.704665  0.955770  0.685146  1
  Si  Si27  1  0.290900  0.364617  0.673296  1
  Si  Si28  1  0.127145  0.789384  0.922408  1
  Si  Si29  1  0.865183  0.206721  0.423284  1
  Si  Si30  1  0.789384  0.127145  0.077592  1
  Si  Si31  1  0.206721  0.865183  0.576716  1
  Si  Si32  1  0.708720  0.634715  0.174079  1
  Si  Si33  1  0.364617  0.290900  0.326704  1
  Si  Si34  1  0.634715  0.708720  0.825921  1
  Pd  Pd35  1  0.171997  0.171997  0.000000  1
