# generated using pymatgen
data_Lu16ZnIn6Rh
_symmetry_space_group_name_H-M   'P 1'
_cell_length_a   10.33483300
_cell_length_b   10.33483332
_cell_length_c   6.74540400
_cell_angle_alpha   90.00000000
_cell_angle_beta   90.00000000
_cell_angle_gamma   120.00000218
_symmetry_Int_Tables_number   1
_chemical_formula_structural   Lu16ZnIn6Rh
_chemical_formula_sum   'Lu16 Zn1 In6 Rh1'
_cell_volume   623.94387800
_cell_formula_units_Z   1
loop_
 _symmetry_equiv_pos_site_id
 _symmetry_equiv_pos_as_xyz
  1  'x, y, z'
loop_
 _atom_site_type_symbol
 _atom_site_label
 _atom_site_symmetry_multiplicity
 _atom_site_fract_x
 _atom_site_fract_y
 _atom_site_fract_z
 _atom_site_occupancy
  Lu  Lu0  1  0.521850  0.043701  0.528147  1
  Lu  Lu1  1  0.956299  0.478150  0.528147  1
  Lu  Lu2  1  0.521850  0.478150  0.528147  1
  Lu  Lu3  1  0.469767  0.939534  0.024080  1
  Lu  Lu4  1  0.060466  0.530233  0.024080  1
  Lu  Lu5  1  0.469767  0.530233  0.024080  1
  Lu  Lu6  1  0.176485  0.352969  0.735610  1
  Lu  Lu7  1  0.647031  0.823515  0.735610  1
  Lu  Lu8  1  0.176485  0.823515  0.735610  1
  Lu  Lu9  1  0.826070  0.652140  0.235463  1
  Lu  Lu10  1  0.347860  0.173930  0.235463  1
  Lu  Lu11  1  0.826070  0.173930  0.235463  1
  Lu  Lu12  1  0.666667  0.333333  0.884359  1
  Lu  Lu13  1  0.333333  0.666667  0.400238  1
  Lu  Lu14  1  0.000000  0.000000  0.502994  1
  Lu  Lu15  1  0.000000  0.000000  0.009216  1
  Zn  Zn16  1  0.666667  0.333333  0.312539  1
  In  In17  1  0.835542  0.671084  0.760558  1
  In  In18  1  0.328916  0.164458  0.760558  1
  In  In19  1  0.835542  0.164458  0.760558  1
  In  In20  1  0.162123  0.324247  0.264873  1
  In  In21  1  0.675753  0.837877  0.264873  1
  In  In22  1  0.162123  0.837877  0.264873  1
  Rh  Rh23  1  0.333333  0.666667  0.800139  1
