# generated using pymatgen
data_Sc4ReMo3Os4
_symmetry_space_group_name_H-M   'P 1'
_cell_length_a   5.27067133
_cell_length_b   5.27587682
_cell_length_c   8.72741200
_cell_angle_alpha   90.00000000
_cell_angle_beta   90.00000000
_cell_angle_gamma   120.52687179
_symmetry_Int_Tables_number   1
_chemical_formula_structural   Sc4ReMo3Os4
_chemical_formula_sum   'Sc4 Re1 Mo3 Os4'
_cell_volume   209.04818717
_cell_formula_units_Z   1
loop_
 _symmetry_equiv_pos_site_id
 _symmetry_equiv_pos_as_xyz
  1  'x, y, z'
loop_
 _atom_site_type_symbol
 _atom_site_label
 _atom_site_symmetry_multiplicity
 _atom_site_fract_x
 _atom_site_fract_y
 _atom_site_fract_z
 _atom_site_occupancy
  Sc  Sc0  1  0.337205  0.667506  0.435518  1
  Sc  Sc1  1  0.666713  0.333771  0.558566  1
  Sc  Sc2  1  0.666713  0.333771  0.941434  1
  Sc  Sc3  1  0.337205  0.667506  0.064482  1
  Re  Re4  1  0.833101  0.662288  0.250000  1
  Mo  Mo5  1  0.166969  0.338159  0.750000  1
  Mo  Mo6  1  0.167704  0.827154  0.750000  1
  Mo  Mo7  1  0.343881  0.172959  0.250000  1
  Os  Os8  1  0.644460  0.822897  0.750000  1
  Os  Os9  1  0.003817  0.999164  0.999288  1
  Os  Os10  1  0.828415  0.175662  0.250000  1
  Os  Os11  1  0.003817  0.999164  0.500712  1
