# generated using pymatgen
data_HoLu5Al24NiOs7
_symmetry_space_group_name_H-M   'P 1'
_cell_length_a   8.74977552
_cell_length_b   8.74977546
_cell_length_c   9.52161404
_cell_angle_alpha   89.99130253
_cell_angle_beta   90.00869888
_cell_angle_gamma   119.96150132
_symmetry_Int_Tables_number   1
_chemical_formula_structural   HoLu5Al24NiOs7
_chemical_formula_sum   'Ho1 Lu5 Al24 Ni1 Os7'
_cell_volume   631.54364002
_cell_formula_units_Z   1
loop_
 _symmetry_equiv_pos_site_id
 _symmetry_equiv_pos_as_xyz
  1  'x, y, z'
loop_
 _atom_site_type_symbol
 _atom_site_label
 _atom_site_symmetry_multiplicity
 _atom_site_fract_x
 _atom_site_fract_y
 _atom_site_fract_z
 _atom_site_occupancy
  Ho  Ho0  1  0.806173  0.193827  0.749384  1
  Lu  Lu1  1  0.195190  0.390467  0.250698  1
  Lu  Lu2  1  0.804856  0.609671  0.749379  1
  Lu  Lu3  1  0.609533  0.804810  0.250698  1
  Lu  Lu4  1  0.390329  0.195144  0.749379  1
  Lu  Lu5  1  0.195209  0.804791  0.250768  1
  Al  Al6  1  0.333317  0.666683  0.018978  1
  Al  Al7  1  0.666543  0.333457  0.981635  1
  Al  Al8  1  0.666574  0.333426  0.518553  1
  Al  Al9  1  0.333311  0.666689  0.480878  1
  Al  Al10  1  0.162799  0.324812  0.576789  1
  Al  Al11  1  0.837858  0.675749  0.422706  1
  Al  Al12  1  0.675188  0.837201  0.576789  1
  Al  Al13  1  0.838682  0.677458  0.077732  1
  Al  Al14  1  0.324251  0.162142  0.422706  1
  Al  Al15  1  0.161984  0.323199  0.922797  1
  Al  Al16  1  0.162179  0.837821  0.577020  1
  Al  Al17  1  0.322542  0.161318  0.077732  1
  Al  Al18  1  0.837729  0.162271  0.422217  1
  Al  Al19  1  0.676801  0.838016  0.922797  1
  Al  Al20  1  0.838562  0.161438  0.078256  1
  Al  Al21  1  0.161283  0.838717  0.922577  1
  Al  Al22  1  0.561100  0.122331  0.250173  1
  Al  Al23  1  0.438002  0.877057  0.749841  1
  Al  Al24  1  0.877669  0.438900  0.250173  1
  Al  Al25  1  0.122943  0.561998  0.749841  1
  Al  Al26  1  0.561157  0.438843  0.250194  1
  Al  Al27  1  0.438920  0.561080  0.749821  1
  Al  Al28  1  0.999972  0.000028  0.243120  1
  Al  Al29  1  0.000966  0.999034  0.756712  1
  Ni  Ni30  1  0.999624  0.000376  0.999600  1
  Os  Os31  1  0.499107  0.999592  0.000540  1
  Os  Os32  1  0.000408  0.500893  0.000540  1
  Os  Os33  1  0.499188  0.999561  0.499449  1
  Os  Os34  1  0.499879  0.500121  0.000155  1
  Os  Os35  1  0.000439  0.500812  0.499449  1
  Os  Os36  1  0.499881  0.500119  0.499853  1
  Os  Os37  1  0.999852  0.000148  0.500073  1
