# generated using pymatgen
data_Nd6MgCo14(P4Rh)3
_symmetry_space_group_name_H-M   'P 1'
_cell_length_a   3.80108500
_cell_length_b   10.84569500
_cell_length_c   12.65518500
_cell_angle_alpha   90.00000000
_cell_angle_beta   90.00000000
_cell_angle_gamma   90.00000000
_symmetry_Int_Tables_number   1
_chemical_formula_structural   Nd6MgCo14(P4Rh)3
_chemical_formula_sum   'Nd6 Mg1 Co14 P12 Rh3'
_cell_volume   521.71517227
_cell_formula_units_Z   1
loop_
 _symmetry_equiv_pos_site_id
 _symmetry_equiv_pos_as_xyz
  1  'x, y, z'
loop_
 _atom_site_type_symbol
 _atom_site_label
 _atom_site_symmetry_multiplicity
 _atom_site_fract_x
 _atom_site_fract_y
 _atom_site_fract_z
 _atom_site_occupancy
  Nd  Nd0  1  0.000000  0.500000  0.520551  1
  Nd  Nd1  1  0.500000  0.000000  0.479751  1
  Nd  Nd2  1  0.500000  0.816494  0.206324  1
  Nd  Nd3  1  0.500000  0.183506  0.206324  1
  Nd  Nd4  1  0.000000  0.684838  0.795666  1
  Nd  Nd5  1  0.000000  0.315162  0.795666  1
  Mg  Mg6  1  0.500000  0.500000  0.152191  1
  Co  Co7  1  0.000000  0.500000  0.988977  1
  Co  Co8  1  0.500000  0.000000  0.009181  1
  Co  Co9  1  0.500000  0.330102  0.995676  1
  Co  Co10  1  0.500000  0.669898  0.995676  1
  Co  Co11  1  0.000000  0.165153  0.002765  1
  Co  Co12  1  0.000000  0.834847  0.002765  1
  Co  Co13  1  0.500000  0.295724  0.432798  1
  Co  Co14  1  0.500000  0.704276  0.432798  1
  Co  Co15  1  0.000000  0.201243  0.569939  1
  Co  Co16  1  0.000000  0.798757  0.569939  1
  Co  Co17  1  0.500000  0.883429  0.708797  1
  Co  Co18  1  0.500000  0.116571  0.708797  1
  Co  Co19  1  0.000000  0.619477  0.293111  1
  Co  Co20  1  0.000000  0.380523  0.293111  1
  P  P21  1  0.500000  0.500000  0.893526  1
  P  P22  1  0.000000  0.000000  0.106393  1
  P  P23  1  0.500000  0.500000  0.349084  1
  P  P24  1  0.000000  0.000000  0.655041  1
  P  P25  1  0.500000  0.298960  0.612890  1
  P  P26  1  0.500000  0.701040  0.612890  1
  P  P27  1  0.000000  0.200628  0.388874  1
  P  P28  1  0.000000  0.799372  0.388874  1
  P  P29  1  0.500000  0.846904  0.895495  1
  P  P30  1  0.500000  0.153096  0.895495  1
  P  P31  1  0.000000  0.660253  0.099770  1
  P  P32  1  0.000000  0.339747  0.099770  1
  Rh  Rh33  1  0.000000  0.000000  0.840972  1
  Rh  Rh34  1  0.500000  0.500000  0.705039  1
  Rh  Rh35  1  0.000000  0.000000  0.295084  1
