# generated using pymatgen
data_CePa(CoP)2
_symmetry_space_group_name_H-M   'P 1'
_cell_length_a   3.95401700
_cell_length_b   3.95401784
_cell_length_c   15.11925400
_cell_angle_alpha   90.00000000
_cell_angle_beta   90.00000000
_cell_angle_gamma   119.99996791
_symmetry_Int_Tables_number   1
_chemical_formula_structural   CePa(CoP)2
_chemical_formula_sum   'Ce2 Pa2 Co4 P4'
_cell_volume   204.70963855
_cell_formula_units_Z   2
loop_
 _symmetry_equiv_pos_site_id
 _symmetry_equiv_pos_as_xyz
  1  'x, y, z'
loop_
 _atom_site_type_symbol
 _atom_site_label
 _atom_site_symmetry_multiplicity
 _atom_site_fract_x
 _atom_site_fract_y
 _atom_site_fract_z
 _atom_site_occupancy
  Ce  Ce0  1  0.000000  0.000000  0.500000  1
  Ce  Ce1  1  0.000000  0.000000  0.000000  1
  Pa  Pa2  1  0.000000  0.000000  0.250000  1
  Pa  Pa3  1  0.000000  0.000000  0.750000  1
  Co  Co4  1  0.333333  0.666667  0.355910  1
  Co  Co5  1  0.666667  0.333333  0.644090  1
  Co  Co6  1  0.666667  0.333333  0.855910  1
  Co  Co7  1  0.333333  0.666667  0.144090  1
  P  P8  1  0.333333  0.666667  0.877391  1
  P  P9  1  0.666667  0.333333  0.122609  1
  P  P10  1  0.666667  0.333333  0.377391  1
  P  P11  1  0.333333  0.666667  0.622609  1
