# generated using pymatgen
data_Sm4Ga24Pd5Pt4
_symmetry_space_group_name_H-M   'P 1'
_cell_length_a   7.54221935
_cell_length_b   7.61177793
_cell_length_c   13.44059966
_cell_angle_alpha   84.76633500
_cell_angle_beta   79.55372786
_cell_angle_gamma   60.06338915
_symmetry_Int_Tables_number   1
_chemical_formula_structural   Sm4Ga24Pd5Pt4
_chemical_formula_sum   'Sm4 Ga24 Pd5 Pt4'
_cell_volume   657.58642698
_cell_formula_units_Z   1
loop_
 _symmetry_equiv_pos_site_id
 _symmetry_equiv_pos_as_xyz
  1  'x, y, z'
loop_
 _atom_site_type_symbol
 _atom_site_label
 _atom_site_symmetry_multiplicity
 _atom_site_fract_x
 _atom_site_fract_y
 _atom_site_fract_z
 _atom_site_occupancy
  Sm  Sm0  1  0.392687  0.169391  0.811289  1
  Sm  Sm1  1  0.607313  0.830609  0.188711  1
  Sm  Sm2  1  0.732387  0.497428  0.811571  1
  Sm  Sm3  1  0.267613  0.502572  0.188429  1
  Ga  Ga4  1  0.687036  0.833839  0.940358  1
  Ga  Ga5  1  0.312964  0.166161  0.059642  1
  Ga  Ga6  1  0.145991  0.832146  0.559381  1
  Ga  Ga7  1  0.854009  0.167854  0.440619  1
  Ga  Ga8  1  0.478308  0.167096  0.556691  1
  Ga  Ga9  1  0.521692  0.832904  0.443309  1
  Ga  Ga10  1  0.218838  0.166039  0.326049  1
  Ga  Ga11  1  0.781162  0.833961  0.673951  1
  Ga  Ga12  1  0.436511  0.504417  0.672456  1
  Ga  Ga13  1  0.563489  0.495583  0.327544  1
  Ga  Ga14  1  0.107254  0.163721  0.672353  1
  Ga  Ga15  1  0.892746  0.836279  0.327647  1
  Ga  Ga16  1  0.354548  0.499961  0.940814  1
  Ga  Ga17  1  0.645452  0.500039  0.059186  1
  Ga  Ga18  1  0.018640  0.167506  0.946464  1
  Ga  Ga19  1  0.981360  0.832494  0.053536  1
  Ga  Ga20  1  0.186174  0.499141  0.443107  1
  Ga  Ga21  1  0.813826  0.500859  0.556893  1
  Ga  Ga22  1  0.735706  0.163937  0.182190  1
  Ga  Ga23  1  0.264294  0.836063  0.817810  1
  Ga  Ga24  1  0.061451  0.631606  0.816672  1
  Ga  Ga25  1  0.938549  0.368394  0.183328  1
  Ga  Ga26  1  0.857875  0.038341  0.817027  1
  Ga  Ga27  1  0.142125  0.961659  0.182974  1
  Pd  Pd28  1  0.117855  0.497372  0.637980  1
  Pd  Pd29  1  0.882145  0.502628  0.362020  1
  Pd  Pd30  1  0.659956  0.169808  0.999340  1
  Pd  Pd31  1  0.340044  0.830192  0.000660  1
  Pd  Pd32  1  0.000000  0.500000  0.000000  1
  Pt  Pt33  1  0.541346  0.167018  0.361416  1
  Pt  Pt34  1  0.458654  0.832982  0.638584  1
  Pt  Pt35  1  0.780345  0.170731  0.636579  1
  Pt  Pt36  1  0.219655  0.829269  0.363421  1
