# generated using pymatgen
data_Pr2SiOsCl
_symmetry_space_group_name_H-M   'P 1'
_cell_length_a   4.23327000
_cell_length_b   4.23326832
_cell_length_c   16.44224200
_cell_angle_alpha   90.00000000
_cell_angle_beta   90.00000000
_cell_angle_gamma   119.99999749
_symmetry_Int_Tables_number   1
_chemical_formula_structural   Pr2SiOsCl
_chemical_formula_sum   'Pr4 Si2 Os2 Cl2'
_cell_volume   255.17812626
_cell_formula_units_Z   2
loop_
 _symmetry_equiv_pos_site_id
 _symmetry_equiv_pos_as_xyz
  1  'x, y, z'
loop_
 _atom_site_type_symbol
 _atom_site_label
 _atom_site_symmetry_multiplicity
 _atom_site_fract_x
 _atom_site_fract_y
 _atom_site_fract_z
 _atom_site_occupancy
  Pr  Pr0  1  0.000000  0.000000  0.615294  1
  Pr  Pr1  1  0.000000  0.000000  0.386961  1
  Pr  Pr2  1  0.000000  0.000000  0.115294  1
  Pr  Pr3  1  0.000000  0.000000  0.886961  1
  Si  Si4  1  0.666667  0.333333  0.501803  1
  Si  Si5  1  0.333333  0.666667  0.001803  1
  Os  Os6  1  0.666667  0.333333  0.998436  1
  Os  Os7  1  0.333333  0.666667  0.498436  1
  Cl  Cl8  1  0.666667  0.333333  0.247508  1
  Cl  Cl9  1  0.333333  0.666667  0.747508  1
