# generated using pymatgen
data_Dy3YEr6(CoBi2)2
_symmetry_space_group_name_H-M   'P 1'
_cell_length_a   7.94955414
_cell_length_b   8.85406300
_cell_length_c   12.37162880
_cell_angle_alpha   90.00000000
_cell_angle_beta   90.01237065
_cell_angle_gamma   90.00000000
_symmetry_Int_Tables_number   1
_chemical_formula_structural   Dy3YEr6(CoBi2)2
_chemical_formula_sum   'Dy6 Y2 Er12 Co4 Bi8'
_cell_volume   870.78762828
_cell_formula_units_Z   2
loop_
 _symmetry_equiv_pos_site_id
 _symmetry_equiv_pos_as_xyz
  1  'x, y, z'
loop_
 _atom_site_type_symbol
 _atom_site_label
 _atom_site_symmetry_multiplicity
 _atom_site_fract_x
 _atom_site_fract_y
 _atom_site_fract_z
 _atom_site_occupancy
  Dy  Dy0  1  0.154073  0.250000  0.800887  1
  Dy  Dy1  1  0.845927  0.750000  0.199113  1
  Dy  Dy2  1  0.120634  0.750000  0.813060  1
  Dy  Dy3  1  0.879366  0.250000  0.186940  1
  Dy  Dy4  1  0.620379  0.250000  0.687284  1
  Dy  Dy5  1  0.379621  0.750000  0.312716  1
  Y  Y6  1  0.654881  0.750000  0.700467  1
  Y  Y7  1  0.345119  0.250000  0.299533  1
  Er  Er8  1  0.552433  0.750000  0.997102  1
  Er  Er9  1  0.447567  0.250000  0.002898  1
  Er  Er10  1  0.052186  0.250000  0.502519  1
  Er  Er11  1  0.947814  0.750000  0.497481  1
  Er  Er12  1  0.825926  0.463439  0.936093  1
  Er  Er13  1  0.174074  0.536561  0.063907  1
  Er  Er14  1  0.325937  0.536351  0.563356  1
  Er  Er15  1  0.174074  0.963439  0.063907  1
  Er  Er16  1  0.674063  0.463649  0.436644  1
  Er  Er17  1  0.825926  0.036561  0.936093  1
  Er  Er18  1  0.674063  0.036351  0.436644  1
  Er  Er19  1  0.325937  0.963649  0.563356  1
  Co  Co20  1  0.935856  0.750000  0.992326  1
  Co  Co21  1  0.064144  0.250000  0.007674  1
  Co  Co22  1  0.436557  0.250000  0.507780  1
  Co  Co23  1  0.563443  0.750000  0.492220  1
  Bi  Bi24  1  0.932848  0.007604  0.672710  1
  Bi  Bi25  1  0.067152  0.992396  0.327290  1
  Bi  Bi26  1  0.432378  0.992315  0.827364  1
  Bi  Bi27  1  0.067152  0.507604  0.327290  1
  Bi  Bi28  1  0.567622  0.007685  0.172636  1
  Bi  Bi29  1  0.932848  0.492396  0.672710  1
  Bi  Bi30  1  0.567622  0.492315  0.172636  1
  Bi  Bi31  1  0.432378  0.507685  0.827364  1
