# generated using pymatgen
data_Cs12CaHoSe8
_symmetry_space_group_name_H-M   'P 1'
_cell_length_a   11.60013000
_cell_length_b   11.60012977
_cell_length_c   8.78030100
_cell_angle_alpha   90.00000000
_cell_angle_beta   90.00000000
_cell_angle_gamma   120.00000066
_symmetry_Int_Tables_number   1
_chemical_formula_structural   Cs12CaHoSe8
_chemical_formula_sum   'Cs12 Ca1 Ho1 Se8'
_cell_volume   1023.21226448
_cell_formula_units_Z   1
loop_
 _symmetry_equiv_pos_site_id
 _symmetry_equiv_pos_as_xyz
  1  'x, y, z'
loop_
 _atom_site_type_symbol
 _atom_site_label
 _atom_site_symmetry_multiplicity
 _atom_site_fract_x
 _atom_site_fract_y
 _atom_site_fract_z
 _atom_site_occupancy
  Cs  Cs0  1  0.136805  0.863195  0.540270  1
  Cs  Cs1  1  0.282323  0.141162  0.050055  1
  Cs  Cs2  1  0.858838  0.717677  0.050055  1
  Cs  Cs3  1  0.136805  0.273610  0.540270  1
  Cs  Cs4  1  0.726390  0.863195  0.540270  1
  Cs  Cs5  1  0.858838  0.141162  0.050055  1
  Cs  Cs6  1  0.534932  0.465068  0.367931  1
  Cs  Cs7  1  0.057330  0.528665  0.855500  1
  Cs  Cs8  1  0.471335  0.942670  0.855500  1
  Cs  Cs9  1  0.534932  0.069864  0.367931  1
  Cs  Cs10  1  0.930136  0.465068  0.367931  1
  Cs  Cs11  1  0.471335  0.528665  0.855500  1
  Ca  Ca12  1  0.666667  0.333333  0.758015  1
  Ho  Ho13  1  0.333333  0.666667  0.254418  1
  Se  Se14  1  0.333333  0.666667  0.566482  1
  Se  Se15  1  0.666667  0.333333  0.082710  1
  Se  Se16  1  0.205241  0.794759  0.149948  1
  Se  Se17  1  0.394415  0.197208  0.655556  1
  Se  Se18  1  0.802792  0.605585  0.655556  1
  Se  Se19  1  0.205241  0.410482  0.149948  1
  Se  Se20  1  0.589518  0.794759  0.149948  1
  Se  Se21  1  0.802792  0.197208  0.655556  1
