# generated using pymatgen
data_Eu2SnIrPt
_symmetry_space_group_name_H-M   'P 1'
_cell_length_a   5.89517871
_cell_length_b   5.89517767
_cell_length_c   8.30393506
_cell_angle_alpha   101.59685312
_cell_angle_beta   101.59684840
_cell_angle_gamma   59.72120948
_symmetry_Int_Tables_number   1
_chemical_formula_structural   Eu2SnIrPt
_chemical_formula_sum   'Eu4 Sn2 Ir2 Pt2'
_cell_volume   242.43148573
_cell_formula_units_Z   2
loop_
 _symmetry_equiv_pos_site_id
 _symmetry_equiv_pos_as_xyz
  1  'x, y, z'
loop_
 _atom_site_type_symbol
 _atom_site_label
 _atom_site_symmetry_multiplicity
 _atom_site_fract_x
 _atom_site_fract_y
 _atom_site_fract_z
 _atom_site_occupancy
  Eu  Eu0  1  0.792712  0.498212  0.148778  1
  Eu  Eu1  1  0.501787  0.207288  0.351222  1
  Eu  Eu2  1  0.501259  0.796713  0.647110  1
  Eu  Eu3  1  0.203288  0.498741  0.852890  1
  Sn  Sn4  1  0.135873  0.864126  0.250000  1
  Sn  Sn5  1  0.855311  0.144688  0.749999  1
  Ir  Ir6  1  0.729836  0.000602  0.997854  1
  Ir  Ir7  1  0.999398  0.270163  0.502146  1
  Pt  Pt8  1  0.999702  0.719168  0.501802  1
  Pt  Pt9  1  0.280831  0.000298  0.998199  1
