# generated using pymatgen
data_K2BO3
_symmetry_space_group_name_H-M   'P 1'
_cell_length_a   5.84274297
_cell_length_b   5.84276407
_cell_length_c   6.94875714
_cell_angle_alpha   98.99484245
_cell_angle_beta   98.99456504
_cell_angle_gamma   62.15900956
_symmetry_Int_Tables_number   1
_chemical_formula_structural   K2BO3
_chemical_formula_sum   'K4 B2 O6'
_cell_volume   206.23219267
_cell_formula_units_Z   2
loop_
 _symmetry_equiv_pos_site_id
 _symmetry_equiv_pos_as_xyz
  1  'x, y, z'
loop_
 _atom_site_type_symbol
 _atom_site_label
 _atom_site_symmetry_multiplicity
 _atom_site_fract_x
 _atom_site_fract_y
 _atom_site_fract_z
 _atom_site_occupancy
  K  K0  1  0.831394  0.831391  0.268387  1
  K  K1  1  0.168606  0.168609  0.731613  1
  K  K2  1  0.500000  0.500000  0.000000  1
  K  K3  1  0.499999  0.499999  0.500000  1
  B  B4  1  0.159439  0.159428  0.246533  1
  B  B5  1  0.840561  0.840572  0.753468  1
  O  O6  1  0.274717  0.274711  0.165336  1
  O  O7  1  0.905990  0.299839  0.289102  1
  O  O8  1  0.299849  0.905974  0.289105  1
  O  O9  1  0.700151  0.094026  0.710894  1
  O  O10  1  0.094010  0.700161  0.710897  1
  O  O11  1  0.725284  0.725290  0.834665  1
