# generated using pymatgen
data_Ca6Si24Os5Ru3
_symmetry_space_group_name_H-M   'P 1'
_cell_length_a   10.17447957
_cell_length_b   10.17448249
_cell_length_c   8.19710382
_cell_angle_alpha   89.97922804
_cell_angle_beta   89.97926562
_cell_angle_gamma   132.43106453
_symmetry_Int_Tables_number   1
_chemical_formula_structural   Ca6Si24Os5Ru3
_chemical_formula_sum   'Ca6 Si24 Os5 Ru3'
_cell_volume   626.31657088
_cell_formula_units_Z   1
loop_
 _symmetry_equiv_pos_site_id
 _symmetry_equiv_pos_as_xyz
  1  'x, y, z'
loop_
 _atom_site_type_symbol
 _atom_site_label
 _atom_site_symmetry_multiplicity
 _atom_site_fract_x
 _atom_site_fract_y
 _atom_site_fract_z
 _atom_site_occupancy
  Ca  Ca0  1  0.499715  0.499715  0.499892  1
  Ca  Ca1  1  0.999948  0.999948  0.999565  1
  Ca  Ca2  1  0.500933  0.000984  0.750114  1
  Ca  Ca3  1  0.998939  0.499288  0.250039  1
  Ca  Ca4  1  0.499288  0.998939  0.250039  1
  Ca  Ca5  1  0.000984  0.500932  0.750113  1
  Si  Si6  1  0.794311  0.205985  0.500146  1
  Si  Si7  1  0.294007  0.705789  0.999964  1
  Si  Si8  1  0.205985  0.794311  0.500147  1
  Si  Si9  1  0.705789  0.294007  0.999964  1
  Si  Si10  1  0.332575  0.332575  0.832526  1
  Si  Si11  1  0.667611  0.667611  0.167265  1
  Si  Si12  1  0.166980  0.166980  0.330991  1
  Si  Si13  1  0.830911  0.830911  0.666537  1
  Si  Si14  1  0.125519  0.892994  0.730848  1
  Si  Si15  1  0.106975  0.874803  0.269427  1
  Si  Si16  1  0.606779  0.374567  0.230326  1
  Si  Si17  1  0.625875  0.393407  0.769832  1
  Si  Si18  1  0.874803  0.106975  0.269427  1
  Si  Si19  1  0.892994  0.125520  0.730848  1
  Si  Si20  1  0.393407  0.625876  0.769832  1
  Si  Si21  1  0.374567  0.606779  0.230326  1
  Si  Si22  1  0.346922  0.113612  0.508316  1
  Si  Si23  1  0.886451  0.653580  0.492158  1
  Si  Si24  1  0.387181  0.153768  0.008695  1
  Si  Si25  1  0.846170  0.613175  0.991872  1
  Si  Si26  1  0.653580  0.886451  0.492158  1
  Si  Si27  1  0.113612  0.346922  0.508316  1
  Si  Si28  1  0.613175  0.846170  0.991872  1
  Si  Si29  1  0.153768  0.387181  0.008695  1
  Os  Os30  1  0.669141  0.331047  0.500114  1
  Os  Os31  1  0.169007  0.830994  0.000086  1
  Os  Os32  1  0.331047  0.669141  0.500114  1
  Os  Os33  1  0.830994  0.169008  0.000085  1
  Os  Os34  1  0.125236  0.125235  0.624466  1
  Ru  Ru35  1  0.874850  0.874850  0.375169  1
  Ru  Ru36  1  0.374889  0.374889  0.124280  1
  Ru  Ru37  1  0.625082  0.625081  0.875435  1
