# generated using pymatgen
data_Er5(Al4Ga)3
_symmetry_space_group_name_H-M   'P 1'
_cell_length_a   6.06107231
_cell_length_b   6.06107301
_cell_length_c   12.41451090
_cell_angle_alpha   104.12938713
_cell_angle_beta   75.87061013
_cell_angle_gamma   120.00000161
_symmetry_Int_Tables_number   1
_chemical_formula_structural   Er5(Al4Ga)3
_chemical_formula_sum   'Er5 Al12 Ga3'
_cell_volume   378.94994175
_cell_formula_units_Z   1
loop_
 _symmetry_equiv_pos_site_id
 _symmetry_equiv_pos_as_xyz
  1  'x, y, z'
loop_
 _atom_site_type_symbol
 _atom_site_label
 _atom_site_symmetry_multiplicity
 _atom_site_fract_x
 _atom_site_fract_y
 _atom_site_fract_z
 _atom_site_occupancy
  Er  Er0  1  0.998628  0.001372  0.004117  1
  Er  Er1  1  0.599983  0.400017  0.200053  1
  Er  Er2  1  0.870099  0.129901  0.389702  1
  Er  Er3  1  0.131272  0.868729  0.606187  1
  Er  Er4  1  0.399963  0.600036  0.800111  1
  Al  Al5  1  0.500899  0.001137  0.999339  1
  Al  Al6  1  0.998864  0.499101  0.999339  1
  Al  Al7  1  0.500898  0.499101  0.999339  1
  Al  Al8  1  0.365268  0.132459  0.401924  1
  Al  Al9  1  0.365267  0.634732  0.401924  1
  Al  Al10  1  0.867542  0.634732  0.401924  1
  Al  Al11  1  0.129881  0.364286  0.598689  1
  Al  Al12  1  0.635716  0.364286  0.598689  1
  Al  Al13  1  0.635716  0.870119  0.598689  1
  Al  Al14  1  0.431774  0.116596  0.801416  1
  Al  Al15  1  0.883405  0.116596  0.801416  1
  Al  Al16  1  0.883405  0.568226  0.801416  1
  Ga  Ga17  1  0.117905  0.434385  0.198575  1
  Ga  Ga18  1  0.117906  0.882094  0.198575  1
  Ga  Ga19  1  0.565614  0.882094  0.198575  1
