# generated using pymatgen
data_Eu3Tm(Mo2O7)2
_symmetry_space_group_name_H-M   'P 1'
_cell_length_a   7.36952760
_cell_length_b   7.49687416
_cell_length_c   7.36952700
_cell_angle_alpha   60.56033814
_cell_angle_beta   59.99999820
_cell_angle_gamma   60.56033365
_symmetry_Int_Tables_number   1
_chemical_formula_structural   Eu3Tm(Mo2O7)2
_chemical_formula_sum   'Eu3 Tm1 Mo4 O14'
_cell_volume   290.31619815
_cell_formula_units_Z   1
loop_
 _symmetry_equiv_pos_site_id
 _symmetry_equiv_pos_as_xyz
  1  'x, y, z'
loop_
 _atom_site_type_symbol
 _atom_site_label
 _atom_site_symmetry_multiplicity
 _atom_site_fract_x
 _atom_site_fract_y
 _atom_site_fract_z
 _atom_site_occupancy
  Eu  Eu0  1  0.625000  0.125000  0.125000  1
  Eu  Eu1  1  0.125000  0.125000  0.625000  1
  Eu  Eu2  1  0.125000  0.125000  0.125000  1
  Tm  Tm3  1  0.125000  0.625000  0.125000  1
  Mo  Mo4  1  0.125000  0.625000  0.625000  1
  Mo  Mo5  1  0.625000  0.125000  0.625000  1
  Mo  Mo6  1  0.625000  0.625000  0.125000  1
  Mo  Mo7  1  0.625000  0.625000  0.625000  1
  O  O8  1  0.243515  0.269454  0.243515  1
  O  O9  1  0.006485  0.980546  0.006485  1
  O  O10  1  0.709160  0.711699  0.289570  1
  O  O11  1  0.300333  0.292736  0.703465  1
  O  O12  1  0.703465  0.292736  0.703465  1
  O  O13  1  0.289570  0.711699  0.289570  1
  O  O14  1  0.289570  0.711699  0.709160  1
  O  O15  1  0.703465  0.292736  0.300333  1
  O  O16  1  0.540840  0.538301  0.960430  1
  O  O17  1  0.949667  0.957264  0.546535  1
  O  O18  1  0.546535  0.957264  0.546535  1
  O  O19  1  0.960430  0.538301  0.960430  1
  O  O20  1  0.960430  0.538301  0.540840  1
  O  O21  1  0.546535  0.957264  0.949667  1
