# generated using pymatgen
data_Nd2HoTm7(In2Pt)4
_symmetry_space_group_name_H-M   'P 1'
_cell_length_a   3.60405800
_cell_length_b   8.16256435
_cell_length_c   18.28381003
_cell_angle_alpha   89.93401914
_cell_angle_beta   90.00000000
_cell_angle_gamma   90.00000000
_symmetry_Int_Tables_number   1
_chemical_formula_structural   Nd2HoTm7(In2Pt)4
_chemical_formula_sum   'Nd2 Ho1 Tm7 In8 Pt4'
_cell_volume   537.87926412
_cell_formula_units_Z   1
loop_
 _symmetry_equiv_pos_site_id
 _symmetry_equiv_pos_as_xyz
  1  'x, y, z'
loop_
 _atom_site_type_symbol
 _atom_site_label
 _atom_site_symmetry_multiplicity
 _atom_site_fract_x
 _atom_site_fract_y
 _atom_site_fract_z
 _atom_site_occupancy
  Nd  Nd0  1  0.000000  0.999981  0.999972  1
  Nd  Nd1  1  0.000000  0.500055  0.500011  1
  Ho  Ho2  1  0.000000  0.742124  0.280113  1
  Tm  Tm3  1  0.000000  0.118727  0.413600  1
  Tm  Tm4  1  0.000000  0.881361  0.586455  1
  Tm  Tm5  1  0.000000  0.381386  0.913530  1
  Tm  Tm6  1  0.000000  0.618607  0.086372  1
  Tm  Tm7  1  0.000000  0.242353  0.220098  1
  Tm  Tm8  1  0.000000  0.757644  0.779892  1
  Tm  Tm9  1  0.000000  0.257599  0.720107  1
  In  In10  1  0.500000  0.421212  0.348364  1
  In  In11  1  0.500000  0.578470  0.651672  1
  In  In12  1  0.500000  0.078444  0.848335  1
  In  In13  1  0.500000  0.921727  0.151538  1
  In  In14  1  0.500000  0.299251  0.067706  1
  In  In15  1  0.500000  0.700682  0.932282  1
  In  In16  1  0.500000  0.200675  0.567733  1
  In  In17  1  0.500000  0.799434  0.432451  1
  Pt  Pt18  1  0.500000  0.025657  0.303695  1
  Pt  Pt19  1  0.500000  0.975410  0.696395  1
  Pt  Pt20  1  0.500000  0.475386  0.803606  1
  Pt  Pt21  1  0.500000  0.523816  0.196074  1
