# generated using pymatgen
data_YErGa2IrPd
_symmetry_space_group_name_H-M   'P 1'
_cell_length_a   4.41249000
_cell_length_b   6.84181000
_cell_length_c   7.68656100
_cell_angle_alpha   90.00000000
_cell_angle_beta   90.00000000
_cell_angle_gamma   90.00000000
_symmetry_Int_Tables_number   1
_chemical_formula_structural   YErGa2IrPd
_chemical_formula_sum   'Y2 Er2 Ga4 Ir2 Pd2'
_cell_volume   232.05280460
_cell_formula_units_Z   2
loop_
 _symmetry_equiv_pos_site_id
 _symmetry_equiv_pos_as_xyz
  1  'x, y, z'
loop_
 _atom_site_type_symbol
 _atom_site_label
 _atom_site_symmetry_multiplicity
 _atom_site_fract_x
 _atom_site_fract_y
 _atom_site_fract_z
 _atom_site_occupancy
  Y  Y0  1  0.750000  0.023169  0.688521  1
  Y  Y1  1  0.750000  0.523169  0.811479  1
  Er  Er2  1  0.250000  0.985596  0.303937  1
  Er  Er3  1  0.250000  0.485596  0.196063  1
  Ga  Ga4  1  0.250000  0.332840  0.568939  1
  Ga  Ga5  1  0.250000  0.832840  0.931061  1
  Ga  Ga6  1  0.750000  0.661966  0.425665  1
  Ga  Ga7  1  0.750000  0.161966  0.074335  1
  Ir  Ir8  1  0.750000  0.772457  0.106063  1
  Ir  Ir9  1  0.750000  0.272457  0.393937  1
  Pd  Pd10  1  0.250000  0.223972  0.897180  1
  Pd  Pd11  1  0.250000  0.723972  0.602820  1
