# generated using pymatgen
data_Sc6Co4Sn6IrPt
_symmetry_space_group_name_H-M   'P 1'
_cell_length_a   7.41412200
_cell_length_b   7.41412237
_cell_length_c   6.89317200
_cell_angle_alpha   90.00000000
_cell_angle_beta   90.00000000
_cell_angle_gamma   119.99998944
_symmetry_Int_Tables_number   1
_chemical_formula_structural   Sc6Co4Sn6IrPt
_chemical_formula_sum   'Sc6 Co4 Sn6 Ir1 Pt1'
_cell_volume   328.14762917
_cell_formula_units_Z   1
loop_
 _symmetry_equiv_pos_site_id
 _symmetry_equiv_pos_as_xyz
  1  'x, y, z'
loop_
 _atom_site_type_symbol
 _atom_site_label
 _atom_site_symmetry_multiplicity
 _atom_site_fract_x
 _atom_site_fract_y
 _atom_site_fract_z
 _atom_site_occupancy
  Sc  Sc0  1  0.395632  0.997717  0.248346  1
  Sc  Sc1  1  0.602085  0.604368  0.248346  1
  Sc  Sc2  1  0.002283  0.397915  0.248346  1
  Sc  Sc3  1  0.394432  0.995801  0.752012  1
  Sc  Sc4  1  0.601369  0.605568  0.752012  1
  Sc  Sc5  1  0.004199  0.398631  0.752012  1
  Co  Co6  1  0.000000  0.000000  0.766662  1
  Co  Co7  1  0.000000  0.000000  0.233340  1
  Co  Co8  1  0.666667  0.333333  0.996968  1
  Co  Co9  1  0.333333  0.666667  0.497982  1
  Sn  Sn10  1  0.279208  0.267699  0.999990  1
  Sn  Sn11  1  0.988490  0.720792  0.999990  1
  Sn  Sn12  1  0.009244  0.743414  0.499882  1
  Sn  Sn13  1  0.734170  0.990756  0.499882  1
  Sn  Sn14  1  0.256586  0.265830  0.499882  1
  Sn  Sn15  1  0.732301  0.011510  0.999990  1
  Ir  Ir16  1  0.333333  0.666667  0.001591  1
  Pt  Pt17  1  0.666667  0.333333  0.502768  1
