# generated using pymatgen
data_K2Rb6Zr6BI20
_symmetry_space_group_name_H-M   'P 1'
_cell_length_a   12.79760708
_cell_length_b   12.79760674
_cell_length_c   12.79760570
_cell_angle_alpha   60.06080794
_cell_angle_beta   60.06080743
_cell_angle_gamma   60.06080942
_symmetry_Int_Tables_number   1
_chemical_formula_structural   K2Rb6Zr6BI20
_chemical_formula_sum   'K2 Rb6 Zr6 B1 I20'
_cell_volume   1484.12120030
_cell_formula_units_Z   1
loop_
 _symmetry_equiv_pos_site_id
 _symmetry_equiv_pos_as_xyz
  1  'x, y, z'
loop_
 _atom_site_type_symbol
 _atom_site_label
 _atom_site_symmetry_multiplicity
 _atom_site_fract_x
 _atom_site_fract_y
 _atom_site_fract_z
 _atom_site_occupancy
  K  K0  1  0.362172  0.362172  0.362172  1
  K  K1  1  0.637828  0.637828  0.637828  1
  Rb  Rb2  1  0.361402  0.361402  0.916414  1
  Rb  Rb3  1  0.361402  0.916414  0.361402  1
  Rb  Rb4  1  0.638598  0.638598  0.083586  1
  Rb  Rb5  1  0.638598  0.083586  0.638598  1
  Rb  Rb6  1  0.916414  0.361402  0.361402  1
  Rb  Rb7  1  0.083586  0.638598  0.638598  1
  Zr  Zr8  1  0.869435  0.130896  0.130896  1
  Zr  Zr9  1  0.130565  0.869104  0.869104  1
  Zr  Zr10  1  0.130896  0.869435  0.130896  1
  Zr  Zr11  1  0.869104  0.130565  0.869104  1
  Zr  Zr12  1  0.130896  0.130896  0.869435  1
  Zr  Zr13  1  0.869104  0.869104  0.130565  1
  B  B14  1  0.000000  0.000000  0.000000  1
  I  I15  1  0.319925  0.000800  0.000800  1
  I  I16  1  0.680075  0.999200  0.999200  1
  I  I17  1  0.000000  0.318416  0.681584  1
  I  I18  1  0.000000  0.681584  0.318416  1
  I  I19  1  0.000800  0.319925  0.000800  1
  I  I20  1  0.681584  0.000000  0.318416  1
  I  I21  1  0.999200  0.680075  0.999200  1
  I  I22  1  0.318416  0.000000  0.681584  1
  I  I23  1  0.000800  0.000800  0.319925  1
  I  I24  1  0.999200  0.999200  0.680075  1
  I  I25  1  0.681584  0.318416  0.000000  1
  I  I26  1  0.318416  0.681584  0.000000  1
  I  I27  1  0.685239  0.310226  0.310226  1
  I  I28  1  0.314761  0.689774  0.689774  1
  I  I29  1  0.310226  0.685239  0.310226  1
  I  I30  1  0.689774  0.314761  0.689774  1
  I  I31  1  0.310226  0.310226  0.685239  1
  I  I32  1  0.689774  0.689774  0.314761  1
  I  I33  1  0.254127  0.254127  0.254127  1
  I  I34  1  0.745873  0.745873  0.745873  1
