# generated using pymatgen
data_Ti7NbAs6
_symmetry_space_group_name_H-M   'P 1'
_cell_length_a   7.36553381
_cell_length_b   7.36553312
_cell_length_c   18.99807000
_cell_angle_alpha   90.00000000
_cell_angle_beta   90.00000000
_cell_angle_gamma   152.34129083
_symmetry_Int_Tables_number   1
_chemical_formula_structural   Ti7NbAs6
_chemical_formula_sum   'Ti14 Nb2 As12'
_cell_volume   478.43907446
_cell_formula_units_Z   2
loop_
 _symmetry_equiv_pos_site_id
 _symmetry_equiv_pos_as_xyz
  1  'x, y, z'
loop_
 _atom_site_type_symbol
 _atom_site_label
 _atom_site_symmetry_multiplicity
 _atom_site_fract_x
 _atom_site_fract_y
 _atom_site_fract_z
 _atom_site_occupancy
  Ti  Ti0  1  0.732962  0.267038  0.162756  1
  Ti  Ti1  1  0.267038  0.732962  0.837244  1
  Ti  Ti2  1  0.267038  0.732962  0.662756  1
  Ti  Ti3  1  0.732962  0.267038  0.337244  1
  Ti  Ti4  1  0.535768  0.464232  0.118768  1
  Ti  Ti5  1  0.464232  0.535768  0.881232  1
  Ti  Ti6  1  0.464232  0.535768  0.618768  1
  Ti  Ti7  1  0.535768  0.464232  0.381232  1
  Ti  Ti8  1  0.662842  0.337158  0.972815  1
  Ti  Ti9  1  0.337158  0.662842  0.027185  1
  Ti  Ti10  1  0.337158  0.662842  0.472815  1
  Ti  Ti11  1  0.662842  0.337158  0.527185  1
  Ti  Ti12  1  0.059966  0.940034  0.750000  1
  Ti  Ti13  1  0.940034  0.059966  0.250000  1
  Nb  Nb14  1  0.000000  0.000000  0.000000  1
  Nb  Nb15  1  0.000000  0.000000  0.500000  1
  As  As16  1  0.901425  0.098575  0.118900  1
  As  As17  1  0.098575  0.901425  0.881100  1
  As  As18  1  0.098575  0.901425  0.618900  1
  As  As19  1  0.901425  0.098575  0.381100  1
  As  As20  1  0.837567  0.162433  0.924079  1
  As  As21  1  0.162433  0.837567  0.075921  1
  As  As22  1  0.162433  0.837567  0.424079  1
  As  As23  1  0.837567  0.162433  0.575921  1
  As  As24  1  0.698909  0.301091  0.750000  1
  As  As25  1  0.301091  0.698909  0.250000  1
  As  As26  1  0.418477  0.581523  0.750000  1
  As  As27  1  0.581523  0.418477  0.250000  1
