# generated using pymatgen
data_Ta3Mn3NbNiP4
_symmetry_space_group_name_H-M   'P 1'
_cell_length_a   3.62284400
_cell_length_b   6.16580516
_cell_length_c   7.01506641
_cell_angle_alpha   90.47779517
_cell_angle_beta   90.00000000
_cell_angle_gamma   90.00000000
_symmetry_Int_Tables_number   1
_chemical_formula_structural   Ta3Mn3NbNiP4
_chemical_formula_sum   'Ta3 Mn3 Nb1 Ni1 P4'
_cell_volume   156.69535278
_cell_formula_units_Z   1
loop_
 _symmetry_equiv_pos_site_id
 _symmetry_equiv_pos_as_xyz
  1  'x, y, z'
loop_
 _atom_site_type_symbol
 _atom_site_label
 _atom_site_symmetry_multiplicity
 _atom_site_fract_x
 _atom_site_fract_y
 _atom_site_fract_z
 _atom_site_occupancy
  Ta  Ta0  1  0.250000  0.529331  0.673614  1
  Ta  Ta1  1  0.750000  0.975353  0.178760  1
  Ta  Ta2  1  0.750000  0.481189  0.327325  1
  Mn  Mn3  1  0.250000  0.144635  0.440420  1
  Mn  Mn4  1  0.250000  0.636838  0.059508  1
  Mn  Mn5  1  0.750000  0.850789  0.561129  1
  Nb  Nb6  1  0.250000  0.022716  0.822383  1
  Ni  Ni7  1  0.750000  0.352727  0.934383  1
  P  P8  1  0.250000  0.275034  0.129992  1
  P  P9  1  0.250000  0.780454  0.376905  1
  P  P10  1  0.750000  0.728031  0.880520  1
  P  P11  1  0.750000  0.222904  0.615059  1
