# generated using pymatgen
data_Er5ZrTi16Ir7
_symmetry_space_group_name_H-M   'P 1'
_cell_length_a   9.09301699
_cell_length_b   9.11575605
_cell_length_c   9.11575529
_cell_angle_alpha   59.83503250
_cell_angle_beta   60.08248564
_cell_angle_gamma   60.08248985
_symmetry_Int_Tables_number   1
_chemical_formula_structural   Er5ZrTi16Ir7
_chemical_formula_sum   'Er5 Zr1 Ti16 Ir7'
_cell_volume   534.28501269
_cell_formula_units_Z   1
loop_
 _symmetry_equiv_pos_site_id
 _symmetry_equiv_pos_as_xyz
  1  'x, y, z'
loop_
 _atom_site_type_symbol
 _atom_site_label
 _atom_site_symmetry_multiplicity
 _atom_site_fract_x
 _atom_site_fract_y
 _atom_site_fract_z
 _atom_site_occupancy
  Er  Er0  1  0.693586  0.698183  0.306414  1
  Er  Er1  1  0.301817  0.698183  0.306414  1
  Er  Er2  1  0.699038  0.300962  0.300962  1
  Er  Er3  1  0.301817  0.306414  0.698183  1
  Er  Er4  1  0.693586  0.306414  0.698183  1
  Zr  Zr5  1  0.301204  0.698796  0.698796  1
  Ti  Ti6  1  0.881830  0.881990  0.354351  1
  Ti  Ti7  1  0.881830  0.354351  0.881990  1
  Ti  Ti8  1  0.353877  0.879994  0.879994  1
  Ti  Ti9  1  0.886136  0.879994  0.879994  1
  Ti  Ti10  1  0.120006  0.113864  0.646123  1
  Ti  Ti11  1  0.120006  0.646123  0.113864  1
  Ti  Ti12  1  0.645649  0.118170  0.118170  1
  Ti  Ti13  1  0.118010  0.118170  0.118170  1
  Ti  Ti14  1  0.673438  0.672778  0.980343  1
  Ti  Ti15  1  0.673438  0.980343  0.672778  1
  Ti  Ti16  1  0.983064  0.673295  0.673295  1
  Ti  Ti17  1  0.670344  0.673295  0.673295  1
  Ti  Ti18  1  0.326705  0.329656  0.016936  1
  Ti  Ti19  1  0.326705  0.016936  0.329656  1
  Ti  Ti20  1  0.019657  0.326562  0.326562  1
  Ti  Ti21  1  0.327222  0.326562  0.326562  1
  Ir  Ir22  1  0.998900  0.001100  0.001100  1
  Ir  Ir23  1  0.000300  0.999700  0.499238  1
  Ir  Ir24  1  0.500762  0.999700  0.499238  1
  Ir  Ir25  1  0.000007  0.499993  0.499993  1
  Ir  Ir26  1  0.500762  0.499238  0.999700  1
  Ir  Ir27  1  0.000300  0.499238  0.999700  1
  Ir  Ir28  1  0.500007  0.999993  0.999993  1
