# generated using pymatgen
data_Ac2Cd3Ga4Ag
_symmetry_space_group_name_H-M   'P 1'
_cell_length_a   4.61386200
_cell_length_b   4.61386200
_cell_length_c   11.14538300
_cell_angle_alpha   90.00000000
_cell_angle_beta   90.00000000
_cell_angle_gamma   90.00000000
_symmetry_Int_Tables_number   1
_chemical_formula_structural   Ac2Cd3Ga4Ag
_chemical_formula_sum   'Ac2 Cd3 Ga4 Ag1'
_cell_volume   237.25982107
_cell_formula_units_Z   1
loop_
 _symmetry_equiv_pos_site_id
 _symmetry_equiv_pos_as_xyz
  1  'x, y, z'
loop_
 _atom_site_type_symbol
 _atom_site_label
 _atom_site_symmetry_multiplicity
 _atom_site_fract_x
 _atom_site_fract_y
 _atom_site_fract_z
 _atom_site_occupancy
  Ac  Ac0  1  0.500000  0.000000  0.753931  1
  Ac  Ac1  1  0.000000  0.500000  0.246069  1
  Cd  Cd2  1  0.000000  0.000000  0.500000  1
  Cd  Cd3  1  0.000000  0.000000  0.000000  1
  Cd  Cd4  1  0.500000  0.500000  0.500000  1
  Ga  Ga5  1  0.000000  0.500000  0.868400  1
  Ga  Ga6  1  0.500000  0.000000  0.358427  1
  Ga  Ga7  1  0.500000  0.000000  0.131600  1
  Ga  Ga8  1  0.000000  0.500000  0.641573  1
  Ag  Ag9  1  0.500000  0.500000  0.000000  1
