# generated using pymatgen
data_Zr5Ti3Co16As11P
_symmetry_space_group_name_H-M   'P 1'
_cell_length_a   12.35528304
_cell_length_b   12.35528169
_cell_length_c   3.73949700
_cell_angle_alpha   90.00000000
_cell_angle_beta   90.00000000
_cell_angle_gamma   119.90954244
_symmetry_Int_Tables_number   1
_chemical_formula_structural   Zr5Ti3Co16As11P
_chemical_formula_sum   'Zr5 Ti3 Co16 As11 P1'
_cell_volume   494.81666061
_cell_formula_units_Z   1
loop_
 _symmetry_equiv_pos_site_id
 _symmetry_equiv_pos_as_xyz
  1  'x, y, z'
loop_
 _atom_site_type_symbol
 _atom_site_label
 _atom_site_symmetry_multiplicity
 _atom_site_fract_x
 _atom_site_fract_y
 _atom_site_fract_z
 _atom_site_occupancy
  Zr  Zr0  1  0.666302  0.333879  0.000000  1
  Zr  Zr1  1  0.333879  0.666302  0.000000  1
  Zr  Zr2  1  0.820780  0.820780  0.500000  1
  Zr  Zr3  1  0.178556  0.005878  0.500000  1
  Zr  Zr4  1  0.005878  0.178556  0.500000  1
  Ti  Ti5  1  0.439805  0.439805  0.000000  1
  Ti  Ti6  1  0.558973  0.000204  0.000000  1
  Ti  Ti7  1  0.000204  0.558973  0.000000  1
  Co  Co8  1  0.196059  0.367762  0.000000  1
  Co  Co9  1  0.177392  0.802569  0.000000  1
  Co  Co10  1  0.822898  0.625982  0.000000  1
  Co  Co11  1  0.802569  0.177392  0.000000  1
  Co  Co12  1  0.367762  0.196059  0.000000  1
  Co  Co13  1  0.125262  0.478395  0.500000  1
  Co  Co14  1  0.354785  0.875997  0.500000  1
  Co  Co15  1  0.520271  0.644714  0.500000  1
  Co  Co16  1  0.644714  0.520271  0.500000  1
  Co  Co17  1  0.875997  0.354785  0.500000  1
  Co  Co18  1  0.478395  0.125262  0.500000  1
  Co  Co19  1  0.008486  0.008486  0.000000  1
  Co  Co20  1  0.717270  0.999733  0.500000  1
  Co  Co21  1  0.999733  0.717270  0.500000  1
  Co  Co22  1  0.625982  0.822898  0.000000  1
  Co  Co23  1  0.276330  0.276330  0.500000  1
  As  As24  1  0.646042  0.646042  0.000000  1
  As  As25  1  0.351972  0.000181  0.000000  1
  As  As26  1  0.000181  0.351972  0.000000  1
  As  As27  1  0.483323  0.314878  0.500000  1
  As  As28  1  0.684531  0.170003  0.500000  1
  As  As29  1  0.830163  0.514808  0.500000  1
  As  As30  1  0.514808  0.830163  0.500000  1
  As  As31  1  0.170003  0.684531  0.500000  1
  As  As32  1  0.826288  0.000795  0.000000  1
  As  As33  1  0.000795  0.826288  0.000000  1
  As  As34  1  0.314878  0.483323  0.500000  1
  P  P35  1  0.178733  0.178733  0.000000  1
