# generated using pymatgen
data_Lu4Re7W
_symmetry_space_group_name_H-M   'P 1'
_cell_length_a   5.39941846
_cell_length_b   5.39948157
_cell_length_c   8.75226203
_cell_angle_alpha   90.00788833
_cell_angle_beta   90.00059884
_cell_angle_gamma   120.04497529
_symmetry_Int_Tables_number   1
_chemical_formula_structural   Lu4Re7W
_chemical_formula_sum   'Lu4 Re7 W1'
_cell_volume   220.87826706
_cell_formula_units_Z   1
loop_
 _symmetry_equiv_pos_site_id
 _symmetry_equiv_pos_as_xyz
  1  'x, y, z'
loop_
 _atom_site_type_symbol
 _atom_site_label
 _atom_site_symmetry_multiplicity
 _atom_site_fract_x
 _atom_site_fract_y
 _atom_site_fract_z
 _atom_site_occupancy
  Lu  Lu0  1  0.666661  0.333332  0.563176  1
  Lu  Lu1  1  0.333339  0.666668  0.436824  1
  Lu  Lu2  1  0.333339  0.666667  0.061305  1
  Lu  Lu3  1  0.666661  0.333333  0.938695  1
  Re  Re4  1  0.000000  0.000000  0.000000  1
  Re  Re5  1  0.171701  0.343366  0.750850  1
  Re  Re6  1  0.171738  0.828399  0.750688  1
  Re  Re7  1  0.656631  0.828194  0.750763  1
  Re  Re8  1  0.828299  0.656634  0.249150  1
  Re  Re9  1  0.828262  0.171601  0.249312  1
  Re  Re10  1  0.343369  0.171806  0.249237  1
  W  W11  1  0.000000  0.000000  0.500000  1
