# generated using pymatgen
data_HfZn8Rh9
_symmetry_space_group_name_H-M   'P 1'
_cell_length_a   7.49553701
_cell_length_b   7.49553631
_cell_length_c   5.28907402
_cell_angle_alpha   89.99561520
_cell_angle_beta   89.99562576
_cell_angle_gamma   120.00534072
_symmetry_Int_Tables_number   1
_chemical_formula_structural   HfZn8Rh9
_chemical_formula_sum   'Hf1 Zn8 Rh9'
_cell_volume   257.33115071
_cell_formula_units_Z   1
loop_
 _symmetry_equiv_pos_site_id
 _symmetry_equiv_pos_as_xyz
  1  'x, y, z'
loop_
 _atom_site_type_symbol
 _atom_site_label
 _atom_site_symmetry_multiplicity
 _atom_site_fract_x
 _atom_site_fract_y
 _atom_site_fract_z
 _atom_site_occupancy
  Hf  Hf0  1  0.666347  0.666347  0.892042  1
  Zn  Zn1  1  0.667063  0.999811  0.226147  1
  Zn  Zn2  1  0.333169  0.333170  0.226200  1
  Zn  Zn3  1  0.999811  0.667063  0.226147  1
  Zn  Zn4  1  0.999712  0.999712  0.557311  1
  Zn  Zn5  1  0.666675  0.333481  0.558557  1
  Zn  Zn6  1  0.333482  0.666676  0.558557  1
  Zn  Zn7  1  0.333721  0.000006  0.891980  1
  Zn  Zn8  1  0.000006  0.333721  0.891980  1
  Rh  Rh9  1  0.004610  0.004610  0.060685  1
  Rh  Rh10  1  0.666674  0.328702  0.061916  1
  Rh  Rh11  1  0.328703  0.666675  0.061916  1
  Rh  Rh12  1  0.333639  0.000028  0.392015  1
  Rh  Rh13  1  0.000028  0.333639  0.392015  1
  Rh  Rh14  1  0.666348  0.666347  0.392067  1
  Rh  Rh15  1  0.667014  0.004631  0.722762  1
  Rh  Rh16  1  0.328369  0.328369  0.722796  1
  Rh  Rh17  1  0.004631  0.667013  0.722762  1
