# generated using pymatgen
data_Dy3Y9(CoRh)2
_symmetry_space_group_name_H-M   'P 1'
_cell_length_a   6.29401086
_cell_length_b   7.09968872
_cell_length_c   9.45724788
_cell_angle_alpha   89.93174409
_cell_angle_beta   90.05795531
_cell_angle_gamma   90.53529645
_symmetry_Int_Tables_number   1
_chemical_formula_structural   Dy3Y9(CoRh)2
_chemical_formula_sum   'Dy3 Y9 Co2 Rh2'
_cell_volume   422.58306435
_cell_formula_units_Z   1
loop_
 _symmetry_equiv_pos_site_id
 _symmetry_equiv_pos_as_xyz
  1  'x, y, z'
loop_
 _atom_site_type_symbol
 _atom_site_label
 _atom_site_symmetry_multiplicity
 _atom_site_fract_x
 _atom_site_fract_y
 _atom_site_fract_z
 _atom_site_occupancy
  Dy  Dy0  1  0.176577  0.179449  0.065435  1
  Dy  Dy1  1  0.822918  0.820621  0.934451  1
  Dy  Dy2  1  0.673608  0.330330  0.932948  1
  Y  Y3  1  0.628225  0.045413  0.249410  1
  Y  Y4  1  0.371716  0.954865  0.750343  1
  Y  Y5  1  0.142622  0.467515  0.750251  1
  Y  Y6  1  0.857380  0.532441  0.249360  1
  Y  Y7  1  0.823027  0.820069  0.564444  1
  Y  Y8  1  0.327503  0.670032  0.066005  1
  Y  Y9  1  0.176921  0.179726  0.435581  1
  Y  Y10  1  0.327008  0.669988  0.433950  1
  Y  Y11  1  0.672963  0.330051  0.566144  1
  Co  Co12  1  0.449243  0.383789  0.249144  1
  Co  Co13  1  0.551517  0.614842  0.751645  1
  Rh  Rh14  1  0.949782  0.112831  0.752186  1
  Rh  Rh15  1  0.048989  0.888036  0.248702  1
