# generated using pymatgen
data_LiLa10Nd6Cd3Ir4
_symmetry_space_group_name_H-M   'P 1'
_cell_length_a   10.08759769
_cell_length_b   10.08759810
_cell_length_c   10.08759882
_cell_angle_alpha   59.87930372
_cell_angle_beta   59.87930391
_cell_angle_gamma   59.87931279
_symmetry_Int_Tables_number   1
_chemical_formula_structural   LiLa10Nd6Cd3Ir4
_chemical_formula_sum   'Li1 La10 Nd6 Cd3 Ir4'
_cell_volume   723.86468239
_cell_formula_units_Z   1
loop_
 _symmetry_equiv_pos_site_id
 _symmetry_equiv_pos_as_xyz
  1  'x, y, z'
loop_
 _atom_site_type_symbol
 _atom_site_label
 _atom_site_symmetry_multiplicity
 _atom_site_fract_x
 _atom_site_fract_y
 _atom_site_fract_z
 _atom_site_occupancy
  Li  Li0  1  0.570779  0.570779  0.570779  1
  La  La1  1  0.347412  0.347412  0.347412  1
  La  La2  1  0.346967  0.346967  0.959554  1
  La  La3  1  0.346967  0.959554  0.346967  1
  La  La4  1  0.959554  0.346967  0.346967  1
  La  La5  1  0.809014  0.192128  0.192128  1
  La  La6  1  0.188558  0.810643  0.810643  1
  La  La7  1  0.192128  0.809014  0.192128  1
  La  La8  1  0.810643  0.188558  0.810643  1
  La  La9  1  0.192128  0.192128  0.809014  1
  La  La10  1  0.810643  0.810643  0.188558  1
  Nd  Nd11  1  0.936918  0.564044  0.564044  1
  Nd  Nd12  1  0.563903  0.935972  0.935972  1
  Nd  Nd13  1  0.564044  0.936918  0.564044  1
  Nd  Nd14  1  0.935972  0.563903  0.935972  1
  Nd  Nd15  1  0.564044  0.564044  0.936918  1
  Nd  Nd16  1  0.935972  0.935972  0.563903  1
  Cd  Cd17  1  0.581691  0.581691  0.257148  1
  Cd  Cd18  1  0.581691  0.257148  0.581691  1
  Cd  Cd19  1  0.257148  0.581691  0.581691  1
  Ir  Ir20  1  0.141711  0.141711  0.141711  1
  Ir  Ir21  1  0.141877  0.141877  0.578361  1
  Ir  Ir22  1  0.141877  0.578361  0.141877  1
  Ir  Ir23  1  0.578361  0.141877  0.141877  1
