# generated using pymatgen
data_Tl5(AgAu2)2
_symmetry_space_group_name_H-M   'P 1'
_cell_length_a   16.48715670
_cell_length_b   16.48715674
_cell_length_c   4.19203600
_cell_angle_alpha   90.00000000
_cell_angle_beta   90.00000000
_cell_angle_gamma   166.32421689
_symmetry_Int_Tables_number   1
_chemical_formula_structural   Tl5(AgAu2)2
_chemical_formula_sum   'Tl5 Ag2 Au4'
_cell_volume   269.41048858
_cell_formula_units_Z   1
loop_
 _symmetry_equiv_pos_site_id
 _symmetry_equiv_pos_as_xyz
  1  'x, y, z'
loop_
 _atom_site_type_symbol
 _atom_site_label
 _atom_site_symmetry_multiplicity
 _atom_site_fract_x
 _atom_site_fract_y
 _atom_site_fract_z
 _atom_site_occupancy
  Tl  Tl0  1  0.996064  0.003936  0.000000  1
  Tl  Tl1  1  0.619208  0.380792  0.000000  1
  Tl  Tl2  1  0.381920  0.618080  0.000000  1
  Tl  Tl3  1  0.802614  0.197385  0.500000  1
  Tl  Tl4  1  0.199203  0.800796  0.500000  1
  Ag  Ag5  1  0.897331  0.102669  0.500000  1
  Ag  Ag6  1  0.542496  0.457503  0.500000  1
  Au  Au7  1  0.715652  0.284348  0.000000  1
  Au  Au8  1  0.281989  0.718011  0.000000  1
  Au  Au9  1  0.459218  0.540781  0.500000  1
  Au  Au10  1  0.104302  0.895698  0.500000  1
