# generated using pymatgen
data_Hf18CrRe7P2
_symmetry_space_group_name_H-M   'P 1'
_cell_length_a   8.53997300
_cell_length_b   8.53997276
_cell_length_c   8.56946900
_cell_angle_alpha   90.00000000
_cell_angle_beta   90.00000000
_cell_angle_gamma   120.00000480
_symmetry_Int_Tables_number   1
_chemical_formula_structural   Hf18CrRe7P2
_chemical_formula_sum   'Hf18 Cr1 Re7 P2'
_cell_volume   541.24949704
_cell_formula_units_Z   1
loop_
 _symmetry_equiv_pos_site_id
 _symmetry_equiv_pos_as_xyz
  1  'x, y, z'
loop_
 _atom_site_type_symbol
 _atom_site_label
 _atom_site_symmetry_multiplicity
 _atom_site_fract_x
 _atom_site_fract_y
 _atom_site_fract_z
 _atom_site_occupancy
  Hf  Hf0  1  0.194814  0.805186  0.451142  1
  Hf  Hf1  1  0.194814  0.389627  0.451142  1
  Hf  Hf2  1  0.610373  0.805186  0.451142  1
  Hf  Hf3  1  0.805186  0.194814  0.548858  1
  Hf  Hf4  1  0.805186  0.610373  0.548858  1
  Hf  Hf5  1  0.389627  0.194814  0.548858  1
  Hf  Hf6  1  0.804049  0.195951  0.951817  1
  Hf  Hf7  1  0.804049  0.608100  0.951817  1
  Hf  Hf8  1  0.391900  0.195951  0.951817  1
  Hf  Hf9  1  0.195951  0.804049  0.048183  1
  Hf  Hf10  1  0.195951  0.391900  0.048183  1
  Hf  Hf11  1  0.608100  0.804049  0.048183  1
  Hf  Hf12  1  0.539716  0.460284  0.250174  1
  Hf  Hf13  1  0.539716  0.079432  0.250174  1
  Hf  Hf14  1  0.920568  0.460284  0.250174  1
  Hf  Hf15  1  0.460284  0.539716  0.749826  1
  Hf  Hf16  1  0.460284  0.920568  0.749826  1
  Hf  Hf17  1  0.079432  0.539716  0.749826  1
  Cr  Cr18  1  0.000000  0.000000  0.500000  1
  Re  Re19  1  0.891756  0.108244  0.253841  1
  Re  Re20  1  0.891756  0.783512  0.253841  1
  Re  Re21  1  0.216488  0.108244  0.253841  1
  Re  Re22  1  0.108244  0.891756  0.746159  1
  Re  Re23  1  0.108244  0.216488  0.746159  1
  Re  Re24  1  0.783512  0.891756  0.746159  1
  Re  Re25  1  0.000000  0.000000  0.000000  1
  P  P26  1  0.333333  0.666667  0.251253  1
  P  P27  1  0.666667  0.333333  0.748747  1
