# generated using pymatgen
data_Ba2Mg(SeO3)3
_symmetry_space_group_name_H-M   'P 1'
_cell_length_a   7.64903608
_cell_length_b   7.97465481
_cell_length_c   9.27092120
_cell_angle_alpha   102.75487979
_cell_angle_beta   105.26334819
_cell_angle_gamma   94.34759337
_symmetry_Int_Tables_number   1
_chemical_formula_structural   Ba2Mg(SeO3)3
_chemical_formula_sum   'Ba4 Mg2 Se6 O18'
_cell_volume   526.68332546
_cell_formula_units_Z   2
loop_
 _symmetry_equiv_pos_site_id
 _symmetry_equiv_pos_as_xyz
  1  'x, y, z'
loop_
 _atom_site_type_symbol
 _atom_site_label
 _atom_site_symmetry_multiplicity
 _atom_site_fract_x
 _atom_site_fract_y
 _atom_site_fract_z
 _atom_site_occupancy
  Ba  Ba0  1  0.627470  0.481478  0.806023  1
  Ba  Ba1  1  0.372531  0.518523  0.193977  1
  Ba  Ba2  1  0.757875  0.918870  0.614951  1
  Ba  Ba3  1  0.242124  0.081130  0.385049  1
  Mg  Mg4  1  0.091760  0.345974  0.750741  1
  Mg  Mg5  1  0.908241  0.654025  0.249259  1
  Se  Se6  1  0.230043  0.638075  0.586120  1
  Se  Se7  1  0.901014  0.217619  0.038339  1
  Se  Se8  1  0.345660  0.088239  0.792458  1
  Se  Se9  1  0.654338  0.911762  0.207541  1
  Se  Se10  1  0.098987  0.782380  0.961662  1
  Se  Se11  1  0.769958  0.361927  0.413880  1
  O  O12  1  0.166322  0.637240  0.391828  1
  O  O13  1  0.833678  0.362760  0.608172  1
  O  O14  1  0.224426  0.419866  0.591402  1
  O  O15  1  0.775573  0.580134  0.408598  1
  O  O16  1  0.462017  0.703000  0.638194  1
  O  O17  1  0.537982  0.296999  0.361805  1
  O  O18  1  0.075965  0.778243  0.141431  1
  O  O19  1  0.924035  0.221756  0.858569  1
  O  O20  1  0.166830  0.581302  0.909662  1
  O  O21  1  0.833170  0.418697  0.090339  1
  O  O22  1  0.880193  0.762353  0.844409  1
  O  O23  1  0.119808  0.237648  0.155591  1
  O  O24  1  0.506162  0.882051  0.314661  1
  O  O25  1  0.493837  0.117949  0.685338  1
  O  O26  1  0.865207  0.925054  0.342784  1
  O  O27  1  0.353868  0.299244  0.896541  1
  O  O28  1  0.646133  0.700755  0.103459  1
  O  O29  1  0.134793  0.074946  0.657218  1
