# generated using pymatgen
data_Y2Ho18TlCd2Ru2Au3
_symmetry_space_group_name_H-M   'P 1'
_cell_length_a   9.54506400
_cell_length_b   9.54506341
_cell_length_c   9.57451500
_cell_angle_alpha   90.00000000
_cell_angle_beta   90.00000000
_cell_angle_gamma   119.96412533
_symmetry_Int_Tables_number   1
_chemical_formula_structural   Y2Ho18TlCd2Ru2Au3
_chemical_formula_sum   'Y2 Ho18 Tl1 Cd2 Ru2 Au3'
_cell_volume   755.72181787
_cell_formula_units_Z   1
loop_
 _symmetry_equiv_pos_site_id
 _symmetry_equiv_pos_as_xyz
  1  'x, y, z'
loop_
 _atom_site_type_symbol
 _atom_site_label
 _atom_site_symmetry_multiplicity
 _atom_site_fract_x
 _atom_site_fract_y
 _atom_site_fract_z
 _atom_site_occupancy
  Y  Y0  1  0.462021  0.918690  0.750000  1
  Y  Y1  1  0.081310  0.537979  0.750000  1
  Ho  Ho2  1  0.999586  0.000414  0.459883  1
  Ho  Ho3  1  0.999586  0.000414  0.040117  1
  Ho  Ho4  1  0.209487  0.790513  0.439634  1
  Ho  Ho5  1  0.210093  0.419296  0.440130  1
  Ho  Ho6  1  0.580704  0.789907  0.440130  1
  Ho  Ho7  1  0.791252  0.208748  0.557992  1
  Ho  Ho8  1  0.790896  0.582783  0.558133  1
  Ho  Ho9  1  0.417217  0.209104  0.558133  1
  Ho  Ho10  1  0.791252  0.208748  0.942008  1
  Ho  Ho11  1  0.790896  0.582783  0.941867  1
  Ho  Ho12  1  0.417217  0.209104  0.941867  1
  Ho  Ho13  1  0.209487  0.790513  0.060366  1
  Ho  Ho14  1  0.210093  0.419296  0.059870  1
  Ho  Ho15  1  0.580704  0.789907  0.059870  1
  Ho  Ho16  1  0.540828  0.459172  0.250000  1
  Ho  Ho17  1  0.540261  0.080778  0.250000  1
  Ho  Ho18  1  0.919222  0.459739  0.250000  1
  Ho  Ho19  1  0.459963  0.540037  0.750000  1
  Tl  Tl20  1  0.110446  0.889554  0.750000  1
  Cd  Cd21  1  0.109703  0.221189  0.750000  1
  Cd  Cd22  1  0.778811  0.890297  0.750000  1
  Ru  Ru23  1  0.332981  0.667019  0.250000  1
  Ru  Ru24  1  0.666157  0.333843  0.750000  1
  Au  Au25  1  0.869675  0.130325  0.250000  1
  Au  Au26  1  0.869680  0.739530  0.250000  1
  Au  Au27  1  0.260470  0.130320  0.250000  1
