# generated using pymatgen
data_Dy5ErCo2(P3Rh4)4
_symmetry_space_group_name_H-M   'P 1'
_cell_length_a   3.86358200
_cell_length_b   11.13007204
_cell_length_c   12.78225605
_cell_angle_alpha   90.00992906
_cell_angle_beta   90.00000000
_cell_angle_gamma   90.00000000
_symmetry_Int_Tables_number   1
_chemical_formula_structural   Dy5ErCo2(P3Rh4)4
_chemical_formula_sum   'Dy5 Er1 Co2 P12 Rh16'
_cell_volume   549.66187607
_cell_formula_units_Z   1
loop_
 _symmetry_equiv_pos_site_id
 _symmetry_equiv_pos_as_xyz
  1  'x, y, z'
loop_
 _atom_site_type_symbol
 _atom_site_label
 _atom_site_symmetry_multiplicity
 _atom_site_fract_x
 _atom_site_fract_y
 _atom_site_fract_z
 _atom_site_occupancy
  Dy  Dy0  1  0.000000  0.500007  0.521908  1
  Dy  Dy1  1  0.500000  0.999992  0.478079  1
  Dy  Dy2  1  0.500000  0.185140  0.201834  1
  Dy  Dy3  1  0.000000  0.685191  0.798158  1
  Dy  Dy4  1  0.000000  0.314825  0.798184  1
  Er  Er5  1  0.500000  0.814774  0.201906  1
  Co  Co6  1  0.000000  0.500033  0.979271  1
  Co  Co7  1  0.500000  0.999875  0.020840  1
  P  P8  1  0.500000  0.500002  0.881427  1
  P  P9  1  0.000000  0.999829  0.118746  1
  P  P10  1  0.500000  0.499936  0.351615  1
  P  P11  1  0.000000  0.000040  0.648350  1
  P  P12  1  0.500000  0.315718  0.619468  1
  P  P13  1  0.500000  0.684302  0.619454  1
  P  P14  1  0.000000  0.184249  0.380505  1
  P  P15  1  0.000000  0.815718  0.380267  1
  P  P16  1  0.500000  0.853555  0.895984  1
  P  P17  1  0.500000  0.146464  0.896016  1
  P  P18  1  0.000000  0.646700  0.104168  1
  P  P19  1  0.000000  0.353521  0.104000  1
  Rh  Rh20  1  0.500000  0.499990  0.168419  1
  Rh  Rh21  1  0.000000  0.999979  0.831581  1
  Rh  Rh22  1  0.500000  0.500014  0.703181  1
  Rh  Rh23  1  0.000000  0.999635  0.296567  1
  Rh  Rh24  1  0.500000  0.336746  0.994063  1
  Rh  Rh25  1  0.500000  0.663364  0.994203  1
  Rh  Rh26  1  0.000000  0.163173  0.005962  1
  Rh  Rh27  1  0.000000  0.836748  0.006224  1
  Rh  Rh28  1  0.500000  0.293820  0.430226  1
  Rh  Rh29  1  0.500000  0.706298  0.430047  1
  Rh  Rh30  1  0.000000  0.206181  0.569764  1
  Rh  Rh31  1  0.000000  0.793743  0.569779  1
  Rh  Rh32  1  0.500000  0.873518  0.712286  1
  Rh  Rh33  1  0.500000  0.126532  0.712237  1
  Rh  Rh34  1  0.000000  0.626935  0.287502  1
  Rh  Rh35  1  0.000000  0.373454  0.287781  1
