# generated using pymatgen
data_Sr2LaPrIr8
_symmetry_space_group_name_H-M   'P 1'
_cell_length_a   9.46760799
_cell_length_b   9.46760768
_cell_length_c   9.46760800
_cell_angle_alpha   33.70447421
_cell_angle_beta   33.70447710
_cell_angle_gamma   33.70446959
_symmetry_Int_Tables_number   1
_chemical_formula_structural   Sr2LaPrIr8
_chemical_formula_sum   'Sr2 La1 Pr1 Ir8'
_cell_volume   232.81618740
_cell_formula_units_Z   1
loop_
 _symmetry_equiv_pos_site_id
 _symmetry_equiv_pos_as_xyz
  1  'x, y, z'
loop_
 _atom_site_type_symbol
 _atom_site_label
 _atom_site_symmetry_multiplicity
 _atom_site_fract_x
 _atom_site_fract_y
 _atom_site_fract_z
 _atom_site_occupancy
  Sr  Sr0  1  0.627619  0.627619  0.627619  1
  Sr  Sr1  1  0.997780  0.997780  0.997780  1
  La  La2  1  0.122395  0.122395  0.122395  1
  Pr  Pr3  1  0.501818  0.501818  0.501818  1
  Ir  Ir4  1  0.562646  0.562646  0.067215  1
  Ir  Ir5  1  0.062688  0.062688  0.557268  1
  Ir  Ir6  1  0.562646  0.067215  0.562646  1
  Ir  Ir7  1  0.062688  0.557268  0.062688  1
  Ir  Ir8  1  0.812644  0.812644  0.812644  1
  Ir  Ir9  1  0.312598  0.312598  0.312598  1
  Ir  Ir10  1  0.067215  0.562646  0.562646  1
  Ir  Ir11  1  0.557268  0.062688  0.062688  1
