# generated using pymatgen
data_K16HfTiAs8
_symmetry_space_group_name_H-M   'P 1'
_cell_length_a   10.97640202
_cell_length_b   10.97640215
_cell_length_c   10.97640300
_cell_angle_alpha   60.00000045
_cell_angle_beta   60.00000007
_cell_angle_gamma   60.00000216
_symmetry_Int_Tables_number   1
_chemical_formula_structural   K16HfTiAs8
_chemical_formula_sum   'K16 Hf1 Ti1 As8'
_cell_volume   935.11510028
_cell_formula_units_Z   1
loop_
 _symmetry_equiv_pos_site_id
 _symmetry_equiv_pos_as_xyz
  1  'x, y, z'
loop_
 _atom_site_type_symbol
 _atom_site_label
 _atom_site_symmetry_multiplicity
 _atom_site_fract_x
 _atom_site_fract_y
 _atom_site_fract_z
 _atom_site_occupancy
  K  K0  1  0.623895  0.623895  0.128316  1
  K  K1  1  0.623895  0.128316  0.623895  1
  K  K2  1  0.128316  0.623895  0.623895  1
  K  K3  1  0.623895  0.623895  0.623895  1
  K  K4  1  0.028987  0.471013  0.471013  1
  K  K5  1  0.778956  0.221044  0.221044  1
  K  K6  1  0.471013  0.028987  0.471013  1
  K  K7  1  0.471013  0.471013  0.028987  1
  K  K8  1  0.028987  0.028987  0.471013  1
  K  K9  1  0.028987  0.471013  0.028987  1
  K  K10  1  0.471013  0.028987  0.028987  1
  K  K11  1  0.778956  0.221044  0.778956  1
  K  K12  1  0.221044  0.778956  0.221044  1
  K  K13  1  0.221044  0.221044  0.778956  1
  K  K14  1  0.778956  0.778956  0.221044  1
  K  K15  1  0.221044  0.778956  0.778956  1
  Hf  Hf16  1  0.750000  0.750000  0.750000  1
  Ti  Ti17  1  0.500000  0.500000  0.500000  1
  As  As18  1  0.849345  0.849345  0.451964  1
  As  As19  1  0.849345  0.451964  0.849345  1
  As  As20  1  0.403709  0.403709  0.788874  1
  As  As21  1  0.403709  0.788874  0.403709  1
  As  As22  1  0.788874  0.403709  0.403709  1
  As  As23  1  0.849345  0.849345  0.849345  1
  As  As24  1  0.451964  0.849345  0.849345  1
  As  As25  1  0.403709  0.403709  0.403709  1
