# generated using pymatgen
data_KFe2(Sb6Pt)2
_symmetry_space_group_name_H-M   'P 1'
_cell_length_a   8.16159760
_cell_length_b   8.10890637
_cell_length_c   8.16014502
_cell_angle_alpha   109.41731985
_cell_angle_beta   109.84383889
_cell_angle_gamma   109.41613903
_symmetry_Int_Tables_number   1
_chemical_formula_structural   KFe2(Sb6Pt)2
_chemical_formula_sum   'K1 Fe2 Sb12 Pt2'
_cell_volume   414.36808654
_cell_formula_units_Z   1
loop_
 _symmetry_equiv_pos_site_id
 _symmetry_equiv_pos_as_xyz
  1  'x, y, z'
loop_
 _atom_site_type_symbol
 _atom_site_label
 _atom_site_symmetry_multiplicity
 _atom_site_fract_x
 _atom_site_fract_y
 _atom_site_fract_z
 _atom_site_occupancy
  K  K0  1  0.000000  0.000000  0.000000  1
  Fe  Fe1  1  0.500000  0.000000  0.000000  1
  Fe  Fe2  1  0.000000  0.000000  0.500000  1
  Sb  Sb3  1  0.852371  0.670048  0.500733  1
  Sb  Sb4  1  0.147629  0.329952  0.499267  1
  Sb  Sb5  1  0.169284  0.669949  0.817532  1
  Sb  Sb6  1  0.830716  0.330051  0.182468  1
  Sb  Sb7  1  0.650854  0.497965  0.847096  1
  Sb  Sb8  1  0.349146  0.502035  0.152904  1
  Sb  Sb9  1  0.667707  0.830528  0.162813  1
  Sb  Sb10  1  0.332293  0.169472  0.837187  1
  Sb  Sb11  1  0.501765  0.852679  0.670466  1
  Sb  Sb12  1  0.498235  0.147321  0.329534  1
  Sb  Sb13  1  0.182327  0.852706  0.350921  1
  Sb  Sb14  1  0.817673  0.147294  0.649079  1
  Pt  Pt15  1  0.500000  0.500000  0.500000  1
  Pt  Pt16  1  0.000000  0.500000  0.000000  1
