# generated using pymatgen
data_Ho3Zr5(Ni4As3)4
_symmetry_space_group_name_H-M   'P 1'
_cell_length_a   12.77974744
_cell_length_b   12.79597972
_cell_length_c   3.89074000
_cell_angle_alpha   90.00000000
_cell_angle_beta   90.00000000
_cell_angle_gamma   120.04202226
_symmetry_Int_Tables_number   1
_chemical_formula_structural   Ho3Zr5(Ni4As3)4
_chemical_formula_sum   'Ho3 Zr5 Ni16 As12'
_cell_volume   550.77548367
_cell_formula_units_Z   1
loop_
 _symmetry_equiv_pos_site_id
 _symmetry_equiv_pos_as_xyz
  1  'x, y, z'
loop_
 _atom_site_type_symbol
 _atom_site_label
 _atom_site_symmetry_multiplicity
 _atom_site_fract_x
 _atom_site_fract_y
 _atom_site_fract_z
 _atom_site_occupancy
  Ho  Ho0  1  0.000000  0.180041  0.500000  1
  Ho  Ho1  1  0.667873  0.333278  0.000000  1
  Ho  Ho2  1  0.332127  0.665406  0.000000  1
  Zr  Zr3  1  0.819029  0.819505  0.500000  1
  Zr  Zr4  1  0.180971  0.000476  0.500000  1
  Zr  Zr5  1  0.000000  0.562012  0.000000  1
  Zr  Zr6  1  0.439595  0.439172  0.000000  1
  Zr  Zr7  1  0.560405  0.999577  0.000000  1
  Ni  Ni8  1  0.000000  0.727633  0.500000  1
  Ni  Ni9  1  0.276397  0.272322  0.500000  1
  Ni  Ni10  1  0.723603  0.995925  0.500000  1
  Ni  Ni11  1  0.808324  0.180064  0.000000  1
  Ni  Ni12  1  0.819909  0.630808  0.000000  1
  Ni  Ni13  1  0.371944  0.190208  0.000000  1
  Ni  Ni14  1  0.180091  0.810899  0.000000  1
  Ni  Ni15  1  0.628056  0.818264  0.000000  1
  Ni  Ni16  1  0.191676  0.371740  0.000000  1
  Ni  Ni17  1  0.878861  0.361957  0.500000  1
  Ni  Ni18  1  0.640519  0.520845  0.500000  1
  Ni  Ni19  1  0.481151  0.120775  0.500000  1
  Ni  Ni20  1  0.359481  0.880327  0.500000  1
  Ni  Ni21  1  0.518849  0.639625  0.500000  1
  Ni  Ni22  1  0.121139  0.483097  0.500000  1
  Ni  Ni23  1  0.000000  0.997983  0.000000  1
  As  As24  1  0.000000  0.823768  0.000000  1
  As  As25  1  0.177285  0.174511  0.000000  1
  As  As26  1  0.822715  0.997225  0.000000  1
  As  As27  1  0.693400  0.171080  0.500000  1
  As  As28  1  0.828139  0.521972  0.500000  1
  As  As29  1  0.481453  0.308382  0.500000  1
  As  As30  1  0.171861  0.693833  0.500000  1
  As  As31  1  0.518547  0.826930  0.500000  1
  As  As32  1  0.306600  0.477680  0.500000  1
  As  As33  1  0.000000  0.354254  0.000000  1
  As  As34  1  0.648412  0.648419  0.000000  1
  As  As35  1  0.351588  0.000008  0.000000  1
