# generated using pymatgen
data_TmThNi7
_symmetry_space_group_name_H-M   'P 1'
_cell_length_a   4.97618136
_cell_length_b   4.97618330
_cell_length_c   12.42214050
_cell_angle_alpha   78.44578676
_cell_angle_beta   78.44578383
_cell_angle_gamma   59.99999916
_symmetry_Int_Tables_number   1
_chemical_formula_structural   TmThNi7
_chemical_formula_sum   'Tm2 Th2 Ni14'
_cell_volume   259.16840069
_cell_formula_units_Z   2
loop_
 _symmetry_equiv_pos_site_id
 _symmetry_equiv_pos_as_xyz
  1  'x, y, z'
loop_
 _atom_site_type_symbol
 _atom_site_label
 _atom_site_symmetry_multiplicity
 _atom_site_fract_x
 _atom_site_fract_y
 _atom_site_fract_z
 _atom_site_occupancy
  Tm  Tm0  1  0.851264  0.851264  0.446208  1
  Tm  Tm1  1  0.148736  0.148736  0.553792  1
  Th  Th2  1  0.947817  0.947817  0.156546  1
  Th  Th3  1  0.052183  0.052183  0.843454  1
  Ni  Ni4  1  0.500000  0.500000  0.500000  1
  Ni  Ni5  1  0.722511  0.722511  0.832468  1
  Ni  Ni6  1  0.277489  0.277489  0.167532  1
  Ni  Ni7  1  0.610786  0.610786  0.167643  1
  Ni  Ni8  1  0.389214  0.389214  0.832357  1
  Ni  Ni9  1  0.000000  0.500000  0.000000  1
  Ni  Ni10  1  0.500000  0.000000  0.000000  1
  Ni  Ni11  1  0.500000  0.500000  0.000000  1
  Ni  Ni12  1  0.387682  0.387682  0.334076  1
  Ni  Ni13  1  0.890560  0.387682  0.334076  1
  Ni  Ni14  1  0.387682  0.890560  0.334076  1
  Ni  Ni15  1  0.612318  0.612318  0.665924  1
  Ni  Ni16  1  0.109440  0.612318  0.665924  1
  Ni  Ni17  1  0.612318  0.109440  0.665924  1
