# generated using pymatgen
data_Ce6Cu6Sn7Bi
_symmetry_space_group_name_H-M   'P 1'
_cell_length_a   8.40959894
_cell_length_b   8.40959912
_cell_length_c   8.40959952
_cell_angle_alpha   109.39529157
_cell_angle_beta   109.39529736
_cell_angle_gamma   109.39528930
_symmetry_Int_Tables_number   1
_chemical_formula_structural   Ce6Cu6Sn7Bi
_chemical_formula_sum   'Ce6 Cu6 Sn7 Bi1'
_cell_volume   459.11226245
_cell_formula_units_Z   1
loop_
 _symmetry_equiv_pos_site_id
 _symmetry_equiv_pos_as_xyz
  1  'x, y, z'
loop_
 _atom_site_type_symbol
 _atom_site_label
 _atom_site_symmetry_multiplicity
 _atom_site_fract_x
 _atom_site_fract_y
 _atom_site_fract_z
 _atom_site_occupancy
  Ce  Ce0  1  0.873588  0.248743  0.124672  1
  Ce  Ce1  1  0.627446  0.751465  0.376584  1
  Ce  Ce2  1  0.248743  0.124672  0.873588  1
  Ce  Ce3  1  0.751465  0.376584  0.627446  1
  Ce  Ce4  1  0.124672  0.873588  0.248743  1
  Ce  Ce5  1  0.376584  0.627446  0.751465  1
  Cu  Cu6  1  0.374146  0.248425  0.629321  1
  Cu  Cu7  1  0.125539  0.751031  0.875446  1
  Cu  Cu8  1  0.248425  0.629321  0.374146  1
  Cu  Cu9  1  0.751031  0.875446  0.125539  1
  Cu  Cu10  1  0.629321  0.374146  0.248425  1
  Cu  Cu11  1  0.875446  0.125539  0.751031  1
  Sn  Sn12  1  0.661282  0.500791  0.000100  1
  Sn  Sn13  1  0.500791  0.000100  0.661282  1
  Sn  Sn14  1  0.000100  0.661282  0.500791  1
  Sn  Sn15  1  0.836652  0.836652  0.836652  1
  Sn  Sn16  1  0.500475  0.998889  0.160361  1
  Sn  Sn17  1  0.160361  0.500475  0.998889  1
  Sn  Sn18  1  0.998889  0.160361  0.500475  1
  Bi  Bi19  1  0.335047  0.335047  0.335047  1
