# generated using pymatgen
data_Ho20Ir7Ru5
_symmetry_space_group_name_H-M   'P 1'
_cell_length_a   10.80265451
_cell_length_b   10.80265451
_cell_length_c   6.38757148
_cell_angle_alpha   89.96849203
_cell_angle_beta   89.96849203
_cell_angle_gamma   90.01577994
_symmetry_Int_Tables_number   1
_chemical_formula_structural   Ho20Ir7Ru5
_chemical_formula_sum   'Ho20 Ir7 Ru5'
_cell_volume   745.41237600
_cell_formula_units_Z   1
loop_
 _symmetry_equiv_pos_site_id
 _symmetry_equiv_pos_as_xyz
  1  'x, y, z'
loop_
 _atom_site_type_symbol
 _atom_site_label
 _atom_site_symmetry_multiplicity
 _atom_site_fract_x
 _atom_site_fract_y
 _atom_site_fract_z
 _atom_site_occupancy
  Ho  Ho0  1  0.293530  0.086390  0.378052  1
  Ho  Ho1  1  0.293126  0.913470  0.878049  1
  Ho  Ho2  1  0.707202  0.086692  0.878394  1
  Ho  Ho3  1  0.706845  0.913773  0.377448  1
  Ho  Ho4  1  0.586488  0.793569  0.878063  1
  Ho  Ho5  1  0.587129  0.206624  0.378152  1
  Ho  Ho6  1  0.413427  0.793517  0.378033  1
  Ho  Ho7  1  0.413317  0.206301  0.877574  1
  Ho  Ho8  1  0.206431  0.413512  0.621937  1
  Ho  Ho9  1  0.206483  0.586573  0.121967  1
  Ho  Ho10  1  0.793376  0.412871  0.121848  1
  Ho  Ho11  1  0.793699  0.586683  0.622426  1
  Ho  Ho12  1  0.913610  0.706470  0.121948  1
  Ho  Ho13  1  0.913308  0.292798  0.621606  1
  Ho  Ho14  1  0.086530  0.706874  0.621951  1
  Ho  Ho15  1  0.086227  0.293155  0.122552  1
  Ho  Ho16  1  0.999544  0.000840  0.499363  1
  Ho  Ho17  1  0.999160  0.000456  0.000637  1
  Ho  Ho18  1  0.500157  0.500062  0.000057  1
  Ho  Ho19  1  0.499938  0.499843  0.499943  1
  Ir  Ir20  1  0.846820  0.846525  0.749875  1
  Ir  Ir21  1  0.153475  0.153180  0.750125  1
  Ir  Ir22  1  0.153210  0.846790  0.250000  1
  Ir  Ir23  1  0.652302  0.347698  0.750000  1
  Ir  Ir24  1  0.653006  0.652816  0.249819  1
  Ir  Ir25  1  0.347184  0.346994  0.250181  1
  Ir  Ir26  1  0.347245  0.652755  0.750000  1
  Ru  Ru27  1  0.847429  0.152571  0.250000  1
  Ru  Ru28  1  0.500122  0.000149  0.121312  1
  Ru  Ru29  1  0.499817  0.999987  0.621364  1
  Ru  Ru30  1  0.000013  0.500183  0.878636  1
  Ru  Ru31  1  0.999851  0.499878  0.378688  1
