# generated using pymatgen
data_Li2Ta2Ni9P7Ru
_symmetry_space_group_name_H-M   'P 1'
_cell_length_a   9.19320143
_cell_length_b   9.10990928
_cell_length_c   3.62685200
_cell_angle_alpha   90.00000000
_cell_angle_beta   90.00000000
_cell_angle_gamma   119.97254452
_symmetry_Int_Tables_number   1
_chemical_formula_structural   Li2Ta2Ni9P7Ru
_chemical_formula_sum   'Li2 Ta2 Ni9 P7 Ru1'
_cell_volume   263.12455508
_cell_formula_units_Z   1
loop_
 _symmetry_equiv_pos_site_id
 _symmetry_equiv_pos_as_xyz
  1  'x, y, z'
loop_
 _atom_site_type_symbol
 _atom_site_label
 _atom_site_symmetry_multiplicity
 _atom_site_fract_x
 _atom_site_fract_y
 _atom_site_fract_z
 _atom_site_occupancy
  Li  Li0  1  0.335142  0.666974  0.000000  1
  Li  Li1  1  0.665842  0.332978  0.500000  1
  Ta  Ta2  1  0.898606  0.124667  0.500000  1
  Ta  Ta3  1  0.221946  0.096621  0.500000  1
  Ni  Ni4  1  0.712010  0.875718  0.000000  1
  Ni  Ni5  1  0.162656  0.292093  0.000000  1
  Ni  Ni6  1  0.125968  0.831372  0.000000  1
  Ni  Ni7  1  0.629835  0.565736  0.000000  1
  Ni  Ni8  1  0.934914  0.374685  0.000000  1
  Ni  Ni9  1  0.435057  0.062059  0.000000  1
  Ni  Ni10  1  0.555765  0.941358  0.500000  1
  Ni  Ni11  1  0.390488  0.447440  0.500000  1
  Ni  Ni12  1  0.050555  0.609372  0.500000  1
  P  P13  1  0.589983  0.711699  0.500000  1
  P  P14  1  0.131714  0.422836  0.500000  1
  P  P15  1  0.290609  0.866794  0.500000  1
  P  P16  1  0.997635  0.993197  0.000000  1
  P  P17  1  0.879601  0.586236  0.000000  1
  P  P18  1  0.696989  0.120486  0.000000  1
  P  P19  1  0.420668  0.301766  0.000000  1
  Ru  Ru20  1  0.874016  0.775913  0.500000  1
