# generated using pymatgen
data_Ac2YbY4Ni4Sn13
_symmetry_space_group_name_H-M   'P 1'
_cell_length_a   11.35897200
_cell_length_b   11.35897200
_cell_length_c   4.54728900
_cell_angle_alpha   90.00000000
_cell_angle_beta   90.00000000
_cell_angle_gamma   90.00000000
_symmetry_Int_Tables_number   1
_chemical_formula_structural   Ac2YbY4Ni4Sn13
_chemical_formula_sum   'Ac2 Yb1 Y4 Ni4 Sn13'
_cell_volume   586.71962413
_cell_formula_units_Z   1
loop_
 _symmetry_equiv_pos_site_id
 _symmetry_equiv_pos_as_xyz
  1  'x, y, z'
loop_
 _atom_site_type_symbol
 _atom_site_label
 _atom_site_symmetry_multiplicity
 _atom_site_fract_x
 _atom_site_fract_y
 _atom_site_fract_z
 _atom_site_occupancy
  Ac  Ac0  1  0.500000  0.000000  0.500000  1
  Ac  Ac1  1  0.000000  0.500000  0.500000  1
  Yb  Yb2  1  0.000000  0.000000  0.000000  1
  Y  Y3  1  0.334179  0.675348  0.500000  1
  Y  Y4  1  0.665821  0.324652  0.500000  1
  Y  Y5  1  0.324652  0.334179  0.500000  1
  Y  Y6  1  0.675348  0.665821  0.500000  1
  Ni  Ni7  1  0.121253  0.721534  0.000000  1
  Ni  Ni8  1  0.878747  0.278466  0.000000  1
  Ni  Ni9  1  0.278466  0.121253  0.000000  1
  Ni  Ni10  1  0.721534  0.878747  0.000000  1
  Sn  Sn11  1  0.283344  0.887930  0.000000  1
  Sn  Sn12  1  0.716656  0.112070  0.000000  1
  Sn  Sn13  1  0.112070  0.283344  0.000000  1
  Sn  Sn14  1  0.887930  0.716656  0.000000  1
  Sn  Sn15  1  0.077630  0.813988  0.500000  1
  Sn  Sn16  1  0.922370  0.186012  0.500000  1
  Sn  Sn17  1  0.186012  0.077630  0.500000  1
  Sn  Sn18  1  0.813988  0.922370  0.500000  1
  Sn  Sn19  1  0.518838  0.774034  0.000000  1
  Sn  Sn20  1  0.481162  0.225966  0.000000  1
  Sn  Sn21  1  0.225966  0.518838  0.000000  1
  Sn  Sn22  1  0.774034  0.481162  0.000000  1
  Sn  Sn23  1  0.500000  0.500000  0.000000  1
