# generated using pymatgen
data_TbTm4(CoO6)2
_symmetry_space_group_name_H-M   'P 1'
_cell_length_a   6.68482926
_cell_length_b   6.68482989
_cell_length_c   7.09225128
_cell_angle_alpha   74.59997974
_cell_angle_beta   74.59997157
_cell_angle_gamma   50.48360271
_symmetry_Int_Tables_number   1
_chemical_formula_structural   TbTm4(CoO6)2
_chemical_formula_sum   'Tb1 Tm4 Co2 O12'
_cell_volume   233.71961651
_cell_formula_units_Z   1
loop_
 _symmetry_equiv_pos_site_id
 _symmetry_equiv_pos_as_xyz
  1  'x, y, z'
loop_
 _atom_site_type_symbol
 _atom_site_label
 _atom_site_symmetry_multiplicity
 _atom_site_fract_x
 _atom_site_fract_y
 _atom_site_fract_z
 _atom_site_occupancy
  Tb  Tb0  1  0.000000  0.000000  0.000000  1
  Tm  Tm1  1  0.692664  0.692664  0.664333  1
  Tm  Tm2  1  0.694604  0.694604  0.143796  1
  Tm  Tm3  1  0.305396  0.305396  0.856204  1
  Tm  Tm4  1  0.307336  0.307336  0.335667  1
  Co  Co5  1  0.245116  0.754884  0.500000  1
  Co  Co6  1  0.754884  0.245116  0.500000  1
  O  O7  1  0.406505  0.903267  0.922170  1
  O  O8  1  0.580389  0.099051  0.578951  1
  O  O9  1  0.900949  0.419611  0.421049  1
  O  O10  1  0.096733  0.593495  0.077830  1
  O  O11  1  0.000881  0.000881  0.327749  1
  O  O12  1  0.499792  0.499792  0.679145  1
  O  O13  1  0.903267  0.406505  0.922170  1
  O  O14  1  0.099051  0.580389  0.578951  1
  O  O15  1  0.419611  0.900949  0.421049  1
  O  O16  1  0.593495  0.096733  0.077830  1
  O  O17  1  0.500208  0.500208  0.320855  1
  O  O18  1  0.999119  0.999119  0.672251  1
