# generated using pymatgen
data_Hf2Mn11FeP7
_symmetry_space_group_name_H-M   'P 1'
_cell_length_a   9.15653520
_cell_length_b   9.13544540
_cell_length_c   3.53098700
_cell_angle_alpha   90.00000000
_cell_angle_beta   90.00000000
_cell_angle_gamma   120.05272024
_symmetry_Int_Tables_number   1
_chemical_formula_structural   Hf2Mn11FeP7
_chemical_formula_sum   'Hf2 Mn11 Fe1 P7'
_cell_volume   255.65640890
_cell_formula_units_Z   1
loop_
 _symmetry_equiv_pos_site_id
 _symmetry_equiv_pos_as_xyz
  1  'x, y, z'
loop_
 _atom_site_type_symbol
 _atom_site_label
 _atom_site_symmetry_multiplicity
 _atom_site_fract_x
 _atom_site_fract_y
 _atom_site_fract_z
 _atom_site_occupancy
  Hf  Hf0  1  0.000734  0.000694  0.000000  1
  Hf  Hf1  1  0.333498  0.666691  0.500000  1
  Mn  Mn2  1  0.095522  0.383992  0.000000  1
  Mn  Mn3  1  0.289088  0.904016  0.000000  1
  Mn  Mn4  1  0.614403  0.709838  0.000000  1
  Mn  Mn5  1  0.826488  0.612843  0.000000  1
  Mn  Mn6  1  0.785856  0.172917  0.000000  1
  Mn  Mn7  1  0.059446  0.771867  0.500000  1
  Mn  Mn8  1  0.711554  0.940779  0.500000  1
  Mn  Mn9  1  0.227947  0.288821  0.500000  1
  Mn  Mn10  1  0.897785  0.436678  0.500000  1
  Mn  Mn11  1  0.537325  0.100402  0.500000  1
  Mn  Mn12  1  0.563772  0.461623  0.500000  1
  Fe  Fe13  1  0.388965  0.215386  0.000000  1
  P  P14  1  0.082218  0.622922  0.000000  1
  P  P15  1  0.540663  0.917151  0.000000  1
  P  P16  1  0.376330  0.457637  0.000000  1
  P  P17  1  0.797742  0.747606  0.500000  1
  P  P18  1  0.949345  0.201890  0.500000  1
  P  P19  1  0.255678  0.053677  0.500000  1
  P  P20  1  0.665641  0.332570  0.000000  1
