# generated using pymatgen
data_Ac3Al24RePd8
_symmetry_space_group_name_H-M   'P 1'
_cell_length_a   8.50239987
_cell_length_b   8.50279159
_cell_length_c   8.48903000
_cell_angle_alpha   89.55878104
_cell_angle_beta   89.55031003
_cell_angle_gamma   89.82642951
_symmetry_Int_Tables_number   1
_chemical_formula_structural   Ac3Al24RePd8
_chemical_formula_sum   'Ac3 Al24 Re1 Pd8'
_cell_volume   613.66727025
_cell_formula_units_Z   1
loop_
 _symmetry_equiv_pos_site_id
 _symmetry_equiv_pos_as_xyz
  1  'x, y, z'
loop_
 _atom_site_type_symbol
 _atom_site_label
 _atom_site_symmetry_multiplicity
 _atom_site_fract_x
 _atom_site_fract_y
 _atom_site_fract_z
 _atom_site_occupancy
  Ac  Ac0  1  0.000000  0.500000  0.000000  1
  Ac  Ac1  1  0.500000  0.000000  0.000000  1
  Ac  Ac2  1  0.000000  0.000000  0.500000  1
  Al  Al3  1  0.993460  0.635981  0.636144  1
  Al  Al4  1  0.636704  0.636699  0.993692  1
  Al  Al5  1  0.635963  0.993455  0.636120  1
  Al  Al6  1  0.006540  0.364019  0.363856  1
  Al  Al7  1  0.363296  0.363301  0.006308  1
  Al  Al8  1  0.364037  0.006545  0.363880  1
  Al  Al9  1  0.731080  0.499646  0.270044  1
  Al  Al10  1  0.268920  0.500354  0.729956  1
  Al  Al11  1  0.500361  0.268901  0.729951  1
  Al  Al12  1  0.499639  0.731099  0.270049  1
  Al  Al13  1  0.269172  0.730857  0.499989  1
  Al  Al14  1  0.730828  0.269143  0.500011  1
  Al  Al15  1  0.834447  0.145328  0.834373  1
  Al  Al16  1  0.145298  0.834489  0.834411  1
  Al  Al17  1  0.835885  0.835886  0.144059  1
  Al  Al18  1  0.165553  0.854672  0.165627  1
  Al  Al19  1  0.854702  0.165511  0.165589  1
  Al  Al20  1  0.164115  0.164114  0.855941  1
  Al  Al21  1  0.727207  0.492540  0.726554  1
  Al  Al22  1  0.492578  0.727218  0.726546  1
  Al  Al23  1  0.726919  0.726938  0.494012  1
  Al  Al24  1  0.272793  0.507460  0.273446  1
  Al  Al25  1  0.507422  0.272782  0.273454  1
  Al  Al26  1  0.273081  0.273062  0.505988  1
  Re  Re27  1  0.500000  0.500000  0.500000  1
  Pd  Pd28  1  0.825013  0.825046  0.823979  1
  Pd  Pd29  1  0.174987  0.174954  0.176021  1
  Pd  Pd30  1  0.662109  0.337895  0.000023  1
  Pd  Pd31  1  0.000779  0.337282  0.662809  1
  Pd  Pd32  1  0.337260  0.000760  0.662825  1
  Pd  Pd33  1  0.337891  0.662105  0.999977  1
  Pd  Pd34  1  0.999221  0.662718  0.337191  1
  Pd  Pd35  1  0.662740  0.999240  0.337175  1
