# generated using pymatgen
data_Ba6TlIn(FeO6)2
_symmetry_space_group_name_H-M   'P 1'
_cell_length_a   7.16580947
_cell_length_b   7.16580891
_cell_length_c   7.16580905
_cell_angle_alpha   93.19915392
_cell_angle_beta   93.19916080
_cell_angle_gamma   93.19915795
_symmetry_Int_Tables_number   1
_chemical_formula_structural   Ba6TlIn(FeO6)2
_chemical_formula_sum   'Ba6 Tl1 In1 Fe2 O12'
_cell_volume   366.16861265
_cell_formula_units_Z   1
loop_
 _symmetry_equiv_pos_site_id
 _symmetry_equiv_pos_as_xyz
  1  'x, y, z'
loop_
 _atom_site_type_symbol
 _atom_site_label
 _atom_site_symmetry_multiplicity
 _atom_site_fract_x
 _atom_site_fract_y
 _atom_site_fract_z
 _atom_site_occupancy
  Ba  Ba0  1  0.884766  0.250000  0.615234  1
  Ba  Ba1  1  0.250000  0.615234  0.884766  1
  Ba  Ba2  1  0.384998  0.115002  0.750000  1
  Ba  Ba3  1  0.750000  0.384998  0.115002  1
  Ba  Ba4  1  0.115002  0.750000  0.384998  1
  Ba  Ba5  1  0.615234  0.884766  0.250000  1
  Tl  Tl6  1  0.250000  0.250000  0.250000  1
  In  In7  1  0.750000  0.750000  0.750000  1
  Fe  Fe8  1  0.502331  0.502331  0.502331  1
  Fe  Fe9  1  0.997669  0.997669  0.997669  1
  O  O10  1  0.720193  0.032472  0.904370  1
  O  O11  1  0.957543  0.087847  0.275200  1
  O  O12  1  0.779807  0.595630  0.467528  1
  O  O13  1  0.595630  0.467528  0.779807  1
  O  O14  1  0.467528  0.779807  0.595630  1
  O  O15  1  0.032472  0.904370  0.720193  1
  O  O16  1  0.412153  0.542457  0.224800  1
  O  O17  1  0.275200  0.957543  0.087847  1
  O  O18  1  0.224800  0.412153  0.542457  1
  O  O19  1  0.542457  0.224800  0.412153  1
  O  O20  1  0.904370  0.720193  0.032472  1
  O  O21  1  0.087847  0.275200  0.957543  1
