# generated using pymatgen
data_NiMoPt7
_symmetry_space_group_name_H-M   'P 1'
_cell_length_a   6.23010918
_cell_length_b   6.23010936
_cell_length_c   6.27408200
_cell_angle_alpha   95.64472541
_cell_angle_beta   95.64471633
_cell_angle_gamma   143.31118936
_symmetry_Int_Tables_number   1
_chemical_formula_structural   NiMoPt7
_chemical_formula_sum   'Ni1 Mo1 Pt7'
_cell_volume   138.20990867
_cell_formula_units_Z   1
loop_
 _symmetry_equiv_pos_site_id
 _symmetry_equiv_pos_as_xyz
  1  'x, y, z'
loop_
 _atom_site_type_symbol
 _atom_site_label
 _atom_site_symmetry_multiplicity
 _atom_site_fract_x
 _atom_site_fract_y
 _atom_site_fract_z
 _atom_site_occupancy
  Ni  Ni0  1  0.660147  0.339854  0.000000  1
  Mo  Mo1  1  0.002881  0.997119  0.000000  1
  Pt  Pt2  1  0.335650  0.664351  0.000000  1
  Pt  Pt3  1  0.661558  0.655845  0.317403  1
  Pt  Pt4  1  0.323612  0.994514  0.318127  1
  Pt  Pt5  1  0.997243  0.330731  0.327974  1
  Pt  Pt6  1  0.669269  0.002757  0.672026  1
  Pt  Pt7  1  0.005486  0.676388  0.681873  1
  Pt  Pt8  1  0.344156  0.338443  0.682597  1
