# generated using pymatgen
data_DyTm3Al18CuRh5
_symmetry_space_group_name_H-M   'P 1'
_cell_length_a   7.55113874
_cell_length_b   7.54928529
_cell_length_c   9.40110111
_cell_angle_alpha   90.10079237
_cell_angle_beta   90.07648283
_cell_angle_gamma   119.59843202
_symmetry_Int_Tables_number   1
_chemical_formula_structural   DyTm3Al18CuRh5
_chemical_formula_sum   'Dy1 Tm3 Al18 Cu1 Rh5'
_cell_volume   465.98157924
_cell_formula_units_Z   1
loop_
 _symmetry_equiv_pos_site_id
 _symmetry_equiv_pos_as_xyz
  1  'x, y, z'
loop_
 _atom_site_type_symbol
 _atom_site_label
 _atom_site_symmetry_multiplicity
 _atom_site_fract_x
 _atom_site_fract_y
 _atom_site_fract_z
 _atom_site_occupancy
  Dy  Dy0  1  0.327337  0.005130  0.250373  1
  Tm  Tm1  1  0.994794  0.672653  0.749915  1
  Tm  Tm2  1  0.005027  0.327354  0.250109  1
  Tm  Tm3  1  0.672910  0.994939  0.749901  1
  Al  Al4  1  0.128533  0.128735  0.751015  1
  Al  Al5  1  0.870647  0.871098  0.248875  1
  Al  Al6  1  0.000005  0.338108  0.577856  1
  Al  Al7  1  0.999292  0.661009  0.422681  1
  Al  Al8  1  0.000222  0.664269  0.074507  1
  Al  Al9  1  0.335035  0.999116  0.924224  1
  Al  Al10  1  0.999110  0.335017  0.924866  1
  Al  Al11  1  0.665616  0.000914  0.074518  1
  Al  Al12  1  0.662565  0.999929  0.422828  1
  Al  Al13  1  0.338323  0.000031  0.578532  1
  Al  Al14  1  0.332386  0.332928  0.050730  1
  Al  Al15  1  0.667556  0.667613  0.948447  1
  Al  Al16  1  0.665144  0.665171  0.553356  1
  Al  Al17  1  0.334948  0.335558  0.447467  1
  Al  Al18  1  0.339491  0.550795  0.750456  1
  Al  Al19  1  0.661176  0.450066  0.249536  1
  Al  Al20  1  0.550847  0.339619  0.750478  1
  Al  Al21  1  0.449368  0.660004  0.249503  1
  Cu  Cu22  1  0.999674  0.999967  0.500272  1
  Rh  Rh23  1  0.672768  0.327783  0.500366  1
  Rh  Rh24  1  0.327472  0.672284  0.500324  1
  Rh  Rh25  1  0.327612  0.672296  0.999705  1
  Rh  Rh26  1  0.672600  0.327809  0.999617  1
  Rh  Rh27  1  0.999543  0.999808  0.999540  1
