# generated using pymatgen
data_Ho12GaFe2Co2Bi
_symmetry_space_group_name_H-M   'P 1'
_cell_length_a   8.32775994
_cell_length_b   8.32776018
_cell_length_c   8.32775998
_cell_angle_alpha   111.07084271
_cell_angle_beta   109.16913349
_cell_angle_gamma   108.18703669
_symmetry_Int_Tables_number   1
_chemical_formula_structural   Ho12GaFe2Co2Bi
_chemical_formula_sum   'Ho12 Ga1 Fe2 Co2 Bi1'
_cell_volume   444.30074322
_cell_formula_units_Z   1
loop_
 _symmetry_equiv_pos_site_id
 _symmetry_equiv_pos_as_xyz
  1  'x, y, z'
loop_
 _atom_site_type_symbol
 _atom_site_label
 _atom_site_symmetry_multiplicity
 _atom_site_fract_x
 _atom_site_fract_y
 _atom_site_fract_z
 _atom_site_occupancy
  Ho  Ho0  1  0.974327  0.268956  0.705370  1
  Ho  Ho1  1  0.025673  0.731044  0.294630  1
  Ho  Ho2  1  0.676701  0.862199  0.185498  1
  Ho  Ho3  1  0.323299  0.508799  0.185498  1
  Ho  Ho4  1  0.323299  0.137801  0.814502  1
  Ho  Ho5  1  0.676701  0.491201  0.814502  1
  Ho  Ho6  1  0.563587  0.268956  0.294630  1
  Ho  Ho7  1  0.436413  0.731044  0.705370  1
  Ho  Ho8  1  0.178165  0.778011  0.956176  1
  Ho  Ho9  1  0.821835  0.778011  0.599846  1
  Ho  Ho10  1  0.178165  0.221989  0.400154  1
  Ho  Ho11  1  0.821835  0.221989  0.043824  1
  Ga  Ga12  1  0.000000  0.500000  0.500000  1
  Fe  Fe13  1  0.110188  0.110188  0.000000  1
  Fe  Fe14  1  0.889812  0.889812  0.000000  1
  Co  Co15  1  0.655607  0.500000  0.155607  1
  Co  Co16  1  0.344393  0.500000  0.844393  1
  Bi  Bi17  1  0.500000  0.000000  0.500000  1
