# generated using pymatgen
data_Ho12Fe2Co2BiAu
_symmetry_space_group_name_H-M   'P 1'
_cell_length_a   8.35381385
_cell_length_b   8.35381220
_cell_length_c   8.35381281
_cell_angle_alpha   110.91967180
_cell_angle_beta   109.90319568
_cell_angle_gamma   107.60838184
_symmetry_Int_Tables_number   1
_chemical_formula_structural   Ho12Fe2Co2BiAu
_chemical_formula_sum   'Ho12 Fe2 Co2 Bi1 Au1'
_cell_volume   448.38789841
_cell_formula_units_Z   1
loop_
 _symmetry_equiv_pos_site_id
 _symmetry_equiv_pos_as_xyz
  1  'x, y, z'
loop_
 _atom_site_type_symbol
 _atom_site_label
 _atom_site_symmetry_multiplicity
 _atom_site_fract_x
 _atom_site_fract_y
 _atom_site_fract_z
 _atom_site_occupancy
  Ho  Ho0  1  0.312142  0.617593  0.305451  1
  Ho  Ho1  1  0.687858  0.382407  0.694549  1
  Ho  Ho2  1  0.312142  0.006688  0.694549  1
  Ho  Ho3  1  0.687858  0.993312  0.305451  1
  Ho  Ho4  1  0.183383  0.289928  0.473311  1
  Ho  Ho5  1  0.816617  0.710072  0.526689  1
  Ho  Ho6  1  0.183383  0.710072  0.893455  1
  Ho  Ho7  1  0.816617  0.289928  0.106545  1
  Ho  Ho8  1  0.425873  0.216046  0.209827  1
  Ho  Ho9  1  0.574127  0.783954  0.790173  1
  Ho  Ho10  1  0.006217  0.216046  0.790173  1
  Ho  Ho11  1  0.993783  0.783954  0.209827  1
  Fe  Fe12  1  0.108143  0.608143  0.500000  1
  Fe  Fe13  1  0.891857  0.391857  0.500000  1
  Co  Co14  1  0.381385  0.000000  0.381385  1
  Co  Co15  1  0.618615  0.000000  0.618615  1
  Bi  Bi16  1  0.500000  0.500000  0.000000  1
  Au  Au17  1  0.000000  0.000000  0.000000  1
