# generated using pymatgen
data_Ac8La2Tc2I15
_symmetry_space_group_name_H-M   'P 1'
_cell_length_a   10.73792444
_cell_length_b   11.48356013
_cell_length_c   12.30556650
_cell_angle_alpha   90.71924114
_cell_angle_beta   114.53931935
_cell_angle_gamma   110.67212384
_symmetry_Int_Tables_number   1
_chemical_formula_structural   Ac8La2Tc2I15
_chemical_formula_sum   'Ac8 La2 Tc2 I15'
_cell_volume   1268.68150892
_cell_formula_units_Z   1
loop_
 _symmetry_equiv_pos_site_id
 _symmetry_equiv_pos_as_xyz
  1  'x, y, z'
loop_
 _atom_site_type_symbol
 _atom_site_label
 _atom_site_symmetry_multiplicity
 _atom_site_fract_x
 _atom_site_fract_y
 _atom_site_fract_z
 _atom_site_occupancy
  Ac  Ac0  1  0.239076  0.580876  0.051374  1
  Ac  Ac1  1  0.760924  0.419124  0.948626  1
  Ac  Ac2  1  0.299369  0.908091  0.273524  1
  Ac  Ac3  1  0.700631  0.091909  0.726476  1
  Ac  Ac4  1  0.087549  0.548260  0.326029  1
  Ac  Ac5  1  0.912451  0.451740  0.673971  1
  Ac  Ac6  1  0.830112  0.756592  0.180786  1
  Ac  Ac7  1  0.169888  0.243408  0.819214  1
  La  La8  1  0.980496  0.786251  0.927886  1
  La  La9  1  0.019504  0.213749  0.072114  1
  Tc  Tc10  1  0.026813  0.682962  0.099036  1
  Tc  Tc11  1  0.973187  0.317038  0.900964  1
  I  I12  1  0.323588  0.436721  0.296357  1
  I  I13  1  0.676412  0.563279  0.703643  1
  I  I14  1  0.195766  0.734687  0.813844  1
  I  I15  1  0.804234  0.265313  0.186156  1
  I  I16  1  0.140827  0.389095  0.582324  1
  I  I17  1  0.859173  0.610905  0.417676  1
  I  I18  1  0.386709  0.798454  0.531805  1
  I  I19  1  0.613291  0.201546  0.468195  1
  I  I20  1  0.256785  0.086063  0.053380  1
  I  I21  1  0.743215  0.913937  0.946620  1
  I  I22  1  0.564525  0.846586  0.227083  1
  I  I23  1  0.435475  0.153414  0.772917  1
  I  I24  1  0.092213  0.043118  0.329613  1
  I  I25  1  0.907787  0.956882  0.670387  1
  I  I26  1  0.500000  0.500000  0.000000  1
