# generated using pymatgen
data_AcLa3Si4
_symmetry_space_group_name_H-M   'P 1'
_cell_length_a   7.25127497
_cell_length_b   7.25127562
_cell_length_c   6.65831300
_cell_angle_alpha   90.00000000
_cell_angle_beta   90.00000000
_cell_angle_gamma   142.89325484
_symmetry_Int_Tables_number   1
_chemical_formula_structural   AcLa3Si4
_chemical_formula_sum   'Ac1 La3 Si4'
_cell_volume   211.21641752
_cell_formula_units_Z   1
loop_
 _symmetry_equiv_pos_site_id
 _symmetry_equiv_pos_as_xyz
  1  'x, y, z'
loop_
 _atom_site_type_symbol
 _atom_site_label
 _atom_site_symmetry_multiplicity
 _atom_site_fract_x
 _atom_site_fract_y
 _atom_site_fract_z
 _atom_site_occupancy
  Ac  Ac0  1  0.273539  0.726461  0.250000  1
  La  La1  1  0.722617  0.277383  0.750000  1
  La  La2  1  0.549912  0.450088  0.250000  1
  La  La3  1  0.450294  0.549706  0.750000  1
  Si  Si4  1  0.088506  0.911494  0.935376  1
  Si  Si5  1  0.913313  0.086687  0.060733  1
  Si  Si6  1  0.913313  0.086687  0.439267  1
  Si  Si7  1  0.088506  0.911494  0.564624  1
