# generated using pymatgen
data_LiEu2BeB3O8
_symmetry_space_group_name_H-M   'P 1'
_cell_length_a   6.53629800
_cell_length_b   8.66722248
_cell_length_c   12.95716966
_cell_angle_alpha   73.25089410
_cell_angle_beta   90.00000000
_cell_angle_gamma   90.00000000
_symmetry_Int_Tables_number   1
_chemical_formula_structural   LiEu2BeB3O8
_chemical_formula_sum   'Li4 Eu8 Be4 B12 O32'
_cell_volume   702.90255615
_cell_formula_units_Z   4
loop_
 _symmetry_equiv_pos_site_id
 _symmetry_equiv_pos_as_xyz
  1  'x, y, z'
loop_
 _atom_site_type_symbol
 _atom_site_label
 _atom_site_symmetry_multiplicity
 _atom_site_fract_x
 _atom_site_fract_y
 _atom_site_fract_z
 _atom_site_occupancy
  Li  Li0  1  0.268149  0.627379  0.828864  1
  Li  Li1  1  0.768149  0.372621  0.671136  1
  Li  Li2  1  0.731851  0.372621  0.171136  1
  Li  Li3  1  0.231851  0.627379  0.328864  1
  Eu  Eu4  1  0.741084  0.644402  0.926585  1
  Eu  Eu5  1  0.241084  0.355598  0.573415  1
  Eu  Eu6  1  0.258916  0.355598  0.073415  1
  Eu  Eu7  1  0.758916  0.644402  0.426585  1
  Eu  Eu8  1  0.390266  0.036697  0.841374  1
  Eu  Eu9  1  0.890266  0.963303  0.658626  1
  Eu  Eu10  1  0.609734  0.963303  0.158626  1
  Eu  Eu11  1  0.109734  0.036697  0.341374  1
  Be  Be12  1  0.069107  0.323390  0.845605  1
  Be  Be13  1  0.569107  0.676610  0.654395  1
  Be  Be14  1  0.930893  0.676610  0.154395  1
  Be  Be15  1  0.430893  0.323390  0.345605  1
  B  B16  1  0.767306  0.260800  0.986608  1
  B  B17  1  0.267306  0.739200  0.513392  1
  B  B18  1  0.232694  0.739200  0.013392  1
  B  B19  1  0.732694  0.260800  0.486608  1
  B  B20  1  0.848301  0.062757  0.880512  1
  B  B21  1  0.348301  0.937243  0.619488  1
  B  B22  1  0.151699  0.937243  0.119488  1
  B  B23  1  0.651699  0.062757  0.380512  1
  B  B24  1  0.948494  0.597117  0.705869  1
  B  B25  1  0.448494  0.402883  0.794131  1
  B  B26  1  0.051506  0.402883  0.294131  1
  B  B27  1  0.551506  0.597117  0.205869  1
  O  O28  1  0.729096  0.115481  0.957381  1
  O  O29  1  0.229096  0.884519  0.542619  1
  O  O30  1  0.270904  0.884519  0.042619  1
  O  O31  1  0.770904  0.115481  0.457381  1
  O  O32  1  0.926267  0.360161  0.940328  1
  O  O33  1  0.426267  0.639839  0.559672  1
  O  O34  1  0.073733  0.639839  0.059672  1
  O  O35  1  0.573733  0.360161  0.440328  1
  O  O36  1  0.639907  0.289276  0.061683  1
  O  O37  1  0.139907  0.710724  0.438317  1
  O  O38  1  0.360093  0.710724  0.938317  1
  O  O39  1  0.860093  0.289276  0.561683  1
  O  O40  1  0.026207  0.139205  0.841446  1
  O  O41  1  0.526207  0.860795  0.658554  1
  O  O42  1  0.973793  0.860795  0.158554  1
  O  O43  1  0.473793  0.139205  0.341446  1
  O  O44  1  0.763763  0.941822  0.847119  1
  O  O45  1  0.263763  0.058178  0.652881  1
  O  O46  1  0.236237  0.058178  0.152881  1
  O  O47  1  0.736237  0.941822  0.347119  1
  O  O48  1  0.021995  0.440903  0.723866  1
  O  O49  1  0.521995  0.559097  0.776134  1
  O  O50  1  0.978005  0.559097  0.276134  1
  O  O51  1  0.478005  0.440903  0.223866  1
  O  O52  1  0.305965  0.348690  0.877966  1
  O  O53  1  0.805965  0.651310  0.622034  1
  O  O54  1  0.694035  0.651310  0.122034  1
  O  O55  1  0.194035  0.348690  0.377966  1
  O  O56  1  0.005705  0.693187  0.768506  1
  O  O57  1  0.505705  0.306813  0.731494  1
  O  O58  1  0.994295  0.306813  0.231494  1
  O  O59  1  0.494295  0.693187  0.268506  1
