# generated using pymatgen
data_LaTb4(MnB3)2
_symmetry_space_group_name_H-M   'P 1'
_cell_length_a   5.45105040
_cell_length_b   5.45105010
_cell_length_c   8.37237854
_cell_angle_alpha   71.00184173
_cell_angle_beta   71.00184611
_cell_angle_gamma   60.00002758
_symmetry_Int_Tables_number   1
_chemical_formula_structural   LaTb4(MnB3)2
_chemical_formula_sum   'La1 Tb4 Mn2 B6'
_cell_volume   199.64606976
_cell_formula_units_Z   1
loop_
 _symmetry_equiv_pos_site_id
 _symmetry_equiv_pos_as_xyz
  1  'x, y, z'
loop_
 _atom_site_type_symbol
 _atom_site_label
 _atom_site_symmetry_multiplicity
 _atom_site_fract_x
 _atom_site_fract_y
 _atom_site_fract_z
 _atom_site_occupancy
  La  La0  1  0.000000  0.000000  0.000000  1
  Tb  Tb1  1  0.250095  0.250095  0.249713  1
  Tb  Tb2  1  0.749905  0.749905  0.750287  1
  Tb  Tb3  1  0.417559  0.417559  0.747323  1
  Tb  Tb4  1  0.582441  0.582441  0.252677  1
  Mn  Mn5  1  0.115279  0.115279  0.654163  1
  Mn  Mn6  1  0.884721  0.884721  0.345837  1
  B  B7  1  0.165679  0.834321  0.500000  1
  B  B8  1  0.834321  0.500000  0.500000  1
  B  B9  1  0.500000  0.165679  0.500000  1
  B  B10  1  0.165679  0.500000  0.500000  1
  B  B11  1  0.500000  0.834321  0.500000  1
  B  B12  1  0.834321  0.165679  0.500000  1
