# generated using pymatgen
data_Tb8Ti11NbSi15P
_symmetry_space_group_name_H-M   'P 1'
_cell_length_a   7.05913274
_cell_length_b   7.06784187
_cell_length_c   12.99428700
_cell_angle_alpha   89.95101477
_cell_angle_beta   89.98440419
_cell_angle_gamma   89.97297000
_symmetry_Int_Tables_number   1
_chemical_formula_structural   Tb8Ti11NbSi15P
_chemical_formula_sum   'Tb8 Ti11 Nb1 Si15 P1'
_cell_volume   648.32147033
_cell_formula_units_Z   1
loop_
 _symmetry_equiv_pos_site_id
 _symmetry_equiv_pos_as_xyz
  1  'x, y, z'
loop_
 _atom_site_type_symbol
 _atom_site_label
 _atom_site_symmetry_multiplicity
 _atom_site_fract_x
 _atom_site_fract_y
 _atom_site_fract_z
 _atom_site_occupancy
  Tb  Tb0  1  0.339807  0.003097  0.468063  1
  Tb  Tb1  1  0.494222  0.843878  0.716833  1
  Tb  Tb2  1  0.502047  0.159084  0.216114  1
  Tb  Tb3  1  0.839259  0.497170  0.283550  1
  Tb  Tb4  1  0.159393  0.497635  0.782404  1
  Tb  Tb5  1  0.659997  0.996301  0.966834  1
  Tb  Tb6  1  0.004012  0.339224  0.534382  1
  Tb  Tb7  1  0.997916  0.659239  0.032865  1
  Ti  Ti8  1  0.173375  0.827094  0.250218  1
  Ti  Ti9  1  0.827799  0.173419  0.749298  1
  Ti  Ti10  1  0.672792  0.672774  0.500286  1
  Ti  Ti11  1  0.155594  0.011080  0.872973  1
  Ti  Ti12  1  0.490850  0.652483  0.124798  1
  Ti  Ti13  1  0.506557  0.344578  0.627068  1
  Ti  Ti14  1  0.653543  0.493562  0.874796  1
  Ti  Ti15  1  0.347011  0.507861  0.374262  1
  Ti  Ti16  1  0.847300  0.991869  0.376200  1
  Ti  Ti17  1  0.009083  0.154008  0.123553  1
  Ti  Ti18  1  0.994561  0.849355  0.625064  1
  Nb  Nb19  1  0.325756  0.326308  0.999491  1
  Si  Si20  1  0.369480  0.703157  0.933662  1
  Si  Si21  1  0.629139  0.298755  0.436033  1
  Si  Si22  1  0.702729  0.370698  0.065174  1
  Si  Si23  1  0.298625  0.629176  0.565171  1
  Si  Si24  1  0.798098  0.870487  0.185258  1
  Si  Si25  1  0.129562  0.201701  0.315543  1
  Si  Si26  1  0.871140  0.797283  0.814381  1
  Si  Si27  1  0.290351  0.952314  0.064088  1
  Si  Si28  1  0.545883  0.791019  0.315237  1
  Si  Si29  1  0.460351  0.209957  0.816001  1
  Si  Si30  1  0.789398  0.547237  0.684500  1
  Si  Si31  1  0.207980  0.453814  0.186587  1
  Si  Si32  1  0.709694  0.046054  0.564649  1
  Si  Si33  1  0.952310  0.290294  0.934989  1
  Si  Si34  1  0.046805  0.709117  0.435748  1
  P  P35  1  0.197579  0.128918  0.683928  1
