# generated using pymatgen
data_Tm2UCoTc2
_symmetry_space_group_name_H-M   'P 1'
_cell_length_a   5.70503114
_cell_length_b   5.71128534
_cell_length_c   7.99409500
_cell_angle_alpha   90.00000000
_cell_angle_beta   90.00000000
_cell_angle_gamma   120.03627925
_symmetry_Int_Tables_number   1
_chemical_formula_structural   Tm2UCoTc2
_chemical_formula_sum   'Tm4 U2 Co2 Tc4'
_cell_volume   225.49293101
_cell_formula_units_Z   2
loop_
 _symmetry_equiv_pos_site_id
 _symmetry_equiv_pos_as_xyz
  1  'x, y, z'
loop_
 _atom_site_type_symbol
 _atom_site_label
 _atom_site_symmetry_multiplicity
 _atom_site_fract_x
 _atom_site_fract_y
 _atom_site_fract_z
 _atom_site_occupancy
  Tm  Tm0  1  0.333379  0.666690  0.438539  1
  Tm  Tm1  1  0.668230  0.334115  0.554739  1
  Tm  Tm2  1  0.668230  0.334115  0.945261  1
  Tm  Tm3  1  0.333379  0.666690  0.061461  1
  U  U4  1  0.000435  0.000218  0.494616  1
  U  U5  1  0.000435  0.000218  0.005384  1
  Co  Co6  1  0.833625  0.163642  0.250000  1
  Co  Co7  1  0.833625  0.669983  0.250000  1
  Tc  Tc8  1  0.331849  0.165924  0.250000  1
  Tc  Tc9  1  0.163868  0.837723  0.750000  1
  Tc  Tc10  1  0.163868  0.326145  0.750000  1
  Tc  Tc11  1  0.669077  0.834539  0.750000  1
