# generated using pymatgen
data_La3Lu2Tl2InBr
_symmetry_space_group_name_H-M   'P 1'
_cell_length_a   9.56118375
_cell_length_b   9.56118396
_cell_length_c   6.79636000
_cell_angle_alpha   90.00000000
_cell_angle_beta   90.00000000
_cell_angle_gamma   119.89855179
_symmetry_Int_Tables_number   1
_chemical_formula_structural   La3Lu2Tl2InBr
_chemical_formula_sum   'La6 Lu4 Tl4 In2 Br2'
_cell_volume   538.60874502
_cell_formula_units_Z   2
loop_
 _symmetry_equiv_pos_site_id
 _symmetry_equiv_pos_as_xyz
  1  'x, y, z'
loop_
 _atom_site_type_symbol
 _atom_site_label
 _atom_site_symmetry_multiplicity
 _atom_site_fract_x
 _atom_site_fract_y
 _atom_site_fract_z
 _atom_site_occupancy
  La  La0  1  0.729615  0.729615  0.250000  1
  La  La1  1  0.999637  0.729737  0.750000  1
  La  La2  1  0.729737  0.999637  0.750000  1
  La  La3  1  0.270385  0.270385  0.750000  1
  La  La4  1  0.000363  0.270263  0.250000  1
  La  La5  1  0.270263  0.000363  0.250000  1
  Lu  Lu6  1  0.334011  0.665989  0.500000  1
  Lu  Lu7  1  0.665989  0.334011  0.500000  1
  Lu  Lu8  1  0.334011  0.665989  0.000000  1
  Lu  Lu9  1  0.665989  0.334011  0.000000  1
  Tl  Tl10  1  0.392386  0.999904  0.750000  1
  Tl  Tl11  1  0.000096  0.607614  0.250000  1
  Tl  Tl12  1  0.607614  0.000096  0.250000  1
  Tl  Tl13  1  0.999904  0.392386  0.750000  1
  In  In14  1  0.392812  0.392812  0.250000  1
  In  In15  1  0.607188  0.607188  0.750000  1
  Br  Br16  1  0.000000  0.000000  0.500000  1
  Br  Br17  1  0.000000  0.000000  0.000000  1
