# generated using pymatgen
data_Ca5Pr15(Ga3Bi)3
_symmetry_space_group_name_H-M   'P 1'
_cell_length_a   8.19681691
_cell_length_b   8.19968883
_cell_length_c   14.24666074
_cell_angle_alpha   90.04779920
_cell_angle_beta   89.94981106
_cell_angle_gamma   90.19739409
_symmetry_Int_Tables_number   1
_chemical_formula_structural   Ca5Pr15(Ga3Bi)3
_chemical_formula_sum   'Ca5 Pr15 Ga9 Bi3'
_cell_volume   957.53089328
_cell_formula_units_Z   1
loop_
 _symmetry_equiv_pos_site_id
 _symmetry_equiv_pos_as_xyz
  1  'x, y, z'
loop_
 _atom_site_type_symbol
 _atom_site_label
 _atom_site_symmetry_multiplicity
 _atom_site_fract_x
 _atom_site_fract_y
 _atom_site_fract_z
 _atom_site_occupancy
  Ca  Ca0  1  0.835628  0.664206  0.390865  1
  Ca  Ca1  1  0.500794  0.500289  0.757058  1
  Ca  Ca2  1  0.998802  0.998242  0.246577  1
  Ca  Ca3  1  0.999831  0.999199  0.755249  1
  Ca  Ca4  1  0.501932  0.501007  0.244601  1
  Pr  Pr5  1  0.674948  0.162667  0.102962  1
  Pr  Pr6  1  0.168540  0.667350  0.608183  1
  Pr  Pr7  1  0.324588  0.838071  0.102916  1
  Pr  Pr8  1  0.832192  0.331908  0.608370  1
  Pr  Pr9  1  0.837119  0.676036  0.104612  1
  Pr  Pr10  1  0.332795  0.167493  0.607525  1
  Pr  Pr11  1  0.162537  0.324408  0.104414  1
  Pr  Pr12  1  0.664428  0.835045  0.608109  1
  Pr  Pr13  1  0.836786  0.325282  0.896577  1
  Pr  Pr14  1  0.333573  0.832814  0.392113  1
  Pr  Pr15  1  0.161832  0.675904  0.896557  1
  Pr  Pr16  1  0.666205  0.167912  0.392037  1
  Pr  Pr17  1  0.674780  0.838082  0.896415  1
  Pr  Pr18  1  0.170312  0.330263  0.392458  1
  Pr  Pr19  1  0.324537  0.162310  0.895989  1
  Ga  Ga20  1  0.621289  0.122727  0.751090  1
  Ga  Ga21  1  0.123975  0.620101  0.248454  1
  Ga  Ga22  1  0.879117  0.376478  0.248659  1
  Ga  Ga23  1  0.378264  0.877716  0.750997  1
  Ga  Ga24  1  0.877671  0.621728  0.748830  1
  Ga  Ga25  1  0.378915  0.121483  0.249181  1
  Ga  Ga26  1  0.122513  0.378907  0.751922  1
  Ga  Ga27  1  0.617840  0.881121  0.246802  1
  Ga  Ga28  1  0.999349  0.999938  0.999710  1
  Bi  Bi29  1  0.501006  0.502016  0.500252  1
  Bi  Bi30  1  0.500015  0.500440  0.000284  1
  Bi  Bi31  1  0.997887  0.998858  0.500232  1
