# generated using pymatgen
data_DyY19Sn16
_symmetry_space_group_name_H-M   'P 1'
_cell_length_a   8.05016601
_cell_length_b   8.19034751
_cell_length_c   15.49349600
_cell_angle_alpha   90.00158798
_cell_angle_beta   90.00285405
_cell_angle_gamma   90.02021699
_symmetry_Int_Tables_number   1
_chemical_formula_structural   DyY19Sn16
_chemical_formula_sum   'Dy1 Y19 Sn16'
_cell_volume   1021.54278821
_cell_formula_units_Z   1
loop_
 _symmetry_equiv_pos_site_id
 _symmetry_equiv_pos_as_xyz
  1  'x, y, z'
loop_
 _atom_site_type_symbol
 _atom_site_label
 _atom_site_symmetry_multiplicity
 _atom_site_fract_x
 _atom_site_fract_y
 _atom_site_fract_z
 _atom_site_occupancy
  Dy  Dy0  1  0.367630  0.836425  0.877858  1
  Y  Y1  1  0.867383  0.663591  0.622161  1
  Y  Y2  1  0.632576  0.163503  0.377895  1
  Y  Y3  1  0.132633  0.336439  0.121929  1
  Y  Y4  1  0.632613  0.163509  0.122063  1
  Y  Y5  1  0.132525  0.336441  0.377910  1
  Y  Y6  1  0.367402  0.836369  0.622106  1
  Y  Y7  1  0.867376  0.663489  0.877958  1
  Y  Y8  1  0.522067  0.321096  0.902035  1
  Y  Y9  1  0.022123  0.178959  0.597977  1
  Y  Y10  1  0.477874  0.678961  0.402067  1
  Y  Y11  1  0.977751  0.821031  0.097932  1
  Y  Y12  1  0.477952  0.679076  0.097758  1
  Y  Y13  1  0.977900  0.821066  0.402081  1
  Y  Y14  1  0.522037  0.321026  0.597987  1
  Y  Y15  1  0.022158  0.178899  0.902020  1
  Y  Y16  1  0.199080  0.502466  0.750055  1
  Y  Y17  1  0.698996  0.997534  0.750117  1
  Y  Y18  1  0.801005  0.497597  0.249974  1
  Y  Y19  1  0.300914  0.002374  0.249985  1
  Sn  Sn20  1  0.292442  0.034763  0.041590  1
  Sn  Sn21  1  0.792406  0.464974  0.458114  1
  Sn  Sn22  1  0.707584  0.964961  0.541867  1
  Sn  Sn23  1  0.207935  0.535792  0.958064  1
  Sn  Sn24  1  0.706996  0.964709  0.958061  1
  Sn  Sn25  1  0.207615  0.535050  0.541852  1
  Sn  Sn26  1  0.292398  0.035061  0.458120  1
  Sn  Sn27  1  0.792399  0.464912  0.041874  1
  Sn  Sn28  1  0.565137  0.619135  0.750273  1
  Sn  Sn29  1  0.065602  0.881024  0.750254  1
  Sn  Sn30  1  0.434653  0.381130  0.249989  1
  Sn  Sn31  1  0.934749  0.118843  0.249962  1
  Sn  Sn32  1  0.330432  0.146720  0.750144  1
  Sn  Sn33  1  0.830296  0.353036  0.749990  1
  Sn  Sn34  1  0.669639  0.853140  0.249992  1
  Sn  Sn35  1  0.169722  0.646900  0.249986  1
