# generated using pymatgen
data_Er10Cd2InRu
_symmetry_space_group_name_H-M   'P 1'
_cell_length_a   9.56273827
_cell_length_b   9.55881558
_cell_length_c   9.75257100
_cell_angle_alpha   90.00000000
_cell_angle_beta   90.00000000
_cell_angle_gamma   119.98643056
_symmetry_Int_Tables_number   1
_chemical_formula_structural   Er10Cd2InRu
_chemical_formula_sum   'Er20 Cd4 In2 Ru2'
_cell_volume   772.13896893
_cell_formula_units_Z   2
loop_
 _symmetry_equiv_pos_site_id
 _symmetry_equiv_pos_as_xyz
  1  'x, y, z'
loop_
 _atom_site_type_symbol
 _atom_site_label
 _atom_site_symmetry_multiplicity
 _atom_site_fract_x
 _atom_site_fract_y
 _atom_site_fract_z
 _atom_site_occupancy
  Er  Er0  1  0.002506  0.001253  0.503206  1
  Er  Er1  1  0.002506  0.001253  0.996794  1
  Er  Er2  1  0.209761  0.790238  0.439704  1
  Er  Er3  1  0.209761  0.419524  0.439704  1
  Er  Er4  1  0.580732  0.790367  0.439337  1
  Er  Er5  1  0.789801  0.209680  0.559429  1
  Er  Er6  1  0.789801  0.580121  0.559429  1
  Er  Er7  1  0.420109  0.210054  0.560349  1
  Er  Er8  1  0.789801  0.209680  0.940571  1
  Er  Er9  1  0.789801  0.580121  0.940571  1
  Er  Er10  1  0.420109  0.210054  0.939651  1
  Er  Er11  1  0.209761  0.790238  0.060296  1
  Er  Er12  1  0.209761  0.419524  0.060296  1
  Er  Er13  1  0.580732  0.790367  0.060663  1
  Er  Er14  1  0.537019  0.457659  0.250000  1
  Er  Er15  1  0.537019  0.079360  0.250000  1
  Er  Er16  1  0.919167  0.459584  0.250000  1
  Er  Er17  1  0.459376  0.541217  0.750000  1
  Er  Er18  1  0.459376  0.918159  0.750000  1
  Er  Er19  1  0.081193  0.540597  0.750000  1
  Cd  Cd20  1  0.229262  0.114631  0.250000  1
  Cd  Cd21  1  0.114562  0.885572  0.750000  1
  Cd  Cd22  1  0.114562  0.228989  0.750000  1
  Cd  Cd23  1  0.771533  0.885766  0.750000  1
  In  In24  1  0.885650  0.114645  0.250000  1
  In  In25  1  0.885650  0.771006  0.250000  1
  Ru  Ru26  1  0.333613  0.666807  0.250000  1
  Ru  Ru27  1  0.667068  0.333534  0.750000  1
