# generated using pymatgen
data_Nd12Ni6Hg
_symmetry_space_group_name_H-M   'P 1'
_cell_length_a   8.67264500
_cell_length_b   8.67264556
_cell_length_c   8.67264500
_cell_angle_alpha   109.47122166
_cell_angle_beta   109.47122298
_cell_angle_gamma   109.47122358
_symmetry_Int_Tables_number   1
_chemical_formula_structural   Nd12Ni6Hg
_chemical_formula_sum   'Nd12 Ni6 Hg1'
_cell_volume   502.14924309
_cell_formula_units_Z   1
loop_
 _symmetry_equiv_pos_site_id
 _symmetry_equiv_pos_as_xyz
  1  'x, y, z'
loop_
 _atom_site_type_symbol
 _atom_site_label
 _atom_site_symmetry_multiplicity
 _atom_site_fract_x
 _atom_site_fract_y
 _atom_site_fract_z
 _atom_site_occupancy
  Nd  Nd0  1  0.814058  0.694729  0.508787  1
  Nd  Nd1  1  0.185942  0.305271  0.491213  1
  Nd  Nd2  1  0.185942  0.694729  0.880672  1
  Nd  Nd3  1  0.814058  0.305271  0.119328  1
  Nd  Nd4  1  0.694729  0.508787  0.814058  1
  Nd  Nd5  1  0.305271  0.491213  0.185942  1
  Nd  Nd6  1  0.694729  0.880672  0.185942  1
  Nd  Nd7  1  0.305271  0.119328  0.814058  1
  Nd  Nd8  1  0.508787  0.814058  0.694729  1
  Nd  Nd9  1  0.491213  0.185942  0.305271  1
  Nd  Nd10  1  0.119328  0.814058  0.305271  1
  Nd  Nd11  1  0.880672  0.185942  0.694729  1
  Ni  Ni12  1  0.877704  0.377704  0.500000  1
  Ni  Ni13  1  0.122296  0.622296  0.500000  1
  Ni  Ni14  1  0.377704  0.500000  0.877704  1
  Ni  Ni15  1  0.622296  0.500000  0.122296  1
  Ni  Ni16  1  0.500000  0.877704  0.377704  1
  Ni  Ni17  1  0.500000  0.122296  0.622296  1
  Hg  Hg18  1  0.000000  0.000000  0.000000  1
