# generated using pymatgen
data_Dy3Ho5(B6Ru)4
_symmetry_space_group_name_H-M   'P 1'
_cell_length_a   3.65486400
_cell_length_b   9.13470900
_cell_length_c   11.51250800
_cell_angle_alpha   90.00029984
_cell_angle_beta   90.00000000
_cell_angle_gamma   90.00000000
_symmetry_Int_Tables_number   1
_chemical_formula_structural   Dy3Ho5(B6Ru)4
_chemical_formula_sum   'Dy3 Ho5 B24 Ru4'
_cell_volume   384.35796293
_cell_formula_units_Z   1
loop_
 _symmetry_equiv_pos_site_id
 _symmetry_equiv_pos_as_xyz
  1  'x, y, z'
loop_
 _atom_site_type_symbol
 _atom_site_label
 _atom_site_symmetry_multiplicity
 _atom_site_fract_x
 _atom_site_fract_y
 _atom_site_fract_z
 _atom_site_occupancy
  Dy  Dy0  1  0.000000  0.322974  0.414043  1
  Dy  Dy1  1  0.000000  0.677046  0.585985  1
  Dy  Dy2  1  0.000000  0.822999  0.085912  1
  Ho  Ho3  1  0.000000  0.177006  0.914117  1
  Ho  Ho4  1  0.000000  0.943817  0.372285  1
  Ho  Ho5  1  0.000000  0.056252  0.627738  1
  Ho  Ho6  1  0.000000  0.443695  0.127552  1
  Ho  Ho7  1  0.000000  0.556145  0.872373  1
  B  B8  1  0.500000  0.554138  0.432980  1
  B  B9  1  0.500000  0.445809  0.567085  1
  B  B10  1  0.500000  0.054225  0.066792  1
  B  B11  1  0.500000  0.946119  0.933024  1
  B  B12  1  0.500000  0.748175  0.419758  1
  B  B13  1  0.500000  0.251830  0.580329  1
  B  B14  1  0.500000  0.248066  0.079944  1
  B  B15  1  0.500000  0.751948  0.919752  1
  B  B16  1  0.500000  0.791353  0.266188  1
  B  B17  1  0.500000  0.208515  0.734029  1
  B  B18  1  0.500000  0.291309  0.233661  1
  B  B19  1  0.500000  0.708729  0.766265  1
  B  B20  1  0.500000  0.632016  0.185075  1
  B  B21  1  0.500000  0.367736  0.815056  1
  B  B22  1  0.500000  0.132065  0.314836  1
  B  B23  1  0.500000  0.868050  0.685191  1
  B  B24  1  0.500000  0.983757  0.212884  1
  B  B25  1  0.500000  0.016606  0.787178  1
  B  B26  1  0.500000  0.483680  0.286981  1
  B  B27  1  0.500000  0.516205  0.713055  1
  B  B28  1  0.500000  0.607805  0.029765  1
  B  B29  1  0.500000  0.391765  0.970103  1
  B  B30  1  0.500000  0.107691  0.470273  1
  B  B31  1  0.500000  0.892365  0.529762  1
  Ru  Ru32  1  0.000000  0.638059  0.321021  1
  Ru  Ru33  1  0.000000  0.361822  0.679085  1
  Ru  Ru34  1  0.000000  0.138025  0.178780  1
  Ru  Ru35  1  0.000000  0.862205  0.821146  1
