# generated using pymatgen
data_Cs8LaNp3Cl20
_symmetry_space_group_name_H-M   'P 1'
_cell_length_a   8.65754506
_cell_length_b   9.15138000
_cell_length_c   14.00037600
_cell_angle_alpha   90.00000000
_cell_angle_beta   90.00689597
_cell_angle_gamma   90.00000000
_symmetry_Int_Tables_number   1
_chemical_formula_structural   Cs8LaNp3Cl20
_chemical_formula_sum   'Cs8 La1 Np3 Cl20'
_cell_volume   1109.22856818
_cell_formula_units_Z   1
loop_
 _symmetry_equiv_pos_site_id
 _symmetry_equiv_pos_as_xyz
  1  'x, y, z'
loop_
 _atom_site_type_symbol
 _atom_site_label
 _atom_site_symmetry_multiplicity
 _atom_site_fract_x
 _atom_site_fract_y
 _atom_site_fract_z
 _atom_site_occupancy
  Cs  Cs0  1  0.945391  0.005678  0.829227  1
  Cs  Cs1  1  0.055313  0.995774  0.170982  1
  Cs  Cs2  1  0.444562  0.995853  0.671234  1
  Cs  Cs3  1  0.055313  0.504226  0.170982  1
  Cs  Cs4  1  0.554737  0.005507  0.329068  1
  Cs  Cs5  1  0.945391  0.494322  0.829227  1
  Cs  Cs6  1  0.554737  0.494493  0.329068  1
  Cs  Cs7  1  0.444562  0.504147  0.671234  1
  La  La8  1  0.934581  0.750000  0.502851  1
  Np  Np9  1  0.065082  0.250000  0.497855  1
  Np  Np10  1  0.437024  0.250000  0.998650  1
  Np  Np11  1  0.561837  0.750000  0.001253  1
  Cl  Cl12  1  0.114177  0.750000  0.670162  1
  Cl  Cl13  1  0.889574  0.250000  0.332305  1
  Cl  Cl14  1  0.611866  0.250000  0.832362  1
  Cl  Cl15  1  0.388588  0.750000  0.167479  1
  Cl  Cl16  1  0.845164  0.043100  0.569147  1
  Cl  Cl17  1  0.155133  0.961754  0.430567  1
  Cl  Cl18  1  0.347217  0.960448  0.931910  1
  Cl  Cl19  1  0.155133  0.538246  0.430567  1
  Cl  Cl20  1  0.653545  0.039686  0.067871  1
  Cl  Cl21  1  0.845164  0.456900  0.569147  1
  Cl  Cl22  1  0.653545  0.460314  0.067871  1
  Cl  Cl23  1  0.347217  0.539552  0.931910  1
  Cl  Cl24  1  0.607503  0.750000  0.513219  1
  Cl  Cl25  1  0.388576  0.250000  0.487393  1
  Cl  Cl26  1  0.113529  0.250000  0.987027  1
  Cl  Cl27  1  0.886328  0.750000  0.012670  1
  Cl  Cl28  1  0.648370  0.750000  0.811357  1
  Cl  Cl29  1  0.352014  0.250000  0.188247  1
  Cl  Cl30  1  0.148685  0.250000  0.688268  1
  Cl  Cl31  1  0.850142  0.750000  0.308889  1
