# generated using pymatgen
data_Sc22Tc5IrRh2
_symmetry_space_group_name_H-M   'P 1'
_cell_length_a   9.51956126
_cell_length_b   9.52881234
_cell_length_c   9.51956278
_cell_angle_alpha   59.96785154
_cell_angle_beta   60.06430234
_cell_angle_gamma   59.96785543
_symmetry_Int_Tables_number   1
_chemical_formula_structural   Sc22Tc5IrRh2
_chemical_formula_sum   'Sc22 Tc5 Ir1 Rh2'
_cell_volume   610.60017064
_cell_formula_units_Z   1
loop_
 _symmetry_equiv_pos_site_id
 _symmetry_equiv_pos_as_xyz
  1  'x, y, z'
loop_
 _atom_site_type_symbol
 _atom_site_label
 _atom_site_symmetry_multiplicity
 _atom_site_fract_x
 _atom_site_fract_y
 _atom_site_fract_z
 _atom_site_occupancy
  Sc  Sc0  1  0.802450  0.802450  0.197550  1
  Sc  Sc1  1  0.198045  0.801955  0.198045  1
  Sc  Sc2  1  0.802450  0.197550  0.197550  1
  Sc  Sc3  1  0.197550  0.197550  0.802450  1
  Sc  Sc4  1  0.801955  0.198045  0.801955  1
  Sc  Sc5  1  0.197550  0.802450  0.802450  1
  Sc  Sc6  1  0.615309  0.617767  0.149158  1
  Sc  Sc7  1  0.617767  0.149158  0.617767  1
  Sc  Sc8  1  0.149158  0.617767  0.615309  1
  Sc  Sc9  1  0.617767  0.615309  0.617767  1
  Sc  Sc10  1  0.384691  0.382233  0.850842  1
  Sc  Sc11  1  0.382233  0.850842  0.382233  1
  Sc  Sc12  1  0.850842  0.382233  0.384691  1
  Sc  Sc13  1  0.382233  0.384691  0.382233  1
  Sc  Sc14  1  0.843506  0.843521  0.469451  1
  Sc  Sc15  1  0.843521  0.469451  0.843521  1
  Sc  Sc16  1  0.469451  0.843521  0.843506  1
  Sc  Sc17  1  0.843521  0.843506  0.843521  1
  Sc  Sc18  1  0.156494  0.156479  0.530549  1
  Sc  Sc19  1  0.156479  0.530549  0.156479  1
  Sc  Sc20  1  0.530549  0.156479  0.156494  1
  Sc  Sc21  1  0.156479  0.156494  0.156479  1
  Tc  Tc22  1  0.000000  0.000000  0.000000  1
  Tc  Tc23  1  0.000000  0.000000  0.500000  1
  Tc  Tc24  1  0.000000  0.500000  0.500000  1
  Tc  Tc25  1  0.500000  0.500000  0.000000  1
  Tc  Tc26  1  0.500000  0.000000  0.000000  1
  Ir  Ir27  1  0.500000  0.500000  0.500000  1
  Rh  Rh28  1  0.500000  0.000000  0.500000  1
  Rh  Rh29  1  0.000000  0.500000  0.000000  1
