# generated using pymatgen
data_K3Tm3(PS4)4
_symmetry_space_group_name_H-M   'P 1'
_cell_length_a   9.29834267
_cell_length_b   16.33360200
_cell_length_c   18.58064500
_cell_angle_alpha   90.00000000
_cell_angle_beta   95.28439694
_cell_angle_gamma   90.00000000
_symmetry_Int_Tables_number   1
_chemical_formula_structural   K3Tm3(PS4)4
_chemical_formula_sum   'K12 Tm12 P16 S64'
_cell_volume   2809.94964030
_cell_formula_units_Z   4
loop_
 _symmetry_equiv_pos_site_id
 _symmetry_equiv_pos_as_xyz
  1  'x, y, z'
loop_
 _atom_site_type_symbol
 _atom_site_label
 _atom_site_symmetry_multiplicity
 _atom_site_fract_x
 _atom_site_fract_y
 _atom_site_fract_z
 _atom_site_occupancy
  K  K0  1  0.108061  0.032094  0.263902  1
  K  K1  1  0.787428  0.894149  0.066163  1
  K  K2  1  0.204066  0.487914  0.910002  1
  K  K3  1  0.712572  0.394149  0.433837  1
  K  K4  1  0.891939  0.967906  0.736098  1
  K  K5  1  0.212572  0.105851  0.933837  1
  K  K6  1  0.608061  0.467906  0.763902  1
  K  K7  1  0.287428  0.605851  0.566163  1
  K  K8  1  0.391939  0.532094  0.236098  1
  K  K9  1  0.704066  0.012086  0.410002  1
  K  K10  1  0.795934  0.512086  0.089998  1
  K  K11  1  0.295934  0.987914  0.589998  1
  Tm  Tm12  1  0.313018  0.760763  0.818174  1
  Tm  Tm13  1  0.288936  0.772686  0.336579  1
  Tm  Tm14  1  0.816442  0.725816  0.587145  1
  Tm  Tm15  1  0.813018  0.739237  0.318174  1
  Tm  Tm16  1  0.183558  0.274184  0.412855  1
  Tm  Tm17  1  0.186982  0.260763  0.681826  1
  Tm  Tm18  1  0.788936  0.727314  0.836579  1
  Tm  Tm19  1  0.686982  0.239237  0.181826  1
  Tm  Tm20  1  0.683558  0.225816  0.912855  1
  Tm  Tm21  1  0.211064  0.272686  0.163421  1
  Tm  Tm22  1  0.316442  0.774184  0.087145  1
  Tm  Tm23  1  0.711064  0.227314  0.663421  1
  P  P24  1  0.421816  0.355250  0.583072  1
  P  P25  1  0.941375  0.188908  0.532159  1
  P  P26  1  0.578184  0.644750  0.416928  1
  P  P27  1  0.078184  0.855250  0.916928  1
  P  P28  1  0.058625  0.811092  0.467841  1
  P  P29  1  0.038395  0.705947  0.190512  1
  P  P30  1  0.461605  0.205947  0.309488  1
  P  P31  1  0.441375  0.311092  0.032159  1
  P  P32  1  0.538395  0.794053  0.690512  1
  P  P33  1  0.014550  0.625838  0.732168  1
  P  P34  1  0.921816  0.144750  0.083072  1
  P  P35  1  0.558625  0.688908  0.967841  1
  P  P36  1  0.514550  0.874162  0.232168  1
  P  P37  1  0.961605  0.294053  0.809488  1
  P  P38  1  0.985450  0.374162  0.267832  1
  P  P39  1  0.485450  0.125838  0.767832  1
  S  S40  1  0.978310  0.752730  0.725913  1
  S  S41  1  0.819171  0.706519  0.172478  1
  S  S42  1  0.778169  0.690166  0.982207  1
  S  S43  1  0.365734  0.618121  0.387136  1
  S  S44  1  0.098037  0.729408  0.907524  1
  S  S45  1  0.540994  0.371292  0.953988  1
  S  S46  1  0.134899  0.892020  0.020763  1
  S  S47  1  0.868418  0.178991  0.803713  1
  S  S48  1  0.134266  0.118121  0.112864  1
  S  S49  1  0.959006  0.871292  0.546012  1
  S  S50  1  0.358275  0.144123  0.385760  1
  S  S51  1  0.365101  0.392020  0.479237  1
  S  S52  1  0.040994  0.128708  0.453988  1
  S  S53  1  0.598037  0.770592  0.407524  1
  S  S54  1  0.631582  0.678991  0.696287  1
  S  S55  1  0.131582  0.821009  0.196287  1
  S  S56  1  0.459006  0.628708  0.046012  1
  S  S57  1  0.772160  0.393508  0.234705  1
  S  S58  1  0.702321  0.589245  0.344569  1
  S  S59  1  0.035996  0.303647  0.537570  1
  S  S60  1  0.020504  0.858231  0.363753  1
  S  S61  1  0.641725  0.855877  0.614240  1
  S  S62  1  0.925627  0.343346  0.707073  1
  S  S63  1  0.074373  0.656654  0.292927  1
  S  S64  1  0.721831  0.190166  0.517793  1
  S  S65  1  0.396170  0.923743  0.310181  1
  S  S66  1  0.464004  0.803647  0.962430  1
  S  S67  1  0.425627  0.156654  0.207073  1
  S  S68  1  0.634899  0.607980  0.520763  1
  S  S69  1  0.021690  0.247270  0.274087  1
  S  S70  1  0.401963  0.229408  0.592476  1
  S  S71  1  0.574373  0.843346  0.792927  1
  S  S72  1  0.368418  0.321009  0.303713  1
  S  S73  1  0.272160  0.106492  0.734705  1
  S  S74  1  0.858275  0.355877  0.885760  1
  S  S75  1  0.278169  0.809834  0.482207  1
  S  S76  1  0.535996  0.196353  0.037570  1
  S  S77  1  0.727840  0.893508  0.265295  1
  S  S78  1  0.221831  0.309834  0.017793  1
  S  S79  1  0.954205  0.582961  0.631375  1
  S  S80  1  0.319171  0.793481  0.672478  1
  S  S81  1  0.520504  0.641769  0.863753  1
  S  S82  1  0.865101  0.107980  0.979237  1
  S  S83  1  0.603830  0.076257  0.689818  1
  S  S84  1  0.964004  0.696353  0.462430  1
  S  S85  1  0.979496  0.141769  0.636247  1
  S  S86  1  0.045795  0.417039  0.368625  1
  S  S87  1  0.521690  0.252730  0.774087  1
  S  S88  1  0.545795  0.082961  0.868625  1
  S  S89  1  0.896170  0.576257  0.810182  1
  S  S90  1  0.797679  0.089245  0.155431  1
  S  S91  1  0.454205  0.917039  0.131375  1
  S  S92  1  0.865734  0.881879  0.887136  1
  S  S93  1  0.202321  0.910755  0.844569  1
  S  S94  1  0.103830  0.423743  0.189819  1
  S  S95  1  0.227840  0.606492  0.765295  1
  S  S96  1  0.141725  0.644123  0.114240  1
  S  S97  1  0.634266  0.381879  0.612864  1
  S  S98  1  0.901963  0.270592  0.092476  1
  S  S99  1  0.479496  0.358231  0.136247  1
  S  S100  1  0.180829  0.293481  0.827522  1
  S  S101  1  0.478310  0.747270  0.225913  1
  S  S102  1  0.680829  0.206519  0.327522  1
  S  S103  1  0.297679  0.410755  0.655431  1
