# generated using pymatgen
data_Pr4NdY3(Si3Rh)4
_symmetry_space_group_name_H-M   'P 1'
_cell_length_a   8.25240600
_cell_length_b   8.25240576
_cell_length_c   8.24187900
_cell_angle_alpha   89.99997569
_cell_angle_beta   90.00004168
_cell_angle_gamma   119.99989625
_symmetry_Int_Tables_number   1
_chemical_formula_structural   Pr4NdY3(Si3Rh)4
_chemical_formula_sum   'Pr4 Nd1 Y3 Si12 Rh4'
_cell_volume   486.09200668
_cell_formula_units_Z   1
loop_
 _symmetry_equiv_pos_site_id
 _symmetry_equiv_pos_as_xyz
  1  'x, y, z'
loop_
 _atom_site_type_symbol
 _atom_site_label
 _atom_site_symmetry_multiplicity
 _atom_site_fract_x
 _atom_site_fract_y
 _atom_site_fract_z
 _atom_site_occupancy
  Pr  Pr0  1  0.000001  0.000001  0.250000  1
  Pr  Pr1  1  0.504322  0.495678  0.250000  1
  Pr  Pr2  1  0.504322  0.008647  0.250000  1
  Pr  Pr3  1  0.991354  0.495677  0.250000  1
  Nd  Nd4  1  0.000001  0.999999  0.750000  1
  Y  Y5  1  0.492923  0.507077  0.750000  1
  Y  Y6  1  0.492921  0.985842  0.750000  1
  Y  Y7  1  0.014158  0.507079  0.750000  1
  Si  Si8  1  0.166661  0.833340  0.507499  1
  Si  Si9  1  0.166661  0.333321  0.507499  1
  Si  Si10  1  0.666679  0.833339  0.507499  1
  Si  Si11  1  0.831832  0.168167  0.504486  1
  Si  Si12  1  0.831832  0.663664  0.504486  1
  Si  Si13  1  0.336336  0.168168  0.504486  1
  Si  Si14  1  0.831832  0.168167  0.995514  1
  Si  Si15  1  0.831832  0.663664  0.995514  1
  Si  Si16  1  0.336336  0.168168  0.995514  1
  Si  Si17  1  0.166661  0.833340  0.992501  1
  Si  Si18  1  0.166661  0.333321  0.992501  1
  Si  Si19  1  0.666679  0.833339  0.992501  1
  Rh  Rh20  1  0.333333  0.666666  0.491892  1
  Rh  Rh21  1  0.666666  0.333332  0.542584  1
  Rh  Rh22  1  0.666666  0.333333  0.957416  1
  Rh  Rh23  1  0.333333  0.666666  0.008108  1
