# generated using pymatgen
data_Ba2Cr(PO4)2
_symmetry_space_group_name_H-M   'P 1'
_cell_length_a   6.71824212
_cell_length_b   6.71824293
_cell_length_c   6.97636946
_cell_angle_alpha   76.63042776
_cell_angle_beta   76.63042725
_cell_angle_gamma   46.40990848
_symmetry_Int_Tables_number   1
_chemical_formula_structural   Ba2Cr(PO4)2
_chemical_formula_sum   'Ba2 Cr1 P2 O8'
_cell_volume   220.72702158
_cell_formula_units_Z   1
loop_
 _symmetry_equiv_pos_site_id
 _symmetry_equiv_pos_as_xyz
  1  'x, y, z'
loop_
 _atom_site_type_symbol
 _atom_site_label
 _atom_site_symmetry_multiplicity
 _atom_site_fract_x
 _atom_site_fract_y
 _atom_site_fract_z
 _atom_site_occupancy
  Ba  Ba0  1  0.173736  0.173736  0.786688  1
  Ba  Ba1  1  0.826264  0.826264  0.213312  1
  Cr  Cr2  1  0.500000  0.500000  0.500000  1
  P  P3  1  0.136365  0.136365  0.295796  1
  P  P4  1  0.863635  0.863635  0.704204  1
  O  O5  1  0.112500  0.635291  0.566543  1
  O  O6  1  0.364709  0.887500  0.433457  1
  O  O7  1  0.887500  0.364709  0.433457  1
  O  O8  1  0.635291  0.112500  0.566543  1
  O  O9  1  0.255935  0.255935  0.155292  1
  O  O10  1  0.952182  0.952182  0.823949  1
  O  O11  1  0.047818  0.047818  0.176051  1
  O  O12  1  0.744065  0.744065  0.844708  1
