# generated using pymatgen
data_Er4Al24CoPd8
_symmetry_space_group_name_H-M   'P 1'
_cell_length_a   7.50744299
_cell_length_b   7.51353773
_cell_length_c   13.13817082
_cell_angle_alpha   84.37134957
_cell_angle_beta   78.99848455
_cell_angle_gamma   60.02739600
_symmetry_Int_Tables_number   1
_chemical_formula_structural   Er4Al24CoPd8
_chemical_formula_sum   'Er4 Al24 Co1 Pd8'
_cell_volume   630.17905085
_cell_formula_units_Z   1
loop_
 _symmetry_equiv_pos_site_id
 _symmetry_equiv_pos_as_xyz
  1  'x, y, z'
loop_
 _atom_site_type_symbol
 _atom_site_label
 _atom_site_symmetry_multiplicity
 _atom_site_fract_x
 _atom_site_fract_y
 _atom_site_fract_z
 _atom_site_occupancy
  Er  Er0  1  0.394746  0.166977  0.809833  1
  Er  Er1  1  0.605254  0.833023  0.190167  1
  Er  Er2  1  0.731980  0.497752  0.809855  1
  Er  Er3  1  0.268020  0.502248  0.190145  1
  Al  Al4  1  0.691923  0.824532  0.946862  1
  Al  Al5  1  0.308077  0.175468  0.053138  1
  Al  Al6  1  0.146151  0.832744  0.561897  1
  Al  Al7  1  0.853849  0.167256  0.438103  1
  Al  Al8  1  0.479480  0.167277  0.559700  1
  Al  Al9  1  0.520520  0.832723  0.440300  1
  Al  Al10  1  0.216960  0.165683  0.327480  1
  Al  Al11  1  0.783040  0.834317  0.672520  1
  Al  Al12  1  0.435364  0.507391  0.672361  1
  Al  Al13  1  0.564636  0.492609  0.327639  1
  Al  Al14  1  0.108801  0.159793  0.670778  1
  Al  Al15  1  0.891199  0.840207  0.329222  1
  Al  Al16  1  0.343885  0.498742  0.947125  1
  Al  Al17  1  0.656115  0.501258  0.052875  1
  Al  Al18  1  0.014794  0.178426  0.956311  1
  Al  Al19  1  0.985206  0.821574  0.043689  1
  Al  Al20  1  0.186613  0.499148  0.440756  1
  Al  Al21  1  0.813387  0.500852  0.559244  1
  Al  Al22  1  0.734624  0.164144  0.182572  1
  Al  Al23  1  0.265376  0.835856  0.817428  1
  Al  Al24  1  0.059666  0.623585  0.821555  1
  Al  Al25  1  0.940334  0.376415  0.178445  1
  Al  Al26  1  0.855867  0.041087  0.817278  1
  Al  Al27  1  0.144133  0.958913  0.182722  1
  Co  Co28  1  0.000000  0.500000  0.000000  1
  Pd  Pd29  1  0.119562  0.493069  0.639789  1
  Pd  Pd30  1  0.880438  0.506931  0.360211  1
  Pd  Pd31  1  0.656281  0.171701  0.999838  1
  Pd  Pd32  1  0.343719  0.828299  0.000162  1
  Pd  Pd33  1  0.537462  0.166678  0.361496  1
  Pd  Pd34  1  0.462538  0.833322  0.638504  1
  Pd  Pd35  1  0.778183  0.175340  0.637741  1
  Pd  Pd36  1  0.221817  0.824660  0.362259  1
