# generated using pymatgen
data_Dy10PdPt17
_symmetry_space_group_name_H-M   'P 1'
_cell_length_a   9.75739536
_cell_length_b   9.75739542
_cell_length_c   5.76846300
_cell_angle_alpha   90.03020576
_cell_angle_beta   89.96979424
_cell_angle_gamma   89.99369761
_symmetry_Int_Tables_number   1
_chemical_formula_structural   Dy10PdPt17
_chemical_formula_sum   'Dy10 Pd1 Pt17'
_cell_volume   549.19654361
_cell_formula_units_Z   1
loop_
 _symmetry_equiv_pos_site_id
 _symmetry_equiv_pos_as_xyz
  1  'x, y, z'
loop_
 _atom_site_type_symbol
 _atom_site_label
 _atom_site_symmetry_multiplicity
 _atom_site_fract_x
 _atom_site_fract_y
 _atom_site_fract_z
 _atom_site_occupancy
  Dy  Dy0  1  0.453248  0.809087  0.999726  1
  Dy  Dy1  1  0.547151  0.191014  0.000139  1
  Dy  Dy2  1  0.190913  0.546752  0.999726  1
  Dy  Dy3  1  0.808986  0.452849  0.000139  1
  Dy  Dy4  1  0.499822  0.500178  0.499727  1
  Dy  Dy5  1  0.308846  0.046913  0.500371  1
  Dy  Dy6  1  0.691093  0.952904  0.499951  1
  Dy  Dy7  1  0.953087  0.691154  0.500371  1
  Dy  Dy8  1  0.047096  0.308907  0.499951  1
  Dy  Dy9  1  0.000124  0.999876  0.999753  1
  Pd  Pd10  1  0.191017  0.808983  0.250840  1
  Pt  Pt11  1  0.807807  0.192193  0.749787  1
  Pt  Pt12  1  0.807914  0.192086  0.250675  1
  Pt  Pt13  1  0.193030  0.806970  0.749972  1
  Pt  Pt14  1  0.440271  0.781718  0.500047  1
  Pt  Pt15  1  0.558994  0.218392  0.500054  1
  Pt  Pt16  1  0.218282  0.559729  0.500047  1
  Pt  Pt17  1  0.781608  0.441006  0.500054  1
  Pt  Pt18  1  0.307824  0.307777  0.249128  1
  Pt  Pt19  1  0.692107  0.691611  0.750498  1
  Pt  Pt20  1  0.692223  0.692176  0.249128  1
  Pt  Pt21  1  0.308389  0.307893  0.750498  1
  Pt  Pt22  1  0.281714  0.058715  0.999880  1
  Pt  Pt23  1  0.718355  0.940931  0.999817  1
  Pt  Pt24  1  0.941285  0.718286  0.999880  1
  Pt  Pt25  1  0.059069  0.281645  0.999817  1
  Pt  Pt26  1  0.000132  0.999868  0.500014  1
  Pt  Pt27  1  0.499613  0.500387  0.000005  1
