# generated using pymatgen
data_NaPb4IO4
_symmetry_space_group_name_H-M   'P 1'
_cell_length_a   8.60683800
_cell_length_b   8.60683800
_cell_length_c   7.15827900
_cell_angle_alpha   90.00000000
_cell_angle_beta   90.00000000
_cell_angle_gamma   90.00000000
_symmetry_Int_Tables_number   1
_chemical_formula_structural   NaPb4IO4
_chemical_formula_sum   'Na2 Pb8 I2 O8'
_cell_volume   530.26856051
_cell_formula_units_Z   2
loop_
 _symmetry_equiv_pos_site_id
 _symmetry_equiv_pos_as_xyz
  1  'x, y, z'
loop_
 _atom_site_type_symbol
 _atom_site_label
 _atom_site_symmetry_multiplicity
 _atom_site_fract_x
 _atom_site_fract_y
 _atom_site_fract_z
 _atom_site_occupancy
  Na  Na0  1  0.500000  0.000000  0.961104  1
  Na  Na1  1  0.000000  0.500000  0.038896  1
  Pb  Pb2  1  0.195294  0.140512  0.201195  1
  Pb  Pb3  1  0.359488  0.695294  0.201195  1
  Pb  Pb4  1  0.640512  0.304706  0.201195  1
  Pb  Pb5  1  0.304706  0.359488  0.798805  1
  Pb  Pb6  1  0.140512  0.804706  0.798805  1
  Pb  Pb7  1  0.859488  0.195294  0.798805  1
  Pb  Pb8  1  0.804706  0.859488  0.201195  1
  Pb  Pb9  1  0.695294  0.640512  0.798805  1
  I  I10  1  0.000000  0.500000  0.476657  1
  I  I11  1  0.500000  0.000000  0.523343  1
  O  O12  1  0.747832  0.090588  0.063775  1
  O  O13  1  0.409412  0.247832  0.063775  1
  O  O14  1  0.252168  0.909412  0.063775  1
  O  O15  1  0.590588  0.752168  0.063775  1
  O  O16  1  0.909412  0.747832  0.936225  1
  O  O17  1  0.247832  0.590588  0.936225  1
  O  O18  1  0.090588  0.252168  0.936225  1
  O  O19  1  0.752168  0.409412  0.936225  1
