# generated using pymatgen
data_Li2Ti3GeRh6
_symmetry_space_group_name_H-M   'P 1'
_cell_length_a   4.33243000
_cell_length_b   6.00774700
_cell_length_c   12.87961600
_cell_angle_alpha   90.00000000
_cell_angle_beta   90.00278991
_cell_angle_gamma   90.00000000
_symmetry_Int_Tables_number   1
_chemical_formula_structural   Li2Ti3GeRh6
_chemical_formula_sum   'Li4 Ti6 Ge2 Rh12'
_cell_volume   335.23249115
_cell_formula_units_Z   2
loop_
 _symmetry_equiv_pos_site_id
 _symmetry_equiv_pos_as_xyz
  1  'x, y, z'
loop_
 _atom_site_type_symbol
 _atom_site_label
 _atom_site_symmetry_multiplicity
 _atom_site_fract_x
 _atom_site_fract_y
 _atom_site_fract_z
 _atom_site_occupancy
  Li  Li0  1  0.999580  0.000000  0.334962  1
  Li  Li1  1  0.499984  0.500000  0.500200  1
  Li  Li2  1  0.000436  0.000000  0.666464  1
  Li  Li3  1  0.500401  0.500000  0.831701  1
  Ti  Ti4  1  0.000025  0.500000  0.995097  1
  Ti  Ti5  1  0.499652  0.000000  0.171571  1
  Ti  Ti6  1  0.999703  0.500000  0.340778  1
  Ti  Ti7  1  0.500009  0.000000  0.504179  1
  Ti  Ti8  1  0.000301  0.500000  0.662491  1
  Ti  Ti9  1  0.500313  0.000000  0.825885  1
  Ge  Ge10  1  0.999981  0.000000  0.996902  1
  Ge  Ge11  1  0.499685  0.500000  0.169765  1
  Rh  Rh12  1  0.500002  0.251091  0.000484  1
  Rh  Rh13  1  0.500002  0.748909  0.000484  1
  Rh  Rh14  1  0.999667  0.248909  0.166182  1
  Rh  Rh15  1  0.999667  0.751091  0.166182  1
  Rh  Rh16  1  0.499678  0.248212  0.333497  1
  Rh  Rh17  1  0.499678  0.751788  0.333497  1
  Rh  Rh18  1  0.999989  0.248606  0.499563  1
  Rh  Rh19  1  0.999989  0.751394  0.499563  1
  Rh  Rh20  1  0.500318  0.251402  0.667107  1
  Rh  Rh21  1  0.500318  0.748598  0.667107  1
  Rh  Rh22  1  0.000312  0.251786  0.833169  1
  Rh  Rh23  1  0.000312  0.748214  0.833169  1
