# generated using pymatgen
data_LaPr15AlCd3Ir4
_symmetry_space_group_name_H-M   'P 1'
_cell_length_a   10.03144711
_cell_length_b   10.03184422
_cell_length_c   10.03119000
_cell_angle_alpha   59.97308445
_cell_angle_beta   60.00247719
_cell_angle_gamma   59.97340750
_symmetry_Int_Tables_number   1
_chemical_formula_structural   LaPr15AlCd3Ir4
_chemical_formula_sum   'La1 Pr15 Al1 Cd3 Ir4'
_cell_volume   713.53323732
_cell_formula_units_Z   1
loop_
 _symmetry_equiv_pos_site_id
 _symmetry_equiv_pos_as_xyz
  1  'x, y, z'
loop_
 _atom_site_type_symbol
 _atom_site_label
 _atom_site_symmetry_multiplicity
 _atom_site_fract_x
 _atom_site_fract_y
 _atom_site_fract_z
 _atom_site_occupancy
  La  La0  1  0.346329  0.346457  0.346124  1
  Pr  Pr1  1  0.349855  0.349816  0.952826  1
  Pr  Pr2  1  0.349692  0.953020  0.349777  1
  Pr  Pr3  1  0.952936  0.349698  0.349842  1
  Pr  Pr4  1  0.810338  0.189278  0.189633  1
  Pr  Pr5  1  0.191832  0.806810  0.806938  1
  Pr  Pr6  1  0.189346  0.810368  0.189512  1
  Pr  Pr7  1  0.806839  0.191782  0.806854  1
  Pr  Pr8  1  0.189594  0.189409  0.810262  1
  Pr  Pr9  1  0.806871  0.806805  0.191963  1
  Pr  Pr10  1  0.937287  0.562207  0.561993  1
  Pr  Pr11  1  0.560415  0.939068  0.939113  1
  Pr  Pr12  1  0.562192  0.937217  0.562181  1
  Pr  Pr13  1  0.938968  0.560575  0.939029  1
  Pr  Pr14  1  0.562040  0.562206  0.937408  1
  Pr  Pr15  1  0.939092  0.939085  0.560308  1
  Al  Al16  1  0.579547  0.579570  0.579575  1
  Cd  Cd17  1  0.579871  0.579840  0.264234  1
  Cd  Cd18  1  0.579820  0.264289  0.579831  1
  Cd  Cd19  1  0.264248  0.579841  0.579852  1
  Ir  Ir20  1  0.141874  0.141668  0.141769  1
  Ir  Ir21  1  0.142845  0.142826  0.575354  1
  Ir  Ir22  1  0.142789  0.575355  0.142846  1
  Ir  Ir23  1  0.575377  0.142810  0.142776  1
