# generated using pymatgen
data_Sr7Er(In4Au3)4
_symmetry_space_group_name_H-M   'P 1'
_cell_length_a   15.50387300
_cell_length_b   15.28883994
_cell_length_c   4.51924400
_cell_angle_alpha   90.00000000
_cell_angle_beta   90.00000000
_cell_angle_gamma   120.46635987
_symmetry_Int_Tables_number   1
_chemical_formula_structural   Sr7Er(In4Au3)4
_chemical_formula_sum   'Sr7 Er1 In16 Au12'
_cell_volume   923.31738621
_cell_formula_units_Z   1
loop_
 _symmetry_equiv_pos_site_id
 _symmetry_equiv_pos_as_xyz
  1  'x, y, z'
loop_
 _atom_site_type_symbol
 _atom_site_label
 _atom_site_symmetry_multiplicity
 _atom_site_fract_x
 _atom_site_fract_y
 _atom_site_fract_z
 _atom_site_occupancy
  Sr  Sr0  1  0.000581  0.452783  0.000000  1
  Sr  Sr1  1  0.547798  0.547217  0.000000  1
  Sr  Sr2  1  0.335016  0.670128  0.000000  1
  Sr  Sr3  1  0.664889  0.329872  0.000000  1
  Sr  Sr4  1  0.816570  0.000000  0.500000  1
  Sr  Sr5  1  0.001587  0.819946  0.500000  1
  Sr  Sr6  1  0.181641  0.180054  0.500000  1
  Er  Er7  1  0.450067  0.000000  0.000000  1
  In  In8  1  0.183746  0.379986  0.000000  1
  In  In9  1  0.623811  0.806911  0.000000  1
  In  In10  1  0.377694  0.178878  0.000000  1
  In  In11  1  0.198815  0.821122  0.000000  1
  In  In12  1  0.803761  0.620014  0.000000  1
  In  In13  1  0.816901  0.193089  0.000000  1
  In  In14  1  0.281347  0.000000  0.500000  1
  In  In15  1  0.998395  0.281318  0.500000  1
  In  In16  1  0.717077  0.718682  0.500000  1
  In  In17  1  0.351055  0.473008  0.500000  1
  In  In18  1  0.524329  0.879185  0.500000  1
  In  In19  1  0.475160  0.346666  0.500000  1
  In  In20  1  0.128494  0.653334  0.500000  1
  In  In21  1  0.878047  0.526992  0.500000  1
  In  In22  1  0.645145  0.120815  0.500000  1
  In  In23  1  0.000633  0.000000  0.000000  1
  Au  Au24  1  0.176852  0.495470  0.500000  1
  Au  Au25  1  0.508235  0.683345  0.500000  1
  Au  Au26  1  0.486870  0.160372  0.500000  1
  Au  Au27  1  0.326498  0.839628  0.500000  1
  Au  Au28  1  0.681382  0.504530  0.500000  1
  Au  Au29  1  0.824890  0.316655  0.500000  1
  Au  Au30  1  0.175577  0.000000  0.000000  1
  Au  Au31  1  0.001631  0.176881  0.000000  1
  Au  Au32  1  0.824750  0.823119  0.000000  1
  Au  Au33  1  0.648516  0.000000  0.000000  1
  Au  Au34  1  0.001956  0.661671  0.000000  1
  Au  Au35  1  0.340285  0.338329  0.000000  1
