# generated using pymatgen
data_Tb3TiAl11Os3Ru
_symmetry_space_group_name_H-M   'P 1'
_cell_length_a   8.88965000
_cell_length_b   8.88965060
_cell_length_c   9.54749800
_cell_angle_alpha   90.00000000
_cell_angle_beta   90.00000000
_cell_angle_gamma   119.99999033
_symmetry_Int_Tables_number   1
_chemical_formula_structural   Tb3TiAl11Os3Ru
_chemical_formula_sum   'Tb6 Ti2 Al22 Os6 Ru2'
_cell_volume   653.41575854
_cell_formula_units_Z   2
loop_
 _symmetry_equiv_pos_site_id
 _symmetry_equiv_pos_as_xyz
  1  'x, y, z'
loop_
 _atom_site_type_symbol
 _atom_site_label
 _atom_site_symmetry_multiplicity
 _atom_site_fract_x
 _atom_site_fract_y
 _atom_site_fract_z
 _atom_site_occupancy
  Tb  Tb0  1  0.193018  0.386035  0.252361  1
  Tb  Tb1  1  0.806982  0.613965  0.747639  1
  Tb  Tb2  1  0.613965  0.806982  0.252361  1
  Tb  Tb3  1  0.386035  0.193018  0.747639  1
  Tb  Tb4  1  0.193018  0.806982  0.252361  1
  Tb  Tb5  1  0.806982  0.193018  0.747639  1
  Ti  Ti6  1  0.333333  0.666667  0.993541  1
  Ti  Ti7  1  0.666667  0.333333  0.006459  1
  Al  Al8  1  0.666667  0.333333  0.517169  1
  Al  Al9  1  0.333333  0.666667  0.482831  1
  Al  Al10  1  0.161999  0.323996  0.576094  1
  Al  Al11  1  0.838001  0.676004  0.423906  1
  Al  Al12  1  0.676004  0.838001  0.576094  1
  Al  Al13  1  0.840841  0.681683  0.075647  1
  Al  Al14  1  0.323996  0.161999  0.423906  1
  Al  Al15  1  0.159159  0.318317  0.924353  1
  Al  Al16  1  0.161999  0.838001  0.576094  1
  Al  Al17  1  0.318317  0.159159  0.075647  1
  Al  Al18  1  0.838001  0.161999  0.423906  1
  Al  Al19  1  0.681683  0.840841  0.924353  1
  Al  Al20  1  0.840841  0.159159  0.075647  1
  Al  Al21  1  0.159159  0.840841  0.924353  1
  Al  Al22  1  0.560192  0.120382  0.252453  1
  Al  Al23  1  0.439808  0.879618  0.747547  1
  Al  Al24  1  0.879618  0.439808  0.252453  1
  Al  Al25  1  0.120382  0.560192  0.747547  1
  Al  Al26  1  0.560192  0.439808  0.252453  1
  Al  Al27  1  0.439808  0.560192  0.747547  1
  Al  Al28  1  0.000000  0.000000  0.250569  1
  Al  Al29  1  0.000000  0.000000  0.749431  1
  Os  Os30  1  0.500000  0.000000  0.000000  1
  Os  Os31  1  0.000000  0.500000  0.000000  1
  Os  Os32  1  0.500000  0.000000  0.500000  1
  Os  Os33  1  0.500000  0.500000  0.000000  1
  Os  Os34  1  0.000000  0.500000  0.500000  1
  Os  Os35  1  0.500000  0.500000  0.500000  1
  Ru  Ru36  1  0.000000  0.000000  0.000000  1
  Ru  Ru37  1  0.000000  0.000000  0.500000  1
