# generated using pymatgen
data_Pr2ThSn2Rh3Pb
_symmetry_space_group_name_H-M   'P 1'
_cell_length_a   7.68760475
_cell_length_b   7.76749908
_cell_length_c   4.06841600
_cell_angle_alpha   90.00000000
_cell_angle_beta   90.00000000
_cell_angle_gamma   120.14410132
_symmetry_Int_Tables_number   1
_chemical_formula_structural   Pr2ThSn2Rh3Pb
_chemical_formula_sum   'Pr2 Th1 Sn2 Rh3 Pb1'
_cell_volume   210.08535919
_cell_formula_units_Z   1
loop_
 _symmetry_equiv_pos_site_id
 _symmetry_equiv_pos_as_xyz
  1  'x, y, z'
loop_
 _atom_site_type_symbol
 _atom_site_label
 _atom_site_symmetry_multiplicity
 _atom_site_fract_x
 _atom_site_fract_y
 _atom_site_fract_z
 _atom_site_occupancy
  Pr  Pr0  1  0.406869  0.407301  0.500000  1
  Pr  Pr1  1  0.591114  0.005257  0.500000  1
  Th  Th2  1  0.001185  0.584751  0.500000  1
  Sn  Sn3  1  0.261070  0.007248  0.000000  1
  Sn  Sn4  1  0.001084  0.244399  0.000000  1
  Rh  Rh5  1  0.690111  0.346008  0.000000  1
  Rh  Rh6  1  0.299730  0.660870  0.000000  1
  Rh  Rh7  1  0.011815  0.998095  0.500000  1
  Pb  Pb8  1  0.737022  0.746072  0.000000  1
