# generated using pymatgen
data_Y2Ho8TlIn7Pd4
_symmetry_space_group_name_H-M   'P 1'
_cell_length_a   3.61598300
_cell_length_b   8.15968950
_cell_length_c   18.26358111
_cell_angle_alpha   89.96002684
_cell_angle_beta   90.00000000
_cell_angle_gamma   90.00000000
_symmetry_Int_Tables_number   1
_chemical_formula_structural   Y2Ho8TlIn7Pd4
_chemical_formula_sum   'Y2 Ho8 Tl1 In7 Pd4'
_cell_volume   538.87228130
_cell_formula_units_Z   1
loop_
 _symmetry_equiv_pos_site_id
 _symmetry_equiv_pos_as_xyz
  1  'x, y, z'
loop_
 _atom_site_type_symbol
 _atom_site_label
 _atom_site_symmetry_multiplicity
 _atom_site_fract_x
 _atom_site_fract_y
 _atom_site_fract_z
 _atom_site_occupancy
  Y  Y0  1  0.000000  0.500047  0.499945  1
  Y  Y1  1  0.000000  0.001226  0.000231  1
  Ho  Ho2  1  0.000000  0.739526  0.280825  1
  Ho  Ho3  1  0.000000  0.260857  0.719126  1
  Ho  Ho4  1  0.000000  0.760818  0.780473  1
  Ho  Ho5  1  0.000000  0.239198  0.219359  1
  Ho  Ho6  1  0.000000  0.616620  0.084381  1
  Ho  Ho7  1  0.000000  0.382144  0.916225  1
  Ho  Ho8  1  0.000000  0.882676  0.583575  1
  Ho  Ho9  1  0.000000  0.117208  0.416401  1
  Tl  Tl10  1  0.500000  0.708143  0.932825  1
  In  In11  1  0.500000  0.292122  0.067788  1
  In  In12  1  0.500000  0.792270  0.432210  1
  In  In13  1  0.500000  0.207631  0.567749  1
  In  In14  1  0.500000  0.580888  0.650406  1
  In  In15  1  0.500000  0.419245  0.349578  1
  In  In16  1  0.500000  0.919447  0.150409  1
  In  In17  1  0.500000  0.082212  0.849249  1
  Pd  Pd18  1  0.500000  0.522928  0.195966  1
  Pd  Pd19  1  0.500000  0.475155  0.803245  1
  Pd  Pd20  1  0.500000  0.976759  0.695973  1
  Pd  Pd21  1  0.500000  0.022880  0.304060  1
