# generated using pymatgen
data_Er10In8Ir2PdPt
_symmetry_space_group_name_H-M   'P 1'
_cell_length_a   3.59794200
_cell_length_b   8.09739565
_cell_length_c   18.17875636
_cell_angle_alpha   90.04302728
_cell_angle_beta   90.00000000
_cell_angle_gamma   90.00000000
_symmetry_Int_Tables_number   1
_chemical_formula_structural   Er10In8Ir2PdPt
_chemical_formula_sum   'Er10 In8 Ir2 Pd1 Pt1'
_cell_volume   529.61900940
_cell_formula_units_Z   1
loop_
 _symmetry_equiv_pos_site_id
 _symmetry_equiv_pos_as_xyz
  1  'x, y, z'
loop_
 _atom_site_type_symbol
 _atom_site_label
 _atom_site_symmetry_multiplicity
 _atom_site_fract_x
 _atom_site_fract_y
 _atom_site_fract_z
 _atom_site_occupancy
  Er  Er0  1  0.000000  0.500050  0.500330  1
  Er  Er1  1  0.000000  0.999780  0.999844  1
  Er  Er2  1  0.000000  0.728021  0.277485  1
  Er  Er3  1  0.000000  0.268314  0.722430  1
  Er  Er4  1  0.000000  0.750692  0.778930  1
  Er  Er5  1  0.000000  0.252822  0.220126  1
  Er  Er6  1  0.000000  0.613798  0.087052  1
  Er  Er7  1  0.000000  0.386375  0.912549  1
  Er  Er8  1  0.000000  0.885509  0.585763  1
  Er  Er9  1  0.000000  0.115221  0.415345  1
  In  In10  1  0.500000  0.709540  0.932251  1
  In  In11  1  0.500000  0.290355  0.067774  1
  In  In12  1  0.500000  0.790368  0.432212  1
  In  In13  1  0.500000  0.209852  0.567106  1
  In  In14  1  0.500000  0.577525  0.648296  1
  In  In15  1  0.500000  0.420979  0.351879  1
  In  In16  1  0.500000  0.922607  0.149551  1
  In  In17  1  0.500000  0.077865  0.851006  1
  Ir  Ir18  1  0.500000  0.519436  0.195748  1
  Ir  Ir19  1  0.500000  0.480822  0.804159  1
  Pd  Pd20  1  0.500000  0.019188  0.303974  1
  Pt  Pt21  1  0.500000  0.980881  0.696192  1
