# generated using pymatgen
data_Mg2Zn3Pd
_symmetry_space_group_name_H-M   'P 1'
_cell_length_a   5.25673344
_cell_length_b   5.25673323
_cell_length_c   5.25673337
_cell_angle_alpha   58.82918078
_cell_angle_beta   58.82918082
_cell_angle_gamma   58.82917933
_symmetry_Int_Tables_number   1
_chemical_formula_structural   Mg2Zn3Pd
_chemical_formula_sum   'Mg2 Zn3 Pd1'
_cell_volume   99.96884086
_cell_formula_units_Z   1
loop_
 _symmetry_equiv_pos_site_id
 _symmetry_equiv_pos_as_xyz
  1  'x, y, z'
loop_
 _atom_site_type_symbol
 _atom_site_label
 _atom_site_symmetry_multiplicity
 _atom_site_fract_x
 _atom_site_fract_y
 _atom_site_fract_z
 _atom_site_occupancy
  Mg  Mg0  1  0.752059  0.752059  0.752059  1
  Mg  Mg1  1  0.497941  0.497941  0.497941  1
  Zn  Zn2  1  0.625000  0.125000  0.125000  1
  Zn  Zn3  1  0.125000  0.125000  0.625000  1
  Zn  Zn4  1  0.125000  0.625000  0.125000  1
  Pd  Pd5  1  0.125000  0.125000  0.125000  1
