# generated using pymatgen
data_Tb8Be(Si4Au)3
_symmetry_space_group_name_H-M   'P 1'
_cell_length_a   8.14202100
_cell_length_b   8.14202086
_cell_length_c   8.21597400
_cell_angle_alpha   90.00000000
_cell_angle_beta   90.00000000
_cell_angle_gamma   120.00001274
_symmetry_Int_Tables_number   1
_chemical_formula_structural   Tb8Be(Si4Au)3
_chemical_formula_sum   'Tb8 Be1 Si12 Au3'
_cell_volume   471.68716753
_cell_formula_units_Z   1
loop_
 _symmetry_equiv_pos_site_id
 _symmetry_equiv_pos_as_xyz
  1  'x, y, z'
loop_
 _atom_site_type_symbol
 _atom_site_label
 _atom_site_symmetry_multiplicity
 _atom_site_fract_x
 _atom_site_fract_y
 _atom_site_fract_z
 _atom_site_occupancy
  Tb  Tb0  1  0.497505  0.995008  0.244676  1
  Tb  Tb1  1  0.496945  0.993891  0.755278  1
  Tb  Tb2  1  0.004992  0.502495  0.244676  1
  Tb  Tb3  1  0.006109  0.503055  0.755278  1
  Tb  Tb4  1  0.497505  0.502495  0.244676  1
  Tb  Tb5  1  0.496945  0.503055  0.755278  1
  Tb  Tb6  1  0.000000  0.000000  0.246837  1
  Tb  Tb7  1  0.000000  0.000000  0.754008  1
  Be  Be8  1  0.333333  0.666667  0.998806  1
  Si  Si9  1  0.174617  0.349234  0.999652  1
  Si  Si10  1  0.838023  0.676047  0.001446  1
  Si  Si11  1  0.650766  0.825383  0.999652  1
  Si  Si12  1  0.835747  0.671494  0.501769  1
  Si  Si13  1  0.323953  0.161977  0.001446  1
  Si  Si14  1  0.163188  0.326377  0.498260  1
  Si  Si15  1  0.174617  0.825383  0.999652  1
  Si  Si16  1  0.328506  0.164253  0.501769  1
  Si  Si17  1  0.838023  0.161977  0.001446  1
  Si  Si18  1  0.673623  0.836812  0.498260  1
  Si  Si19  1  0.835747  0.164253  0.501769  1
  Si  Si20  1  0.163188  0.836812  0.498260  1
  Au  Au21  1  0.666667  0.333333  0.997030  1
  Au  Au22  1  0.666667  0.333333  0.499887  1
  Au  Au23  1  0.333333  0.666667  0.500187  1
