# generated using pymatgen
data_Ce5Mo3P12(Ir3Ru)4
_symmetry_space_group_name_H-M   'P 1'
_cell_length_a   12.73714700
_cell_length_b   12.73714736
_cell_length_c   3.98615800
_cell_angle_alpha   90.00000000
_cell_angle_beta   90.00000000
_cell_angle_gamma   120.00000166
_symmetry_Int_Tables_number   1
_chemical_formula_structural   Ce5Mo3P12(Ir3Ru)4
_chemical_formula_sum   'Ce5 Mo3 P12 Ir12 Ru4'
_cell_volume   560.05343813
_cell_formula_units_Z   1
loop_
 _symmetry_equiv_pos_site_id
 _symmetry_equiv_pos_as_xyz
  1  'x, y, z'
loop_
 _atom_site_type_symbol
 _atom_site_label
 _atom_site_symmetry_multiplicity
 _atom_site_fract_x
 _atom_site_fract_y
 _atom_site_fract_z
 _atom_site_occupancy
  Ce  Ce0  1  0.186424  0.185978  0.500000  1
  Ce  Ce1  1  0.814022  0.000445  0.500000  1
  Ce  Ce2  1  0.999555  0.813576  0.500000  1
  Ce  Ce3  1  0.333333  0.666667  0.000000  1
  Ce  Ce4  1  0.666667  0.333333  0.000000  1
  Mo  Mo5  1  0.548197  0.550092  0.000000  1
  Mo  Mo6  1  0.449908  0.998105  0.000000  1
  Mo  Mo7  1  0.001895  0.451803  0.000000  1
  P  P8  1  0.821782  0.819213  0.000000  1
  P  P9  1  0.180787  0.002569  0.000000  1
  P  P10  1  0.997431  0.178218  0.000000  1
  P  P11  1  0.167139  0.481135  0.500000  1
  P  P12  1  0.518865  0.686004  0.500000  1
  P  P13  1  0.313996  0.832861  0.500000  1
  P  P14  1  0.689488  0.520957  0.500000  1
  P  P15  1  0.831469  0.310512  0.500000  1
  P  P16  1  0.479043  0.168531  0.500000  1
  P  P17  1  0.367733  0.362873  0.000000  1
  P  P18  1  0.637127  0.004860  0.000000  1
  P  P19  1  0.995140  0.632267  0.000000  1
  Ir  Ir20  1  0.715053  0.716862  0.500000  1
  Ir  Ir21  1  0.283138  0.998191  0.500000  1
  Ir  Ir22  1  0.001809  0.284947  0.500000  1
  Ir  Ir23  1  0.181432  0.376267  0.000000  1
  Ir  Ir24  1  0.623733  0.805165  0.000000  1
  Ir  Ir25  1  0.194835  0.818568  0.000000  1
  Ir  Ir26  1  0.359581  0.491435  0.500000  1
  Ir  Ir27  1  0.508565  0.868147  0.500000  1
  Ir  Ir28  1  0.131853  0.640419  0.500000  1
  Ir  Ir29  1  0.871112  0.508919  0.500000  1
  Ir  Ir30  1  0.637807  0.128888  0.500000  1
  Ir  Ir31  1  0.491081  0.362193  0.500000  1
  Ru  Ru32  1  0.800800  0.622229  0.000000  1
  Ru  Ru33  1  0.821428  0.199200  0.000000  1
  Ru  Ru34  1  0.377771  0.178572  0.000000  1
  Ru  Ru35  1  0.000000  0.000000  0.000000  1
