# generated using pymatgen
data_Dy4Y9Lu3(InRh)4
_symmetry_space_group_name_H-M   'P 1'
_cell_length_a   9.64267119
_cell_length_b   9.64302434
_cell_length_c   9.65104200
_cell_angle_alpha   59.99005827
_cell_angle_beta   59.98920219
_cell_angle_gamma   60.07307404
_symmetry_Int_Tables_number   1
_chemical_formula_structural   Dy4Y9Lu3(InRh)4
_chemical_formula_sum   'Dy4 Y9 Lu3 In4 Rh4'
_cell_volume   634.80586787
_cell_formula_units_Z   1
loop_
 _symmetry_equiv_pos_site_id
 _symmetry_equiv_pos_as_xyz
  1  'x, y, z'
loop_
 _atom_site_type_symbol
 _atom_site_label
 _atom_site_symmetry_multiplicity
 _atom_site_fract_x
 _atom_site_fract_y
 _atom_site_fract_z
 _atom_site_occupancy
  Dy  Dy0  1  0.145467  0.552814  0.149468  1
  Dy  Dy1  1  0.312160  0.688993  0.688489  1
  Dy  Dy2  1  0.688989  0.312167  0.688488  1
  Dy  Dy3  1  0.552812  0.145474  0.149465  1
  Y  Y4  1  0.936677  0.936692  0.561428  1
  Y  Y5  1  0.148743  0.148749  0.549778  1
  Y  Y6  1  0.562189  0.936718  0.559605  1
  Y  Y7  1  0.150583  0.150609  0.153142  1
  Y  Y8  1  0.310684  0.310651  0.689706  1
  Y  Y9  1  0.936755  0.562166  0.559595  1
  Y  Y10  1  0.557984  0.557978  0.943101  1
  Y  Y11  1  0.561773  0.934675  0.940639  1
  Y  Y12  1  0.934702  0.561757  0.940625  1
  Lu  Lu13  1  0.689806  0.312036  0.309979  1
  Lu  Lu14  1  0.688753  0.688737  0.311093  1
  Lu  Lu15  1  0.312042  0.689778  0.309997  1
  In  In16  1  0.918684  0.918606  0.247947  1
  In  In17  1  0.249320  0.919029  0.917125  1
  In  In18  1  0.919005  0.249314  0.917135  1
  In  In19  1  0.917187  0.917193  0.915814  1
  Rh  Rh20  1  0.361465  0.361519  0.351858  1
  Rh  Rh21  1  0.921295  0.362739  0.358322  1
  Rh  Rh22  1  0.360200  0.360311  0.928878  1
  Rh  Rh23  1  0.362723  0.921294  0.358321  1
