# generated using pymatgen
data_Y7HoTa8(TiSi4)4
_symmetry_space_group_name_H-M   'P 1'
_cell_length_a   7.05444214
_cell_length_b   7.05693701
_cell_length_c   12.99708325
_cell_angle_alpha   89.99245599
_cell_angle_beta   89.98206378
_cell_angle_gamma   89.99008412
_symmetry_Int_Tables_number   1
_chemical_formula_structural   Y7HoTa8(TiSi4)4
_chemical_formula_sum   'Y7 Ho1 Ta8 Ti4 Si16'
_cell_volume   647.03054922
_cell_formula_units_Z   1
loop_
 _symmetry_equiv_pos_site_id
 _symmetry_equiv_pos_as_xyz
  1  'x, y, z'
loop_
 _atom_site_type_symbol
 _atom_site_label
 _atom_site_symmetry_multiplicity
 _atom_site_fract_x
 _atom_site_fract_y
 _atom_site_fract_z
 _atom_site_occupancy
  Y  Y0  1  0.341969  0.002279  0.466685  1
  Y  Y1  1  0.497921  0.841321  0.717334  1
  Y  Y2  1  0.501752  0.157546  0.216784  1
  Y  Y3  1  0.841426  0.498901  0.283269  1
  Y  Y4  1  0.158082  0.502471  0.782772  1
  Y  Y5  1  0.658737  0.997002  0.967498  1
  Y  Y6  1  0.002345  0.341277  0.533101  1
  Ho  Ho7  1  0.997216  0.659422  0.032664  1
  Ta  Ta8  1  0.328544  0.329377  0.000088  1
  Ta  Ta9  1  0.173826  0.826041  0.249758  1
  Ta  Ta10  1  0.826908  0.174050  0.750213  1
  Ta  Ta11  1  0.671811  0.670713  0.500366  1
  Ta  Ta12  1  0.152129  0.007981  0.874872  1
  Ta  Ta13  1  0.491145  0.653177  0.124572  1
  Ta  Ta14  1  0.507690  0.347731  0.625267  1
  Ta  Ta15  1  0.652210  0.491804  0.875329  1
  Ti  Ti16  1  0.347535  0.507851  0.375000  1
  Ti  Ti17  1  0.846508  0.991782  0.374500  1
  Ti  Ti18  1  0.008180  0.152429  0.124434  1
  Ti  Ti19  1  0.990929  0.845400  0.625468  1
  Si  Si20  1  0.201889  0.131984  0.683015  1
  Si  Si21  1  0.365434  0.703888  0.932916  1
  Si  Si22  1  0.632595  0.297466  0.433679  1
  Si  Si23  1  0.704631  0.365672  0.067388  1
  Si  Si24  1  0.297206  0.634775  0.565614  1
  Si  Si25  1  0.799794  0.867888  0.184517  1
  Si  Si26  1  0.131807  0.200517  0.315357  1
  Si  Si27  1  0.866142  0.797962  0.816732  1
  Si  Si28  1  0.291933  0.954127  0.064673  1
  Si  Si29  1  0.547163  0.792924  0.314817  1
  Si  Si30  1  0.452987  0.205783  0.813805  1
  Si  Si31  1  0.795901  0.548137  0.685159  1
  Si  Si32  1  0.205347  0.452090  0.186315  1
  Si  Si33  1  0.710101  0.046018  0.563048  1
  Si  Si34  1  0.953768  0.294201  0.937249  1
  Si  Si35  1  0.046439  0.708011  0.435741  1
