# generated using pymatgen
data_YTm7Sb20
_symmetry_space_group_name_H-M   'P 1'
_cell_length_a   4.20574500
_cell_length_b   13.14518525
_cell_length_c   14.56102800
_cell_angle_alpha   78.41712068
_cell_angle_beta   90.00000000
_cell_angle_gamma   90.00000000
_symmetry_Int_Tables_number   1
_chemical_formula_structural   YTm7Sb20
_chemical_formula_sum   'Y1 Tm7 Sb20'
_cell_volume   788.61694979
_cell_formula_units_Z   1
loop_
 _symmetry_equiv_pos_site_id
 _symmetry_equiv_pos_as_xyz
  1  'x, y, z'
loop_
 _atom_site_type_symbol
 _atom_site_label
 _atom_site_symmetry_multiplicity
 _atom_site_fract_x
 _atom_site_fract_y
 _atom_site_fract_z
 _atom_site_occupancy
  Y  Y0  1  0.750000  0.046078  0.640491  1
  Tm  Tm1  1  0.250000  0.395163  0.770553  1
  Tm  Tm2  1  0.750000  0.605149  0.229513  1
  Tm  Tm3  1  0.250000  0.661790  0.856173  1
  Tm  Tm4  1  0.750000  0.337949  0.144112  1
  Tm  Tm5  1  0.250000  0.668965  0.576201  1
  Tm  Tm6  1  0.750000  0.330881  0.423617  1
  Tm  Tm7  1  0.250000  0.953850  0.359693  1
  Sb  Sb8  1  0.250000  0.144286  0.778818  1
  Sb  Sb9  1  0.750000  0.856686  0.221938  1
  Sb  Sb10  1  0.250000  0.144182  0.482196  1
  Sb  Sb11  1  0.750000  0.856017  0.516316  1
  Sb  Sb12  1  0.250000  0.152868  0.170246  1
  Sb  Sb13  1  0.750000  0.846612  0.829895  1
  Sb  Sb14  1  0.250000  0.420597  0.975711  1
  Sb  Sb15  1  0.750000  0.579266  0.024475  1
  Sb  Sb16  1  0.750000  0.029342  0.911497  1
  Sb  Sb17  1  0.250000  0.970592  0.088516  1
  Sb  Sb18  1  0.750000  0.139205  0.321946  1
  Sb  Sb19  1  0.250000  0.859280  0.678102  1
  Sb  Sb20  1  0.750000  0.278823  0.936701  1
  Sb  Sb21  1  0.250000  0.721167  0.063364  1
  Sb  Sb22  1  0.750000  0.285497  0.653079  1
  Sb  Sb23  1  0.250000  0.715536  0.346998  1
  Sb  Sb24  1  0.750000  0.576485  0.734389  1
  Sb  Sb25  1  0.250000  0.423593  0.265620  1
  Sb  Sb26  1  0.750000  0.572202  0.447282  1
  Sb  Sb27  1  0.250000  0.427937  0.552555  1
