# generated using pymatgen
data_Tb3CrMoP6Rh7
_symmetry_space_group_name_H-M   'P 1'
_cell_length_a   3.91956600
_cell_length_b   11.22388300
_cell_length_c   12.81447400
_cell_angle_alpha   90.00000000
_cell_angle_beta   90.00000000
_cell_angle_gamma   90.00000000
_symmetry_Int_Tables_number   1
_chemical_formula_structural   Tb3CrMoP6Rh7
_chemical_formula_sum   'Tb6 Cr2 Mo2 P12 Rh14'
_cell_volume   563.74395356
_cell_formula_units_Z   2
loop_
 _symmetry_equiv_pos_site_id
 _symmetry_equiv_pos_as_xyz
  1  'x, y, z'
loop_
 _atom_site_type_symbol
 _atom_site_label
 _atom_site_symmetry_multiplicity
 _atom_site_fract_x
 _atom_site_fract_y
 _atom_site_fract_z
 _atom_site_occupancy
  Tb  Tb0  1  0.000000  0.500000  0.519275  1
  Tb  Tb1  1  0.500000  0.000000  0.480725  1
  Tb  Tb2  1  0.500000  0.816537  0.200749  1
  Tb  Tb3  1  0.500000  0.183463  0.200749  1
  Tb  Tb4  1  0.000000  0.683463  0.799251  1
  Tb  Tb5  1  0.000000  0.316537  0.799251  1
  Cr  Cr6  1  0.000000  0.500000  0.987166  1
  Cr  Cr7  1  0.500000  0.000000  0.012834  1
  Mo  Mo8  1  0.500000  0.500000  0.156238  1
  Mo  Mo9  1  0.000000  0.000000  0.843762  1
  P  P10  1  0.500000  0.500000  0.877948  1
  P  P11  1  0.000000  0.000000  0.122052  1
  P  P12  1  0.500000  0.500000  0.343962  1
  P  P13  1  0.000000  0.000000  0.656038  1
  P  P14  1  0.500000  0.312173  0.617897  1
  P  P15  1  0.500000  0.687827  0.617897  1
  P  P16  1  0.000000  0.187827  0.382103  1
  P  P17  1  0.000000  0.812173  0.382103  1
  P  P18  1  0.500000  0.850961  0.892512  1
  P  P19  1  0.500000  0.149039  0.892512  1
  P  P20  1  0.000000  0.649039  0.107488  1
  P  P21  1  0.000000  0.350961  0.107488  1
  Rh  Rh22  1  0.500000  0.500000  0.694903  1
  Rh  Rh23  1  0.000000  0.000000  0.305097  1
  Rh  Rh24  1  0.500000  0.333413  0.987260  1
  Rh  Rh25  1  0.500000  0.666587  0.987260  1
  Rh  Rh26  1  0.000000  0.166587  0.012740  1
  Rh  Rh27  1  0.000000  0.833413  0.012740  1
  Rh  Rh28  1  0.500000  0.292494  0.430903  1
  Rh  Rh29  1  0.500000  0.707506  0.430903  1
  Rh  Rh30  1  0.000000  0.207506  0.569097  1
  Rh  Rh31  1  0.000000  0.792494  0.569097  1
  Rh  Rh32  1  0.500000  0.875602  0.709184  1
  Rh  Rh33  1  0.500000  0.124398  0.709184  1
  Rh  Rh34  1  0.000000  0.624398  0.290816  1
  Rh  Rh35  1  0.000000  0.375602  0.290816  1
