# generated using pymatgen
data_Tb4GePt3F28
_symmetry_space_group_name_H-M   'P 1'
_cell_length_a   5.53159827
_cell_length_b   8.88643847
_cell_length_c   11.95055260
_cell_angle_alpha   62.28644386
_cell_angle_beta   90.10337501
_cell_angle_gamma   90.04286829
_symmetry_Int_Tables_number   1
_chemical_formula_structural   Tb4GePt3F28
_chemical_formula_sum   'Tb4 Ge1 Pt3 F28'
_cell_volume   520.05356450
_cell_formula_units_Z   1
loop_
 _symmetry_equiv_pos_site_id
 _symmetry_equiv_pos_as_xyz
  1  'x, y, z'
loop_
 _atom_site_type_symbol
 _atom_site_label
 _atom_site_symmetry_multiplicity
 _atom_site_fract_x
 _atom_site_fract_y
 _atom_site_fract_z
 _atom_site_occupancy
  Tb  Tb0  1  0.259867  0.812638  0.261024  1
  Tb  Tb1  1  0.738912  0.183038  0.738127  1
  Tb  Tb2  1  0.761056  0.189191  0.234548  1
  Tb  Tb3  1  0.237849  0.811898  0.768118  1
  Ge  Ge4  1  0.758613  0.725602  0.043628  1
  Pt  Pt5  1  0.242493  0.272300  0.958075  1
  Pt  Pt6  1  0.258978  0.272923  0.456862  1
  Pt  Pt7  1  0.740123  0.726533  0.543575  1
  F  F8  1  0.931060  0.703438  0.413547  1
  F  F9  1  0.065786  0.296442  0.585509  1
  F  F10  1  0.434973  0.298392  0.086148  1
  F  F11  1  0.561735  0.709190  0.926977  1
  F  F12  1  0.495637  0.730064  0.135133  1
  F  F13  1  0.539961  0.269755  0.869692  1
  F  F14  1  0.964035  0.276748  0.363499  1
  F  F15  1  0.035397  0.723772  0.636635  1
  F  F16  1  0.952606  0.742906  0.162900  1
  F  F17  1  0.054649  0.254803  0.824853  1
  F  F18  1  0.446749  0.258094  0.322650  1
  F  F19  1  0.554204  0.742625  0.678507  1
  F  F20  1  0.772504  0.494365  0.134598  1
  F  F21  1  0.232444  0.521199  0.861609  1
  F  F22  1  0.271718  0.521924  0.355940  1
  F  F23  1  0.725273  0.477158  0.642858  1
  F  F24  1  0.938846  0.283172  0.040063  1
  F  F25  1  0.033846  0.719196  0.958400  1
  F  F26  1  0.438166  0.720544  0.457622  1
  F  F27  1  0.561279  0.278415  0.542158  1
  F  F28  1  0.743720  0.975936  0.449849  1
  F  F29  1  0.258879  0.023767  0.551080  1
  F  F30  1  0.241928  0.023044  0.048325  1
  F  F31  1  0.760256  0.957659  0.952539  1
  F  F32  1  0.585333  0.971726  0.230198  1
  F  F33  1  0.406417  0.032337  0.770599  1
  F  F34  1  0.085598  0.030693  0.265702  1
  F  F35  1  0.909109  0.968512  0.728453  1
