# generated using pymatgen
data_Pr3Nd2Sn10(IrRh)2
_symmetry_space_group_name_H-M   'P 1'
_cell_length_a   14.23314600
_cell_length_b   14.23706800
_cell_length_c   4.66713200
_cell_angle_alpha   90.00000000
_cell_angle_beta   90.00000000
_cell_angle_gamma   90.00000000
_symmetry_Int_Tables_number   1
_chemical_formula_structural   Pr3Nd2Sn10(IrRh)2
_chemical_formula_sum   'Pr6 Nd4 Sn20 Ir4 Rh4'
_cell_volume   945.73954247
_cell_formula_units_Z   2
loop_
 _symmetry_equiv_pos_site_id
 _symmetry_equiv_pos_as_xyz
  1  'x, y, z'
loop_
 _atom_site_type_symbol
 _atom_site_label
 _atom_site_symmetry_multiplicity
 _atom_site_fract_x
 _atom_site_fract_y
 _atom_site_fract_z
 _atom_site_occupancy
  Pr  Pr0  1  0.500000  0.500000  0.000000  1
  Pr  Pr1  1  0.000000  0.000000  0.000000  1
  Pr  Pr2  1  0.888236  0.386607  0.500000  1
  Pr  Pr3  1  0.111764  0.613393  0.500000  1
  Pr  Pr4  1  0.388236  0.113393  0.500000  1
  Pr  Pr5  1  0.611764  0.886607  0.500000  1
  Nd  Nd6  1  0.677487  0.178896  0.500000  1
  Nd  Nd7  1  0.322513  0.821104  0.500000  1
  Nd  Nd8  1  0.177487  0.321104  0.500000  1
  Nd  Nd9  1  0.822513  0.678896  0.500000  1
  Sn  Sn10  1  0.570283  0.069160  0.000000  1
  Sn  Sn11  1  0.429717  0.930840  0.000000  1
  Sn  Sn12  1  0.070283  0.430840  0.000000  1
  Sn  Sn13  1  0.929717  0.569160  0.000000  1
  Sn  Sn14  1  0.654493  0.698640  0.000000  1
  Sn  Sn15  1  0.345507  0.301360  0.000000  1
  Sn  Sn16  1  0.154493  0.801360  0.000000  1
  Sn  Sn17  1  0.845507  0.198640  0.000000  1
  Sn  Sn18  1  0.301571  0.653585  0.000000  1
  Sn  Sn19  1  0.698429  0.346415  0.000000  1
  Sn  Sn20  1  0.198429  0.153585  0.000000  1
  Sn  Sn21  1  0.801571  0.846415  0.000000  1
  Sn  Sn22  1  0.664241  0.504469  0.500000  1
  Sn  Sn23  1  0.335759  0.495531  0.500000  1
  Sn  Sn24  1  0.164241  0.995531  0.500000  1
  Sn  Sn25  1  0.835759  0.004469  0.500000  1
  Sn  Sn26  1  0.494951  0.662618  0.500000  1
  Sn  Sn27  1  0.505049  0.337382  0.500000  1
  Sn  Sn28  1  0.005049  0.162618  0.500000  1
  Sn  Sn29  1  0.994951  0.837382  0.500000  1
  Ir  Ir30  1  0.471007  0.746673  0.000000  1
  Ir  Ir31  1  0.528993  0.253327  0.000000  1
  Ir  Ir32  1  0.028993  0.246673  0.000000  1
  Ir  Ir33  1  0.971007  0.753327  0.000000  1
  Rh  Rh34  1  0.745378  0.528347  0.000000  1
  Rh  Rh35  1  0.254622  0.471653  0.000000  1
  Rh  Rh36  1  0.245378  0.971653  0.000000  1
  Rh  Rh37  1  0.754622  0.028347  0.000000  1
