# generated using pymatgen
data_Si(S4Cl)4
_symmetry_space_group_name_H-M   'P 1'
_cell_length_a   15.95043157
_cell_length_b   12.97232604
_cell_length_c   12.63747697
_cell_angle_alpha   77.03318181
_cell_angle_beta   52.42456447
_cell_angle_gamma   50.54225471
_symmetry_Int_Tables_number   1
_chemical_formula_structural   Si(S4Cl)4
_chemical_formula_sum   'Si2 S32 Cl8'
_cell_volume   1542.18243880
_cell_formula_units_Z   2
loop_
 _symmetry_equiv_pos_site_id
 _symmetry_equiv_pos_as_xyz
  1  'x, y, z'
loop_
 _atom_site_type_symbol
 _atom_site_label
 _atom_site_symmetry_multiplicity
 _atom_site_fract_x
 _atom_site_fract_y
 _atom_site_fract_z
 _atom_site_occupancy
  Si  Si0  1  0.247104  0.252896  0.252896  1
  Si  Si1  1  0.997104  0.002896  0.002896  1
  S  S2  1  0.524200  0.469047  0.260841  1
  S  S3  1  0.321772  0.878155  0.163910  1
  S  S4  1  0.745912  0.260841  0.469047  1
  S  S5  1  0.809121  0.531643  0.329080  1
  S  S6  1  0.636162  0.163910  0.878155  1
  S  S7  1  0.178931  0.311481  0.649610  1
  S  S8  1  0.595987  0.925702  0.588676  1
  S  S9  1  0.326232  0.815753  0.326996  1
  S  S10  1  0.636035  0.649486  0.339393  1
  S  S11  1  0.330156  0.329080  0.531643  1
  S  S12  1  0.718357  0.440879  0.919844  1
  S  S13  1  0.780953  0.725800  0.504088  1
  S  S14  1  0.324298  0.654013  0.360365  1
  S  S15  1  0.910607  0.874914  0.613965  1
  S  S16  1  0.600390  0.390024  0.071069  1
  S  S17  1  0.889635  0.588676  0.925702  1
  S  S18  1  0.264054  0.543851  0.729541  1
  S  S19  1  0.706149  0.985946  0.787446  1
  S  S20  1  0.434247  0.923768  0.718980  1
  S  S21  1  0.371845  0.928228  0.613838  1
  S  S22  1  0.375086  0.339393  0.649486  1
  S  S23  1  0.938519  0.071069  0.390024  1
  S  S24  1  0.086090  0.613838  0.928228  1
  S  S25  1  0.531020  0.326996  0.815753  1
  S  S26  1  0.520459  0.787446  0.985946  1
  S  S27  1  0.920920  0.919844  0.440879  1
  S  S28  1  0.661324  0.360365  0.654013  1
  S  S29  1  0.859976  0.649610  0.311481  1
  S  S30  1  0.923004  0.718980  0.923768  1
  S  S31  1  0.600514  0.613965  0.874914  1
  S  S32  1  0.462554  0.729541  0.543851  1
  S  S33  1  0.989159  0.504088  0.725800  1
  Cl  Cl34  1  0.168526  0.831003  0.981910  1
  Cl  Cl35  1  0.972982  0.172117  0.027506  1
  Cl  Cl36  1  0.018560  0.981910  0.831003  1
  Cl  Cl37  1  0.827395  0.027506  0.172117  1
  Cl  Cl38  1  0.418997  0.081474  0.231440  1
  Cl  Cl39  1  0.268090  0.231440  0.081474  1
  Cl  Cl40  1  0.222494  0.422605  0.277018  1
  Cl  Cl41  1  0.077883  0.277018  0.422605  1
