# generated using pymatgen
data_Ho6MgCo14(NiP4)3
_symmetry_space_group_name_H-M   'P 1'
_cell_length_a   3.71950100
_cell_length_b   10.55808800
_cell_length_c   12.25192900
_cell_angle_alpha   90.00000000
_cell_angle_beta   90.00000000
_cell_angle_gamma   90.00000000
_symmetry_Int_Tables_number   1
_chemical_formula_structural   Ho6MgCo14(NiP4)3
_chemical_formula_sum   'Ho6 Mg1 Co14 Ni3 P12'
_cell_volume   481.14328462
_cell_formula_units_Z   1
loop_
 _symmetry_equiv_pos_site_id
 _symmetry_equiv_pos_as_xyz
  1  'x, y, z'
loop_
 _atom_site_type_symbol
 _atom_site_label
 _atom_site_symmetry_multiplicity
 _atom_site_fract_x
 _atom_site_fract_y
 _atom_site_fract_z
 _atom_site_occupancy
  Ho  Ho0  1  0.000000  0.500000  0.523489  1
  Ho  Ho1  1  0.500000  0.000000  0.478440  1
  Ho  Ho2  1  0.500000  0.818891  0.206862  1
  Ho  Ho3  1  0.500000  0.181109  0.206862  1
  Ho  Ho4  1  0.000000  0.683678  0.795583  1
  Ho  Ho5  1  0.000000  0.316322  0.795583  1
  Mg  Mg6  1  0.500000  0.500000  0.153719  1
  Co  Co7  1  0.000000  0.500000  0.987077  1
  Co  Co8  1  0.500000  0.000000  0.013688  1
  Co  Co9  1  0.500000  0.296088  0.433567  1
  Co  Co10  1  0.500000  0.703912  0.433567  1
  Co  Co11  1  0.000000  0.201553  0.570482  1
  Co  Co12  1  0.000000  0.798447  0.570482  1
  Co  Co13  1  0.500000  0.879399  0.708853  1
  Co  Co14  1  0.500000  0.120601  0.708853  1
  Co  Co15  1  0.000000  0.623544  0.292832  1
  Co  Co16  1  0.000000  0.376456  0.292832  1
  Co  Co17  1  0.500000  0.329823  0.993129  1
  Co  Co18  1  0.500000  0.670177  0.993129  1
  Co  Co19  1  0.000000  0.163212  0.001185  1
  Co  Co20  1  0.000000  0.836788  0.001185  1
  Ni  Ni21  1  0.000000  0.000000  0.836152  1
  Ni  Ni22  1  0.500000  0.500000  0.703716  1
  Ni  Ni23  1  0.000000  0.000000  0.296988  1
  P  P24  1  0.500000  0.309772  0.616660  1
  P  P25  1  0.500000  0.690228  0.616660  1
  P  P26  1  0.000000  0.190087  0.386113  1
  P  P27  1  0.000000  0.809913  0.386113  1
  P  P28  1  0.500000  0.500000  0.883625  1
  P  P29  1  0.000000  0.000000  0.116224  1
  P  P30  1  0.500000  0.848610  0.891224  1
  P  P31  1  0.500000  0.151390  0.891224  1
  P  P32  1  0.000000  0.662852  0.103358  1
  P  P33  1  0.000000  0.337148  0.103358  1
  P  P34  1  0.500000  0.500000  0.354088  1
  P  P35  1  0.000000  0.000000  0.653101  1
