# generated using pymatgen
data_Dy3YInPt
_symmetry_space_group_name_H-M   'P 1'
_cell_length_a   9.73460496
_cell_length_b   9.73627850
_cell_length_c   9.73627809
_cell_angle_alpha   59.98863858
_cell_angle_beta   60.00568872
_cell_angle_gamma   60.00568478
_symmetry_Int_Tables_number   1
_chemical_formula_structural   Dy3YInPt
_chemical_formula_sum   'Dy12 Y4 In4 Pt4'
_cell_volume   652.51320754
_cell_formula_units_Z   4
loop_
 _symmetry_equiv_pos_site_id
 _symmetry_equiv_pos_as_xyz
  1  'x, y, z'
loop_
 _atom_site_type_symbol
 _atom_site_label
 _atom_site_symmetry_multiplicity
 _atom_site_fract_x
 _atom_site_fract_y
 _atom_site_fract_z
 _atom_site_occupancy
  Dy  Dy0  1  0.350546  0.350886  0.350886  1
  Dy  Dy1  1  0.350886  0.350546  0.947681  1
  Dy  Dy2  1  0.350886  0.947681  0.350546  1
  Dy  Dy3  1  0.947681  0.350886  0.350886  1
  Dy  Dy4  1  0.810443  0.189557  0.189557  1
  Dy  Dy5  1  0.189557  0.810443  0.810443  1
  Dy  Dy6  1  0.189485  0.810515  0.189485  1
  Dy  Dy7  1  0.810515  0.189485  0.810515  1
  Dy  Dy8  1  0.189485  0.189485  0.810515  1
  Dy  Dy9  1  0.810515  0.810515  0.189485  1
  Dy  Dy10  1  0.938578  0.561422  0.561422  1
  Dy  Dy11  1  0.561422  0.938578  0.938578  1
  Y  Y12  1  0.561697  0.938303  0.561697  1
  Y  Y13  1  0.938303  0.561697  0.938303  1
  Y  Y14  1  0.561697  0.561697  0.938303  1
  Y  Y15  1  0.938303  0.938303  0.561697  1
  In  In16  1  0.583224  0.583232  0.583232  1
  In  In17  1  0.583232  0.583224  0.250314  1
  In  In18  1  0.583232  0.250314  0.583224  1
  In  In19  1  0.250314  0.583232  0.583232  1
  Pt  Pt20  1  0.142916  0.143088  0.143088  1
  Pt  Pt21  1  0.143088  0.142916  0.570909  1
  Pt  Pt22  1  0.143088  0.570909  0.142916  1
  Pt  Pt23  1  0.570909  0.143088  0.143088  1
