# generated using pymatgen
data_VRe5As14
_symmetry_space_group_name_H-M   'P 1'
_cell_length_a   7.63478670
_cell_length_b   7.63489829
_cell_length_c   7.63478633
_cell_angle_alpha   109.21147304
_cell_angle_beta   109.99228948
_cell_angle_gamma   109.21148303
_symmetry_Int_Tables_number   1
_chemical_formula_structural   VRe5As14
_chemical_formula_sum   'V1 Re5 As14'
_cell_volume   342.56774180
_cell_formula_units_Z   1
loop_
 _symmetry_equiv_pos_site_id
 _symmetry_equiv_pos_as_xyz
  1  'x, y, z'
loop_
 _atom_site_type_symbol
 _atom_site_label
 _atom_site_symmetry_multiplicity
 _atom_site_fract_x
 _atom_site_fract_y
 _atom_site_fract_z
 _atom_site_occupancy
  V  V0  1  0.340949  0.999997  0.340949  1
  Re  Re1  1  0.000936  0.339939  0.340882  1
  Re  Re2  1  0.000938  0.660070  0.661016  1
  Re  Re3  1  0.340882  0.339939  0.000936  1
  Re  Re4  1  0.661016  0.660070  0.000938  1
  Re  Re5  1  0.661580  0.999999  0.661580  1
  As  As6  1  0.750670  0.500002  0.250671  1
  As  As7  1  0.495389  0.751169  0.246559  1
  As  As8  1  0.495391  0.248825  0.744213  1
  As  As9  1  0.744213  0.248825  0.495391  1
  As  As10  1  0.246559  0.751169  0.495389  1
  As  As11  1  0.250671  0.500002  0.750670  1
  As  As12  1  0.006103  0.000001  0.331814  1
  As  As13  1  0.667712  0.999998  0.999772  1
  As  As14  1  0.006102  0.674286  0.006102  1
  As  As15  1  0.331811  0.325707  0.331811  1
  As  As16  1  0.999778  0.332063  0.999778  1
  As  As17  1  0.667713  0.667938  0.667713  1
  As  As18  1  0.331814  0.000001  0.006103  1
  As  As19  1  0.999772  0.999998  0.667712  1
