# generated using pymatgen
data_NdDy2Y(NiAs)4
_symmetry_space_group_name_H-M   'P 1'
_cell_length_a   4.06902900
_cell_length_b   4.06902833
_cell_length_c   15.78424400
_cell_angle_alpha   90.00000000
_cell_angle_beta   90.00000000
_cell_angle_gamma   119.99999730
_symmetry_Int_Tables_number   1
_chemical_formula_structural   NdDy2Y(NiAs)4
_chemical_formula_sum   'Nd1 Dy2 Y1 Ni4 As4'
_cell_volume   226.32677141
_cell_formula_units_Z   1
loop_
 _symmetry_equiv_pos_site_id
 _symmetry_equiv_pos_as_xyz
  1  'x, y, z'
loop_
 _atom_site_type_symbol
 _atom_site_label
 _atom_site_symmetry_multiplicity
 _atom_site_fract_x
 _atom_site_fract_y
 _atom_site_fract_z
 _atom_site_occupancy
  Nd  Nd0  1  0.000000  0.000000  0.500000  1
  Dy  Dy1  1  0.000000  0.000000  0.246811  1
  Dy  Dy2  1  0.000000  0.000000  0.753189  1
  Y  Y3  1  0.000000  0.000000  0.000000  1
  Ni  Ni4  1  0.333333  0.666667  0.131895  1
  Ni  Ni5  1  0.666667  0.333333  0.868105  1
  Ni  Ni6  1  0.666667  0.333333  0.638151  1
  Ni  Ni7  1  0.333333  0.666667  0.361849  1
  As  As8  1  0.333333  0.666667  0.627332  1
  As  As9  1  0.666667  0.333333  0.372668  1
  As  As10  1  0.666667  0.333333  0.119924  1
  As  As11  1  0.333333  0.666667  0.880076  1
