# generated using pymatgen
data_Lu3ZnIn3CuPt
_symmetry_space_group_name_H-M   'P 1'
_cell_length_a   7.60737500
_cell_length_b   7.60737561
_cell_length_c   3.76911100
_cell_angle_alpha   90.00000000
_cell_angle_beta   90.00000000
_cell_angle_gamma   119.99999300
_symmetry_Int_Tables_number   1
_chemical_formula_structural   Lu3ZnIn3CuPt
_chemical_formula_sum   'Lu3 Zn1 In3 Cu1 Pt1'
_cell_volume   188.90318257
_cell_formula_units_Z   1
loop_
 _symmetry_equiv_pos_site_id
 _symmetry_equiv_pos_as_xyz
  1  'x, y, z'
loop_
 _atom_site_type_symbol
 _atom_site_label
 _atom_site_symmetry_multiplicity
 _atom_site_fract_x
 _atom_site_fract_y
 _atom_site_fract_z
 _atom_site_occupancy
  Lu  Lu0  1  0.020768  0.608421  0.500000  1
  Lu  Lu1  1  0.587654  0.979232  0.500000  1
  Lu  Lu2  1  0.391579  0.412346  0.500000  1
  Zn  Zn3  1  0.666667  0.333333  0.000000  1
  In  In4  1  0.988211  0.251306  0.000000  1
  In  In5  1  0.263095  0.011789  0.000000  1
  In  In6  1  0.748694  0.736905  0.000000  1
  Cu  Cu7  1  0.000000  0.000000  0.500000  1
  Pt  Pt8  1  0.333333  0.666667  0.000000  1
