# generated using pymatgen
data_Ti2BeNbAlPtC
_symmetry_space_group_name_H-M   'P 1'
_cell_length_a   8.08397175
_cell_length_b   8.06736217
_cell_length_c   8.08560700
_cell_angle_alpha   60.06121782
_cell_angle_beta   59.85743704
_cell_angle_gamma   60.08096796
_symmetry_Int_Tables_number   1
_chemical_formula_structural   Ti2BeNbAlPtC
_chemical_formula_sum   'Ti8 Be4 Nb4 Al4 Pt4 C4'
_cell_volume   372.86248404
_cell_formula_units_Z   4
loop_
 _symmetry_equiv_pos_site_id
 _symmetry_equiv_pos_as_xyz
  1  'x, y, z'
loop_
 _atom_site_type_symbol
 _atom_site_label
 _atom_site_symmetry_multiplicity
 _atom_site_fract_x
 _atom_site_fract_y
 _atom_site_fract_z
 _atom_site_occupancy
  Ti  Ti0  1  0.688135  0.312588  0.689290  1
  Ti  Ti1  1  0.314201  0.680166  0.313925  1
  Ti  Ti2  1  0.562983  0.938163  0.561303  1
  Ti  Ti3  1  0.561013  0.941378  0.938257  1
  Ti  Ti4  1  0.943895  0.551546  0.561734  1
  Ti  Ti5  1  0.941761  0.554498  0.940333  1
  Ti  Ti6  1  0.309270  0.311870  0.689941  1
  Ti  Ti7  1  0.562308  0.552006  0.942521  1
  Be  Be8  1  0.916734  0.250996  0.917353  1
  Be  Be9  1  0.332788  0.332931  0.001984  1
  Be  Be10  1  0.003131  0.331710  0.333609  1
  Be  Be11  1  0.330751  0.334677  0.331776  1
  Nb  Nb12  1  0.937533  0.938799  0.562026  1
  Nb  Nb13  1  0.686198  0.315320  0.312684  1
  Nb  Nb14  1  0.316007  0.679579  0.688731  1
  Nb  Nb15  1  0.689955  0.680442  0.314723  1
  Al  Al16  1  0.252755  0.918005  0.914266  1
  Al  Al17  1  0.915592  0.917484  0.916786  1
  Al  Al18  1  0.915209  0.917671  0.250344  1
  Al  Al19  1  0.328725  0.011275  0.329265  1
  Pt  Pt20  1  0.130691  0.610785  0.129903  1
  Pt  Pt21  1  0.120147  0.140879  0.621560  1
  Pt  Pt22  1  0.620378  0.140249  0.119062  1
  Pt  Pt23  1  0.121536  0.139865  0.117353  1
  C  C24  1  0.616955  0.129340  0.630272  1
  C  C25  1  0.624255  0.629993  0.114253  1
  C  C26  1  0.124227  0.616864  0.625336  1
  C  C27  1  0.632867  0.620920  0.631406  1
