# generated using pymatgen
data_NaCuSb12OsRu2
_symmetry_space_group_name_H-M   'P 1'
_cell_length_a   8.18129017
_cell_length_b   8.14293362
_cell_length_c   8.13879308
_cell_angle_alpha   109.34621959
_cell_angle_beta   109.53243433
_cell_angle_gamma   109.55027956
_symmetry_Int_Tables_number   1
_chemical_formula_structural   NaCuSb12OsRu2
_chemical_formula_sum   'Na1 Cu1 Sb12 Os1 Ru2'
_cell_volume   417.30891384
_cell_formula_units_Z   1
loop_
 _symmetry_equiv_pos_site_id
 _symmetry_equiv_pos_as_xyz
  1  'x, y, z'
loop_
 _atom_site_type_symbol
 _atom_site_label
 _atom_site_symmetry_multiplicity
 _atom_site_fract_x
 _atom_site_fract_y
 _atom_site_fract_z
 _atom_site_occupancy
  Na  Na0  1  0.000000  0.000000  0.000000  1
  Cu  Cu1  1  0.500000  0.000000  0.000000  1
  Sb  Sb2  1  0.660078  0.811394  0.158622  1
  Sb  Sb3  1  0.847981  0.347559  0.190450  1
  Sb  Sb4  1  0.501036  0.841590  0.652463  1
  Sb  Sb5  1  0.840831  0.663019  0.505658  1
  Sb  Sb6  1  0.498964  0.158410  0.347537  1
  Sb  Sb7  1  0.152019  0.652441  0.809550  1
  Sb  Sb8  1  0.820696  0.156403  0.661473  1
  Sb  Sb9  1  0.179304  0.843597  0.338527  1
  Sb  Sb10  1  0.159169  0.336981  0.494342  1
  Sb  Sb11  1  0.662969  0.504822  0.842279  1
  Sb  Sb12  1  0.337031  0.495178  0.157721  1
  Sb  Sb13  1  0.339922  0.188606  0.841378  1
  Os  Os14  1  0.000000  0.500000  0.000000  1
  Ru  Ru15  1  0.000000  0.000000  0.500000  1
  Ru  Ru16  1  0.500000  0.500000  0.500000  1
