# generated using pymatgen
data_Na5Cu(ReH9)3
_symmetry_space_group_name_H-M   'P 1'
_cell_length_a   8.88160704
_cell_length_b   8.81566366
_cell_length_c   5.20297200
_cell_angle_alpha   90.00000000
_cell_angle_beta   90.00000000
_cell_angle_gamma   119.75469838
_symmetry_Int_Tables_number   1
_chemical_formula_structural   Na5Cu(ReH9)3
_chemical_formula_sum   'Na5 Cu1 Re3 H27'
_cell_volume   353.66891272
_cell_formula_units_Z   1
loop_
 _symmetry_equiv_pos_site_id
 _symmetry_equiv_pos_as_xyz
  1  'x, y, z'
loop_
 _atom_site_type_symbol
 _atom_site_label
 _atom_site_symmetry_multiplicity
 _atom_site_fract_x
 _atom_site_fract_y
 _atom_site_fract_z
 _atom_site_occupancy
  Na  Na0  1  0.744281  0.749405  0.500000  1
  Na  Na1  1  0.255719  0.005123  0.500000  1
  Na  Na2  1  0.000000  0.620176  0.000000  1
  Na  Na3  1  0.342898  0.393067  0.000000  1
  Na  Na4  1  0.657102  0.050169  0.000000  1
  Cu  Cu5  1  0.000000  0.443493  0.500000  1
  Re  Re6  1  0.669251  0.324926  0.500000  1
  Re  Re7  1  0.330749  0.655675  0.500000  1
  Re  Re8  1  0.000000  0.987919  0.000000  1
  H  H9  1  0.821354  0.322555  0.715669  1
  H  H10  1  0.669283  0.430732  0.769585  1
  H  H11  1  0.514848  0.189783  0.712090  1
  H  H12  1  0.178646  0.501202  0.284331  1
  H  H13  1  0.514848  0.189783  0.287910  1
  H  H14  1  0.821354  0.322555  0.284331  1
  H  H15  1  0.669283  0.430732  0.230415  1
  H  H16  1  0.330717  0.761449  0.769585  1
  H  H17  1  0.485152  0.674936  0.712090  1
  H  H18  1  0.194704  0.996539  0.000000  1
  H  H19  1  0.805296  0.801835  0.000000  1
  H  H20  1  0.000000  0.177621  0.000000  1
  H  H21  1  0.871531  0.999081  0.233139  1
  H  H22  1  0.128469  0.127550  0.766861  1
  H  H23  1  0.000000  0.849484  0.765792  1
  H  H24  1  0.000000  0.849484  0.234208  1
  H  H25  1  0.128469  0.127550  0.233139  1
  H  H26  1  0.871531  0.999081  0.766861  1
  H  H27  1  0.161451  0.698737  0.500000  1
  H  H28  1  0.489331  0.866252  0.500000  1
  H  H29  1  0.346282  0.473797  0.500000  1
  H  H30  1  0.510669  0.376921  0.500000  1
  H  H31  1  0.838549  0.537286  0.500000  1
  H  H32  1  0.653718  0.127516  0.500000  1
  H  H33  1  0.178646  0.501202  0.715669  1
  H  H34  1  0.330717  0.761449  0.230415  1
  H  H35  1  0.485152  0.674936  0.287910  1
