# generated using pymatgen
data_RbNa3(Ga2Se3)2
_symmetry_space_group_name_H-M   'P 1'
_cell_length_a   7.12630133
_cell_length_b   7.12630068
_cell_length_c   8.88783402
_cell_angle_alpha   82.29282540
_cell_angle_beta   82.29282319
_cell_angle_gamma   120.10158387
_symmetry_Int_Tables_number   1
_chemical_formula_structural   RbNa3(Ga2Se3)2
_chemical_formula_sum   'Rb1 Na3 Ga4 Se6'
_cell_volume   376.13616078
_cell_formula_units_Z   1
loop_
 _symmetry_equiv_pos_site_id
 _symmetry_equiv_pos_as_xyz
  1  'x, y, z'
loop_
 _atom_site_type_symbol
 _atom_site_label
 _atom_site_symmetry_multiplicity
 _atom_site_fract_x
 _atom_site_fract_y
 _atom_site_fract_z
 _atom_site_occupancy
  Rb  Rb0  1  0.500000  0.500000  0.500000  1
  Na  Na1  1  0.663513  0.336487  0.000000  1
  Na  Na2  1  0.336487  0.663513  0.000000  1
  Na  Na3  1  0.000000  0.000000  0.000000  1
  Ga  Ga4  1  0.881359  0.214403  0.354728  1
  Ga  Ga5  1  0.785597  0.118641  0.645272  1
  Ga  Ga6  1  0.214403  0.881359  0.354728  1
  Ga  Ga7  1  0.118641  0.785597  0.645272  1
  Se  Se8  1  0.411521  0.045558  0.768275  1
  Se  Se9  1  0.045558  0.411521  0.768275  1
  Se  Se10  1  0.954442  0.588479  0.231725  1
  Se  Se11  1  0.774869  0.774869  0.771125  1
  Se  Se12  1  0.588479  0.954442  0.231725  1
  Se  Se13  1  0.225131  0.225131  0.228875  1
