# generated using pymatgen
data_Er16TmLu3Pb16
_symmetry_space_group_name_H-M   'P 1'
_cell_length_a   8.13776400
_cell_length_b   8.20577800
_cell_length_c   15.51268400
_cell_angle_alpha   90.00000000
_cell_angle_beta   90.00000000
_cell_angle_gamma   90.00014023
_symmetry_Int_Tables_number   1
_chemical_formula_structural   Er16TmLu3Pb16
_chemical_formula_sum   'Er16 Tm1 Lu3 Pb16'
_cell_volume   1035.88560987
_cell_formula_units_Z   1
loop_
 _symmetry_equiv_pos_site_id
 _symmetry_equiv_pos_as_xyz
  1  'x, y, z'
loop_
 _atom_site_type_symbol
 _atom_site_label
 _atom_site_symmetry_multiplicity
 _atom_site_fract_x
 _atom_site_fract_y
 _atom_site_fract_z
 _atom_site_occupancy
  Er  Er0  1  0.377306  0.841187  0.878916  1
  Er  Er1  1  0.877275  0.658810  0.621066  1
  Er  Er2  1  0.622780  0.158857  0.378918  1
  Er  Er3  1  0.122651  0.341228  0.121083  1
  Er  Er4  1  0.622780  0.158857  0.121082  1
  Er  Er5  1  0.122651  0.341228  0.378917  1
  Er  Er6  1  0.377306  0.841187  0.621084  1
  Er  Er7  1  0.877275  0.658810  0.878934  1
  Er  Er8  1  0.537114  0.323497  0.900196  1
  Er  Er9  1  0.037103  0.176517  0.599811  1
  Er  Er10  1  0.462894  0.676480  0.400172  1
  Er  Er11  1  0.962856  0.823462  0.099806  1
  Er  Er12  1  0.462894  0.676480  0.099828  1
  Er  Er13  1  0.962856  0.823462  0.400194  1
  Er  Er14  1  0.537114  0.323497  0.599804  1
  Er  Er15  1  0.037103  0.176517  0.900189  1
  Tm  Tm16  1  0.291344  0.004256  0.250000  1
  Lu  Lu17  1  0.208700  0.504284  0.750000  1
  Lu  Lu18  1  0.708698  0.995686  0.750000  1
  Lu  Lu19  1  0.791297  0.495660  0.250000  1
  Pb  Pb20  1  0.280719  0.032571  0.042685  1
  Pb  Pb21  1  0.780741  0.467426  0.457260  1
  Pb  Pb22  1  0.719267  0.967424  0.542755  1
  Pb  Pb23  1  0.219292  0.532586  0.957247  1
  Pb  Pb24  1  0.719267  0.967424  0.957245  1
  Pb  Pb25  1  0.219292  0.532586  0.542753  1
  Pb  Pb26  1  0.280719  0.032571  0.457315  1
  Pb  Pb27  1  0.780741  0.467426  0.042740  1
  Pb  Pb28  1  0.571451  0.626544  0.750000  1
  Pb  Pb29  1  0.071478  0.873472  0.750000  1
  Pb  Pb30  1  0.428553  0.373531  0.250000  1
  Pb  Pb31  1  0.928420  0.126591  0.250000  1
  Pb  Pb32  1  0.349016  0.154818  0.750000  1
  Pb  Pb33  1  0.849072  0.345193  0.750000  1
  Pb  Pb34  1  0.650981  0.845209  0.250000  1
  Pb  Pb35  1  0.150992  0.654668  0.250000  1
