# generated using pymatgen
data_Y2Si7Rh12
_symmetry_space_group_name_H-M   'P 1'
_cell_length_a   9.74835900
_cell_length_b   9.74835865
_cell_length_c   3.86516900
_cell_angle_alpha   90.00000000
_cell_angle_beta   90.00000000
_cell_angle_gamma   119.99999101
_symmetry_Int_Tables_number   1
_chemical_formula_structural   Y2Si7Rh12
_chemical_formula_sum   'Y2 Si7 Rh12'
_cell_volume   318.09890343
_cell_formula_units_Z   1
loop_
 _symmetry_equiv_pos_site_id
 _symmetry_equiv_pos_as_xyz
  1  'x, y, z'
loop_
 _atom_site_type_symbol
 _atom_site_label
 _atom_site_symmetry_multiplicity
 _atom_site_fract_x
 _atom_site_fract_y
 _atom_site_fract_z
 _atom_site_occupancy
  Y  Y0  1  0.333333  0.666667  0.749177  1
  Y  Y1  1  0.666667  0.333333  0.250823  1
  Si  Si2  1  0.000000  0.000000  0.500000  1
  Si  Si3  1  0.400106  0.289659  0.751326  1
  Si  Si4  1  0.710341  0.110447  0.751326  1
  Si  Si5  1  0.889553  0.599894  0.751326  1
  Si  Si6  1  0.599894  0.710341  0.248674  1
  Si  Si7  1  0.289659  0.889553  0.248674  1
  Si  Si8  1  0.110447  0.400106  0.248674  1
  Rh  Rh9  1  0.443881  0.063053  0.751544  1
  Rh  Rh10  1  0.936947  0.380828  0.751544  1
  Rh  Rh11  1  0.619172  0.556119  0.751544  1
  Rh  Rh12  1  0.556119  0.936947  0.248456  1
  Rh  Rh13  1  0.063053  0.619172  0.248456  1
  Rh  Rh14  1  0.380828  0.443881  0.248456  1
  Rh  Rh15  1  0.143323  0.262038  0.744767  1
  Rh  Rh16  1  0.737962  0.881285  0.744767  1
  Rh  Rh17  1  0.118715  0.856677  0.744767  1
  Rh  Rh18  1  0.856677  0.737962  0.255233  1
  Rh  Rh19  1  0.262038  0.118715  0.255233  1
  Rh  Rh20  1  0.881285  0.143323  0.255233  1
