# generated using pymatgen
data_Th4TcPd3
_symmetry_space_group_name_H-M   'P 1'
_cell_length_a   7.25455397
_cell_length_b   4.61377600
_cell_length_c   5.80945595
_cell_angle_alpha   90.00000000
_cell_angle_beta   91.52186343
_cell_angle_gamma   90.00000000
_symmetry_Int_Tables_number   1
_chemical_formula_structural   Th4TcPd3
_chemical_formula_sum   'Th4 Tc1 Pd3'
_cell_volume   194.37905482
_cell_formula_units_Z   1
loop_
 _symmetry_equiv_pos_site_id
 _symmetry_equiv_pos_as_xyz
  1  'x, y, z'
loop_
 _atom_site_type_symbol
 _atom_site_label
 _atom_site_symmetry_multiplicity
 _atom_site_fract_x
 _atom_site_fract_y
 _atom_site_fract_z
 _atom_site_occupancy
  Th  Th0  1  0.176834  0.250001  0.133268  1
  Th  Th1  1  0.827610  0.750000  0.847812  1
  Th  Th2  1  0.685946  0.250001  0.363455  1
  Th  Th3  1  0.308304  0.750000  0.639291  1
  Tc  Tc4  1  0.051661  0.250001  0.676839  1
  Pd  Pd5  1  0.947153  0.750000  0.340569  1
  Pd  Pd6  1  0.541904  0.250001  0.847565  1
  Pd  Pd7  1  0.460587  0.750000  0.151203  1
