# generated using pymatgen
data_Ac2(MoO4)3
_symmetry_space_group_name_H-M   'P 1'
_cell_length_a   7.30918919
_cell_length_b   7.30918913
_cell_length_c   12.42617538
_cell_angle_alpha   80.31430946
_cell_angle_beta   80.31431008
_cell_angle_gamma   115.15719879
_symmetry_Int_Tables_number   1
_chemical_formula_structural   Ac2(MoO4)3
_chemical_formula_sum   'Ac4 Mo6 O24'
_cell_volume   570.53652709
_cell_formula_units_Z   2
loop_
 _symmetry_equiv_pos_site_id
 _symmetry_equiv_pos_as_xyz
  1  'x, y, z'
loop_
 _atom_site_type_symbol
 _atom_site_label
 _atom_site_symmetry_multiplicity
 _atom_site_fract_x
 _atom_site_fract_y
 _atom_site_fract_z
 _atom_site_occupancy
  Ac  Ac0  1  0.206353  0.453992  0.591191  1
  Ac  Ac1  1  0.546008  0.793647  0.908809  1
  Ac  Ac2  1  0.453992  0.206353  0.091191  1
  Ac  Ac3  1  0.793647  0.546008  0.408809  1
  Mo  Mo4  1  0.710044  0.962133  0.575049  1
  Mo  Mo5  1  0.037867  0.289956  0.924951  1
  Mo  Mo6  1  0.374714  0.625286  0.250000  1
  Mo  Mo7  1  0.289956  0.037867  0.424951  1
  Mo  Mo8  1  0.625286  0.374714  0.750000  1
  Mo  Mo9  1  0.962133  0.710044  0.075049  1
  O  O10  1  0.074331  0.462626  0.793504  1
  O  O11  1  0.417274  0.823373  0.123028  1
  O  O12  1  0.718585  0.161875  0.466094  1
  O  O13  1  0.537374  0.925669  0.706496  1
  O  O14  1  0.838125  0.281415  0.033906  1
  O  O15  1  0.176627  0.582726  0.376972  1
  O  O16  1  0.697690  0.617420  0.784719  1
  O  O17  1  0.065945  0.963398  0.101404  1
  O  O18  1  0.384825  0.295289  0.458132  1
  O  O19  1  0.382580  0.302310  0.715281  1
  O  O20  1  0.704711  0.615175  0.041868  1
  O  O21  1  0.036602  0.934055  0.398596  1
  O  O22  1  0.582726  0.176627  0.876972  1
  O  O23  1  0.925669  0.537374  0.206496  1
  O  O24  1  0.281415  0.838125  0.533906  1
  O  O25  1  0.161875  0.718585  0.966094  1
  O  O26  1  0.462626  0.074331  0.293504  1
  O  O27  1  0.823373  0.417274  0.623028  1
  O  O28  1  0.934055  0.036602  0.898596  1
  O  O29  1  0.302310  0.382580  0.215281  1
  O  O30  1  0.615175  0.704711  0.541868  1
  O  O31  1  0.295289  0.384825  0.958132  1
  O  O32  1  0.617420  0.697690  0.284719  1
  O  O33  1  0.963398  0.065945  0.601404  1
