# generated using pymatgen
data_Li2Ho3TiIr3
_symmetry_space_group_name_H-M   'P 1'
_cell_length_a   7.16686562
_cell_length_b   7.16686573
_cell_length_c   3.97123800
_cell_angle_alpha   90.00000000
_cell_angle_beta   90.00000000
_cell_angle_gamma   120.71416715
_symmetry_Int_Tables_number   1
_chemical_formula_structural   Li2Ho3TiIr3
_chemical_formula_sum   'Li2 Ho3 Ti1 Ir3'
_cell_volume   175.36564193
_cell_formula_units_Z   1
loop_
 _symmetry_equiv_pos_site_id
 _symmetry_equiv_pos_as_xyz
  1  'x, y, z'
loop_
 _atom_site_type_symbol
 _atom_site_label
 _atom_site_symmetry_multiplicity
 _atom_site_fract_x
 _atom_site_fract_y
 _atom_site_fract_z
 _atom_site_occupancy
  Li  Li0  1  0.242100  0.996180  0.000000  1
  Li  Li1  1  0.996180  0.242100  0.000000  1
  Ho  Ho2  1  0.396757  0.396757  0.500000  1
  Ho  Ho3  1  0.587143  0.008503  0.500000  1
  Ho  Ho4  1  0.008503  0.587143  0.500000  1
  Ti  Ti5  1  0.757340  0.757340  0.000000  1
  Ir  Ir6  1  0.676194  0.364890  0.000000  1
  Ir  Ir7  1  0.364890  0.676194  0.000000  1
  Ir  Ir8  1  0.970894  0.970894  0.500000  1
