# generated using pymatgen
data_Ce5TcB6Ru
_symmetry_space_group_name_H-M   'P 1'
_cell_length_a   5.47505688
_cell_length_b   5.47505699
_cell_length_c   8.48609388
_cell_angle_alpha   71.18037774
_cell_angle_beta   71.18037901
_cell_angle_gamma   60.00000073
_symmetry_Int_Tables_number   1
_chemical_formula_structural   Ce5TcB6Ru
_chemical_formula_sum   'Ce5 Tc1 B6 Ru1'
_cell_volume   204.44654941
_cell_formula_units_Z   1
loop_
 _symmetry_equiv_pos_site_id
 _symmetry_equiv_pos_as_xyz
  1  'x, y, z'
loop_
 _atom_site_type_symbol
 _atom_site_label
 _atom_site_symmetry_multiplicity
 _atom_site_fract_x
 _atom_site_fract_y
 _atom_site_fract_z
 _atom_site_occupancy
  Ce  Ce0  1  0.001999  0.001999  0.994003  1
  Ce  Ce1  1  0.746523  0.746523  0.760431  1
  Ce  Ce2  1  0.253448  0.253448  0.239656  1
  Ce  Ce3  1  0.586808  0.586808  0.239575  1
  Ce  Ce4  1  0.413710  0.413710  0.758872  1
  Tc  Tc5  1  0.107957  0.107957  0.676127  1
  B  B6  1  0.499697  0.170795  0.500598  1
  B  B7  1  0.828909  0.499697  0.500598  1
  B  B8  1  0.170795  0.828909  0.500598  1
  B  B9  1  0.170795  0.499697  0.500598  1
  B  B10  1  0.828909  0.170795  0.500598  1
  B  B11  1  0.499697  0.828909  0.500598  1
  Ru  Ru12  1  0.890751  0.890751  0.327748  1
