# generated using pymatgen
data_Zr6Zn22SiAu
_symmetry_space_group_name_H-M   'P 1'
_cell_length_a   8.79981446
_cell_length_b   8.79981493
_cell_length_c   8.79981500
_cell_angle_alpha   60.00000349
_cell_angle_beta   60.00000172
_cell_angle_gamma   60.00000074
_symmetry_Int_Tables_number   1
_chemical_formula_structural   Zr6Zn22SiAu
_chemical_formula_sum   'Zr6 Zn22 Si1 Au1'
_cell_volume   481.84307010
_cell_formula_units_Z   1
loop_
 _symmetry_equiv_pos_site_id
 _symmetry_equiv_pos_as_xyz
  1  'x, y, z'
loop_
 _atom_site_type_symbol
 _atom_site_label
 _atom_site_symmetry_multiplicity
 _atom_site_fract_x
 _atom_site_fract_y
 _atom_site_fract_z
 _atom_site_occupancy
  Zr  Zr0  1  0.710381  0.289619  0.289619  1
  Zr  Zr1  1  0.289619  0.710381  0.710381  1
  Zr  Zr2  1  0.289619  0.710381  0.289619  1
  Zr  Zr3  1  0.710381  0.289619  0.710381  1
  Zr  Zr4  1  0.289619  0.289619  0.710381  1
  Zr  Zr5  1  0.710381  0.710381  0.289619  1
  Zn  Zn6  1  0.124759  0.124759  0.124759  1
  Zn  Zn7  1  0.875241  0.875241  0.875241  1
  Zn  Zn8  1  0.124759  0.124759  0.625724  1
  Zn  Zn9  1  0.124759  0.625724  0.124759  1
  Zn  Zn10  1  0.875241  0.875241  0.374276  1
  Zn  Zn11  1  0.875241  0.374276  0.875241  1
  Zn  Zn12  1  0.625724  0.124759  0.124759  1
  Zn  Zn13  1  0.374276  0.875241  0.875241  1
  Zn  Zn14  1  0.500000  0.000000  0.000000  1
  Zn  Zn15  1  0.000000  0.500000  0.500000  1
  Zn  Zn16  1  0.000000  0.500000  0.000000  1
  Zn  Zn17  1  0.500000  0.000000  0.500000  1
  Zn  Zn18  1  0.000000  0.000000  0.500000  1
  Zn  Zn19  1  0.500000  0.500000  0.000000  1
  Zn  Zn20  1  0.336436  0.336436  0.336436  1
  Zn  Zn21  1  0.663564  0.663564  0.663564  1
  Zn  Zn22  1  0.336436  0.336436  0.990691  1
  Zn  Zn23  1  0.336436  0.990691  0.336436  1
  Zn  Zn24  1  0.663564  0.663564  0.009309  1
  Zn  Zn25  1  0.663564  0.009309  0.663564  1
  Zn  Zn26  1  0.990691  0.336436  0.336436  1
  Zn  Zn27  1  0.009309  0.663564  0.663564  1
  Si  Si28  1  0.500000  0.500000  0.500000  1
  Au  Au29  1  0.000000  0.000000  0.000000  1
