# generated using pymatgen
data_Tm4Lu8Co5Hg
_symmetry_space_group_name_H-M   'P 1'
_cell_length_a   8.08400641
_cell_length_b   8.08400646
_cell_length_c   8.08400520
_cell_angle_alpha   110.93906916
_cell_angle_beta   110.71583676
_cell_angle_gamma   106.79160962
_symmetry_Int_Tables_number   1
_chemical_formula_structural   Tm4Lu8Co5Hg
_chemical_formula_sum   'Tm4 Lu8 Co5 Hg1'
_cell_volume   406.02004473
_cell_formula_units_Z   1
loop_
 _symmetry_equiv_pos_site_id
 _symmetry_equiv_pos_as_xyz
  1  'x, y, z'
loop_
 _atom_site_type_symbol
 _atom_site_label
 _atom_site_symmetry_multiplicity
 _atom_site_fract_x
 _atom_site_fract_y
 _atom_site_fract_z
 _atom_site_occupancy
  Tm  Tm0  1  0.215305  0.408032  0.192727  1
  Tm  Tm1  1  0.784695  0.591968  0.807273  1
  Tm  Tm2  1  0.215305  0.022578  0.807273  1
  Tm  Tm3  1  0.784695  0.977422  0.192727  1
  Lu  Lu4  1  0.286873  0.184484  0.471357  1
  Lu  Lu5  1  0.713127  0.815516  0.528643  1
  Lu  Lu6  1  0.286873  0.815516  0.102388  1
  Lu  Lu7  1  0.713127  0.184484  0.897612  1
  Lu  Lu8  1  0.618761  0.314656  0.304104  1
  Lu  Lu9  1  0.381239  0.685344  0.695896  1
  Lu  Lu10  1  0.010553  0.314656  0.695896  1
  Lu  Lu11  1  0.989447  0.685344  0.304104  1
  Co  Co12  1  0.000000  0.375860  0.375860  1
  Co  Co13  1  0.000000  0.624140  0.624140  1
  Co  Co14  1  0.385968  0.885968  0.500000  1
  Co  Co15  1  0.614032  0.114032  0.500000  1
  Co  Co16  1  0.000000  0.000000  0.000000  1
  Hg  Hg17  1  0.500000  0.500000  0.000000  1
