# generated using pymatgen
data_CsErBeS3
_symmetry_space_group_name_H-M   'P 1'
_cell_length_a   8.01873770
_cell_length_b   8.01873730
_cell_length_c   10.36046200
_cell_angle_alpha   90.00000000
_cell_angle_beta   90.00000000
_cell_angle_gamma   151.94432672
_symmetry_Int_Tables_number   1
_chemical_formula_structural   CsErBeS3
_chemical_formula_sum   'Cs2 Er2 Be2 S6'
_cell_volume   313.32362089
_cell_formula_units_Z   2
loop_
 _symmetry_equiv_pos_site_id
 _symmetry_equiv_pos_as_xyz
  1  'x, y, z'
loop_
 _atom_site_type_symbol
 _atom_site_label
 _atom_site_symmetry_multiplicity
 _atom_site_fract_x
 _atom_site_fract_y
 _atom_site_fract_z
 _atom_site_occupancy
  Cs  Cs0  1  0.760648  0.239354  0.250000  1
  Cs  Cs1  1  0.239354  0.760648  0.750000  1
  Er  Er2  1  0.500001  0.500001  0.000000  1
  Er  Er3  1  0.500001  0.500001  0.500000  1
  Be  Be4  1  0.039027  0.960975  0.250000  1
  Be  Be5  1  0.960975  0.039027  0.750000  1
  S  S6  1  0.108916  0.891086  0.077981  1
  S  S7  1  0.454661  0.545341  0.250000  1
  S  S8  1  0.108916  0.891086  0.422019  1
  S  S9  1  0.891086  0.108916  0.577980  1
  S  S10  1  0.545341  0.454661  0.750000  1
  S  S11  1  0.891086  0.108916  0.922019  1
