# generated using pymatgen
data_Ba6Lu2Ti4O17
_symmetry_space_group_name_H-M   'P 1'
_cell_length_a   5.93157300
_cell_length_b   5.93156937
_cell_length_c   29.77330200
_cell_angle_alpha   90.00000000
_cell_angle_beta   90.00000000
_cell_angle_gamma   120.00001466
_symmetry_Int_Tables_number   1
_chemical_formula_structural   Ba6Lu2Ti4O17
_chemical_formula_sum   'Ba12 Lu4 Ti8 O34'
_cell_volume   907.18751290
_cell_formula_units_Z   2
loop_
 _symmetry_equiv_pos_site_id
 _symmetry_equiv_pos_as_xyz
  1  'x, y, z'
loop_
 _atom_site_type_symbol
 _atom_site_label
 _atom_site_symmetry_multiplicity
 _atom_site_fract_x
 _atom_site_fract_y
 _atom_site_fract_z
 _atom_site_occupancy
  Ba  Ba0  1  0.000000  0.000000  0.000000  1
  Ba  Ba1  1  0.666646  0.333290  0.089956  1
  Ba  Ba2  1  0.333379  0.666758  0.183030  1
  Ba  Ba3  1  0.000088  0.000177  0.250000  1
  Ba  Ba4  1  0.333379  0.666758  0.316970  1
  Ba  Ba5  1  0.666646  0.333290  0.410044  1
  Ba  Ba6  1  0.000000  0.000000  0.500000  1
  Ba  Ba7  1  0.333355  0.666710  0.589956  1
  Ba  Ba8  1  0.666621  0.333240  0.683030  1
  Ba  Ba9  1  0.999912  0.999823  0.750000  1
  Ba  Ba10  1  0.666621  0.333240  0.816970  1
  Ba  Ba11  1  0.333355  0.666710  0.910044  1
  Lu  Lu12  1  0.000007  0.000014  0.127257  1
  Lu  Lu13  1  0.000007  0.000014  0.372743  1
  Lu  Lu14  1  0.999993  0.999986  0.627257  1
  Lu  Lu15  1  0.999993  0.999986  0.872743  1
  Ti  Ti16  1  0.333248  0.666497  0.055981  1
  Ti  Ti17  1  0.666732  0.333463  0.203638  1
  Ti  Ti18  1  0.666732  0.333463  0.296362  1
  Ti  Ti19  1  0.333248  0.666497  0.444019  1
  Ti  Ti20  1  0.666753  0.333503  0.555981  1
  Ti  Ti21  1  0.333269  0.666537  0.703638  1
  Ti  Ti22  1  0.333269  0.666537  0.796362  1
  Ti  Ti23  1  0.666753  0.333503  0.944019  1
  O  O24  1  0.666707  0.333413  0.003649  1
  O  O25  1  0.166533  0.833244  0.079079  1
  O  O26  1  0.666713  0.833244  0.079079  1
  O  O27  1  0.166501  0.333003  0.079032  1
  O  O28  1  0.347459  0.173867  0.168989  1
  O  O29  1  0.826407  0.173867  0.168989  1
  O  O30  1  0.826376  0.652750  0.169005  1
  O  O31  1  0.517900  0.035799  0.250000  1
  O  O32  1  0.517897  0.482350  0.250000  1
  O  O33  1  0.964453  0.482350  0.250000  1
  O  O34  1  0.826376  0.652750  0.330995  1
  O  O35  1  0.347459  0.173867  0.331010  1
  O  O36  1  0.826407  0.173867  0.331010  1
  O  O37  1  0.166501  0.333003  0.420968  1
  O  O38  1  0.166533  0.833244  0.420922  1
  O  O39  1  0.666713  0.833244  0.420922  1
  O  O40  1  0.666707  0.333413  0.496351  1
  O  O41  1  0.333293  0.666587  0.503649  1
  O  O42  1  0.333288  0.166756  0.579079  1
  O  O43  1  0.833468  0.166756  0.579079  1
  O  O44  1  0.833500  0.666998  0.579032  1
  O  O45  1  0.173592  0.826134  0.668989  1
  O  O46  1  0.652541  0.826134  0.668989  1
  O  O47  1  0.173625  0.347250  0.669005  1
  O  O48  1  0.035545  0.517648  0.750000  1
  O  O49  1  0.482103  0.517648  0.750000  1
  O  O50  1  0.482100  0.964201  0.750000  1
  O  O51  1  0.173625  0.347250  0.830995  1
  O  O52  1  0.173592  0.826134  0.831010  1
  O  O53  1  0.652541  0.826134  0.831010  1
  O  O54  1  0.833500  0.666998  0.920968  1
  O  O55  1  0.333288  0.166756  0.920921  1
  O  O56  1  0.833468  0.166756  0.920921  1
  O  O57  1  0.333293  0.666587  0.996351  1
