# generated using pymatgen
data_Eu3P6IrRh5
_symmetry_space_group_name_H-M   'P 1'
_cell_length_a   6.71028195
_cell_length_b   6.69574255
_cell_length_c   7.08289320
_cell_angle_alpha   90.07875235
_cell_angle_beta   89.86180477
_cell_angle_gamma   120.08984397
_symmetry_Int_Tables_number   1
_chemical_formula_structural   Eu3P6IrRh5
_chemical_formula_sum   'Eu3 P6 Ir1 Rh5'
_cell_volume   275.35037857
_cell_formula_units_Z   1
loop_
 _symmetry_equiv_pos_site_id
 _symmetry_equiv_pos_as_xyz
  1  'x, y, z'
loop_
 _atom_site_type_symbol
 _atom_site_label
 _atom_site_symmetry_multiplicity
 _atom_site_fract_x
 _atom_site_fract_y
 _atom_site_fract_z
 _atom_site_occupancy
  Eu  Eu0  1  0.394753  0.395674  0.499943  1
  Eu  Eu1  1  0.605304  0.000994  0.166704  1
  Eu  Eu2  1  0.000097  0.604856  0.833272  1
  P  P3  1  0.886819  0.224742  0.543174  1
  P  P4  1  0.225804  0.886189  0.456861  1
  P  P5  1  0.113265  0.338067  0.123583  1
  P  P6  1  0.774156  0.660092  0.209812  1
  P  P7  1  0.337852  0.113507  0.876057  1
  P  P8  1  0.662046  0.775744  0.790578  1
  Ir  Ir9  1  0.000138  0.130732  0.833395  1
  Rh  Rh10  1  0.869271  0.868357  0.499201  1
  Rh  Rh11  1  0.130631  0.999103  0.167404  1
  Rh  Rh12  1  0.480759  0.481453  0.000391  1
  Rh  Rh13  1  0.999928  0.519897  0.333298  1
  Rh  Rh14  1  0.519178  0.000594  0.666328  1
