# generated using pymatgen
data_Th3Sb4IrPt2
_symmetry_space_group_name_H-M   'P 1'
_cell_length_a   8.59646200
_cell_length_b   8.59646238
_cell_length_c   8.59646238
_cell_angle_alpha   109.53155165
_cell_angle_beta   109.35063382
_cell_angle_gamma   109.53154851
_symmetry_Int_Tables_number   1
_chemical_formula_structural   Th3Sb4IrPt2
_chemical_formula_sum   'Th6 Sb8 Ir2 Pt4'
_cell_volume   489.03047338
_cell_formula_units_Z   2
loop_
 _symmetry_equiv_pos_site_id
 _symmetry_equiv_pos_as_xyz
  1  'x, y, z'
loop_
 _atom_site_type_symbol
 _atom_site_label
 _atom_site_symmetry_multiplicity
 _atom_site_fract_x
 _atom_site_fract_y
 _atom_site_fract_z
 _atom_site_occupancy
  Th  Th0  1  0.875000  0.250000  0.125000  1
  Th  Th1  1  0.625000  0.750000  0.375000  1
  Th  Th2  1  0.250000  0.123631  0.873631  1
  Th  Th3  1  0.750000  0.376369  0.626369  1
  Th  Th4  1  0.126369  0.876369  0.250000  1
  Th  Th5  1  0.373631  0.623631  0.750000  1
  Sb  Sb6  1  0.670518  0.496748  0.997338  1
  Sb  Sb7  1  0.500591  0.003252  0.673769  1
  Sb  Sb8  1  0.999409  0.673178  0.502662  1
  Sb  Sb9  1  0.829482  0.826822  0.826231  1
  Sb  Sb10  1  0.497338  0.996748  0.170518  1
  Sb  Sb11  1  0.173769  0.503252  0.000591  1
  Sb  Sb12  1  0.002662  0.173178  0.499409  1
  Sb  Sb13  1  0.326231  0.326822  0.329482  1
  Ir  Ir14  1  0.375000  0.250000  0.625000  1
  Ir  Ir15  1  0.125000  0.750000  0.875000  1
  Pt  Pt16  1  0.250000  0.624891  0.374891  1
  Pt  Pt17  1  0.750000  0.875109  0.125109  1
  Pt  Pt18  1  0.625109  0.375109  0.250000  1
  Pt  Pt19  1  0.874891  0.124891  0.750000  1
