# generated using pymatgen
data_Sm4Al24ZnPd8
_symmetry_space_group_name_H-M   'P 1'
_cell_length_a   7.58511971
_cell_length_b   7.60602345
_cell_length_c   13.21224500
_cell_angle_alpha   84.45931448
_cell_angle_beta   78.93256076
_cell_angle_gamma   59.91231109
_symmetry_Int_Tables_number   1
_chemical_formula_structural   Sm4Al24ZnPd8
_chemical_formula_sum   'Sm4 Al24 Zn1 Pd8'
_cell_volume   647.27643093
_cell_formula_units_Z   1
loop_
 _symmetry_equiv_pos_site_id
 _symmetry_equiv_pos_as_xyz
  1  'x, y, z'
loop_
 _atom_site_type_symbol
 _atom_site_label
 _atom_site_symmetry_multiplicity
 _atom_site_fract_x
 _atom_site_fract_y
 _atom_site_fract_z
 _atom_site_occupancy
  Sm  Sm0  1  0.389505  0.172145  0.808125  1
  Sm  Sm1  1  0.606006  0.832005  0.191533  1
  Sm  Sm2  1  0.737532  0.498179  0.808176  1
  Sm  Sm3  1  0.267432  0.501657  0.190584  1
  Al  Al4  1  0.682597  0.835201  0.946629  1
  Al  Al5  1  0.314961  0.166678  0.054737  1
  Al  Al6  1  0.145831  0.838448  0.559164  1
  Al  Al7  1  0.856219  0.165631  0.434095  1
  Al  Al8  1  0.489174  0.159356  0.558071  1
  Al  Al9  1  0.520416  0.832812  0.437155  1
  Al  Al10  1  0.217415  0.163986  0.330312  1
  Al  Al11  1  0.780829  0.837494  0.672276  1
  Al  Al12  1  0.437514  0.508683  0.672801  1
  Al  Al13  1  0.563660  0.493135  0.330065  1
  Al  Al14  1  0.109545  0.152484  0.670211  1
  Al  Al15  1  0.888660  0.841019  0.331696  1
  Al  Al16  1  0.352979  0.499984  0.945730  1
  Al  Al17  1  0.649172  0.500099  0.055046  1
  Al  Al18  1  0.013810  0.166854  0.958072  1
  Al  Al19  1  0.984837  0.833314  0.044801  1
  Al  Al20  1  0.187956  0.500125  0.436827  1
  Al  Al21  1  0.806072  0.499693  0.557951  1
  Al  Al22  1  0.734290  0.164471  0.184562  1
  Al  Al23  1  0.267070  0.835926  0.816361  1
  Al  Al24  1  0.060430  0.635633  0.817628  1
  Al  Al25  1  0.938769  0.368127  0.185962  1
  Al  Al26  1  0.854455  0.042079  0.816443  1
  Al  Al27  1  0.142615  0.959629  0.184312  1
  Zn  Zn28  1  0.120003  0.489154  0.639967  1
  Pd  Pd29  1  0.881035  0.505562  0.363532  1
  Pd  Pd30  1  0.658064  0.171457  0.999675  1
  Pd  Pd31  1  0.341967  0.828922  0.999555  1
  Pd  Pd32  1  0.536843  0.168450  0.363702  1
  Pd  Pd33  1  0.461953  0.832994  0.635631  1
  Pd  Pd34  1  0.780682  0.173828  0.635699  1
  Pd  Pd35  1  0.219389  0.824469  0.362974  1
  Pd  Pd36  1  0.000313  0.500314  0.999937  1
