# generated using pymatgen
data_Ac16CdIn3Ru4
_symmetry_space_group_name_H-M   'P 1'
_cell_length_a   10.54119464
_cell_length_b   10.54119299
_cell_length_c   10.54119422
_cell_angle_alpha   59.80356687
_cell_angle_beta   59.80357266
_cell_angle_gamma   59.80356954
_symmetry_Int_Tables_number   1
_chemical_formula_structural   Ac16CdIn3Ru4
_chemical_formula_sum   'Ac16 Cd1 In3 Ru4'
_cell_volume   824.54345429
_cell_formula_units_Z   1
loop_
 _symmetry_equiv_pos_site_id
 _symmetry_equiv_pos_as_xyz
  1  'x, y, z'
loop_
 _atom_site_type_symbol
 _atom_site_label
 _atom_site_symmetry_multiplicity
 _atom_site_fract_x
 _atom_site_fract_y
 _atom_site_fract_z
 _atom_site_occupancy
  Ac  Ac0  1  0.560542  0.560542  0.939683  1
  Ac  Ac1  1  0.941421  0.559063  0.941421  1
  Ac  Ac2  1  0.559063  0.941421  0.941421  1
  Ac  Ac3  1  0.941421  0.941421  0.559063  1
  Ac  Ac4  1  0.560542  0.939683  0.560542  1
  Ac  Ac5  1  0.939683  0.560542  0.560542  1
  Ac  Ac6  1  0.191081  0.191081  0.809426  1
  Ac  Ac7  1  0.811487  0.188264  0.811487  1
  Ac  Ac8  1  0.188263  0.811488  0.811487  1
  Ac  Ac9  1  0.811487  0.811488  0.188264  1
  Ac  Ac10  1  0.191080  0.809426  0.191080  1
  Ac  Ac11  1  0.809426  0.191081  0.191081  1
  Ac  Ac12  1  0.346113  0.346113  0.961093  1
  Ac  Ac13  1  0.346113  0.961093  0.346113  1
  Ac  Ac14  1  0.961093  0.346113  0.346113  1
  Ac  Ac15  1  0.345076  0.345076  0.345076  1
  Cd  Cd16  1  0.577675  0.577675  0.577675  1
  In  In17  1  0.577918  0.577918  0.264256  1
  In  In18  1  0.577918  0.264256  0.577918  1
  In  In19  1  0.264256  0.577918  0.577918  1
  Ru  Ru20  1  0.137331  0.137331  0.585823  1
  Ru  Ru21  1  0.137331  0.585823  0.137331  1
  Ru  Ru22  1  0.585823  0.137331  0.137331  1
  Ru  Ru23  1  0.137855  0.137855  0.137855  1
