# generated using pymatgen
data_Pr3Eu5Se12
_symmetry_space_group_name_H-M   'P 1'
_cell_length_a   7.89580104
_cell_length_b   4.26494000
_cell_length_c   16.22570006
_cell_angle_alpha   90.00000000
_cell_angle_beta   89.98926963
_cell_angle_gamma   90.00000000
_symmetry_Int_Tables_number   1
_chemical_formula_structural   Pr3Eu5Se12
_chemical_formula_sum   'Pr3 Eu5 Se12'
_cell_volume   546.40234955
_cell_formula_units_Z   1
loop_
 _symmetry_equiv_pos_site_id
 _symmetry_equiv_pos_as_xyz
  1  'x, y, z'
loop_
 _atom_site_type_symbol
 _atom_site_label
 _atom_site_symmetry_multiplicity
 _atom_site_fract_x
 _atom_site_fract_y
 _atom_site_fract_z
 _atom_site_occupancy
  Pr  Pr0  1  0.358225  0.499999  0.703088  1
  Pr  Pr1  1  0.857989  0.499999  0.795220  1
  Pr  Pr2  1  0.264941  0.000000  0.958342  1
  Eu  Eu3  1  0.727600  0.499999  0.042954  1
  Eu  Eu4  1  0.140839  0.000000  0.210460  1
  Eu  Eu5  1  0.640411  0.000000  0.290785  1
  Eu  Eu6  1  0.225456  0.499999  0.457539  1
  Eu  Eu7  1  0.772744  0.000000  0.539991  1
  Se  Se8  1  0.131041  0.499999  0.070789  1
  Se  Se9  1  0.505496  0.000000  0.108550  1
  Se  Se10  1  0.858188  0.499999  0.219178  1
  Se  Se11  1  0.357552  0.499999  0.282712  1
  Se  Se12  1  0.004184  0.000000  0.391209  1
  Se  Se13  1  0.631973  0.499999  0.430912  1
  Se  Se14  1  0.371412  0.000000  0.565372  1
  Se  Se15  1  0.993701  0.499999  0.611253  1
  Se  Se16  1  0.644739  0.000000  0.717991  1
  Se  Se17  1  0.145477  0.000000  0.780488  1
  Se  Se18  1  0.492576  0.499999  0.889177  1
  Se  Se19  1  0.875447  0.000000  0.933992  1
