# generated using pymatgen
data_Dy5Er5(InTe)3
_symmetry_space_group_name_H-M   'P 1'
_cell_length_a   8.95977400
_cell_length_b   8.93233638
_cell_length_c   6.49601400
_cell_angle_alpha   90.00000000
_cell_angle_beta   90.00000000
_cell_angle_gamma   120.10165635
_symmetry_Int_Tables_number   1
_chemical_formula_structural   Dy5Er5(InTe)3
_chemical_formula_sum   'Dy5 Er5 In3 Te3'
_cell_volume   449.77356235
_cell_formula_units_Z   1
loop_
 _symmetry_equiv_pos_site_id
 _symmetry_equiv_pos_as_xyz
  1  'x, y, z'
loop_
 _atom_site_type_symbol
 _atom_site_label
 _atom_site_symmetry_multiplicity
 _atom_site_fract_x
 _atom_site_fract_y
 _atom_site_fract_z
 _atom_site_occupancy
  Dy  Dy0  1  0.003216  0.761141  0.750000  1
  Dy  Dy1  1  0.003890  0.242734  0.250000  1
  Dy  Dy2  1  0.761155  0.757266  0.250000  1
  Dy  Dy3  1  0.757282  0.000000  0.750000  1
  Dy  Dy4  1  0.242076  0.238859  0.750000  1
  Er  Er5  1  0.237565  0.000000  0.250000  1
  Er  Er6  1  0.330645  0.665667  0.499868  1
  Er  Er7  1  0.664980  0.334333  0.000132  1
  Er  Er8  1  0.664980  0.334333  0.499868  1
  Er  Er9  1  0.330645  0.665667  0.000132  1
  In  In10  1  0.396420  0.000000  0.750000  1
  In  In11  1  0.394880  0.395607  0.250000  1
  In  In12  1  0.999274  0.604393  0.250000  1
  Te  Te13  1  0.999100  0.391954  0.750000  1
  Te  Te14  1  0.607146  0.608046  0.750000  1
  Te  Te15  1  0.606744  0.000000  0.250000  1
