# generated using pymatgen
data_LiDy5Hf2(P3Ir4)4
_symmetry_space_group_name_H-M   'P 1'
_cell_length_a   12.72773200
_cell_length_b   12.87719963
_cell_length_c   3.96858100
_cell_angle_alpha   90.00000000
_cell_angle_beta   90.00000000
_cell_angle_gamma   119.61677553
_symmetry_Int_Tables_number   1
_chemical_formula_structural   LiDy5Hf2(P3Ir4)4
_chemical_formula_sum   'Li1 Dy5 Hf2 P12 Ir16'
_cell_volume   565.46078743
_cell_formula_units_Z   1
loop_
 _symmetry_equiv_pos_site_id
 _symmetry_equiv_pos_as_xyz
  1  'x, y, z'
loop_
 _atom_site_type_symbol
 _atom_site_label
 _atom_site_symmetry_multiplicity
 _atom_site_fract_x
 _atom_site_fract_y
 _atom_site_fract_z
 _atom_site_occupancy
  Li  Li0  1  0.445888  0.000000  0.500000  1
  Dy  Dy1  1  0.331047  0.665278  0.500000  1
  Dy  Dy2  1  0.665770  0.334722  0.500000  1
  Dy  Dy3  1  0.999300  0.813233  0.000000  1
  Dy  Dy4  1  0.186067  0.186767  0.000000  1
  Dy  Dy5  1  0.809794  0.000000  0.000000  1
  Hf  Hf6  1  0.997868  0.444797  0.500000  1
  Hf  Hf7  1  0.553071  0.555203  0.500000  1
  P  P8  1  0.005896  0.651006  0.500000  1
  P  P9  1  0.354890  0.348994  0.500000  1
  P  P10  1  0.633837  0.000000  0.500000  1
  P  P11  1  0.518508  0.690203  0.000000  1
  P  P12  1  0.314976  0.830091  0.000000  1
  P  P13  1  0.167457  0.483207  0.000000  1
  P  P14  1  0.484886  0.169909  0.000000  1
  P  P15  1  0.684250  0.516793  0.000000  1
  P  P16  1  0.828305  0.309797  0.000000  1
  P  P17  1  0.000908  0.175093  0.500000  1
  P  P18  1  0.825815  0.824907  0.500000  1
  P  P19  1  0.182225  0.000000  0.500000  1
  Ir  Ir20  1  0.511140  0.868359  0.000000  1
  Ir  Ir21  1  0.126455  0.642608  0.000000  1
  Ir  Ir22  1  0.359060  0.499193  0.000000  1
  Ir  Ir23  1  0.483849  0.357392  0.000000  1
  Ir  Ir24  1  0.859868  0.500807  0.000000  1
  Ir  Ir25  1  0.642783  0.131641  0.000000  1
  Ir  Ir26  1  0.000385  0.279317  0.000000  1
  Ir  Ir27  1  0.721068  0.720683  0.000000  1
  Ir  Ir28  1  0.281468  0.000000  0.000000  1
  Ir  Ir29  1  0.629294  0.809098  0.500000  1
  Ir  Ir30  1  0.200952  0.823700  0.500000  1
  Ir  Ir31  1  0.180476  0.370386  0.500000  1
  Ir  Ir32  1  0.377253  0.176300  0.500000  1
  Ir  Ir33  1  0.810090  0.629614  0.500000  1
  Ir  Ir34  1  0.820196  0.190902  0.500000  1
  Ir  Ir35  1  0.004905  0.000000  0.500000  1
