# generated using pymatgen
data_La4Nd12MgHg3PtRh3
_symmetry_space_group_name_H-M   'P 1'
_cell_length_a   9.95818593
_cell_length_b   9.99170304
_cell_length_c   9.99170300
_cell_angle_alpha   60.00000346
_cell_angle_beta   59.88860159
_cell_angle_gamma   59.88860236
_symmetry_Int_Tables_number   1
_chemical_formula_structural   La4Nd12MgHg3PtRh3
_chemical_formula_sum   'La4 Nd12 Mg1 Hg3 Pt1 Rh3'
_cell_volume   701.79612558
_cell_formula_units_Z   1
loop_
 _symmetry_equiv_pos_site_id
 _symmetry_equiv_pos_as_xyz
  1  'x, y, z'
loop_
 _atom_site_type_symbol
 _atom_site_label
 _atom_site_symmetry_multiplicity
 _atom_site_fract_x
 _atom_site_fract_y
 _atom_site_fract_z
 _atom_site_occupancy
  La  La0  1  0.598808  0.597864  0.597864  1
  La  La1  1  0.601418  0.600285  0.202830  1
  La  La2  1  0.601418  0.202830  0.600285  1
  La  La3  1  0.195176  0.603059  0.603059  1
  Nd  Nd4  1  0.055344  0.441077  0.441077  1
  Nd  Nd5  1  0.435768  0.062493  0.062493  1
  Nd  Nd6  1  0.436557  0.059267  0.439207  1
  Nd  Nd7  1  0.058897  0.439992  0.060166  1
  Nd  Nd8  1  0.436557  0.439207  0.059267  1
  Nd  Nd9  1  0.058897  0.060166  0.439992  1
  Nd  Nd10  1  0.186446  0.814030  0.814030  1
  Nd  Nd11  1  0.813419  0.186441  0.186441  1
  Nd  Nd12  1  0.813000  0.186902  0.814295  1
  Nd  Nd13  1  0.185946  0.814606  0.185979  1
  Nd  Nd14  1  0.813000  0.814295  0.186902  1
  Nd  Nd15  1  0.185946  0.185979  0.814606  1
  Mg  Mg16  1  0.538244  0.820554  0.820554  1
  Hg  Hg17  1  0.830139  0.836069  0.836069  1
  Hg  Hg18  1  0.830224  0.836098  0.497585  1
  Hg  Hg19  1  0.830224  0.497585  0.836098  1
  Pt  Pt20  1  0.391248  0.393018  0.393018  1
  Rh  Rh21  1  0.391422  0.392962  0.822145  1
  Rh  Rh22  1  0.391422  0.822145  0.392962  1
  Rh  Rh23  1  0.820482  0.393076  0.393076  1
