# generated using pymatgen
data_Er4Tc3B8Os
_symmetry_space_group_name_H-M   'P 1'
_cell_length_a   5.27041200
_cell_length_b   5.91021848
_cell_length_c   6.41089601
_cell_angle_alpha   90.30099037
_cell_angle_beta   90.00000000
_cell_angle_gamma   90.00000000
_symmetry_Int_Tables_number   1
_chemical_formula_structural   Er4Tc3B8Os
_chemical_formula_sum   'Er4 Tc3 B8 Os1'
_cell_volume   199.69208059
_cell_formula_units_Z   1
loop_
 _symmetry_equiv_pos_site_id
 _symmetry_equiv_pos_as_xyz
  1  'x, y, z'
loop_
 _atom_site_type_symbol
 _atom_site_label
 _atom_site_symmetry_multiplicity
 _atom_site_fract_x
 _atom_site_fract_y
 _atom_site_fract_z
 _atom_site_occupancy
  Er  Er0  1  0.250000  0.013994  0.337883  1
  Er  Er1  1  0.250000  0.513706  0.161565  1
  Er  Er2  1  0.750000  0.985596  0.663585  1
  Er  Er3  1  0.750000  0.485421  0.836535  1
  Tc  Tc4  1  0.250000  0.181558  0.814409  1
  Tc  Tc5  1  0.250000  0.679458  0.683891  1
  Tc  Tc6  1  0.750000  0.819559  0.185896  1
  B  B7  1  0.078148  0.367675  0.535704  1
  B  B8  1  0.421374  0.869398  0.964496  1
  B  B9  1  0.579973  0.632112  0.464485  1
  B  B10  1  0.920906  0.132888  0.036225  1
  B  B11  1  0.920027  0.632112  0.464485  1
  B  B12  1  0.579094  0.132888  0.036225  1
  B  B13  1  0.421852  0.367675  0.535704  1
  B  B14  1  0.078626  0.869398  0.964496  1
  Os  Os15  1  0.750000  0.316563  0.314417  1
