# generated using pymatgen
data_CsUCl6
_symmetry_space_group_name_H-M   'P 1'
_cell_length_a   7.38133770
_cell_length_b   7.38133783
_cell_length_c   13.28706523
_cell_angle_alpha   79.53233290
_cell_angle_beta   79.53233317
_cell_angle_gamma   55.23863450
_symmetry_Int_Tables_number   1
_chemical_formula_structural   CsUCl6
_chemical_formula_sum   'Cs2 U2 Cl12'
_cell_volume   582.09984541
_cell_formula_units_Z   2
loop_
 _symmetry_equiv_pos_site_id
 _symmetry_equiv_pos_as_xyz
  1  'x, y, z'
loop_
 _atom_site_type_symbol
 _atom_site_label
 _atom_site_symmetry_multiplicity
 _atom_site_fract_x
 _atom_site_fract_y
 _atom_site_fract_z
 _atom_site_occupancy
  Cs  Cs0  1  0.880936  0.119064  0.750000  1
  Cs  Cs1  1  0.119064  0.880936  0.250000  1
  U  U2  1  0.500000  0.000000  0.500000  1
  U  U3  1  0.000000  0.500000  0.000000  1
  Cl  Cl4  1  0.459760  0.698861  0.605442  1
  Cl  Cl5  1  0.540240  0.301139  0.394558  1
  Cl  Cl6  1  0.301139  0.540240  0.894558  1
  Cl  Cl7  1  0.698861  0.459760  0.105442  1
  Cl  Cl8  1  0.370239  0.200441  0.660676  1
  Cl  Cl9  1  0.629761  0.799559  0.339324  1
  Cl  Cl10  1  0.799559  0.629761  0.839324  1
  Cl  Cl11  1  0.200441  0.370239  0.160676  1
  Cl  Cl12  1  0.797127  0.898185  0.039924  1
  Cl  Cl13  1  0.202873  0.101815  0.960076  1
  Cl  Cl14  1  0.101815  0.202873  0.460076  1
  Cl  Cl15  1  0.898185  0.797127  0.539924  1
