# generated using pymatgen
data_ZnCo(MoO4)2
_symmetry_space_group_name_H-M   'P 1'
_cell_length_a   7.06957317
_cell_length_b   8.48376948
_cell_length_c   9.87054459
_cell_angle_alpha   96.89582515
_cell_angle_beta   106.54937320
_cell_angle_gamma   101.96543377
_symmetry_Int_Tables_number   1
_chemical_formula_structural   ZnCo(MoO4)2
_chemical_formula_sum   'Zn3 Co3 Mo6 O24'
_cell_volume   544.92717432
_cell_formula_units_Z   3
loop_
 _symmetry_equiv_pos_site_id
 _symmetry_equiv_pos_as_xyz
  1  'x, y, z'
loop_
 _atom_site_type_symbol
 _atom_site_label
 _atom_site_symmetry_multiplicity
 _atom_site_fract_x
 _atom_site_fract_y
 _atom_site_fract_z
 _atom_site_occupancy
  Zn  Zn0  1  0.465301  0.300873  0.513805  1
  Zn  Zn1  1  0.965967  0.886604  0.714142  1
  Zn  Zn2  1  0.034921  0.113461  0.286340  1
  Co  Co3  1  0.248322  0.696967  0.909558  1
  Co  Co4  1  0.751010  0.302689  0.091517  1
  Co  Co5  1  0.539833  0.697252  0.489840  1
  Mo  Mo6  1  0.502515  0.987555  0.757457  1
  Mo  Mo7  1  0.496269  0.011851  0.244076  1
  Mo  Mo8  1  0.696728  0.602177  0.839028  1
  Mo  Mo9  1  0.300639  0.398034  0.157690  1
  Mo  Mo10  1  0.985119  0.705115  0.379127  1
  Mo  Mo11  1  0.017612  0.293786  0.622291  1
  O  O12  1  0.759626  0.289329  0.531584  1
  O  O13  1  0.242532  0.708407  0.469154  1
  O  O14  1  0.647037  0.861091  0.683071  1
  O  O15  1  0.353957  0.142773  0.316839  1
  O  O16  1  0.985177  0.876673  0.288349  1
  O  O17  1  0.018432  0.123359  0.714385  1
  O  O18  1  0.743150  0.442771  0.932555  1
  O  O19  1  0.250207  0.556128  0.063048  1
  O  O20  1  0.857391  0.729992  0.517504  1
  O  O21  1  0.143816  0.269039  0.483733  1
  O  O22  1  0.949305  0.734965  0.860000  1
  O  O23  1  0.049504  0.265061  0.141111  1
  O  O24  1  0.548578  0.869448  0.356953  1
  O  O25  1  0.444638  0.128856  0.644725  1
  O  O26  1  0.261793  0.869172  0.769707  1
  O  O27  1  0.738190  0.128492  0.231638  1
  O  O28  1  0.864005  0.518832  0.251773  1
  O  O29  1  0.138967  0.481162  0.747747  1
  O  O30  1  0.660538  0.100059  0.927722  1
  O  O31  1  0.338849  0.900959  0.073175  1
  O  O32  1  0.559781  0.518676  0.647865  1
  O  O33  1  0.441575  0.487635  0.345441  1
  O  O34  1  0.547317  0.707119  0.916483  1
  O  O35  1  0.451397  0.293640  0.080567  1
