# generated using pymatgen
data_Tb2HoLu3MnBi2
_symmetry_space_group_name_H-M   'P 1'
_cell_length_a   8.19951400
_cell_length_b   8.20371681
_cell_length_c   4.27763700
_cell_angle_alpha   90.00000000
_cell_angle_beta   90.00000000
_cell_angle_gamma   119.98305450
_symmetry_Int_Tables_number   1
_chemical_formula_structural   Tb2HoLu3MnBi2
_chemical_formula_sum   'Tb2 Ho1 Lu3 Mn1 Bi2'
_cell_volume   249.23410107
_cell_formula_units_Z   1
loop_
 _symmetry_equiv_pos_site_id
 _symmetry_equiv_pos_as_xyz
  1  'x, y, z'
loop_
 _atom_site_type_symbol
 _atom_site_label
 _atom_site_symmetry_multiplicity
 _atom_site_fract_x
 _atom_site_fract_y
 _atom_site_fract_z
 _atom_site_occupancy
  Tb  Tb0  1  0.000110  0.611399  0.000000  1
  Tb  Tb1  1  0.388711  0.388601  0.000000  1
  Ho  Ho2  1  0.611956  0.000000  0.000000  1
  Lu  Lu3  1  0.229604  0.000000  0.500000  1
  Lu  Lu4  1  0.999582  0.229316  0.500000  1
  Lu  Lu5  1  0.770265  0.770684  0.500000  1
  Mn  Mn6  1  0.999380  0.000000  0.000000  1
  Bi  Bi7  1  0.333788  0.667186  0.500000  1
  Bi  Bi8  1  0.666603  0.332814  0.500000  1
