# generated using pymatgen
data_CaLaTb5CoI12
_symmetry_space_group_name_H-M   'P 1'
_cell_length_a   9.87541128
_cell_length_b   9.87043363
_cell_length_c   9.78331415
_cell_angle_alpha   107.23227100
_cell_angle_beta   106.57898068
_cell_angle_gamma   106.68863508
_symmetry_Int_Tables_number   1
_chemical_formula_structural   CaLaTb5CoI12
_chemical_formula_sum   'Ca1 La1 Tb5 Co1 I12'
_cell_volume   797.74857529
_cell_formula_units_Z   1
loop_
 _symmetry_equiv_pos_site_id
 _symmetry_equiv_pos_as_xyz
  1  'x, y, z'
loop_
 _atom_site_type_symbol
 _atom_site_label
 _atom_site_symmetry_multiplicity
 _atom_site_fract_x
 _atom_site_fract_y
 _atom_site_fract_z
 _atom_site_occupancy
  Ca  Ca0  1  0.501017  0.500354  0.499438  1
  La  La1  1  0.022591  0.094458  0.290892  1
  Tb  Tb2  1  0.096735  0.297139  0.025102  1
  Tb  Tb3  1  0.295775  0.023267  0.094465  1
  Tb  Tb4  1  0.977185  0.908482  0.722299  1
  Tb  Tb5  1  0.903194  0.702205  0.975368  1
  Tb  Tb6  1  0.702786  0.975463  0.900836  1
  Co  Co7  1  0.999293  0.001528  0.005849  1
  I  I8  1  0.158573  0.468464  0.378573  1
  I  I9  1  0.453683  0.375998  0.147691  1
  I  I10  1  0.389026  0.153629  0.457211  1
  I  I11  1  0.849781  0.546529  0.621728  1
  I  I12  1  0.545654  0.623963  0.850222  1
  I  I13  1  0.625810  0.848651  0.543535  1
  I  I14  1  0.667104  0.069362  0.215655  1
  I  I15  1  0.072408  0.220870  0.684057  1
  I  I16  1  0.221599  0.679618  0.070563  1
  I  I17  1  0.316304  0.926407  0.773167  1
  I  I18  1  0.923445  0.763864  0.315898  1
  I  I19  1  0.778038  0.319749  0.927452  1
