# generated using pymatgen
data_Na4CaIrO6
_symmetry_space_group_name_H-M   'P 1'
_cell_length_a   5.71672345
_cell_length_b   5.71638229
_cell_length_c   5.76864397
_cell_angle_alpha   99.73995714
_cell_angle_beta   99.74484757
_cell_angle_gamma   119.88719738
_symmetry_Int_Tables_number   1
_chemical_formula_structural   Na4CaIrO6
_chemical_formula_sum   'Na4 Ca1 Ir1 O6'
_cell_volume   153.83151072
_cell_formula_units_Z   1
loop_
 _symmetry_equiv_pos_site_id
 _symmetry_equiv_pos_as_xyz
  1  'x, y, z'
loop_
 _atom_site_type_symbol
 _atom_site_label
 _atom_site_symmetry_multiplicity
 _atom_site_fract_x
 _atom_site_fract_y
 _atom_site_fract_z
 _atom_site_occupancy
  Na  Na0  1  0.499047  0.500954  0.999996  1
  Na  Na1  1  0.007118  0.992886  0.500002  1
  Na  Na2  1  0.660539  0.339458  0.500003  1
  Na  Na3  1  0.335771  0.664227  0.500002  1
  Ca  Ca4  1  0.833578  0.166440  0.999998  1
  Ir  Ir5  1  0.166912  0.833097  0.000000  1
  O  O6  1  0.955839  0.615945  0.205789  1
  O  O7  1  0.524620  0.911548  0.215148  1
  O  O8  1  0.229978  0.185923  0.214447  1
  O  O9  1  0.814101  0.770015  0.785545  1
  O  O10  1  0.088422  0.475339  0.784863  1
  O  O11  1  0.384075  0.044170  0.794210  1
