# generated using pymatgen
data_La4Pr11Nd(MgIr)4
_symmetry_space_group_name_H-M   'P 1'
_cell_length_a   10.11227162
_cell_length_b   10.12282513
_cell_length_c   10.12282425
_cell_angle_alpha   60.08022652
_cell_angle_beta   60.03447881
_cell_angle_gamma   60.03448365
_symmetry_Int_Tables_number   1
_chemical_formula_structural   La4Pr11Nd(MgIr)4
_chemical_formula_sum   'La4 Pr11 Nd1 Mg4 Ir4'
_cell_volume   733.54407148
_cell_formula_units_Z   1
loop_
 _symmetry_equiv_pos_site_id
 _symmetry_equiv_pos_as_xyz
  1  'x, y, z'
loop_
 _atom_site_type_symbol
 _atom_site_label
 _atom_site_symmetry_multiplicity
 _atom_site_fract_x
 _atom_site_fract_y
 _atom_site_fract_z
 _atom_site_occupancy
  La  La0  1  0.345906  0.345619  0.345619  1
  La  La1  1  0.345779  0.346033  0.962408  1
  La  La2  1  0.345779  0.962408  0.346033  1
  La  La3  1  0.962855  0.345619  0.345619  1
  Pr  Pr4  1  0.188566  0.811434  0.811434  1
  Pr  Pr5  1  0.188126  0.811976  0.188094  1
  Pr  Pr6  1  0.811804  0.188094  0.811976  1
  Pr  Pr7  1  0.188126  0.188094  0.811976  1
  Pr  Pr8  1  0.811804  0.811976  0.188094  1
  Pr  Pr9  1  0.937230  0.562770  0.562770  1
  Pr  Pr10  1  0.562298  0.937702  0.937702  1
  Pr  Pr11  1  0.563084  0.937986  0.561763  1
  Pr  Pr12  1  0.937167  0.561763  0.937986  1
  Pr  Pr13  1  0.563084  0.561763  0.937986  1
  Pr  Pr14  1  0.937167  0.937986  0.561763  1
  Nd  Nd15  1  0.811959  0.188041  0.188041  1
  Mg  Mg16  1  0.578990  0.578980  0.578980  1
  Mg  Mg17  1  0.579281  0.578708  0.262732  1
  Mg  Mg18  1  0.579281  0.262732  0.578708  1
  Mg  Mg19  1  0.263050  0.578980  0.578980  1
  Ir  Ir20  1  0.140848  0.142510  0.142510  1
  Ir  Ir21  1  0.141842  0.142541  0.573775  1
  Ir  Ir22  1  0.141842  0.573775  0.142541  1
  Ir  Ir23  1  0.574131  0.142510  0.142510  1
