# generated using pymatgen
data_Dy18Ho2GaBi11
_symmetry_space_group_name_H-M   'P 1'
_cell_length_a   8.22079463
_cell_length_b   9.49184701
_cell_length_c   12.04389702
_cell_angle_alpha   89.99577507
_cell_angle_beta   90.28922732
_cell_angle_gamma   90.00019867
_symmetry_Int_Tables_number   1
_chemical_formula_structural   Dy18Ho2GaBi11
_chemical_formula_sum   'Dy18 Ho2 Ga1 Bi11'
_cell_volume   939.77962972
_cell_formula_units_Z   1
loop_
 _symmetry_equiv_pos_site_id
 _symmetry_equiv_pos_as_xyz
  1  'x, y, z'
loop_
 _atom_site_type_symbol
 _atom_site_label
 _atom_site_symmetry_multiplicity
 _atom_site_fract_x
 _atom_site_fract_y
 _atom_site_fract_z
 _atom_site_occupancy
  Dy  Dy0  1  0.355272  0.750023  0.206139  1
  Dy  Dy1  1  0.852574  0.750019  0.284665  1
  Dy  Dy2  1  0.648494  0.250003  0.784507  1
  Dy  Dy3  1  0.148928  0.250002  0.716279  1
  Dy  Dy4  1  0.684061  0.570325  0.054669  1
  Dy  Dy5  1  0.193162  0.935873  0.440105  1
  Dy  Dy6  1  0.309602  0.049398  0.941099  1
  Dy  Dy7  1  0.807107  0.436374  0.558964  1
  Dy  Dy8  1  0.309600  0.450612  0.941091  1
  Dy  Dy9  1  0.807144  0.063633  0.558952  1
  Dy  Dy10  1  0.475136  0.250046  0.488609  1
  Dy  Dy11  1  0.978676  0.249978  0.010611  1
  Dy  Dy12  1  0.525690  0.749977  0.511727  1
  Dy  Dy13  1  0.035734  0.750006  0.989482  1
  Dy  Dy14  1  0.314478  0.250007  0.219565  1
  Dy  Dy15  1  0.812098  0.249990  0.281181  1
  Dy  Dy16  1  0.673206  0.750061  0.788320  1
  Dy  Dy17  1  0.190308  0.749961  0.722232  1
  Ho  Ho18  1  0.683990  0.929534  0.054657  1
  Ho  Ho19  1  0.193156  0.564155  0.440074  1
  Ga  Ga20  1  0.408191  0.750107  0.960659  1
  Bi  Bi21  1  0.908476  0.749890  0.544669  1
  Bi  Bi22  1  0.593102  0.249728  0.042438  1
  Bi  Bi23  1  0.093066  0.250275  0.457408  1
  Bi  Bi24  1  0.564963  0.995454  0.325577  1
  Bi  Bi25  1  0.064235  0.503326  0.175205  1
  Bi  Bi26  1  0.435275  0.495939  0.674941  1
  Bi  Bi27  1  0.934942  0.002693  0.825223  1
  Bi  Bi28  1  0.435288  0.004059  0.674984  1
  Bi  Bi29  1  0.934975  0.497326  0.825189  1
  Bi  Bi30  1  0.564888  0.504561  0.325637  1
  Bi  Bi31  1  0.064184  0.996663  0.175139  1
