# generated using pymatgen
data_Gd3YMn4O14
_symmetry_space_group_name_H-M   'P 1'
_cell_length_a   7.11464635
_cell_length_b   7.12316570
_cell_length_c   7.11464600
_cell_angle_alpha   60.03954802
_cell_angle_beta   59.99999232
_cell_angle_gamma   60.03955326
_symmetry_Int_Tables_number   1
_chemical_formula_structural   Gd3YMn4O14
_chemical_formula_sum   'Gd3 Y1 Mn4 O14'
_cell_volume   255.10795611
_cell_formula_units_Z   1
loop_
 _symmetry_equiv_pos_site_id
 _symmetry_equiv_pos_as_xyz
  1  'x, y, z'
loop_
 _atom_site_type_symbol
 _atom_site_label
 _atom_site_symmetry_multiplicity
 _atom_site_fract_x
 _atom_site_fract_y
 _atom_site_fract_z
 _atom_site_occupancy
  Gd  Gd0  1  0.625000  0.625000  0.625000  1
  Gd  Gd1  1  0.125000  0.625000  0.625000  1
  Gd  Gd2  1  0.625000  0.625000  0.125000  1
  Y  Y3  1  0.625000  0.125000  0.625000  1
  Mn  Mn4  1  0.125000  0.625000  0.125000  1
  Mn  Mn5  1  0.125000  0.125000  0.625000  1
  Mn  Mn6  1  0.625000  0.125000  0.125000  1
  Mn  Mn7  1  0.125000  0.125000  0.125000  1
  O  O8  1  0.748645  0.754064  0.748645  1
  O  O9  1  0.202679  0.797566  0.797077  1
  O  O10  1  0.202679  0.797566  0.202679  1
  O  O11  1  0.797077  0.797566  0.202679  1
  O  O12  1  0.797683  0.200730  0.797683  1
  O  O13  1  0.203904  0.200730  0.797683  1
  O  O14  1  0.452317  0.049270  0.046096  1
  O  O15  1  0.797683  0.200730  0.203904  1
  O  O16  1  0.047321  0.452434  0.047321  1
  O  O17  1  0.046096  0.049270  0.452317  1
  O  O18  1  0.452923  0.452434  0.047321  1
  O  O19  1  0.452317  0.049270  0.452317  1
  O  O20  1  0.047321  0.452434  0.452923  1
  O  O21  1  0.501355  0.495936  0.501355  1
