# generated using pymatgen
data_Np2Ga8Ir
_symmetry_space_group_name_H-M   'P 1'
_cell_length_a   4.35288900
_cell_length_b   4.35288900
_cell_length_c   11.04022900
_cell_angle_alpha   90.00000000
_cell_angle_beta   90.00000000
_cell_angle_gamma   90.00000000
_symmetry_Int_Tables_number   1
_chemical_formula_structural   Np2Ga8Ir
_chemical_formula_sum   'Np2 Ga8 Ir1'
_cell_volume   209.18631383
_cell_formula_units_Z   1
loop_
 _symmetry_equiv_pos_site_id
 _symmetry_equiv_pos_as_xyz
  1  'x, y, z'
loop_
 _atom_site_type_symbol
 _atom_site_label
 _atom_site_symmetry_multiplicity
 _atom_site_fract_x
 _atom_site_fract_y
 _atom_site_fract_z
 _atom_site_occupancy
  Np  Np0  1  0.000000  0.000000  0.691120  1
  Np  Np1  1  0.000000  0.000000  0.308880  1
  Ga  Ga2  1  0.000000  0.500000  0.500000  1
  Ga  Ga3  1  0.500000  0.000000  0.500000  1
  Ga  Ga4  1  0.500000  0.500000  0.691461  1
  Ga  Ga5  1  0.500000  0.500000  0.308539  1
  Ga  Ga6  1  0.000000  0.500000  0.875033  1
  Ga  Ga7  1  0.500000  0.000000  0.875033  1
  Ga  Ga8  1  0.000000  0.500000  0.124967  1
  Ga  Ga9  1  0.500000  0.000000  0.124967  1
  Ir  Ir10  1  0.000000  0.000000  0.000000  1
