# generated using pymatgen
data_Ta6Al3Cr2GeC2
_symmetry_space_group_name_H-M   'P 1'
_cell_length_a   8.28198025
_cell_length_b   8.27309280
_cell_length_c   8.27309302
_cell_angle_alpha   59.95391927
_cell_angle_beta   59.96446241
_cell_angle_gamma   59.96446115
_symmetry_Int_Tables_number   1
_chemical_formula_structural   Ta6Al3Cr2GeC2
_chemical_formula_sum   'Ta12 Al6 Cr4 Ge2 C4'
_cell_volume   400.47018640
_cell_formula_units_Z   2
loop_
 _symmetry_equiv_pos_site_id
 _symmetry_equiv_pos_as_xyz
  1  'x, y, z'
loop_
 _atom_site_type_symbol
 _atom_site_label
 _atom_site_symmetry_multiplicity
 _atom_site_fract_x
 _atom_site_fract_y
 _atom_site_fract_z
 _atom_site_occupancy
  Ta  Ta0  1  0.554961  0.944800  0.555543  1
  Ta  Ta1  1  0.306596  0.693823  0.693823  1
  Ta  Ta2  1  0.694542  0.305439  0.305439  1
  Ta  Ta3  1  0.305305  0.694457  0.305200  1
  Ta  Ta4  1  0.693886  0.693470  0.306659  1
  Ta  Ta5  1  0.305305  0.305200  0.694457  1
  Ta  Ta6  1  0.554961  0.555543  0.944800  1
  Ta  Ta7  1  0.944240  0.556177  0.556177  1
  Ta  Ta8  1  0.555422  0.944561  0.944561  1
  Ta  Ta9  1  0.944015  0.943341  0.556530  1
  Ta  Ta10  1  0.693886  0.306659  0.693470  1
  Ta  Ta11  1  0.944015  0.556530  0.943341  1
  Al  Al12  1  0.337523  0.995268  0.333822  1
  Al  Al13  1  0.337523  0.333822  0.995268  1
  Al  Al14  1  0.916615  0.254732  0.916178  1
  Al  Al15  1  0.916615  0.916178  0.254732  1
  Al  Al16  1  0.253610  0.916717  0.916717  1
  Al  Al17  1  0.337044  0.333283  0.333283  1
  Cr  Cr18  1  0.123797  0.126610  0.126610  1
  Cr  Cr19  1  0.627018  0.123390  0.123390  1
  Cr  Cr20  1  0.122372  0.625000  0.125000  1
  Cr  Cr21  1  0.122372  0.125000  0.625000  1
  Ge  Ge22  1  0.914671  0.913991  0.913991  1
  Ge  Ge23  1  0.992651  0.336009  0.336009  1
  C  C24  1  0.625289  0.624760  0.624760  1
  C  C25  1  0.124807  0.625240  0.625240  1
  C  C26  1  0.625477  0.125000  0.625000  1
  C  C27  1  0.625477  0.625000  0.125000  1
