# generated using pymatgen
data_CaDy6Co6AgSn22
_symmetry_space_group_name_H-M   'P 1'
_cell_length_a   9.67778600
_cell_length_b   9.67778504
_cell_length_c   10.00572500
_cell_angle_alpha   90.00000000
_cell_angle_beta   90.00000000
_cell_angle_gamma   119.99999644
_symmetry_Int_Tables_number   1
_chemical_formula_structural   CaDy6Co6AgSn22
_chemical_formula_sum   'Ca1 Dy6 Co6 Ag1 Sn22'
_cell_volume   811.57973801
_cell_formula_units_Z   1
loop_
 _symmetry_equiv_pos_site_id
 _symmetry_equiv_pos_as_xyz
  1  'x, y, z'
loop_
 _atom_site_type_symbol
 _atom_site_label
 _atom_site_symmetry_multiplicity
 _atom_site_fract_x
 _atom_site_fract_y
 _atom_site_fract_z
 _atom_site_occupancy
  Ca  Ca0  1  0.000000  0.000000  0.000000  1
  Dy  Dy1  1  0.479231  0.520769  0.306690  1
  Dy  Dy2  1  0.520769  0.479231  0.693310  1
  Dy  Dy3  1  0.479231  0.958463  0.306690  1
  Dy  Dy4  1  0.520769  0.041537  0.693310  1
  Dy  Dy5  1  0.041537  0.520769  0.306690  1
  Dy  Dy6  1  0.958463  0.479231  0.693310  1
  Co  Co7  1  0.830296  0.169704  0.198453  1
  Co  Co8  1  0.169704  0.830296  0.801547  1
  Co  Co9  1  0.830296  0.660591  0.198453  1
  Co  Co10  1  0.169704  0.339409  0.801547  1
  Co  Co11  1  0.339409  0.169704  0.198453  1
  Co  Co12  1  0.660591  0.830296  0.801547  1
  Ag  Ag13  1  0.000000  0.000000  0.500000  1
  Sn  Sn14  1  0.346014  0.000000  0.000000  1
  Sn  Sn15  1  0.653986  0.000000  0.000000  1
  Sn  Sn16  1  0.000000  0.346014  0.000000  1
  Sn  Sn17  1  0.000000  0.653986  0.000000  1
  Sn  Sn18  1  0.653986  0.653986  0.000000  1
  Sn  Sn19  1  0.346014  0.346014  0.000000  1
  Sn  Sn20  1  0.333333  0.666667  0.816118  1
  Sn  Sn21  1  0.666667  0.333333  0.183882  1
  Sn  Sn22  1  0.783360  0.216640  0.453299  1
  Sn  Sn23  1  0.216640  0.783360  0.546701  1
  Sn  Sn24  1  0.783360  0.566720  0.453299  1
  Sn  Sn25  1  0.216640  0.433280  0.546701  1
  Sn  Sn26  1  0.433280  0.216640  0.453299  1
  Sn  Sn27  1  0.566720  0.783360  0.546701  1
  Sn  Sn28  1  0.333333  0.666667  0.118635  1
  Sn  Sn29  1  0.666667  0.333333  0.881365  1
  Sn  Sn30  1  0.114416  0.885584  0.275575  1
  Sn  Sn31  1  0.885584  0.114416  0.724425  1
  Sn  Sn32  1  0.114416  0.228833  0.275575  1
  Sn  Sn33  1  0.885584  0.771167  0.724425  1
  Sn  Sn34  1  0.771167  0.885584  0.275575  1
  Sn  Sn35  1  0.228833  0.114416  0.724425  1
