# generated using pymatgen
data_Ba6Y2(TeO6)3
_symmetry_space_group_name_H-M   'P 1'
_cell_length_a   10.42112606
_cell_length_b   10.42112550
_cell_length_c   10.42112542
_cell_angle_alpha   146.50471170
_cell_angle_beta   131.92149493
_cell_angle_gamma   59.86474544
_symmetry_Int_Tables_number   1
_chemical_formula_structural   Ba6Y2(TeO6)3
_chemical_formula_sum   'Ba6 Y2 Te3 O18'
_cell_volume   460.51102626
_cell_formula_units_Z   1
loop_
 _symmetry_equiv_pos_site_id
 _symmetry_equiv_pos_as_xyz
  1  'x, y, z'
loop_
 _atom_site_type_symbol
 _atom_site_label
 _atom_site_symmetry_multiplicity
 _atom_site_fract_x
 _atom_site_fract_y
 _atom_site_fract_z
 _atom_site_occupancy
  Ba  Ba0  1  0.776181  0.500000  0.276181  1
  Ba  Ba1  1  0.389400  0.154571  0.234830  1
  Ba  Ba2  1  0.080259  0.845429  0.234830  1
  Ba  Ba3  1  0.223819  0.500000  0.723819  1
  Ba  Ba4  1  0.919741  0.154571  0.765170  1
  Ba  Ba5  1  0.610600  0.845429  0.765170  1
  Y  Y6  1  0.666026  0.666026  0.000000  1
  Y  Y7  1  0.333974  0.333974  0.000000  1
  Te  Te8  1  0.500000  0.000000  0.500000  1
  Te  Te9  1  0.171074  0.671074  0.500000  1
  Te  Te10  1  0.828926  0.328926  0.500000  1
  O  O11  1  0.724418  0.000000  0.724418  1
  O  O12  1  0.405177  0.670589  0.734587  1
  O  O13  1  0.063999  0.329411  0.734587  1
  O  O14  1  0.578172  0.843679  0.265505  1
  O  O15  1  0.247584  0.516221  0.268637  1
  O  O16  1  0.904359  0.178207  0.273848  1
  O  O17  1  0.421828  0.687333  0.265505  1
  O  O18  1  0.095641  0.369490  0.273848  1
  O  O19  1  0.752416  0.021053  0.268637  1
  O  O20  1  0.275582  0.000000  0.275582  1
  O  O21  1  0.936001  0.670589  0.265413  1
  O  O22  1  0.594823  0.329411  0.265413  1
  O  O23  1  0.421828  0.156321  0.734495  1
  O  O24  1  0.095641  0.821793  0.726152  1
  O  O25  1  0.752416  0.483779  0.731363  1
  O  O26  1  0.578172  0.312667  0.734495  1
  O  O27  1  0.247584  0.978947  0.731363  1
  O  O28  1  0.904359  0.630511  0.726152  1
