# generated using pymatgen
data_Lu9Si16W11
_symmetry_space_group_name_H-M   'P 1'
_cell_length_a   6.85988049
_cell_length_b   6.87541502
_cell_length_c   12.74798823
_cell_angle_alpha   90.41987870
_cell_angle_beta   89.85951780
_cell_angle_gamma   89.95996776
_symmetry_Int_Tables_number   1
_chemical_formula_structural   Lu9Si16W11
_chemical_formula_sum   'Lu9 Si16 W11'
_cell_volume   601.23470780
_cell_formula_units_Z   1
loop_
 _symmetry_equiv_pos_site_id
 _symmetry_equiv_pos_as_xyz
  1  'x, y, z'
loop_
 _atom_site_type_symbol
 _atom_site_label
 _atom_site_symmetry_multiplicity
 _atom_site_fract_x
 _atom_site_fract_y
 _atom_site_fract_z
 _atom_site_occupancy
  Lu  Lu0  1  0.158133  0.001370  0.874184  1
  Lu  Lu1  1  0.002011  0.660388  0.034414  1
  Lu  Lu2  1  0.996648  0.339758  0.528576  1
  Lu  Lu3  1  0.660998  0.001561  0.969229  1
  Lu  Lu4  1  0.160203  0.499337  0.780271  1
  Lu  Lu5  1  0.838091  0.503916  0.280884  1
  Lu  Lu6  1  0.499613  0.162289  0.221512  1
  Lu  Lu7  1  0.503243  0.838075  0.715874  1
  Lu  Lu8  1  0.336805  0.997097  0.468650  1
  Si  Si9  1  0.034675  0.711091  0.435923  1
  Si  Si10  1  0.953987  0.300948  0.936045  1
  Si  Si11  1  0.708514  0.036766  0.561035  1
  Si  Si12  1  0.210643  0.462546  0.186769  1
  Si  Si13  1  0.789962  0.537300  0.685585  1
  Si  Si14  1  0.469845  0.213758  0.811564  1
  Si  Si15  1  0.538773  0.790049  0.314594  1
  Si  Si16  1  0.295265  0.957655  0.070647  1
  Si  Si17  1  0.862005  0.790179  0.815629  1
  Si  Si18  1  0.128021  0.204108  0.317503  1
  Si  Si19  1  0.798920  0.874257  0.182236  1
  Si  Si20  1  0.295590  0.626080  0.567340  1
  Si  Si21  1  0.704065  0.368891  0.069636  1
  Si  Si22  1  0.627926  0.297231  0.431740  1
  Si  Si23  1  0.370723  0.691860  0.937509  1
  Si  Si24  1  0.205144  0.130268  0.675969  1
  W  W25  1  0.336666  0.499655  0.376998  1
  W  W26  1  0.838003  0.003851  0.371957  1
  W  W27  1  0.001130  0.162985  0.125463  1
  W  W28  1  0.997726  0.835652  0.625656  1
  W  W29  1  0.661585  0.502490  0.878427  1
  W  W30  1  0.503657  0.338271  0.620652  1
  W  W31  1  0.507481  0.658180  0.126253  1
  W  W32  1  0.665220  0.666393  0.499132  1
  W  W33  1  0.830749  0.170530  0.746611  1
  W  W34  1  0.169567  0.832098  0.252738  1
  W  W35  1  0.338411  0.333112  0.002796  1
