# generated using pymatgen
data_Pr5CdSnRu3
_symmetry_space_group_name_H-M   'P 1'
_cell_length_a   8.78428690
_cell_length_b   8.78428682
_cell_length_c   8.77498600
_cell_angle_alpha   109.47399066
_cell_angle_beta   109.47292507
_cell_angle_gamma   109.50965716
_symmetry_Int_Tables_number   1
_chemical_formula_structural   Pr5CdSnRu3
_chemical_formula_sum   'Pr10 Cd2 Sn2 Ru6'
_cell_volume   520.96351677
_cell_formula_units_Z   2
loop_
 _symmetry_equiv_pos_site_id
 _symmetry_equiv_pos_as_xyz
  1  'x, y, z'
loop_
 _atom_site_type_symbol
 _atom_site_label
 _atom_site_symmetry_multiplicity
 _atom_site_fract_x
 _atom_site_fract_y
 _atom_site_fract_z
 _atom_site_occupancy
  Pr  Pr0  1  0.251942  0.686976  0.431731  1
  Pr  Pr1  1  0.755230  0.820215  0.068276  1
  Pr  Pr2  1  0.430993  0.245146  0.680419  1
  Pr  Pr3  1  0.681805  0.431802  0.250002  1
  Pr  Pr4  1  0.064724  0.750601  0.819601  1
  Pr  Pr5  1  0.813152  0.063143  0.750006  1
  Pr  Pr6  1  0.212871  0.214590  0.213872  1
  Pr  Pr7  1  0.500737  0.999018  0.286134  1
  Pr  Pr8  1  0.287605  0.498124  0.997997  1
  Pr  Pr9  1  0.000166  0.289628  0.502022  1
  Cd  Cd10  1  0.908600  0.498349  0.999484  1
  Cd  Cd11  1  0.998856  0.909108  0.500499  1
  Sn  Sn12  1  0.595330  0.596108  0.596994  1
  Sn  Sn13  1  0.499095  0.998346  0.902992  1
  Ru  Ru14  1  0.258674  0.134047  0.890697  1
  Ru  Ru15  1  0.743381  0.368031  0.609280  1
  Ru  Ru16  1  0.875201  0.241809  0.133582  1
  Ru  Ru17  1  0.139545  0.889498  0.249992  1
  Ru  Ru18  1  0.608229  0.741596  0.366415  1
  Ru  Ru19  1  0.373861  0.623863  0.750003  1
