# generated using pymatgen
data_HoTm9Ru4
_symmetry_space_group_name_H-M   'P 1'
_cell_length_a   6.24280447
_cell_length_b   7.23324561
_cell_length_c   8.34690584
_cell_angle_alpha   96.82137676
_cell_angle_beta   112.02317537
_cell_angle_gamma   90.02267211
_symmetry_Int_Tables_number   1
_chemical_formula_structural   HoTm9Ru4
_chemical_formula_sum   'Ho1 Tm9 Ru4'
_cell_volume   346.52137582
_cell_formula_units_Z   1
loop_
 _symmetry_equiv_pos_site_id
 _symmetry_equiv_pos_as_xyz
  1  'x, y, z'
loop_
 _atom_site_type_symbol
 _atom_site_label
 _atom_site_symmetry_multiplicity
 _atom_site_fract_x
 _atom_site_fract_y
 _atom_site_fract_z
 _atom_site_occupancy
  Ho  Ho0  1  0.790844  0.084034  0.813403  1
  Tm  Tm1  1  0.977799  0.415833  0.186423  1
  Tm  Tm2  1  0.208840  0.915677  0.186571  1
  Tm  Tm3  1  0.022673  0.584233  0.813882  1
  Tm  Tm4  1  0.205486  0.184286  0.564984  1
  Tm  Tm5  1  0.640622  0.315772  0.434764  1
  Tm  Tm6  1  0.794066  0.815508  0.434535  1
  Tm  Tm7  1  0.359208  0.684332  0.564981  1
  Tm  Tm8  1  0.418913  0.249987  0.000136  1
  Tm  Tm9  1  0.581058  0.750020  0.000222  1
  Ru  Ru10  1  0.602469  0.424250  0.779622  1
  Ru  Ru11  1  0.823281  0.076795  0.220374  1
  Ru  Ru12  1  0.397110  0.576301  0.220251  1
  Ru  Ru13  1  0.177632  0.922974  0.779852  1
