# generated using pymatgen
data_Tb2NdPa(ReB6)2
_symmetry_space_group_name_H-M   'P 1'
_cell_length_a   3.73648100
_cell_length_b   9.24861976
_cell_length_c   11.63236208
_cell_angle_alpha   90.41686501
_cell_angle_beta   90.00000000
_cell_angle_gamma   90.00000000
_symmetry_Int_Tables_number   1
_chemical_formula_structural   Tb2NdPa(ReB6)2
_chemical_formula_sum   'Tb4 Nd2 Pa2 Re4 B24'
_cell_volume   401.97229390
_cell_formula_units_Z   2
loop_
 _symmetry_equiv_pos_site_id
 _symmetry_equiv_pos_as_xyz
  1  'x, y, z'
loop_
 _atom_site_type_symbol
 _atom_site_label
 _atom_site_symmetry_multiplicity
 _atom_site_fract_x
 _atom_site_fract_y
 _atom_site_fract_z
 _atom_site_occupancy
  Tb  Tb0  1  0.000000  0.945167  0.374068  1
  Tb  Tb1  1  0.000000  0.054833  0.625932  1
  Tb  Tb2  1  0.000000  0.444111  0.127777  1
  Tb  Tb3  1  0.000000  0.555889  0.872223  1
  Nd  Nd4  1  0.000000  0.824166  0.086624  1
  Nd  Nd5  1  0.000000  0.175834  0.913376  1
  Pa  Pa6  1  0.000000  0.322854  0.413195  1
  Pa  Pa7  1  0.000000  0.677146  0.586805  1
  Re  Re8  1  0.000000  0.634263  0.326738  1
  Re  Re9  1  0.000000  0.365737  0.673262  1
  Re  Re10  1  0.000000  0.142370  0.184231  1
  Re  Re11  1  0.000000  0.857630  0.815769  1
  B  B12  1  0.500000  0.552929  0.433466  1
  B  B13  1  0.500000  0.447071  0.566534  1
  B  B14  1  0.500000  0.055155  0.070161  1
  B  B15  1  0.500000  0.944845  0.929839  1
  B  B16  1  0.500000  0.746117  0.420816  1
  B  B17  1  0.500000  0.253883  0.579184  1
  B  B18  1  0.500000  0.248270  0.083112  1
  B  B19  1  0.500000  0.751730  0.916888  1
  B  B20  1  0.500000  0.789777  0.268786  1
  B  B21  1  0.500000  0.210223  0.731214  1
  B  B22  1  0.500000  0.292836  0.235083  1
  B  B23  1  0.500000  0.707164  0.764917  1
  B  B24  1  0.500000  0.630555  0.188146  1
  B  B25  1  0.500000  0.369445  0.811854  1
  B  B26  1  0.500000  0.134425  0.314916  1
  B  B27  1  0.500000  0.865575  0.685084  1
  B  B28  1  0.500000  0.985299  0.214671  1
  B  B29  1  0.500000  0.014701  0.785329  1
  B  B30  1  0.500000  0.483322  0.288113  1
  B  B31  1  0.500000  0.516678  0.711887  1
  B  B32  1  0.500000  0.602313  0.028900  1
  B  B33  1  0.500000  0.397687  0.971100  1
  B  B34  1  0.500000  0.117603  0.467845  1
  B  B35  1  0.500000  0.882397  0.532155  1
