# generated using pymatgen
data_Li6Al16Ni7
_symmetry_space_group_name_H-M   'P 1'
_cell_length_a   8.36064615
_cell_length_b   8.36064674
_cell_length_c   8.36064600
_cell_angle_alpha   60.00000294
_cell_angle_beta   60.00000059
_cell_angle_gamma   60.00000732
_symmetry_Int_Tables_number   1
_chemical_formula_structural   Li6Al16Ni7
_chemical_formula_sum   'Li6 Al16 Ni7'
_cell_volume   413.24212862
_cell_formula_units_Z   1
loop_
 _symmetry_equiv_pos_site_id
 _symmetry_equiv_pos_as_xyz
  1  'x, y, z'
loop_
 _atom_site_type_symbol
 _atom_site_label
 _atom_site_symmetry_multiplicity
 _atom_site_fract_x
 _atom_site_fract_y
 _atom_site_fract_z
 _atom_site_occupancy
  Li  Li0  1  0.714104  0.714104  0.285896  1
  Li  Li1  1  0.285896  0.714104  0.285896  1
  Li  Li2  1  0.714104  0.285896  0.285896  1
  Li  Li3  1  0.285896  0.285896  0.714104  1
  Li  Li4  1  0.714104  0.285896  0.714104  1
  Li  Li5  1  0.285896  0.714104  0.714104  1
  Al  Al6  1  0.879680  0.879680  0.360959  1
  Al  Al7  1  0.879680  0.360959  0.879680  1
  Al  Al8  1  0.360959  0.879680  0.879680  1
  Al  Al9  1  0.879680  0.879680  0.879680  1
  Al  Al10  1  0.120320  0.120320  0.639041  1
  Al  Al11  1  0.120320  0.639041  0.120320  1
  Al  Al12  1  0.639041  0.120320  0.120320  1
  Al  Al13  1  0.120320  0.120320  0.120320  1
  Al  Al14  1  0.655727  0.655727  0.032817  1
  Al  Al15  1  0.655727  0.032817  0.655727  1
  Al  Al16  1  0.032817  0.655727  0.655727  1
  Al  Al17  1  0.655727  0.655727  0.655727  1
  Al  Al18  1  0.344273  0.344273  0.967183  1
  Al  Al19  1  0.344273  0.967183  0.344273  1
  Al  Al20  1  0.967183  0.344273  0.344273  1
  Al  Al21  1  0.344273  0.344273  0.344273  1
  Ni  Ni22  1  0.000000  0.000000  0.000000  1
  Ni  Ni23  1  0.000000  0.000000  0.500000  1
  Ni  Ni24  1  0.500000  0.000000  0.500000  1
  Ni  Ni25  1  0.000000  0.500000  0.500000  1
  Ni  Ni26  1  0.500000  0.500000  0.000000  1
  Ni  Ni27  1  0.000000  0.500000  0.000000  1
  Ni  Ni28  1  0.500000  0.000000  0.000000  1
