# generated using pymatgen
data_K4DyUSe6
_symmetry_space_group_name_H-M   'P 1'
_cell_length_a   7.53181322
_cell_length_b   7.53181472
_cell_length_c   8.07401261
_cell_angle_alpha   80.88859051
_cell_angle_beta   80.88858880
_cell_angle_gamma   120.00879682
_symmetry_Int_Tables_number   1
_chemical_formula_structural   K4DyUSe6
_chemical_formula_sum   'K4 Dy1 U1 Se6'
_cell_volume   376.20275438
_cell_formula_units_Z   1
loop_
 _symmetry_equiv_pos_site_id
 _symmetry_equiv_pos_as_xyz
  1  'x, y, z'
loop_
 _atom_site_type_symbol
 _atom_site_label
 _atom_site_symmetry_multiplicity
 _atom_site_fract_x
 _atom_site_fract_y
 _atom_site_fract_z
 _atom_site_occupancy
  K  K0  1  0.500045  0.499955  0.000000  1
  K  K1  1  0.655888  0.344112  0.500000  1
  K  K2  1  0.344085  0.655915  0.500000  1
  K  K3  1  0.000006  0.999994  0.500000  1
  Dy  Dy4  1  0.832428  0.167572  0.000000  1
  U  U5  1  0.167688  0.832312  0.000000  1
  Se  Se6  1  0.808912  0.797641  0.206194  1
  Se  Se7  1  0.202359  0.191088  0.793806  1
  Se  Se8  1  0.417229  0.048402  0.207997  1
  Se  Se9  1  0.559105  0.939344  0.791362  1
  Se  Se10  1  0.951598  0.582771  0.792003  1
  Se  Se11  1  0.060656  0.440895  0.208638  1
