# generated using pymatgen
data_Na5Pt2RhN3
_symmetry_space_group_name_H-M   'P 1'
_cell_length_a   8.02492100
_cell_length_b   8.03088542
_cell_length_c   3.74460800
_cell_angle_alpha   90.00000000
_cell_angle_beta   90.00000000
_cell_angle_gamma   119.97543111
_symmetry_Int_Tables_number   1
_chemical_formula_structural   Na5Pt2RhN3
_chemical_formula_sum   'Na5 Pt2 Rh1 N3'
_cell_volume   209.04926929
_cell_formula_units_Z   1
loop_
 _symmetry_equiv_pos_site_id
 _symmetry_equiv_pos_as_xyz
  1  'x, y, z'
loop_
 _atom_site_type_symbol
 _atom_site_label
 _atom_site_symmetry_multiplicity
 _atom_site_fract_x
 _atom_site_fract_y
 _atom_site_fract_z
 _atom_site_occupancy
  Na  Na0  1  0.738311  0.000000  0.000000  1
  Na  Na1  1  0.259717  0.256534  0.000000  1
  Na  Na2  1  0.664045  0.330548  0.000000  1
  Na  Na3  1  0.333497  0.669452  0.000000  1
  Na  Na4  1  0.003183  0.743466  0.000000  1
  Pt  Pt5  1  0.000025  0.362059  0.499999  1
  Pt  Pt6  1  0.637966  0.637940  0.499999  1
  Rh  Rh7  1  0.362502  0.000000  0.499999  1
  N  N8  1  0.363494  0.000000  0.000000  1
  N  N9  1  0.000187  0.363115  0.000000  1
  N  N10  1  0.637073  0.636886  0.000000  1
