# generated using pymatgen
data_YIn(ReH9)2
_symmetry_space_group_name_H-M   'P 1'
_cell_length_a   5.13267766
_cell_length_b   5.13243889
_cell_length_c   8.97051700
_cell_angle_alpha   93.48452216
_cell_angle_beta   86.52124311
_cell_angle_gamma   124.87354612
_symmetry_Int_Tables_number   1
_chemical_formula_structural   YIn(ReH9)2
_chemical_formula_sum   'Y1 In1 Re2 H18'
_cell_volume   193.41846114
_cell_formula_units_Z   1
loop_
 _symmetry_equiv_pos_site_id
 _symmetry_equiv_pos_as_xyz
  1  'x, y, z'
loop_
 _atom_site_type_symbol
 _atom_site_label
 _atom_site_symmetry_multiplicity
 _atom_site_fract_x
 _atom_site_fract_y
 _atom_site_fract_z
 _atom_site_occupancy
  Y  Y0  1  0.000000  0.000000  0.500000  1
  In  In1  1  0.000000  0.000000  0.000000  1
  Re  Re2  1  0.333782  0.666388  0.713588  1
  Re  Re3  1  0.666218  0.333612  0.286412  1
  H  H4  1  0.386295  0.613826  0.526256  1
  H  H5  1  0.613705  0.386174  0.473744  1
  H  H6  1  0.413694  0.586405  0.875523  1
  H  H7  1  0.586306  0.413595  0.124477  1
  H  H8  1  0.467910  0.969032  0.841839  1
  H  H9  1  0.968804  0.467645  0.158169  1
  H  H10  1  0.593559  0.026086  0.643191  1
  H  H11  1  0.025921  0.593352  0.356829  1
  H  H12  1  0.532090  0.030968  0.158161  1
  H  H13  1  0.031196  0.532355  0.841831  1
  H  H14  1  0.406441  0.973914  0.356809  1
  H  H15  1  0.974079  0.406648  0.643171  1
  H  H16  1  0.701128  0.729371  0.708275  1
  H  H17  1  0.729297  0.701012  0.291736  1
  H  H18  1  0.298872  0.270629  0.291725  1
  H  H19  1  0.270703  0.298988  0.708264  1
  H  H20  1  0.149733  0.850536  0.688547  1
  H  H21  1  0.850267  0.149464  0.311453  1
