# generated using pymatgen
data_TbYbVIr3
_symmetry_space_group_name_H-M   'P 1'
_cell_length_a   5.57979010
_cell_length_b   5.11964174
_cell_length_c   5.57979000
_cell_angle_alpha   56.97947079
_cell_angle_beta   60.00000058
_cell_angle_gamma   56.97946672
_symmetry_Int_Tables_number   1
_chemical_formula_structural   TbYbVIr3
_chemical_formula_sum   'Tb1 Yb1 V1 Ir3'
_cell_volume   107.28623388
_cell_formula_units_Z   1
loop_
 _symmetry_equiv_pos_site_id
 _symmetry_equiv_pos_as_xyz
  1  'x, y, z'
loop_
 _atom_site_type_symbol
 _atom_site_label
 _atom_site_symmetry_multiplicity
 _atom_site_fract_x
 _atom_site_fract_y
 _atom_site_fract_z
 _atom_site_occupancy
  Tb  Tb0  1  0.500168  0.499494  0.500168  1
  Yb  Yb1  1  0.750508  0.748476  0.750508  1
  V  V2  1  0.125716  0.622851  0.125716  1
  Ir  Ir3  1  0.626404  0.126393  0.123601  1
  Ir  Ir4  1  0.123601  0.126393  0.123601  1
  Ir  Ir5  1  0.123601  0.126393  0.626404  1
