# generated using pymatgen
data_Tm12CdCo2Ru3
_symmetry_space_group_name_H-M   'P 1'
_cell_length_a   8.24514643
_cell_length_b   8.24514561
_cell_length_c   8.24514500
_cell_angle_alpha   109.80033622
_cell_angle_beta   113.09163733
_cell_angle_gamma   105.60796458
_symmetry_Int_Tables_number   1
_chemical_formula_structural   Tm12CdCo2Ru3
_chemical_formula_sum   'Tm12 Cd1 Co2 Ru3'
_cell_volume   429.65221513
_cell_formula_units_Z   1
loop_
 _symmetry_equiv_pos_site_id
 _symmetry_equiv_pos_as_xyz
  1  'x, y, z'
loop_
 _atom_site_type_symbol
 _atom_site_label
 _atom_site_symmetry_multiplicity
 _atom_site_fract_x
 _atom_site_fract_y
 _atom_site_fract_z
 _atom_site_occupancy
  Tm  Tm0  1  0.276528  0.177975  0.454505  1
  Tm  Tm1  1  0.723472  0.822025  0.545495  1
  Tm  Tm2  1  0.276529  0.822025  0.098551  1
  Tm  Tm3  1  0.723471  0.177975  0.901449  1
  Tm  Tm4  1  0.636233  0.320253  0.315981  1
  Tm  Tm5  1  0.363767  0.679747  0.684019  1
  Tm  Tm6  1  0.004272  0.320253  0.684020  1
  Tm  Tm7  1  0.995728  0.679747  0.315980  1
  Tm  Tm8  1  0.230644  0.418124  0.187481  1
  Tm  Tm9  1  0.769356  0.581876  0.812519  1
  Tm  Tm10  1  0.230644  0.043163  0.812519  1
  Tm  Tm11  1  0.769356  0.956837  0.187481  1
  Cd  Cd12  1  0.500000  0.500000  0.000000  1
  Co  Co13  1  0.389186  0.889185  0.500000  1
  Co  Co14  1  0.610814  0.110815  0.500000  1
  Ru  Ru15  1  0.000001  0.337489  0.337489  1
  Ru  Ru16  1  0.999999  0.662511  0.662511  1
  Ru  Ru17  1  0.000000  0.000000  0.000000  1
