# generated using pymatgen
data_YbY4Zn2Sb
_symmetry_space_group_name_H-M   'P 1'
_cell_length_a   8.76001192
_cell_length_b   8.76001117
_cell_length_c   8.76001149
_cell_angle_alpha   126.18687561
_cell_angle_beta   126.18687262
_cell_angle_gamma   79.58121514
_symmetry_Int_Tables_number   1
_chemical_formula_structural   YbY4Zn2Sb
_chemical_formula_sum   'Yb2 Y8 Zn4 Sb2'
_cell_volume   423.11922917
_cell_formula_units_Z   2
loop_
 _symmetry_equiv_pos_site_id
 _symmetry_equiv_pos_as_xyz
  1  'x, y, z'
loop_
 _atom_site_type_symbol
 _atom_site_label
 _atom_site_symmetry_multiplicity
 _atom_site_fract_x
 _atom_site_fract_y
 _atom_site_fract_z
 _atom_site_occupancy
  Yb  Yb0  1  0.000000  0.000000  0.000000  1
  Yb  Yb1  1  0.500000  0.500000  0.000000  1
  Y  Y2  1  0.804915  0.304915  0.817391  1
  Y  Y3  1  0.195085  0.695085  0.182609  1
  Y  Y4  1  0.487524  0.987524  0.182609  1
  Y  Y5  1  0.304915  0.487524  0.500000  1
  Y  Y6  1  0.012476  0.195085  0.500000  1
  Y  Y7  1  0.512476  0.012476  0.817391  1
  Y  Y8  1  0.695085  0.512476  0.500000  1
  Y  Y9  1  0.987524  0.804915  0.500000  1
  Zn  Zn10  1  0.128292  0.628292  0.756581  1
  Zn  Zn11  1  0.871708  0.371708  0.243419  1
  Zn  Zn12  1  0.628292  0.871708  0.500000  1
  Zn  Zn13  1  0.371708  0.128292  0.500000  1
  Sb  Sb14  1  0.250000  0.250000  0.000000  1
  Sb  Sb15  1  0.750000  0.750000  0.000000  1
