# generated using pymatgen
data_Hf3(Ga3Mo)2
_symmetry_space_group_name_H-M   'P 1'
_cell_length_a   5.44958800
_cell_length_b   7.84833300
_cell_length_c   8.92379200
_cell_angle_alpha   90.00000000
_cell_angle_beta   90.00000000
_cell_angle_gamma   90.00000000
_symmetry_Int_Tables_number   1
_chemical_formula_structural   Hf3(Ga3Mo)2
_chemical_formula_sum   'Hf6 Ga12 Mo4'
_cell_volume   381.67220205
_cell_formula_units_Z   2
loop_
 _symmetry_equiv_pos_site_id
 _symmetry_equiv_pos_as_xyz
  1  'x, y, z'
loop_
 _atom_site_type_symbol
 _atom_site_label
 _atom_site_symmetry_multiplicity
 _atom_site_fract_x
 _atom_site_fract_y
 _atom_site_fract_z
 _atom_site_occupancy
  Hf  Hf0  1  0.500000  0.151448  0.775261  1
  Hf  Hf1  1  0.500000  0.151448  0.224739  1
  Hf  Hf2  1  0.000000  0.848552  0.724739  1
  Hf  Hf3  1  0.000000  0.848552  0.275261  1
  Hf  Hf4  1  0.500000  0.712888  0.500000  1
  Hf  Hf5  1  0.000000  0.287112  0.000000  1
  Ga  Ga6  1  0.500000  0.780736  0.190522  1
  Ga  Ga7  1  0.500000  0.780736  0.809478  1
  Ga  Ga8  1  0.000000  0.219264  0.309478  1
  Ga  Ga9  1  0.000000  0.219264  0.690522  1
  Ga  Ga10  1  0.500000  0.361941  0.500000  1
  Ga  Ga11  1  0.000000  0.638059  0.000000  1
  Ga  Ga12  1  0.000000  0.570710  0.500000  1
  Ga  Ga13  1  0.500000  0.429290  0.000000  1
  Ga  Ga14  1  0.260481  0.032032  0.500000  1
  Ga  Ga15  1  0.739519  0.032032  0.500000  1
  Ga  Ga16  1  0.239519  0.967968  0.000000  1
  Ga  Ga17  1  0.760481  0.967968  0.000000  1
  Mo  Mo18  1  0.250000  0.500000  0.250000  1
  Mo  Mo19  1  0.250000  0.500000  0.750000  1
  Mo  Mo20  1  0.750000  0.500000  0.250000  1
  Mo  Mo21  1  0.750000  0.500000  0.750000  1
