# generated using pymatgen
data_Tb4Dy2Si24Os7Ru
_symmetry_space_group_name_H-M   'P 1'
_cell_length_a   10.14520620
_cell_length_b   10.14520629
_cell_length_c   8.17753601
_cell_angle_alpha   90.00950580
_cell_angle_beta   90.00949986
_cell_angle_gamma   132.47887818
_symmetry_Int_Tables_number   1
_chemical_formula_structural   Tb4Dy2Si24Os7Ru
_chemical_formula_sum   'Tb4 Dy2 Si24 Os7 Ru1'
_cell_volume   620.75714136
_cell_formula_units_Z   1
loop_
 _symmetry_equiv_pos_site_id
 _symmetry_equiv_pos_as_xyz
  1  'x, y, z'
loop_
 _atom_site_type_symbol
 _atom_site_label
 _atom_site_symmetry_multiplicity
 _atom_site_fract_x
 _atom_site_fract_y
 _atom_site_fract_z
 _atom_site_occupancy
  Tb  Tb0  1  0.501172  0.000959  0.749331  1
  Tb  Tb1  1  0.998809  0.499050  0.250683  1
  Tb  Tb2  1  0.499050  0.998809  0.250683  1
  Tb  Tb3  1  0.000959  0.501172  0.749331  1
  Dy  Dy4  1  0.500128  0.500128  0.499164  1
  Dy  Dy5  1  0.000794  0.000794  0.999809  1
  Si  Si6  1  0.795090  0.204794  0.500154  1
  Si  Si7  1  0.295546  0.704366  0.000124  1
  Si  Si8  1  0.204794  0.795090  0.500154  1
  Si  Si9  1  0.704366  0.295546  0.000124  1
  Si  Si10  1  0.334097  0.334097  0.831920  1
  Si  Si11  1  0.668614  0.668614  0.165335  1
  Si  Si12  1  0.167463  0.167463  0.332907  1
  Si  Si13  1  0.832090  0.832090  0.667419  1
  Si  Si14  1  0.119766  0.885490  0.727852  1
  Si  Si15  1  0.114256  0.879313  0.272242  1
  Si  Si16  1  0.611234  0.376930  0.228440  1
  Si  Si17  1  0.621931  0.388235  0.771862  1
  Si  Si18  1  0.879313  0.114256  0.272242  1
  Si  Si19  1  0.885490  0.119766  0.727852  1
  Si  Si20  1  0.388235  0.621931  0.771862  1
  Si  Si21  1  0.376930  0.611234  0.228440  1
  Si  Si22  1  0.345048  0.110833  0.503700  1
  Si  Si23  1  0.888611  0.655024  0.496947  1
  Si  Si24  1  0.388331  0.154444  0.005957  1
  Si  Si25  1  0.845098  0.611800  0.994902  1
  Si  Si26  1  0.655024  0.888611  0.496947  1
  Si  Si27  1  0.110833  0.345048  0.503700  1
  Si  Si28  1  0.611800  0.845098  0.994902  1
  Si  Si29  1  0.154444  0.388331  0.005957  1
  Os  Os30  1  0.668933  0.331271  0.500051  1
  Os  Os31  1  0.169501  0.830591  0.999725  1
  Os  Os32  1  0.331271  0.668933  0.500051  1
  Os  Os33  1  0.830591  0.169501  0.999725  1
  Os  Os34  1  0.126634  0.126634  0.626996  1
  Os  Os35  1  0.873654  0.873654  0.372661  1
  Os  Os36  1  0.372737  0.372737  0.127888  1
  Ru  Ru37  1  0.627359  0.627359  0.871958  1
