# generated using pymatgen
data_Li3Eu4LuPt4
_symmetry_space_group_name_H-M   'P 1'
_cell_length_a   4.27428000
_cell_length_b   7.41342503
_cell_length_c   8.71653490
_cell_angle_alpha   90.36324266
_cell_angle_beta   90.00000000
_cell_angle_gamma   90.00000000
_symmetry_Int_Tables_number   1
_chemical_formula_structural   Li3Eu4LuPt4
_chemical_formula_sum   'Li3 Eu4 Lu1 Pt4'
_cell_volume   276.19576430
_cell_formula_units_Z   1
loop_
 _symmetry_equiv_pos_site_id
 _symmetry_equiv_pos_as_xyz
  1  'x, y, z'
loop_
 _atom_site_type_symbol
 _atom_site_label
 _atom_site_symmetry_multiplicity
 _atom_site_fract_x
 _atom_site_fract_y
 _atom_site_fract_z
 _atom_site_occupancy
  Li  Li0  1  0.250000  0.129406  0.946382  1
  Li  Li1  1  0.250000  0.644250  0.563748  1
  Li  Li2  1  0.750000  0.868939  0.054330  1
  Eu  Eu3  1  0.250000  0.020804  0.310829  1
  Eu  Eu4  1  0.250000  0.544304  0.165510  1
  Eu  Eu5  1  0.750000  0.957634  0.685047  1
  Eu  Eu6  1  0.750000  0.468812  0.828978  1
  Lu  Lu7  1  0.750000  0.369446  0.437907  1
  Pt  Pt8  1  0.250000  0.260372  0.617989  1
  Pt  Pt9  1  0.250000  0.763487  0.879610  1
  Pt  Pt10  1  0.750000  0.732178  0.376951  1
  Pt  Pt11  1  0.750000  0.240368  0.132719  1
