# generated using pymatgen
data_Lu6NpFe22
_symmetry_space_group_name_H-M   'P 1'
_cell_length_a   8.42926200
_cell_length_b   8.42926248
_cell_length_c   8.42926200
_cell_angle_alpha   119.99999811
_cell_angle_beta   90.00000000
_cell_angle_gamma   119.99999811
_symmetry_Int_Tables_number   1
_chemical_formula_structural   Lu6NpFe22
_chemical_formula_sum   'Lu6 Np1 Fe22'
_cell_volume   423.50028828
_cell_formula_units_Z   1
loop_
 _symmetry_equiv_pos_site_id
 _symmetry_equiv_pos_as_xyz
  1  'x, y, z'
loop_
 _atom_site_type_symbol
 _atom_site_label
 _atom_site_symmetry_multiplicity
 _atom_site_fract_x
 _atom_site_fract_y
 _atom_site_fract_z
 _atom_site_occupancy
  Lu  Lu0  1  0.706356  0.000000  0.293643  1
  Lu  Lu1  1  0.293644  0.000000  0.293644  1
  Lu  Lu2  1  0.293644  0.587288  0.293644  1
  Lu  Lu3  1  0.293643  0.000000  0.706356  1
  Lu  Lu4  1  0.706356  0.000000  0.706356  1
  Lu  Lu5  1  0.706356  0.412713  0.706356  1
  Np  Np6  1  0.000000  0.000000  0.000000  1
  Fe  Fe7  1  0.500001  0.000000  0.000000  1
  Fe  Fe8  1  0.000000  0.500001  0.000000  1
  Fe  Fe9  1  0.500001  0.500001  0.000000  1
  Fe  Fe10  1  0.674094  0.348191  0.022286  1
  Fe  Fe11  1  0.877885  0.755770  0.122115  1
  Fe  Fe12  1  0.366344  0.244229  0.122115  1
  Fe  Fe13  1  0.877885  0.244229  0.122115  1
  Fe  Fe14  1  0.674094  0.348191  0.325905  1
  Fe  Fe15  1  0.674094  0.651809  0.325905  1
  Fe  Fe16  1  0.977714  0.651809  0.325905  1
  Fe  Fe17  1  0.122115  0.244229  0.366344  1
  Fe  Fe18  1  0.000000  0.000000  0.500001  1
  Fe  Fe19  1  0.000000  0.500001  0.500001  1
  Fe  Fe20  1  0.500001  0.500001  0.500001  1
  Fe  Fe21  1  0.877885  0.755770  0.633655  1
  Fe  Fe22  1  0.022286  0.348191  0.674094  1
  Fe  Fe23  1  0.325905  0.348191  0.674094  1
  Fe  Fe24  1  0.325905  0.651809  0.674094  1
  Fe  Fe25  1  0.122115  0.244229  0.877885  1
  Fe  Fe26  1  0.122115  0.755770  0.877885  1
  Fe  Fe27  1  0.633655  0.755770  0.877885  1
  Fe  Fe28  1  0.325905  0.651809  0.977714  1
