# generated using pymatgen
data_Cs5GaO4
_symmetry_space_group_name_H-M   'P 1'
_cell_length_a   9.02509325
_cell_length_b   10.85934400
_cell_length_c   11.33359100
_cell_angle_alpha   90.00000000
_cell_angle_beta   97.56042518
_cell_angle_gamma   90.00000000
_symmetry_Int_Tables_number   1
_chemical_formula_structural   Cs5GaO4
_chemical_formula_sum   'Cs20 Ga4 O16'
_cell_volume   1101.11035405
_cell_formula_units_Z   4
loop_
 _symmetry_equiv_pos_site_id
 _symmetry_equiv_pos_as_xyz
  1  'x, y, z'
loop_
 _atom_site_type_symbol
 _atom_site_label
 _atom_site_symmetry_multiplicity
 _atom_site_fract_x
 _atom_site_fract_y
 _atom_site_fract_z
 _atom_site_occupancy
  Cs  Cs0  1  0.436542  0.189404  0.022525  1
  Cs  Cs1  1  0.042955  0.329345  0.030323  1
  Cs  Cs2  1  0.395313  0.527125  0.136527  1
  Cs  Cs3  1  0.889862  0.993351  0.139081  1
  Cs  Cs4  1  0.264620  0.851851  0.239254  1
  Cs  Cs5  1  0.735381  0.351851  0.260745  1
  Cs  Cs6  1  0.110138  0.493350  0.360919  1
  Cs  Cs7  1  0.604688  0.027124  0.363473  1
  Cs  Cs8  1  0.957044  0.829346  0.469677  1
  Cs  Cs9  1  0.563458  0.689404  0.477476  1
  Cs  Cs10  1  0.436541  0.310597  0.522524  1
  Cs  Cs11  1  0.042955  0.170655  0.530323  1
  Cs  Cs12  1  0.395312  0.972874  0.636527  1
  Cs  Cs13  1  0.889862  0.506649  0.639081  1
  Cs  Cs14  1  0.264618  0.648150  0.739254  1
  Cs  Cs15  1  0.735382  0.148149  0.760746  1
  Cs  Cs16  1  0.110137  0.006650  0.860919  1
  Cs  Cs17  1  0.604687  0.472876  0.863473  1
  Cs  Cs18  1  0.957045  0.670655  0.969677  1
  Cs  Cs19  1  0.563458  0.810596  0.977476  1
  Ga  Ga20  1  0.778489  0.668510  0.232188  1
  Ga  Ga21  1  0.221510  0.168511  0.267812  1
  Ga  Ga22  1  0.778490  0.831490  0.732188  1
  Ga  Ga23  1  0.221511  0.331489  0.767812  1
  O  O24  1  0.709635  0.564412  0.097866  1
  O  O25  1  0.204352  0.073254  0.122044  1
  O  O26  1  0.972149  0.732795  0.216916  1
  O  O27  1  0.639398  0.798668  0.245288  1
  O  O28  1  0.360602  0.298668  0.254711  1
  O  O29  1  0.027851  0.232795  0.283083  1
  O  O30  1  0.795649  0.573253  0.377956  1
  O  O31  1  0.290366  0.064412  0.402134  1
  O  O32  1  0.709635  0.935588  0.597866  1
  O  O33  1  0.204351  0.426746  0.622044  1
  O  O34  1  0.972150  0.767205  0.716916  1
  O  O35  1  0.639399  0.701332  0.745289  1
  O  O36  1  0.360602  0.201331  0.754711  1
  O  O37  1  0.027851  0.267205  0.783083  1
  O  O38  1  0.795649  0.926746  0.877956  1
  O  O39  1  0.290365  0.435588  0.902134  1
