# generated using pymatgen
data_Tm3Sc2U(Co3P2)6
_symmetry_space_group_name_H-M   'P 1'
_cell_length_a   3.66047800
_cell_length_b   10.47284100
_cell_length_c   12.02306300
_cell_angle_alpha   90.00000000
_cell_angle_beta   90.00000000
_cell_angle_gamma   90.00000000
_symmetry_Int_Tables_number   1
_chemical_formula_structural   Tm3Sc2U(Co3P2)6
_chemical_formula_sum   'Tm3 Sc2 U1 Co18 P12'
_cell_volume   460.91138297
_cell_formula_units_Z   1
loop_
 _symmetry_equiv_pos_site_id
 _symmetry_equiv_pos_as_xyz
  1  'x, y, z'
loop_
 _atom_site_type_symbol
 _atom_site_label
 _atom_site_symmetry_multiplicity
 _atom_site_fract_x
 _atom_site_fract_y
 _atom_site_fract_z
 _atom_site_occupancy
  Tm  Tm0  1  0.500000  0.000000  0.474447  1
  Tm  Tm1  1  0.000000  0.683667  0.795207  1
  Tm  Tm2  1  0.000000  0.316333  0.795207  1
  Sc  Sc3  1  0.500000  0.817074  0.206564  1
  Sc  Sc4  1  0.500000  0.182926  0.206564  1
  U  U5  1  0.000000  0.500000  0.529516  1
  Co  Co6  1  0.500000  0.500000  0.159020  1
  Co  Co7  1  0.000000  0.000000  0.841039  1
  Co  Co8  1  0.500000  0.500000  0.694424  1
  Co  Co9  1  0.000000  0.000000  0.295808  1
  Co  Co10  1  0.000000  0.500000  0.988427  1
  Co  Co11  1  0.500000  0.000000  0.017749  1
  Co  Co12  1  0.500000  0.332540  0.995254  1
  Co  Co13  1  0.500000  0.667460  0.995254  1
  Co  Co14  1  0.000000  0.165881  0.008239  1
  Co  Co15  1  0.000000  0.834119  0.008239  1
  Co  Co16  1  0.500000  0.298894  0.429073  1
  Co  Co17  1  0.500000  0.701106  0.429073  1
  Co  Co18  1  0.000000  0.200245  0.566945  1
  Co  Co19  1  0.000000  0.799755  0.566945  1
  Co  Co20  1  0.500000  0.879242  0.710484  1
  Co  Co21  1  0.500000  0.120758  0.710484  1
  Co  Co22  1  0.000000  0.622355  0.290123  1
  Co  Co23  1  0.000000  0.377645  0.290123  1
  P  P24  1  0.500000  0.500000  0.880044  1
  P  P25  1  0.000000  0.000000  0.121240  1
  P  P26  1  0.500000  0.500000  0.345961  1
  P  P27  1  0.000000  0.000000  0.653234  1
  P  P28  1  0.500000  0.306077  0.615246  1
  P  P29  1  0.500000  0.693923  0.615246  1
  P  P30  1  0.000000  0.186731  0.379032  1
  P  P31  1  0.000000  0.813269  0.379032  1
  P  P32  1  0.500000  0.848103  0.894087  1
  P  P33  1  0.500000  0.151897  0.894087  1
  P  P34  1  0.000000  0.656294  0.109291  1
  P  P35  1  0.000000  0.343706  0.109291  1
