# generated using pymatgen
data_Ho2Er2InPt11
_symmetry_space_group_name_H-M   'P 1'
_cell_length_a   4.17692000
_cell_length_b   5.83177206
_cell_length_c   11.64526350
_cell_angle_alpha   87.86131535
_cell_angle_beta   90.00000000
_cell_angle_gamma   90.00000000
_symmetry_Int_Tables_number   1
_chemical_formula_structural   Ho2Er2InPt11
_chemical_formula_sum   'Ho2 Er2 In1 Pt11'
_cell_volume   283.46757833
_cell_formula_units_Z   1
loop_
 _symmetry_equiv_pos_site_id
 _symmetry_equiv_pos_as_xyz
  1  'x, y, z'
loop_
 _atom_site_type_symbol
 _atom_site_label
 _atom_site_symmetry_multiplicity
 _atom_site_fract_x
 _atom_site_fract_y
 _atom_site_fract_z
 _atom_site_occupancy
  Ho  Ho0  1  0.500000  0.752503  0.375851  1
  Ho  Ho1  1  0.500000  0.721188  0.862243  1
  Er  Er2  1  0.500000  0.279002  0.137850  1
  Er  Er3  1  0.500000  0.247476  0.624103  1
  In  In4  1  0.000000  0.000189  0.000113  1
  Pt  Pt5  1  0.000000  0.011521  0.249220  1
  Pt  Pt6  1  0.000000  0.989231  0.750421  1
  Pt  Pt7  1  0.000000  0.499625  0.000208  1
  Pt  Pt8  1  0.000000  0.499648  0.500174  1
  Pt  Pt9  1  0.000000  0.512800  0.249990  1
  Pt  Pt10  1  0.000000  0.486523  0.749680  1
  Pt  Pt11  1  0.500000  0.250573  0.377741  1
  Pt  Pt12  1  0.500000  0.232299  0.880361  1
  Pt  Pt13  1  0.500000  0.767655  0.119671  1
  Pt  Pt14  1  0.500000  0.749477  0.622227  1
  Pt  Pt15  1  0.000000  0.000290  0.500146  1
