# generated using pymatgen
data_Sm4Si2Pd25Au3
_symmetry_space_group_name_H-M   'P 1'
_cell_length_a   9.05787482
_cell_length_b   9.05787482
_cell_length_c   7.10673449
_cell_angle_alpha   90.05149573
_cell_angle_beta   90.05149573
_cell_angle_gamma   90.37280301
_symmetry_Int_Tables_number   1
_chemical_formula_structural   Sm4Si2Pd25Au3
_chemical_formula_sum   'Sm4 Si2 Pd25 Au3'
_cell_volume   583.05989917
_cell_formula_units_Z   1
loop_
 _symmetry_equiv_pos_site_id
 _symmetry_equiv_pos_as_xyz
  1  'x, y, z'
loop_
 _atom_site_type_symbol
 _atom_site_label
 _atom_site_symmetry_multiplicity
 _atom_site_fract_x
 _atom_site_fract_y
 _atom_site_fract_z
 _atom_site_occupancy
  Sm  Sm0  1  0.503001  0.003001  0.931470  1
  Sm  Sm1  1  0.996999  0.496999  0.068530  1
  Sm  Sm2  1  0.999411  0.000589  0.500000  1
  Sm  Sm3  1  0.500589  0.499411  0.500000  1
  Si  Si4  1  0.500946  0.000946  0.446841  1
  Si  Si5  1  0.999054  0.499054  0.553159  1
  Pd  Pd6  1  0.336315  0.836315  0.613332  1
  Pd  Pd7  1  0.336801  0.164194  0.612340  1
  Pd  Pd8  1  0.664194  0.836801  0.612340  1
  Pd  Pd9  1  0.665423  0.165423  0.615694  1
  Pd  Pd10  1  0.163685  0.663685  0.386668  1
  Pd  Pd11  1  0.163199  0.335806  0.387660  1
  Pd  Pd12  1  0.835806  0.663199  0.387660  1
  Pd  Pd13  1  0.834577  0.334577  0.384306  1
  Pd  Pd14  1  0.499914  0.770845  0.258715  1
  Pd  Pd15  1  0.502091  0.229210  0.256921  1
  Pd  Pd16  1  0.270845  0.999914  0.258715  1
  Pd  Pd17  1  0.729210  0.002091  0.256921  1
  Pd  Pd18  1  0.000086  0.729155  0.741285  1
  Pd  Pd19  1  0.997909  0.270790  0.743079  1
  Pd  Pd20  1  0.229155  0.500086  0.741285  1
  Pd  Pd21  1  0.770790  0.497909  0.743079  1
  Pd  Pd22  1  0.502144  0.349167  0.853387  1
  Pd  Pd23  1  0.499617  0.649669  0.851177  1
  Pd  Pd24  1  0.849167  0.002144  0.853387  1
  Pd  Pd25  1  0.149669  0.999617  0.851177  1
  Pd  Pd26  1  0.997856  0.150833  0.146613  1
  Pd  Pd27  1  0.000383  0.850331  0.148823  1
  Pd  Pd28  1  0.650833  0.497856  0.146613  1
  Pd  Pd29  1  0.350331  0.500383  0.148823  1
  Pd  Pd30  1  0.750000  0.250000  0.000000  1
  Au  Au31  1  0.250000  0.750000  0.000000  1
  Au  Au32  1  0.250000  0.250000  0.000000  1
  Au  Au33  1  0.750000  0.750000  0.000000  1
