# generated using pymatgen
data_Nd16TmLu3Sn16
_symmetry_space_group_name_H-M   'P 1'
_cell_length_a   8.19634800
_cell_length_b   8.38896002
_cell_length_c   15.87981300
_cell_angle_alpha   90.00000000
_cell_angle_beta   90.00000000
_cell_angle_gamma   90.00412526
_symmetry_Int_Tables_number   1
_chemical_formula_structural   Nd16TmLu3Sn16
_chemical_formula_sum   'Nd16 Tm1 Lu3 Sn16'
_cell_volume   1091.87745012
_cell_formula_units_Z   1
loop_
 _symmetry_equiv_pos_site_id
 _symmetry_equiv_pos_as_xyz
  1  'x, y, z'
loop_
 _atom_site_type_symbol
 _atom_site_label
 _atom_site_symmetry_multiplicity
 _atom_site_fract_x
 _atom_site_fract_y
 _atom_site_fract_z
 _atom_site_occupancy
  Nd  Nd0  1  0.017854  0.180841  0.401877  1
  Nd  Nd1  1  0.366022  0.838767  0.121401  1
  Nd  Nd2  1  0.134262  0.338475  0.621563  1
  Nd  Nd3  1  0.482028  0.681114  0.901723  1
  Nd  Nd4  1  0.865266  0.661808  0.121369  1
  Nd  Nd5  1  0.134262  0.338475  0.878437  1
  Nd  Nd6  1  0.482028  0.681114  0.598277  1
  Nd  Nd7  1  0.634296  0.161533  0.621476  1
  Nd  Nd8  1  0.865266  0.661808  0.378631  1
  Nd  Nd9  1  0.017854  0.180841  0.098123  1
  Nd  Nd10  1  0.981959  0.818876  0.901834  1
  Nd  Nd11  1  0.634296  0.161533  0.878524  1
  Nd  Nd12  1  0.518291  0.318620  0.098160  1
  Nd  Nd13  1  0.366022  0.838767  0.378599  1
  Nd  Nd14  1  0.981959  0.818876  0.598166  1
  Nd  Nd15  1  0.518291  0.318620  0.401840  1
  Tm  Tm16  1  0.197229  0.502008  0.250000  1
  Lu  Lu17  1  0.697799  0.997813  0.250000  1
  Lu  Lu18  1  0.302368  0.002042  0.750000  1
  Lu  Lu19  1  0.802305  0.497876  0.750000  1
  Sn  Sn20  1  0.793313  0.465422  0.544967  1
  Sn  Sn21  1  0.706654  0.965335  0.455175  1
  Sn  Sn22  1  0.676092  0.851436  0.750000  1
  Sn  Sn23  1  0.206697  0.534905  0.455520  1
  Sn  Sn24  1  0.293291  0.034692  0.955034  1
  Sn  Sn25  1  0.824160  0.351237  0.250000  1
  Sn  Sn26  1  0.793313  0.465422  0.955033  1
  Sn  Sn27  1  0.561574  0.616124  0.250000  1
  Sn  Sn28  1  0.206697  0.534905  0.044480  1
  Sn  Sn29  1  0.438877  0.384106  0.750000  1
  Sn  Sn30  1  0.175884  0.648707  0.750000  1
  Sn  Sn31  1  0.938802  0.115778  0.750000  1
  Sn  Sn32  1  0.293291  0.034692  0.544966  1
  Sn  Sn33  1  0.706654  0.965335  0.044825  1
  Sn  Sn34  1  0.323961  0.148153  0.250000  1
  Sn  Sn35  1  0.061078  0.883942  0.250000  1
