# generated using pymatgen
data_AlZnCoNi11Mo2
_symmetry_space_group_name_H-M   'P 1'
_cell_length_a   3.57536200
_cell_length_b   3.57536200
_cell_length_c   14.47730400
_cell_angle_alpha   90.00000000
_cell_angle_beta   90.00000000
_cell_angle_gamma   90.00000000
_symmetry_Int_Tables_number   1
_chemical_formula_structural   AlZnCoNi11Mo2
_chemical_formula_sum   'Al1 Zn1 Co1 Ni11 Mo2'
_cell_volume   185.06646694
_cell_formula_units_Z   1
loop_
 _symmetry_equiv_pos_site_id
 _symmetry_equiv_pos_as_xyz
  1  'x, y, z'
loop_
 _atom_site_type_symbol
 _atom_site_label
 _atom_site_symmetry_multiplicity
 _atom_site_fract_x
 _atom_site_fract_y
 _atom_site_fract_z
 _atom_site_occupancy
  Al  Al0  1  0.000000  0.000000  0.498704  1
  Zn  Zn1  1  0.000000  0.000000  0.000694  1
  Co  Co2  1  0.500000  0.500000  0.251276  1
  Ni  Ni3  1  0.500000  0.500000  0.999259  1
  Ni  Ni4  1  0.500000  0.500000  0.501044  1
  Ni  Ni5  1  0.500000  0.500000  0.748877  1
  Ni  Ni6  1  0.500000  0.000000  0.125578  1
  Ni  Ni7  1  0.500000  0.000000  0.375999  1
  Ni  Ni8  1  0.500000  0.000000  0.624796  1
  Ni  Ni9  1  0.500000  0.000000  0.873790  1
  Ni  Ni10  1  0.000000  0.500000  0.125578  1
  Ni  Ni11  1  0.000000  0.500000  0.375999  1
  Ni  Ni12  1  0.000000  0.500000  0.624796  1
  Ni  Ni13  1  0.000000  0.500000  0.873790  1
  Mo  Mo14  1  0.000000  0.000000  0.248758  1
  Mo  Mo15  1  0.000000  0.000000  0.751063  1
