# generated using pymatgen
data_La3AlPd5
_symmetry_space_group_name_H-M   'P 1'
_cell_length_a   8.60133644
_cell_length_b   8.60133595
_cell_length_c   8.60133590
_cell_angle_alpha   128.28488146
_cell_angle_beta   126.01583661
_cell_angle_gamma   78.01937857
_symmetry_Int_Tables_number   1
_chemical_formula_structural   La3AlPd5
_chemical_formula_sum   'La6 Al2 Pd10'
_cell_volume   391.51741405
_cell_formula_units_Z   2
loop_
 _symmetry_equiv_pos_site_id
 _symmetry_equiv_pos_as_xyz
  1  'x, y, z'
loop_
 _atom_site_type_symbol
 _atom_site_label
 _atom_site_symmetry_multiplicity
 _atom_site_fract_x
 _atom_site_fract_y
 _atom_site_fract_z
 _atom_site_occupancy
  La  La0  1  0.819055  0.048333  0.770722  1
  La  La1  1  0.222388  0.451667  0.770722  1
  La  La2  1  0.180945  0.951667  0.229278  1
  La  La3  1  0.374263  0.250000  0.124263  1
  La  La4  1  0.777612  0.548333  0.229278  1
  La  La5  1  0.625737  0.750000  0.875737  1
  Al  Al6  1  0.218675  0.750000  0.468675  1
  Al  Al7  1  0.781325  0.250000  0.531325  1
  Pd  Pd8  1  0.831168  0.600033  0.640734  1
  Pd  Pd9  1  0.540701  0.309566  0.640734  1
  Pd  Pd10  1  0.459299  0.100033  0.768865  1
  Pd  Pd11  1  0.831168  0.190434  0.231135  1
  Pd  Pd12  1  0.168832  0.399967  0.359266  1
  Pd  Pd13  1  0.459299  0.690434  0.359266  1
  Pd  Pd14  1  0.540701  0.899967  0.231135  1
  Pd  Pd15  1  0.168832  0.809566  0.768865  1
  Pd  Pd16  1  0.000000  0.000000  0.500000  1
  Pd  Pd17  1  0.000000  0.500000  0.000000  1
