# generated using pymatgen
data_Y3(Sn2Ir)2
_symmetry_space_group_name_H-M   'P 1'
_cell_length_a   7.52399800
_cell_length_b   7.52399938
_cell_length_c   4.24170900
_cell_angle_alpha   90.00000000
_cell_angle_beta   90.00000000
_cell_angle_gamma   119.99999393
_symmetry_Int_Tables_number   1
_chemical_formula_structural   Y3(Sn2Ir)2
_chemical_formula_sum   'Y3 Sn4 Ir2'
_cell_volume   207.95480111
_cell_formula_units_Z   1
loop_
 _symmetry_equiv_pos_site_id
 _symmetry_equiv_pos_as_xyz
  1  'x, y, z'
loop_
 _atom_site_type_symbol
 _atom_site_label
 _atom_site_symmetry_multiplicity
 _atom_site_fract_x
 _atom_site_fract_y
 _atom_site_fract_z
 _atom_site_occupancy
  Y  Y0  1  0.607142  0.022821  0.000000  1
  Y  Y1  1  0.977179  0.584320  0.000000  1
  Y  Y2  1  0.415680  0.392858  0.000000  1
  Sn  Sn3  1  0.257801  0.020849  0.500000  1
  Sn  Sn4  1  0.979151  0.236953  0.500000  1
  Sn  Sn5  1  0.763047  0.742199  0.500000  1
  Sn  Sn6  1  0.333333  0.666667  0.500000  1
  Ir  Ir7  1  0.666667  0.333333  0.500000  1
  Ir  Ir8  1  0.000000  0.000000  0.000000  1
