# generated using pymatgen
data_YbScGa9Ru5
_symmetry_space_group_name_H-M   'P 1'
_cell_length_a   7.95909645
_cell_length_b   7.95909602
_cell_length_c   7.95909635
_cell_angle_alpha   134.81702459
_cell_angle_beta   134.31765928
_cell_angle_gamma   66.20403284
_symmetry_Int_Tables_number   1
_chemical_formula_structural   YbScGa9Ru5
_chemical_formula_sum   'Yb1 Sc1 Ga9 Ru5'
_cell_volume   251.93029000
_cell_formula_units_Z   1
loop_
 _symmetry_equiv_pos_site_id
 _symmetry_equiv_pos_as_xyz
  1  'x, y, z'
loop_
 _atom_site_type_symbol
 _atom_site_label
 _atom_site_symmetry_multiplicity
 _atom_site_fract_x
 _atom_site_fract_y
 _atom_site_fract_z
 _atom_site_occupancy
  Yb  Yb0  1  0.000000  0.500000  0.500000  1
  Sc  Sc1  1  0.500000  0.000000  0.500000  1
  Ga  Ga2  1  0.433858  0.858081  0.002116  1
  Ga  Ga3  1  0.144034  0.141919  0.575777  1
  Ga  Ga4  1  0.855966  0.431742  0.997884  1
  Ga  Ga5  1  0.855966  0.858081  0.424223  1
  Ga  Ga6  1  0.566142  0.141919  0.997884  1
  Ga  Ga7  1  0.144034  0.568258  0.002116  1
  Ga  Ga8  1  0.566142  0.568258  0.424223  1
  Ga  Ga9  1  0.000000  0.000000  0.000000  1
  Ga  Ga10  1  0.433858  0.431742  0.575777  1
  Ru  Ru11  1  0.183205  0.183205  0.000000  1
  Ru  Ru12  1  0.816795  0.816795  0.000000  1
  Ru  Ru13  1  0.249870  0.749870  0.500000  1
  Ru  Ru14  1  0.750130  0.250130  0.500000  1
  Ru  Ru15  1  0.500000  0.500000  0.000000  1
