# generated using pymatgen
data_CeDy3(AlPt3)6
_symmetry_space_group_name_H-M   'P 1'
_cell_length_a   7.71372812
_cell_length_b   7.72330133
_cell_length_c   10.25141820
_cell_angle_alpha   67.83340867
_cell_angle_beta   67.99138207
_cell_angle_gamma   59.95110568
_symmetry_Int_Tables_number   1
_chemical_formula_structural   CeDy3(AlPt3)6
_chemical_formula_sum   'Ce1 Dy3 Al6 Pt18'
_cell_volume   476.24278016
_cell_formula_units_Z   1
loop_
 _symmetry_equiv_pos_site_id
 _symmetry_equiv_pos_as_xyz
  1  'x, y, z'
loop_
 _atom_site_type_symbol
 _atom_site_label
 _atom_site_symmetry_multiplicity
 _atom_site_fract_x
 _atom_site_fract_y
 _atom_site_fract_z
 _atom_site_occupancy
  Ce  Ce0  1  0.244493  0.415414  0.250207  1
  Dy  Dy1  1  0.585750  0.753900  0.249375  1
  Dy  Dy2  1  0.753941  0.585106  0.749879  1
  Dy  Dy3  1  0.414722  0.246059  0.750331  1
  Al  Al4  1  0.820746  0.354099  0.501224  1
  Al  Al5  1  0.647531  0.177419  0.998165  1
  Al  Al6  1  0.354257  0.822949  0.999992  1
  Al  Al7  1  0.177318  0.646506  0.500502  1
  Al  Al8  1  0.999202  0.500211  0.999220  1
  Al  Al9  1  0.500639  0.998996  0.500961  1
  Pt  Pt10  1  0.190147  0.022348  0.428835  1
  Pt  Pt11  1  0.305753  0.141220  0.073138  1
  Pt  Pt12  1  0.644784  0.472508  0.075664  1
  Pt  Pt13  1  0.527927  0.355495  0.424530  1
  Pt  Pt14  1  0.857415  0.695042  0.426581  1
  Pt  Pt15  1  0.917160  0.296345  0.252223  1
  Pt  Pt16  1  0.702559  0.082383  0.247859  1
  Pt  Pt17  1  0.809087  0.977389  0.572421  1
  Pt  Pt18  1  0.472459  0.644725  0.575669  1
  Pt  Pt19  1  0.865087  0.135565  0.749611  1
  Pt  Pt20  1  0.977970  0.809201  0.071801  1
  Pt  Pt21  1  0.297158  0.917212  0.752348  1
  Pt  Pt22  1  0.356343  0.527758  0.923002  1
  Pt  Pt23  1  0.135423  0.865218  0.250088  1
  Pt  Pt24  1  0.695019  0.858487  0.925325  1
  Pt  Pt25  1  0.082926  0.702866  0.747892  1
  Pt  Pt26  1  0.022537  0.190691  0.927884  1
  Pt  Pt27  1  0.141645  0.304889  0.575273  1
