# generated using pymatgen
data_Hf2AlV2Ru
_symmetry_space_group_name_H-M   'P 1'
_cell_length_a   5.23292000
_cell_length_b   5.23063418
_cell_length_c   8.36311200
_cell_angle_alpha   90.00000000
_cell_angle_beta   90.00000000
_cell_angle_gamma   60.17627821
_symmetry_Int_Tables_number   1
_chemical_formula_structural   Hf2AlV2Ru
_chemical_formula_sum   'Hf4 Al2 V4 Ru2'
_cell_volume   198.59379979
_cell_formula_units_Z   2
loop_
 _symmetry_equiv_pos_site_id
 _symmetry_equiv_pos_as_xyz
  1  'x, y, z'
loop_
 _atom_site_type_symbol
 _atom_site_label
 _atom_site_symmetry_multiplicity
 _atom_site_fract_x
 _atom_site_fract_y
 _atom_site_fract_z
 _atom_site_occupancy
  Hf  Hf0  1  0.330398  0.330450  0.556585  1
  Hf  Hf1  1  0.665215  0.665141  0.432761  1
  Hf  Hf2  1  0.665215  0.665141  0.067239  1
  Hf  Hf3  1  0.330398  0.330450  0.943415  1
  Al  Al4  1  0.839932  0.348858  0.750000  1
  Al  Al5  1  0.348850  0.839914  0.750000  1
  V  V6  1  0.843540  0.843607  0.750000  1
  V  V7  1  0.166278  0.651570  0.250000  1
  V  V8  1  0.651550  0.166300  0.250000  1
  V  V9  1  0.166424  0.166404  0.250000  1
  Ru  Ru10  1  0.996100  0.996083  0.499831  1
  Ru  Ru11  1  0.996100  0.996083  0.000169  1
