# generated using pymatgen
data_Ce(PIr2)2
_symmetry_space_group_name_H-M   'P 1'
_cell_length_a   4.07868400
_cell_length_b   7.39444700
_cell_length_c   15.07567400
_cell_angle_alpha   90.00000000
_cell_angle_beta   90.00000000
_cell_angle_gamma   90.00000000
_symmetry_Int_Tables_number   1
_chemical_formula_structural   Ce(PIr2)2
_chemical_formula_sum   'Ce4 P8 Ir16'
_cell_volume   454.67648855
_cell_formula_units_Z   4
loop_
 _symmetry_equiv_pos_site_id
 _symmetry_equiv_pos_as_xyz
  1  'x, y, z'
loop_
 _atom_site_type_symbol
 _atom_site_label
 _atom_site_symmetry_multiplicity
 _atom_site_fract_x
 _atom_site_fract_y
 _atom_site_fract_z
 _atom_site_occupancy
  Ce  Ce0  1  0.250000  0.860988  0.185546  1
  Ce  Ce1  1  0.750000  0.139012  0.814454  1
  Ce  Ce2  1  0.250000  0.360988  0.314454  1
  Ce  Ce3  1  0.750000  0.639012  0.685546  1
  P  P4  1  0.250000  0.319602  0.693597  1
  P  P5  1  0.250000  0.779379  0.556762  1
  P  P6  1  0.750000  0.220621  0.443238  1
  P  P7  1  0.750000  0.180398  0.193597  1
  P  P8  1  0.250000  0.819602  0.806403  1
  P  P9  1  0.250000  0.279379  0.943238  1
  P  P10  1  0.750000  0.720621  0.056762  1
  P  P11  1  0.750000  0.680398  0.306403  1
  Ir  Ir12  1  0.250000  0.986864  0.677943  1
  Ir  Ir13  1  0.250000  0.486864  0.822057  1
  Ir  Ir14  1  0.750000  0.378465  0.002006  1
  Ir  Ir15  1  0.750000  0.741301  0.882676  1
  Ir  Ir16  1  0.750000  0.537819  0.446297  1
  Ir  Ir17  1  0.750000  0.241301  0.617324  1
  Ir  Ir18  1  0.750000  0.513136  0.177943  1
  Ir  Ir19  1  0.750000  0.037819  0.053703  1
  Ir  Ir20  1  0.250000  0.758699  0.382676  1
  Ir  Ir21  1  0.250000  0.258699  0.117324  1
  Ir  Ir22  1  0.250000  0.962181  0.946297  1
  Ir  Ir23  1  0.250000  0.121535  0.502006  1
  Ir  Ir24  1  0.750000  0.878465  0.497994  1
  Ir  Ir25  1  0.750000  0.013136  0.322057  1
  Ir  Ir26  1  0.250000  0.621535  0.997994  1
  Ir  Ir27  1  0.250000  0.462181  0.553703  1
