# generated using pymatgen
data_LaHo2(ZnPd)4
_symmetry_space_group_name_H-M   'P 1'
_cell_length_a   8.25320981
_cell_length_b   8.25320905
_cell_length_c   8.25320942
_cell_angle_alpha   151.22667167
_cell_angle_beta   126.10046994
_cell_angle_gamma   62.24227951
_symmetry_Int_Tables_number   1
_chemical_formula_structural   LaHo2(ZnPd)4
_chemical_formula_sum   'La1 Ho2 Zn4 Pd4'
_cell_volume   216.77241572
_cell_formula_units_Z   1
loop_
 _symmetry_equiv_pos_site_id
 _symmetry_equiv_pos_as_xyz
  1  'x, y, z'
loop_
 _atom_site_type_symbol
 _atom_site_label
 _atom_site_symmetry_multiplicity
 _atom_site_fract_x
 _atom_site_fract_y
 _atom_site_fract_z
 _atom_site_occupancy
  La  La0  1  0.500000  0.000000  0.500000  1
  Ho  Ho1  1  0.871169  0.871169  0.000000  1
  Ho  Ho2  1  0.128831  0.128831  0.000000  1
  Zn  Zn3  1  0.478103  0.674488  0.803615  1
  Zn  Zn4  1  0.870873  0.674488  0.196385  1
  Zn  Zn5  1  0.129127  0.325512  0.803615  1
  Zn  Zn6  1  0.521897  0.325512  0.196385  1
  Pd  Pd7  1  0.278612  0.778612  0.500000  1
  Pd  Pd8  1  0.721388  0.221388  0.500000  1
  Pd  Pd9  1  0.811742  0.500000  0.311742  1
  Pd  Pd10  1  0.188258  0.500000  0.688258  1
