# generated using pymatgen
data_Rb2(B2Pt3)3
_symmetry_space_group_name_H-M   'P 1'
_cell_length_a   8.19251259
_cell_length_b   8.19251290
_cell_length_c   8.19251349
_cell_angle_alpha   82.48806079
_cell_angle_beta   82.48805844
_cell_angle_gamma   82.48806695
_symmetry_Int_Tables_number   1
_chemical_formula_structural   Rb2(B2Pt3)3
_chemical_formula_sum   'Rb4 B12 Pt18'
_cell_volume   536.83697497
_cell_formula_units_Z   2
loop_
 _symmetry_equiv_pos_site_id
 _symmetry_equiv_pos_as_xyz
  1  'x, y, z'
loop_
 _atom_site_type_symbol
 _atom_site_label
 _atom_site_symmetry_multiplicity
 _atom_site_fract_x
 _atom_site_fract_y
 _atom_site_fract_z
 _atom_site_occupancy
  Rb  Rb0  1  0.627501  0.627501  0.627501  1
  Rb  Rb1  1  0.872499  0.872499  0.872499  1
  Rb  Rb2  1  0.372499  0.372499  0.372499  1
  Rb  Rb3  1  0.127501  0.127501  0.127501  1
  B  B4  1  0.546758  0.187405  0.835459  1
  B  B5  1  0.835459  0.546758  0.187405  1
  B  B6  1  0.187405  0.835459  0.546758  1
  B  B7  1  0.953242  0.664541  0.312595  1
  B  B8  1  0.453242  0.812595  0.164541  1
  B  B9  1  0.164541  0.453242  0.812595  1
  B  B10  1  0.812595  0.164541  0.453242  1
  B  B11  1  0.046758  0.335459  0.687405  1
  B  B12  1  0.687405  0.046758  0.335459  1
  B  B13  1  0.335459  0.687405  0.046758  1
  B  B14  1  0.312595  0.953242  0.664541  1
  B  B15  1  0.664541  0.312595  0.953242  1
  Pt  Pt16  1  0.410353  0.935427  0.402851  1
  Pt  Pt17  1  0.089647  0.097149  0.564573  1
  Pt  Pt18  1  0.935427  0.402851  0.410353  1
  Pt  Pt19  1  0.564573  0.089647  0.097149  1
  Pt  Pt20  1  0.597149  0.589647  0.064573  1
  Pt  Pt21  1  0.589647  0.064573  0.597149  1
  Pt  Pt22  1  0.064573  0.597149  0.589647  1
  Pt  Pt23  1  0.910353  0.902851  0.435427  1
  Pt  Pt24  1  0.902851  0.435427  0.910353  1
  Pt  Pt25  1  0.435427  0.910353  0.902851  1
  Pt  Pt26  1  0.750000  0.288641  0.211359  1
  Pt  Pt27  1  0.211359  0.750000  0.288641  1
  Pt  Pt28  1  0.288641  0.211359  0.750000  1
  Pt  Pt29  1  0.250000  0.711359  0.788641  1
  Pt  Pt30  1  0.788641  0.250000  0.711359  1
  Pt  Pt31  1  0.711359  0.788641  0.250000  1
  Pt  Pt32  1  0.097149  0.564573  0.089647  1
  Pt  Pt33  1  0.402851  0.410353  0.935427  1
