# generated using pymatgen
data_ErTm3SiBr6
_symmetry_space_group_name_H-M   'P 1'
_cell_length_a   4.00715000
_cell_length_b   13.09628258
_cell_length_c   13.84096450
_cell_angle_alpha   90.17431987
_cell_angle_beta   90.00000000
_cell_angle_gamma   90.00000000
_symmetry_Int_Tables_number   1
_chemical_formula_structural   ErTm3SiBr6
_chemical_formula_sum   'Er2 Tm6 Si2 Br12'
_cell_volume   726.35341349
_cell_formula_units_Z   2
loop_
 _symmetry_equiv_pos_site_id
 _symmetry_equiv_pos_as_xyz
  1  'x, y, z'
loop_
 _atom_site_type_symbol
 _atom_site_label
 _atom_site_symmetry_multiplicity
 _atom_site_fract_x
 _atom_site_fract_y
 _atom_site_fract_z
 _atom_site_occupancy
  Er  Er0  1  0.000000  0.617447  0.921737  1
  Er  Er1  1  0.000000  0.382553  0.078263  1
  Tm  Tm2  1  0.500000  0.117461  0.342323  1
  Tm  Tm3  1  0.500000  0.882539  0.657677  1
  Tm  Tm4  1  0.500000  0.618050  0.158468  1
  Tm  Tm5  1  0.500000  0.381950  0.841532  1
  Tm  Tm6  1  0.000000  0.116490  0.577908  1
  Tm  Tm7  1  0.000000  0.883510  0.422092  1
  Si  Si8  1  0.500000  0.000000  0.500000  1
  Si  Si9  1  0.500000  0.500000  0.000000  1
  Br  Br10  1  0.500000  0.244222  0.164620  1
  Br  Br11  1  0.500000  0.755778  0.835380  1
  Br  Br12  1  0.500000  0.746981  0.336240  1
  Br  Br13  1  0.500000  0.253019  0.663760  1
  Br  Br14  1  0.000000  0.254758  0.412087  1
  Br  Br15  1  0.000000  0.745242  0.587913  1
  Br  Br16  1  0.000000  0.755560  0.090247  1
  Br  Br17  1  0.000000  0.244440  0.909753  1
  Br  Br18  1  0.000000  0.002105  0.243399  1
  Br  Br19  1  0.000000  0.997895  0.756601  1
  Br  Br20  1  0.000000  0.504421  0.258353  1
  Br  Br21  1  0.000000  0.495579  0.741647  1
