# generated using pymatgen
data_Ho2Co9Si(As2Rh)3
_symmetry_space_group_name_H-M   'P 1'
_cell_length_a   9.38746120
_cell_length_b   9.39171466
_cell_length_c   3.79135800
_cell_angle_alpha   90.00028252
_cell_angle_beta   90.00006101
_cell_angle_gamma   119.99818431
_symmetry_Int_Tables_number   1
_chemical_formula_structural   Ho2Co9Si(As2Rh)3
_chemical_formula_sum   'Ho2 Co9 Si1 As6 Rh3'
_cell_volume   289.48523413
_cell_formula_units_Z   1
loop_
 _symmetry_equiv_pos_site_id
 _symmetry_equiv_pos_as_xyz
  1  'x, y, z'
loop_
 _atom_site_type_symbol
 _atom_site_label
 _atom_site_symmetry_multiplicity
 _atom_site_fract_x
 _atom_site_fract_y
 _atom_site_fract_z
 _atom_site_occupancy
  Ho  Ho0  1  0.333470  0.666695  0.261883  1
  Ho  Ho1  1  0.666611  0.333317  0.761950  1
  Co  Co2  1  0.428688  0.369925  0.261876  1
  Co  Co3  1  0.941306  0.571245  0.261885  1
  Co  Co4  1  0.629938  0.058669  0.261884  1
  Co  Co5  1  0.563557  0.614540  0.761880  1
  Co  Co6  1  0.051076  0.436499  0.761888  1
  Co  Co7  1  0.385584  0.949188  0.761887  1
  Co  Co8  1  0.159542  0.877313  0.261902  1
  Co  Co9  1  0.717639  0.840429  0.261896  1
  Co  Co10  1  0.122744  0.282212  0.261886  1
  Si  Si11  1  0.999968  0.999955  0.261892  1
  As  As12  1  0.414091  0.113457  0.261981  1
  As  As13  1  0.699295  0.585913  0.261984  1
  As  As14  1  0.886580  0.300646  0.261995  1
  As  As15  1  0.590389  0.880291  0.761868  1
  As  As16  1  0.289835  0.409543  0.761819  1
  As  As17  1  0.119832  0.710244  0.761861  1
  Rh  Rh18  1  0.882812  0.095008  0.761925  1
  Rh  Rh19  1  0.212211  0.117278  0.761931  1
  Rh  Rh20  1  0.904831  0.787637  0.761928  1
