# generated using pymatgen
data_Pr2Sc3Pt4
_symmetry_space_group_name_H-M   'P 1'
_cell_length_a   7.60702500
_cell_length_b   7.58397600
_cell_length_c   13.71749100
_cell_angle_alpha   90.00000000
_cell_angle_beta   90.00000000
_cell_angle_gamma   90.00000000
_symmetry_Int_Tables_number   1
_chemical_formula_structural   Pr2Sc3Pt4
_chemical_formula_sum   'Pr8 Sc12 Pt16'
_cell_volume   791.38256387
_cell_formula_units_Z   4
loop_
 _symmetry_equiv_pos_site_id
 _symmetry_equiv_pos_as_xyz
  1  'x, y, z'
loop_
 _atom_site_type_symbol
 _atom_site_label
 _atom_site_symmetry_multiplicity
 _atom_site_fract_x
 _atom_site_fract_y
 _atom_site_fract_z
 _atom_site_occupancy
  Pr  Pr0  1  0.010512  0.170958  0.402363  1
  Pr  Pr1  1  0.510512  0.329042  0.402363  1
  Pr  Pr2  1  0.489488  0.670958  0.902363  1
  Pr  Pr3  1  0.489488  0.670958  0.597637  1
  Pr  Pr4  1  0.989488  0.829042  0.597637  1
  Pr  Pr5  1  0.989488  0.829042  0.902363  1
  Pr  Pr6  1  0.510512  0.329042  0.097637  1
  Pr  Pr7  1  0.010512  0.170958  0.097637  1
  Sc  Sc8  1  0.330393  0.166639  0.624720  1
  Sc  Sc9  1  0.669607  0.833361  0.375280  1
  Sc  Sc10  1  0.660401  0.004785  0.750000  1
  Sc  Sc11  1  0.169607  0.666639  0.375280  1
  Sc  Sc12  1  0.830393  0.333361  0.875280  1
  Sc  Sc13  1  0.830393  0.333361  0.624720  1
  Sc  Sc14  1  0.839599  0.504785  0.250000  1
  Sc  Sc15  1  0.339599  0.995215  0.250000  1
  Sc  Sc16  1  0.330393  0.166639  0.875280  1
  Sc  Sc17  1  0.169607  0.666639  0.124720  1
  Sc  Sc18  1  0.669607  0.833361  0.124720  1
  Sc  Sc19  1  0.160401  0.495215  0.750000  1
  Pt  Pt20  1  0.296524  0.869711  0.750000  1
  Pt  Pt21  1  0.467290  0.637037  0.250000  1
  Pt  Pt22  1  0.032710  0.137037  0.750000  1
  Pt  Pt23  1  0.532710  0.362963  0.750000  1
  Pt  Pt24  1  0.164171  0.455769  0.546226  1
  Pt  Pt25  1  0.967290  0.862963  0.250000  1
  Pt  Pt26  1  0.703476  0.130289  0.250000  1
  Pt  Pt27  1  0.835829  0.544231  0.046226  1
  Pt  Pt28  1  0.335829  0.955769  0.046226  1
  Pt  Pt29  1  0.164171  0.455769  0.953774  1
  Pt  Pt30  1  0.664171  0.044231  0.546226  1
  Pt  Pt31  1  0.335829  0.955769  0.453774  1
  Pt  Pt32  1  0.835829  0.544231  0.453774  1
  Pt  Pt33  1  0.796524  0.630289  0.750000  1
  Pt  Pt34  1  0.203476  0.369711  0.250000  1
  Pt  Pt35  1  0.664171  0.044231  0.953774  1
