# generated using pymatgen
data_Yb11Ho3(Er3Sn8)2
_symmetry_space_group_name_H-M   'P 1'
_cell_length_a   7.81697905
_cell_length_b   8.40937986
_cell_length_c   15.92616709
_cell_angle_alpha   90.00477221
_cell_angle_beta   90.01127767
_cell_angle_gamma   89.86295658
_symmetry_Int_Tables_number   1
_chemical_formula_structural   Yb11Ho3(Er3Sn8)2
_chemical_formula_sum   'Yb11 Ho3 Er6 Sn16'
_cell_volume   1046.91864404
_cell_formula_units_Z   1
loop_
 _symmetry_equiv_pos_site_id
 _symmetry_equiv_pos_as_xyz
  1  'x, y, z'
loop_
 _atom_site_type_symbol
 _atom_site_label
 _atom_site_symmetry_multiplicity
 _atom_site_fract_x
 _atom_site_fract_y
 _atom_site_fract_z
 _atom_site_occupancy
  Yb  Yb0  1  0.503848  0.687403  0.593505  1
  Yb  Yb1  1  0.003950  0.815226  0.908362  1
  Yb  Yb2  1  0.494344  0.311973  0.092276  1
  Yb  Yb3  1  0.995797  0.187184  0.408115  1
  Yb  Yb4  1  0.494415  0.311972  0.407733  1
  Yb  Yb5  1  0.995843  0.187170  0.091866  1
  Yb  Yb6  1  0.503804  0.687377  0.906489  1
  Yb  Yb7  1  0.003888  0.815227  0.591625  1
  Yb  Yb8  1  0.336172  0.989692  0.750007  1
  Yb  Yb9  1  0.163696  0.488181  0.250010  1
  Yb  Yb10  1  0.663423  0.009567  0.250030  1
  Ho  Ho11  1  0.826377  0.664236  0.121783  1
  Ho  Ho12  1  0.674071  0.163783  0.877812  1
  Ho  Ho13  1  0.175439  0.334865  0.622790  1
  Er  Er14  1  0.674121  0.163712  0.622153  1
  Er  Er15  1  0.175416  0.334943  0.877210  1
  Er  Er16  1  0.326122  0.833282  0.122075  1
  Er  Er17  1  0.826364  0.664188  0.378233  1
  Er  Er18  1  0.326144  0.833243  0.377957  1
  Er  Er19  1  0.837769  0.510153  0.749978  1
  Sn  Sn20  1  0.671941  0.962600  0.459243  1
  Sn  Sn21  1  0.171901  0.536543  0.040087  1
  Sn  Sn22  1  0.328442  0.037016  0.959301  1
  Sn  Sn23  1  0.828390  0.465546  0.543811  1
  Sn  Sn24  1  0.328825  0.036882  0.540676  1
  Sn  Sn25  1  0.828848  0.465515  0.956069  1
  Sn  Sn26  1  0.671755  0.962642  0.040821  1
  Sn  Sn27  1  0.171652  0.536739  0.459723  1
  Sn  Sn28  1  0.475772  0.379486  0.750025  1
  Sn  Sn29  1  0.971875  0.132661  0.749976  1
  Sn  Sn30  1  0.527682  0.625201  0.250106  1
  Sn  Sn31  1  0.027460  0.872062  0.250056  1
  Sn  Sn32  1  0.721893  0.865324  0.749947  1
  Sn  Sn33  1  0.209976  0.631335  0.750068  1
  Sn  Sn34  1  0.280759  0.126291  0.250012  1
  Sn  Sn35  1  0.781825  0.370780  0.250072  1
