# generated using pymatgen
data_Er2Pa2Zn4Ir3Rh
_symmetry_space_group_name_H-M   'P 1'
_cell_length_a   3.83982900
_cell_length_b   7.13035174
_cell_length_c   8.38056420
_cell_angle_alpha   90.95914904
_cell_angle_beta   90.00000000
_cell_angle_gamma   90.00000000
_symmetry_Int_Tables_number   1
_chemical_formula_structural   Er2Pa2Zn4Ir3Rh
_chemical_formula_sum   'Er2 Pa2 Zn4 Ir3 Rh1'
_cell_volume   229.42209412
_cell_formula_units_Z   1
loop_
 _symmetry_equiv_pos_site_id
 _symmetry_equiv_pos_as_xyz
  1  'x, y, z'
loop_
 _atom_site_type_symbol
 _atom_site_label
 _atom_site_symmetry_multiplicity
 _atom_site_fract_x
 _atom_site_fract_y
 _atom_site_fract_z
 _atom_site_occupancy
  Er  Er0  1  0.750000  0.941995  0.685063  1
  Er  Er1  1  0.250000  0.055960  0.314331  1
  Pa  Pa2  1  0.250000  0.552542  0.190819  1
  Pa  Pa3  1  0.750000  0.447179  0.811000  1
  Zn  Zn4  1  0.250000  0.632400  0.559073  1
  Zn  Zn5  1  0.750000  0.367265  0.440967  1
  Zn  Zn6  1  0.750000  0.883363  0.061850  1
  Zn  Zn7  1  0.250000  0.116070  0.937682  1
  Ir  Ir8  1  0.250000  0.721257  0.876262  1
  Ir  Ir9  1  0.750000  0.277964  0.121415  1
  Ir  Ir10  1  0.750000  0.752730  0.360568  1
  Rh  Rh11  1  0.250000  0.251275  0.640971  1
