# generated using pymatgen
data_Ga12Fe3Ir
_symmetry_space_group_name_H-M   'P 1'
_cell_length_a   6.34253730
_cell_length_b   6.34253734
_cell_length_c   6.64446910
_cell_angle_alpha   89.95308746
_cell_angle_beta   89.95309450
_cell_angle_gamma   90.52974790
_symmetry_Int_Tables_number   1
_chemical_formula_structural   Ga12Fe3Ir
_chemical_formula_sum   'Ga12 Fe3 Ir1'
_cell_volume   267.28063361
_cell_formula_units_Z   1
loop_
 _symmetry_equiv_pos_site_id
 _symmetry_equiv_pos_as_xyz
  1  'x, y, z'
loop_
 _atom_site_type_symbol
 _atom_site_label
 _atom_site_symmetry_multiplicity
 _atom_site_fract_x
 _atom_site_fract_y
 _atom_site_fract_z
 _atom_site_occupancy
  Ga  Ga0  1  0.501178  0.998736  0.999998  1
  Ga  Ga1  1  0.998736  0.501178  0.999998  1
  Ga  Ga2  1  0.340461  0.340461  0.231248  1
  Ga  Ga3  1  0.646927  0.646927  0.228438  1
  Ga  Ga4  1  0.850799  0.162893  0.255892  1
  Ga  Ga5  1  0.162893  0.850799  0.255892  1
  Ga  Ga6  1  0.493137  0.012941  0.500012  1
  Ga  Ga7  1  0.012941  0.493137  0.500012  1
  Ga  Ga8  1  0.850848  0.162960  0.744075  1
  Ga  Ga9  1  0.162960  0.850848  0.744075  1
  Ga  Ga10  1  0.340454  0.340454  0.768759  1
  Ga  Ga11  1  0.646946  0.646946  0.771564  1
  Fe  Fe12  1  0.655569  0.340588  0.999974  1
  Fe  Fe13  1  0.340588  0.655569  0.999974  1
  Fe  Fe14  1  0.156591  0.156591  0.500000  1
  Ir  Ir15  1  0.838973  0.838973  0.500044  1
