# generated using pymatgen
data_Tb3Np4ScTe12
_symmetry_space_group_name_H-M   'P 1'
_cell_length_a   4.32551900
_cell_length_b   11.79742249
_cell_length_c   12.03631937
_cell_angle_alpha   89.90116571
_cell_angle_beta   90.00000000
_cell_angle_gamma   90.00000000
_symmetry_Int_Tables_number   1
_chemical_formula_structural   Tb3Np4ScTe12
_chemical_formula_sum   'Tb3 Np4 Sc1 Te12'
_cell_volume   614.21216451
_cell_formula_units_Z   1
loop_
 _symmetry_equiv_pos_site_id
 _symmetry_equiv_pos_as_xyz
  1  'x, y, z'
loop_
 _atom_site_type_symbol
 _atom_site_label
 _atom_site_symmetry_multiplicity
 _atom_site_fract_x
 _atom_site_fract_y
 _atom_site_fract_z
 _atom_site_occupancy
  Tb  Tb0  1  0.250000  0.311262  0.985051  1
  Tb  Tb1  1  0.750000  0.814794  0.514342  1
  Tb  Tb2  1  0.750000  0.686527  0.015064  1
  Np  Np3  1  0.750000  0.500957  0.692807  1
  Np  Np4  1  0.750000  0.998846  0.195845  1
  Np  Np5  1  0.250000  0.494295  0.307189  1
  Np  Np6  1  0.250000  0.004339  0.800842  1
  Sc  Sc7  1  0.250000  0.187565  0.485729  1
  Te  Te8  1  0.250000  0.625495  0.543701  1
  Te  Te9  1  0.250000  0.874785  0.043533  1
  Te  Te10  1  0.750000  0.363396  0.459109  1
  Te  Te11  1  0.750000  0.126030  0.956822  1
  Te  Te12  1  0.250000  0.300004  0.722249  1
  Te  Te13  1  0.250000  0.199832  0.232650  1
  Te  Te14  1  0.750000  0.699122  0.274234  1
  Te  Te15  1  0.750000  0.802422  0.772272  1
  Te  Te16  1  0.750000  0.061450  0.612355  1
  Te  Te17  1  0.750000  0.443283  0.118673  1
  Te  Te18  1  0.250000  0.951409  0.386173  1
  Te  Te19  1  0.250000  0.554187  0.881359  1
