# generated using pymatgen
data_Th6ZnGa5Pd6
_symmetry_space_group_name_H-M   'P 1'
_cell_length_a   7.34975829
_cell_length_b   7.34975716
_cell_length_c   8.26134931
_cell_angle_alpha   89.96209256
_cell_angle_beta   90.03790708
_cell_angle_gamma   119.90422897
_symmetry_Int_Tables_number   1
_chemical_formula_structural   Th6ZnGa5Pd6
_chemical_formula_sum   'Th6 Zn1 Ga5 Pd6'
_cell_volume   386.85289014
_cell_formula_units_Z   1
loop_
 _symmetry_equiv_pos_site_id
 _symmetry_equiv_pos_as_xyz
  1  'x, y, z'
loop_
 _atom_site_type_symbol
 _atom_site_label
 _atom_site_symmetry_multiplicity
 _atom_site_fract_x
 _atom_site_fract_y
 _atom_site_fract_z
 _atom_site_occupancy
  Th  Th0  1  0.585905  0.585599  0.251290  1
  Th  Th1  1  0.000751  0.414059  0.749298  1
  Th  Th2  1  0.414059  0.000751  0.250702  1
  Th  Th3  1  0.000223  0.413754  0.250694  1
  Th  Th4  1  0.413754  0.000223  0.749306  1
  Th  Th5  1  0.585599  0.585905  0.748710  1
  Zn  Zn6  1  0.243877  0.243877  0.500000  1
  Ga  Ga7  1  0.762547  0.000872  0.500003  1
  Ga  Ga8  1  0.000872  0.762547  0.499997  1
  Ga  Ga9  1  0.754379  0.999336  0.000015  1
  Ga  Ga10  1  0.243363  0.243363  0.000000  1
  Ga  Ga11  1  0.999336  0.754379  0.999985  1
  Pd  Pd12  1  0.332984  0.669208  0.499618  1
  Pd  Pd13  1  0.997918  0.997989  0.753029  1
  Pd  Pd14  1  0.997989  0.997918  0.246971  1
  Pd  Pd15  1  0.332024  0.665212  0.000433  1
  Pd  Pd16  1  0.669208  0.332984  0.500382  1
  Pd  Pd17  1  0.665212  0.332024  0.999567  1
