# generated using pymatgen
data_Rb3Pr(VSe4)2
_symmetry_space_group_name_H-M   'P 1'
_cell_length_a   10.39433131
_cell_length_b   7.24377100
_cell_length_c   12.20278637
_cell_angle_alpha   90.00000000
_cell_angle_beta   90.43069128
_cell_angle_gamma   90.00000000
_symmetry_Int_Tables_number   1
_chemical_formula_structural   Rb3Pr(VSe4)2
_chemical_formula_sum   'Rb6 Pr2 V4 Se16'
_cell_volume   918.77253885
_cell_formula_units_Z   2
loop_
 _symmetry_equiv_pos_site_id
 _symmetry_equiv_pos_as_xyz
  1  'x, y, z'
loop_
 _atom_site_type_symbol
 _atom_site_label
 _atom_site_symmetry_multiplicity
 _atom_site_fract_x
 _atom_site_fract_y
 _atom_site_fract_z
 _atom_site_occupancy
  Rb  Rb0  1  0.363926  0.802054  0.089454  1
  Rb  Rb1  1  0.401032  0.308008  0.348238  1
  Rb  Rb2  1  0.838478  0.308241  0.427607  1
  Rb  Rb3  1  0.161522  0.808241  0.572394  1
  Rb  Rb4  1  0.598968  0.808008  0.651762  1
  Rb  Rb5  1  0.636075  0.302054  0.910546  1
  Pr  Pr6  1  0.888644  0.783182  0.148907  1
  Pr  Pr7  1  0.111356  0.283182  0.851093  1
  V  V8  1  0.089297  0.333322  0.157172  1
  V  V9  1  0.630609  0.808015  0.312480  1
  V  V10  1  0.369391  0.308014  0.687520  1
  V  V11  1  0.910703  0.833322  0.842828  1
  Se  Se12  1  0.926225  0.394727  0.035765  1
  Se  Se13  1  0.276909  0.305139  0.060594  1
  Se  Se14  1  0.660404  0.053460  0.196016  1
  Se  Se15  1  0.647742  0.550914  0.201268  1
  Se  Se16  1  0.058622  0.073984  0.261047  1
  Se  Se17  1  0.100575  0.579983  0.273105  1
  Se  Se18  1  0.437956  0.816896  0.397286  1
  Se  Se19  1  0.811683  0.804354  0.420800  1
  Se  Se20  1  0.188318  0.304353  0.579200  1
  Se  Se21  1  0.562043  0.316895  0.602714  1
  Se  Se22  1  0.899425  0.079982  0.726895  1
  Se  Se23  1  0.941378  0.573984  0.738953  1
  Se  Se24  1  0.352258  0.050915  0.798732  1
  Se  Se25  1  0.339596  0.553458  0.803984  1
  Se  Se26  1  0.723090  0.805140  0.939406  1
  Se  Se27  1  0.073775  0.894727  0.964234  1
