# generated using pymatgen
data_Yb4MnO5
_symmetry_space_group_name_H-M   'P 1'
_cell_length_a   5.75236462
_cell_length_b   5.75236503
_cell_length_c   5.75236486
_cell_angle_alpha   99.55695180
_cell_angle_beta   99.55696003
_cell_angle_gamma   131.90859633
_symmetry_Int_Tables_number   1
_chemical_formula_structural   Yb4MnO5
_chemical_formula_sum   'Yb4 Mn1 O5'
_cell_volume   129.36335747
_cell_formula_units_Z   1
loop_
 _symmetry_equiv_pos_site_id
 _symmetry_equiv_pos_as_xyz
  1  'x, y, z'
loop_
 _atom_site_type_symbol
 _atom_site_label
 _atom_site_symmetry_multiplicity
 _atom_site_fract_x
 _atom_site_fract_y
 _atom_site_fract_z
 _atom_site_occupancy
  Yb  Yb0  1  0.399839  0.202581  0.602420  1
  Yb  Yb1  1  0.797419  0.399839  0.197257  1
  Yb  Yb2  1  0.202581  0.600161  0.802743  1
  Yb  Yb3  1  0.600161  0.797419  0.397580  1
  Mn  Mn4  1  0.000000  0.000000  0.000000  1
  O  O5  1  0.296420  0.902267  0.198687  1
  O  O6  1  0.703580  0.097733  0.801313  1
  O  O7  1  0.097733  0.296420  0.394152  1
  O  O8  1  0.500000  0.500000  0.000000  1
  O  O9  1  0.902267  0.703580  0.605848  1
