# generated using pymatgen
data_SmDy2AuO7
_symmetry_space_group_name_H-M   'P 1'
_cell_length_a   6.53067471
_cell_length_b   6.53067382
_cell_length_c   7.51299300
_cell_angle_alpha   90.00000000
_cell_angle_beta   90.00000000
_cell_angle_gamma   108.80867566
_symmetry_Int_Tables_number   1
_chemical_formula_structural   SmDy2AuO7
_chemical_formula_sum   'Sm2 Dy4 Au2 O14'
_cell_volume   303.31629125
_cell_formula_units_Z   2
loop_
 _symmetry_equiv_pos_site_id
 _symmetry_equiv_pos_as_xyz
  1  'x, y, z'
loop_
 _atom_site_type_symbol
 _atom_site_label
 _atom_site_symmetry_multiplicity
 _atom_site_fract_x
 _atom_site_fract_y
 _atom_site_fract_z
 _atom_site_occupancy
  Sm  Sm0  1  0.500000  0.500000  0.500000  1
  Sm  Sm1  1  0.500000  0.500000  0.000000  1
  Dy  Dy2  1  0.528564  0.998244  0.750000  1
  Dy  Dy3  1  0.998244  0.528564  0.250000  1
  Dy  Dy4  1  0.471436  0.001756  0.250000  1
  Dy  Dy5  1  0.001756  0.471436  0.750000  1
  Au  Au6  1  0.000000  0.000000  0.500000  1
  Au  Au7  1  0.000000  0.000000  0.000000  1
  O  O8  1  0.671426  0.921978  0.476024  1
  O  O9  1  0.921978  0.671426  0.523976  1
  O  O10  1  0.671426  0.921978  0.023976  1
  O  O11  1  0.921978  0.671426  0.976024  1
  O  O12  1  0.328574  0.078022  0.523976  1
  O  O13  1  0.078022  0.328574  0.476024  1
  O  O14  1  0.328574  0.078022  0.976024  1
  O  O15  1  0.078022  0.328574  0.023976  1
  O  O16  1  0.921563  0.078437  0.750000  1
  O  O17  1  0.078437  0.921563  0.250000  1
  O  O18  1  0.364447  0.635552  0.750000  1
  O  O19  1  0.635552  0.364447  0.250000  1
  O  O20  1  0.641787  0.358213  0.750000  1
  O  O21  1  0.358213  0.641787  0.250000  1
