# generated using pymatgen
data_NaSr2MnCo5P6
_symmetry_space_group_name_H-M   'P 1'
_cell_length_a   8.34668171
_cell_length_b   8.33866580
_cell_length_c   6.46939560
_cell_angle_alpha   67.19517739
_cell_angle_beta   67.16333500
_cell_angle_gamma   36.84810238
_symmetry_Int_Tables_number   1
_chemical_formula_structural   NaSr2MnCo5P6
_chemical_formula_sum   'Na1 Sr2 Mn1 Co5 P6'
_cell_volume   246.43140915
_cell_formula_units_Z   1
loop_
 _symmetry_equiv_pos_site_id
 _symmetry_equiv_pos_as_xyz
  1  'x, y, z'
loop_
 _atom_site_type_symbol
 _atom_site_label
 _atom_site_symmetry_multiplicity
 _atom_site_fract_x
 _atom_site_fract_y
 _atom_site_fract_z
 _atom_site_occupancy
  Na  Na0  1  0.999753  0.000260  0.000435  1
  Sr  Sr1  1  0.660219  0.663347  0.674299  1
  Sr  Sr2  1  0.341200  0.335062  0.324773  1
  Mn  Mn3  1  0.082345  0.584281  0.832535  1
  Co  Co4  1  0.416641  0.916874  0.166762  1
  Co  Co5  1  0.751992  0.248230  0.501066  1
  Co  Co6  1  0.248949  0.753317  0.497945  1
  Co  Co7  1  0.583500  0.082725  0.832690  1
  Co  Co8  1  0.916260  0.415270  0.169110  1
  P  P9  1  0.883403  0.879550  0.534082  1
  P  P10  1  0.215611  0.219244  0.863152  1
  P  P11  1  0.550835  0.549464  0.203577  1
  P  P12  1  0.445541  0.452252  0.801349  1
  P  P13  1  0.786548  0.782859  0.131608  1
  P  P14  1  0.117203  0.117264  0.466617  1
