# generated using pymatgen
data_Te4IrOsBr8
_symmetry_space_group_name_H-M   'P 1'
_cell_length_a   11.57812158
_cell_length_b   11.07697251
_cell_length_c   11.60928819
_cell_angle_alpha   118.09376124
_cell_angle_beta   117.99122977
_cell_angle_gamma   93.97493972
_symmetry_Int_Tables_number   1
_chemical_formula_structural   Te4IrOsBr8
_chemical_formula_sum   'Te8 Ir2 Os2 Br16'
_cell_volume   1076.25178778
_cell_formula_units_Z   2
loop_
 _symmetry_equiv_pos_site_id
 _symmetry_equiv_pos_as_xyz
  1  'x, y, z'
loop_
 _atom_site_type_symbol
 _atom_site_label
 _atom_site_symmetry_multiplicity
 _atom_site_fract_x
 _atom_site_fract_y
 _atom_site_fract_z
 _atom_site_occupancy
  Te  Te0  1  0.677153  0.713053  0.593005  1
  Te  Te1  1  0.357631  0.986197  0.706055  1
  Te  Te2  1  0.293034  0.875521  0.966555  1
  Te  Te3  1  0.294198  0.639259  0.286766  1
  Te  Te4  1  0.119730  0.072585  0.408389  1
  Te  Te5  1  0.001187  0.742069  0.399004  1
  Te  Te6  1  0.917171  0.341217  0.029502  1
  Te  Te7  1  0.339219  0.634639  0.610971  1
  Ir  Ir8  1  0.477385  0.815172  0.593837  1
  Ir  Ir9  1  0.190844  0.783189  0.672656  1
  Os  Os10  1  0.213960  0.849773  0.400336  1
  Os  Os11  1  0.112592  0.552555  0.336215  1
  Br  Br12  1  0.694425  0.403590  0.939578  1
  Br  Br13  1  0.096838  0.980675  0.797314  1
  Br  Br14  1  0.931858  0.364779  0.301210  1
  Br  Br15  1  0.616009  0.557238  0.307811  1
  Br  Br16  1  0.509481  0.114025  0.135132  1
  Br  Br17  1  0.624098  0.488364  0.602893  1
  Br  Br18  1  0.013617  0.779210  0.120054  1
  Br  Br19  1  0.045966  0.609045  0.697108  1
  Br  Br20  1  0.440763  0.731204  0.047882  1
  Br  Br21  1  0.658111  0.967862  0.582825  1
  Br  Br22  1  0.181458  0.313612  0.219920  1
  Br  Br23  1  0.363622  0.041501  0.408624  1
  Br  Br24  1  0.686335  0.919446  0.879315  1
  Br  Br25  1  0.266243  0.306371  0.696342  1
  Br  Br26  1  0.886994  0.031407  0.390216  1
  Br  Br27  1  0.990076  0.386443  0.870483  1
