# generated using pymatgen
data_Pr11Tm(Si7Br3)2
_symmetry_space_group_name_H-M   'P 1'
_cell_length_a   4.09390600
_cell_length_b   11.81706500
_cell_length_c   16.58148400
_cell_angle_alpha   90.00000000
_cell_angle_beta   90.00000000
_cell_angle_gamma   90.00000000
_symmetry_Int_Tables_number   1
_chemical_formula_structural   Pr11Tm(Si7Br3)2
_chemical_formula_sum   'Pr11 Tm1 Si14 Br6'
_cell_volume   802.17825869
_cell_formula_units_Z   1
loop_
 _symmetry_equiv_pos_site_id
 _symmetry_equiv_pos_as_xyz
  1  'x, y, z'
loop_
 _atom_site_type_symbol
 _atom_site_label
 _atom_site_symmetry_multiplicity
 _atom_site_fract_x
 _atom_site_fract_y
 _atom_site_fract_z
 _atom_site_occupancy
  Pr  Pr0  1  0.500000  0.341607  0.500000  1
  Pr  Pr1  1  0.000000  0.658337  0.000000  1
  Pr  Pr2  1  0.500000  0.360126  0.754659  1
  Pr  Pr3  1  0.000000  0.640802  0.741657  1
  Pr  Pr4  1  0.500000  0.360126  0.245341  1
  Pr  Pr5  1  0.000000  0.640802  0.258343  1
  Pr  Pr6  1  0.500000  0.065145  0.879616  1
  Pr  Pr7  1  0.000000  0.932516  0.619063  1
  Pr  Pr8  1  0.500000  0.065145  0.120384  1
  Pr  Pr9  1  0.000000  0.932516  0.380937  1
  Pr  Pr10  1  0.500000  0.356182  0.000000  1
  Tm  Tm11  1  0.000000  0.646218  0.500000  1
  Si  Si12  1  0.000000  0.151771  0.000000  1
  Si  Si13  1  0.500000  0.845824  0.500000  1
  Si  Si14  1  0.500000  0.567521  0.875624  1
  Si  Si15  1  0.000000  0.436478  0.620744  1
  Si  Si16  1  0.500000  0.567521  0.124376  1
  Si  Si17  1  0.000000  0.436478  0.379256  1
  Si  Si18  1  0.000000  0.253546  0.873394  1
  Si  Si19  1  0.500000  0.744081  0.623667  1
  Si  Si20  1  0.000000  0.253546  0.126606  1
  Si  Si21  1  0.500000  0.744081  0.376333  1
  Si  Si22  1  0.000000  0.458085  0.876273  1
  Si  Si23  1  0.500000  0.543501  0.618157  1
  Si  Si24  1  0.500000  0.543501  0.381843  1
  Si  Si25  1  0.000000  0.458085  0.123727  1
  Br  Br26  1  0.500000  0.108952  0.692227  1
  Br  Br27  1  0.000000  0.889521  0.806586  1
  Br  Br28  1  0.000000  0.138294  0.500000  1
  Br  Br29  1  0.500000  0.861219  0.000000  1
  Br  Br30  1  0.500000  0.108952  0.307773  1
  Br  Br31  1  0.000000  0.889521  0.193414  1
