# generated using pymatgen
data_Sr9Yb(Si2Sn)2
_symmetry_space_group_name_H-M   'P 1'
_cell_length_a   9.93243100
_cell_length_b   9.93243097
_cell_length_c   9.93243027
_cell_angle_alpha   131.48014790
_cell_angle_beta   131.48013909
_cell_angle_gamma   71.05132555
_symmetry_Int_Tables_number   1
_chemical_formula_structural   Sr9Yb(Si2Sn)2
_chemical_formula_sum   'Sr9 Yb1 Si4 Sn2'
_cell_volume   538.51420487
_cell_formula_units_Z   1
loop_
 _symmetry_equiv_pos_site_id
 _symmetry_equiv_pos_as_xyz
  1  'x, y, z'
loop_
 _atom_site_type_symbol
 _atom_site_label
 _atom_site_symmetry_multiplicity
 _atom_site_fract_x
 _atom_site_fract_y
 _atom_site_fract_z
 _atom_site_occupancy
  Sr  Sr0  1  0.541270  0.046085  0.857602  1
  Sr  Sr1  1  0.188483  0.683668  0.142398  1
  Sr  Sr2  1  0.046085  0.188483  0.504816  1
  Sr  Sr3  1  0.683668  0.541270  0.495184  1
  Sr  Sr4  1  0.458730  0.953915  0.142398  1
  Sr  Sr5  1  0.811517  0.316332  0.857602  1
  Sr  Sr6  1  0.953915  0.811517  0.495184  1
  Sr  Sr7  1  0.316332  0.458730  0.504816  1
  Sr  Sr8  1  0.000000  0.000000  0.000000  1
  Yb  Yb9  1  0.500000  0.500000  0.000000  1
  Si  Si10  1  0.888238  0.394061  0.282299  1
  Si  Si11  1  0.111762  0.605939  0.717701  1
  Si  Si12  1  0.394061  0.111762  0.505823  1
  Si  Si13  1  0.605939  0.888238  0.494177  1
  Sn  Sn14  1  0.249344  0.249344  0.000000  1
  Sn  Sn15  1  0.750656  0.750656  0.000000  1
