# generated using pymatgen
data_Hf4Ti2BeBr12
_symmetry_space_group_name_H-M   'P 1'
_cell_length_a   8.55292588
_cell_length_b   8.60178691
_cell_length_c   8.64096800
_cell_angle_alpha   106.85479478
_cell_angle_beta   106.57625238
_cell_angle_gamma   106.73604246
_symmetry_Int_Tables_number   1
_chemical_formula_structural   Hf4Ti2BeBr12
_chemical_formula_sum   'Hf4 Ti2 Be1 Br12'
_cell_volume   533.39006061
_cell_formula_units_Z   1
loop_
 _symmetry_equiv_pos_site_id
 _symmetry_equiv_pos_as_xyz
  1  'x, y, z'
loop_
 _atom_site_type_symbol
 _atom_site_label
 _atom_site_symmetry_multiplicity
 _atom_site_fract_x
 _atom_site_fract_y
 _atom_site_fract_z
 _atom_site_occupancy
  Hf  Hf0  1  0.969948  0.709216  0.904594  1
  Hf  Hf1  1  0.293551  0.098163  0.029853  1
  Hf  Hf2  1  0.093448  0.029928  0.290133  1
  Hf  Hf3  1  0.902043  0.972847  0.709261  1
  Ti  Ti4  1  0.718616  0.908962  0.971540  1
  Ti  Ti5  1  0.025268  0.279098  0.092165  1
  Be  Be6  1  0.999890  0.000936  0.999510  1
  Br  Br7  1  0.926188  0.312688  0.788562  1
  Br  Br8  1  0.692128  0.212484  0.073837  1
  Br  Br9  1  0.441263  0.138872  0.363936  1
  Br  Br10  1  0.862548  0.636943  0.560591  1
  Br  Br11  1  0.223886  0.078065  0.687956  1
  Br  Br12  1  0.636008  0.571176  0.864861  1
  Br  Br13  1  0.355335  0.436580  0.138100  1
  Br  Br14  1  0.774749  0.920476  0.306640  1
  Br  Br15  1  0.134355  0.362438  0.428193  1
  Br  Br16  1  0.562013  0.861082  0.644774  1
  Br  Br17  1  0.310454  0.777584  0.922880  1
  Br  Br18  1  0.078313  0.692466  0.222611  1
