# generated using pymatgen
data_Ni5Mo2Pt3(W5N2)2
_symmetry_space_group_name_H-M   'P 1'
_cell_length_a   6.76749114
_cell_length_b   6.76836053
_cell_length_c   6.76850054
_cell_angle_alpha   89.83153902
_cell_angle_beta   90.18329451
_cell_angle_gamma   89.94051753
_symmetry_Int_Tables_number   1
_chemical_formula_structural   Ni5Mo2Pt3(W5N2)2
_chemical_formula_sum   'Ni5 Mo2 Pt3 W10 N4'
_cell_volume   310.02685186
_cell_formula_units_Z   1
loop_
 _symmetry_equiv_pos_site_id
 _symmetry_equiv_pos_as_xyz
  1  'x, y, z'
loop_
 _atom_site_type_symbol
 _atom_site_label
 _atom_site_symmetry_multiplicity
 _atom_site_fract_x
 _atom_site_fract_y
 _atom_site_fract_z
 _atom_site_occupancy
  Ni  Ni0  1  0.196484  0.184207  0.180185  1
  Ni  Ni1  1  0.316439  0.820256  0.696015  1
  Ni  Ni2  1  0.435398  0.063905  0.935904  1
  Ni  Ni3  1  0.810677  0.688750  0.311142  1
  Ni  Ni4  1  0.679487  0.304341  0.815970  1
  Mo  Mo5  1  0.798506  0.044814  0.123482  1
  Mo  Mo6  1  0.957492  0.626700  0.694796  1
  Pt  Pt7  1  0.561968  0.563952  0.563715  1
  Pt  Pt8  1  0.064695  0.937570  0.435557  1
  Pt  Pt9  1  0.936067  0.436085  0.062977  1
  W  W10  1  0.623775  0.701436  0.954682  1
  W  W11  1  0.455265  0.877211  0.298657  1
  W  W12  1  0.697273  0.956380  0.629562  1
  W  W13  1  0.543495  0.369824  0.195654  1
  W  W14  1  0.373722  0.194640  0.548686  1
  W  W15  1  0.195311  0.543718  0.373420  1
  W  W16  1  0.872519  0.304702  0.457194  1
  W  W17  1  0.047203  0.126619  0.805149  1
  W  W18  1  0.304720  0.451728  0.873381  1
  W  W19  1  0.128660  0.804146  0.043532  1
  N  N20  1  0.374403  0.623953  0.125258  1
  N  N21  1  0.876294  0.875192  0.873867  1
  N  N22  1  0.125121  0.374073  0.624198  1
  N  N23  1  0.625024  0.125797  0.377015  1
