# generated using pymatgen
data_HBr7
_symmetry_space_group_name_H-M   'P 1'
_cell_length_a   11.78234108
_cell_length_b   11.78233962
_cell_length_c   9.02572504
_cell_angle_alpha   55.04920365
_cell_angle_beta   55.04920577
_cell_angle_gamma   39.59327571
_symmetry_Int_Tables_number   1
_chemical_formula_structural   HBr7
_chemical_formula_sum   'H2 Br14'
_cell_volume   633.48895742
_cell_formula_units_Z   2
loop_
 _symmetry_equiv_pos_site_id
 _symmetry_equiv_pos_as_xyz
  1  'x, y, z'
loop_
 _atom_site_type_symbol
 _atom_site_label
 _atom_site_symmetry_multiplicity
 _atom_site_fract_x
 _atom_site_fract_y
 _atom_site_fract_z
 _atom_site_occupancy
  H  H0  1  0.000000  0.500000  0.500000  1
  H  H1  1  0.500000  0.000000  0.000000  1
  Br  Br2  1  0.272178  0.789912  0.925980  1
  Br  Br3  1  0.727822  0.210088  0.074020  1
  Br  Br4  1  0.210088  0.727822  0.574020  1
  Br  Br5  1  0.789912  0.272178  0.425980  1
  Br  Br6  1  0.239428  0.760572  0.250000  1
  Br  Br7  1  0.760572  0.239428  0.750000  1
  Br  Br8  1  0.716653  0.847833  0.027762  1
  Br  Br9  1  0.283347  0.152167  0.972238  1
  Br  Br10  1  0.152167  0.283347  0.472238  1
  Br  Br11  1  0.847833  0.716653  0.527762  1
  Br  Br12  1  0.746739  0.563294  0.228323  1
  Br  Br13  1  0.253261  0.436706  0.771677  1
  Br  Br14  1  0.436706  0.253261  0.271677  1
  Br  Br15  1  0.563294  0.746739  0.728323  1
