# generated using pymatgen
data_Ho12ZnCo2Ni2Sn
_symmetry_space_group_name_H-M   'P 1'
_cell_length_a   8.34602711
_cell_length_b   8.34602769
_cell_length_c   8.34602759
_cell_angle_alpha   111.97197088
_cell_angle_beta   109.35331129
_cell_angle_gamma   107.12484014
_symmetry_Int_Tables_number   1
_chemical_formula_structural   Ho12ZnCo2Ni2Sn
_chemical_formula_sum   'Ho12 Zn1 Co2 Ni2 Sn1'
_cell_volume   446.72127151
_cell_formula_units_Z   1
loop_
 _symmetry_equiv_pos_site_id
 _symmetry_equiv_pos_as_xyz
  1  'x, y, z'
loop_
 _atom_site_type_symbol
 _atom_site_label
 _atom_site_symmetry_multiplicity
 _atom_site_fract_x
 _atom_site_fract_y
 _atom_site_fract_z
 _atom_site_occupancy
  Ho  Ho0  1  0.428781  0.229795  0.198986  1
  Ho  Ho1  1  0.571219  0.770205  0.801014  1
  Ho  Ho2  1  0.030808  0.229795  0.801014  1
  Ho  Ho3  1  0.969192  0.770205  0.198986  1
  Ho  Ho4  1  0.180909  0.285726  0.466633  1
  Ho  Ho5  1  0.819091  0.714274  0.533367  1
  Ho  Ho6  1  0.180909  0.714274  0.895183  1
  Ho  Ho7  1  0.819091  0.285726  0.104817  1
  Ho  Ho8  1  0.319069  0.630132  0.311063  1
  Ho  Ho9  1  0.680931  0.369868  0.688937  1
  Ho  Ho10  1  0.319069  0.008006  0.688937  1
  Ho  Ho11  1  0.680931  0.991994  0.311063  1
  Zn  Zn12  1  0.000000  0.000000  0.000000  1
  Co  Co13  1  0.113505  0.613505  0.500000  1
  Co  Co14  1  0.886495  0.386495  0.500000  1
  Ni  Ni15  1  0.352769  0.000000  0.352769  1
  Ni  Ni16  1  0.647231  0.000000  0.647231  1
  Sn  Sn17  1  0.500000  0.500000  0.000000  1
