# generated using pymatgen
data_Pr8Tm9Mg3Sn16
_symmetry_space_group_name_H-M   'P 1'
_cell_length_a   7.94945000
_cell_length_b   8.28065993
_cell_length_c   15.41953200
_cell_angle_alpha   90.00000000
_cell_angle_beta   90.00000000
_cell_angle_gamma   89.96085100
_symmetry_Int_Tables_number   1
_chemical_formula_structural   Pr8Tm9Mg3Sn16
_chemical_formula_sum   'Pr8 Tm9 Mg3 Sn16'
_cell_volume   1015.01654842
_cell_formula_units_Z   1
loop_
 _symmetry_equiv_pos_site_id
 _symmetry_equiv_pos_as_xyz
  1  'x, y, z'
loop_
 _atom_site_type_symbol
 _atom_site_label
 _atom_site_symmetry_multiplicity
 _atom_site_fract_x
 _atom_site_fract_y
 _atom_site_fract_z
 _atom_site_occupancy
  Pr  Pr0  1  0.003013  0.179905  0.403912  1
  Pr  Pr1  1  0.502275  0.319922  0.404022  1
  Pr  Pr2  1  0.494838  0.673941  0.906632  1
  Pr  Pr3  1  0.494838  0.673941  0.593368  1
  Pr  Pr4  1  0.001156  0.819481  0.593982  1
  Pr  Pr5  1  0.001156  0.819481  0.906018  1
  Pr  Pr6  1  0.502275  0.319922  0.095978  1
  Pr  Pr7  1  0.003013  0.179905  0.096088  1
  Tm  Tm8  1  0.328927  0.169235  0.626083  1
  Tm  Tm9  1  0.666763  0.833409  0.372592  1
  Tm  Tm10  1  0.661807  0.001997  0.750000  1
  Tm  Tm11  1  0.166882  0.668399  0.373006  1
  Tm  Tm12  1  0.835170  0.335906  0.873284  1
  Tm  Tm13  1  0.835170  0.335906  0.626716  1
  Tm  Tm14  1  0.328927  0.169235  0.873917  1
  Tm  Tm15  1  0.166882  0.668399  0.126994  1
  Tm  Tm16  1  0.666763  0.833409  0.127408  1
  Mg  Mg17  1  0.840112  0.501041  0.250000  1
  Mg  Mg18  1  0.339091  0.999430  0.250000  1
  Mg  Mg19  1  0.162092  0.500882  0.750000  1
  Sn  Sn20  1  0.303557  0.859734  0.750000  1
  Sn  Sn21  1  0.474434  0.612238  0.250000  1
  Sn  Sn22  1  0.025012  0.112292  0.750000  1
  Sn  Sn23  1  0.526084  0.380642  0.750000  1
  Sn  Sn24  1  0.171894  0.458503  0.538982  1
  Sn  Sn25  1  0.975489  0.889078  0.250000  1
  Sn  Sn26  1  0.701795  0.140749  0.250000  1
  Sn  Sn27  1  0.825127  0.541398  0.040833  1
  Sn  Sn28  1  0.326374  0.960266  0.041154  1
  Sn  Sn29  1  0.171894  0.458503  0.961018  1
  Sn  Sn30  1  0.673571  0.038488  0.541234  1
  Sn  Sn31  1  0.326374  0.960266  0.458846  1
  Sn  Sn32  1  0.825127  0.541398  0.459167  1
  Sn  Sn33  1  0.796160  0.644330  0.750000  1
  Sn  Sn34  1  0.202378  0.359881  0.250000  1
  Sn  Sn35  1  0.673571  0.038488  0.958766  1
