# generated using pymatgen
data_Ho3Lu3(ThS6)2
_symmetry_space_group_name_H-M   'P 1'
_cell_length_a   3.94552400
_cell_length_b   10.97844934
_cell_length_c   11.24942500
_cell_angle_alpha   71.27200504
_cell_angle_beta   90.00000000
_cell_angle_gamma   90.00000000
_symmetry_Int_Tables_number   1
_chemical_formula_structural   Ho3Lu3(ThS6)2
_chemical_formula_sum   'Ho3 Lu3 Th2 S12'
_cell_volume   461.47750403
_cell_formula_units_Z   1
loop_
 _symmetry_equiv_pos_site_id
 _symmetry_equiv_pos_as_xyz
  1  'x, y, z'
loop_
 _atom_site_type_symbol
 _atom_site_label
 _atom_site_symmetry_multiplicity
 _atom_site_fract_x
 _atom_site_fract_y
 _atom_site_fract_z
 _atom_site_occupancy
  Ho  Ho0  1  0.750000  0.179428  0.999621  1
  Ho  Ho1  1  0.250000  0.820021  0.001897  1
  Ho  Ho2  1  0.750000  0.939194  0.664692  1
  Lu  Lu3  1  0.250000  0.060757  0.334382  1
  Lu  Lu4  1  0.750000  0.660072  0.417251  1
  Lu  Lu5  1  0.250000  0.340707  0.582976  1
  Th  Th6  1  0.750000  0.549463  0.803241  1
  Th  Th7  1  0.250000  0.449780  0.197709  1
  S  S8  1  0.750000  0.980073  0.886549  1
  S  S9  1  0.250000  0.019717  0.116504  1
  S  S10  1  0.750000  0.308619  0.747585  1
  S  S11  1  0.250000  0.690496  0.252860  1
  S  S12  1  0.750000  0.894137  0.437663  1
  S  S13  1  0.250000  0.110484  0.554144  1
  S  S14  1  0.750000  0.418277  0.408390  1
  S  S15  1  0.250000  0.582557  0.591447  1
  S  S16  1  0.750000  0.234819  0.230991  1
  S  S17  1  0.250000  0.762132  0.771187  1
  S  S18  1  0.750000  0.616490  0.035963  1
  S  S19  1  0.250000  0.382777  0.964947  1
