# generated using pymatgen
data_Mn8CN3
_symmetry_space_group_name_H-M   'P 1'
_cell_length_a   4.38801835
_cell_length_b   4.85121458
_cell_length_c   5.55105800
_cell_angle_alpha   90.00000000
_cell_angle_beta   90.00000000
_cell_angle_gamma   90.12360879
_symmetry_Int_Tables_number   1
_chemical_formula_structural   Mn8CN3
_chemical_formula_sum   'Mn8 C1 N3'
_cell_volume   118.16630998
_cell_formula_units_Z   1
loop_
 _symmetry_equiv_pos_site_id
 _symmetry_equiv_pos_as_xyz
  1  'x, y, z'
loop_
 _atom_site_type_symbol
 _atom_site_label
 _atom_site_symmetry_multiplicity
 _atom_site_fract_x
 _atom_site_fract_y
 _atom_site_fract_z
 _atom_site_occupancy
  Mn  Mn0  1  0.247059  0.080752  0.881257  1
  Mn  Mn1  1  0.748686  0.920280  0.619027  1
  Mn  Mn2  1  0.251314  0.579720  0.619027  1
  Mn  Mn3  1  0.752941  0.419248  0.881257  1
  Mn  Mn4  1  0.250530  0.580014  0.117041  1
  Mn  Mn5  1  0.749134  0.417027  0.382934  1
  Mn  Mn6  1  0.250866  0.082973  0.382934  1
  Mn  Mn7  1  0.749470  0.919986  0.117041  1
  C  C8  1  0.000000  0.750000  0.365150  1
  N  N9  1  0.500000  0.750000  0.865212  1
  N  N10  1  0.000000  0.250000  0.633963  1
  N  N11  1  0.500000  0.250000  0.135155  1
