# generated using pymatgen
data_Ho13Th3MgCd3Ir4
_symmetry_space_group_name_H-M   'P 1'
_cell_length_a   9.70625508
_cell_length_b   9.70590155
_cell_length_c   9.70590162
_cell_angle_alpha   59.89307442
_cell_angle_beta   59.88971943
_cell_angle_gamma   59.88972557
_symmetry_Int_Tables_number   1
_chemical_formula_structural   Ho13Th3MgCd3Ir4
_chemical_formula_sum   'Ho13 Th3 Mg1 Cd3 Ir4'
_cell_volume   644.95816935
_cell_formula_units_Z   1
loop_
 _symmetry_equiv_pos_site_id
 _symmetry_equiv_pos_as_xyz
  1  'x, y, z'
loop_
 _atom_site_type_symbol
 _atom_site_label
 _atom_site_symmetry_multiplicity
 _atom_site_fract_x
 _atom_site_fract_y
 _atom_site_fract_z
 _atom_site_occupancy
  Ho  Ho0  1  0.200385  0.600265  0.600265  1
  Ho  Ho1  1  0.060380  0.440027  0.440027  1
  Ho  Ho2  1  0.436007  0.063892  0.063892  1
  Ho  Ho3  1  0.437878  0.061833  0.437828  1
  Ho  Ho4  1  0.063132  0.436730  0.061589  1
  Ho  Ho5  1  0.437878  0.437828  0.061833  1
  Ho  Ho6  1  0.063132  0.061589  0.436730  1
  Ho  Ho7  1  0.188525  0.814959  0.814959  1
  Ho  Ho8  1  0.815162  0.185275  0.185275  1
  Ho  Ho9  1  0.816426  0.186197  0.816077  1
  Ho  Ho10  1  0.186706  0.813478  0.186994  1
  Ho  Ho11  1  0.816426  0.816077  0.186197  1
  Ho  Ho12  1  0.186706  0.186994  0.813478  1
  Th  Th13  1  0.597243  0.599274  0.599274  1
  Th  Th14  1  0.597668  0.599886  0.202877  1
  Th  Th15  1  0.597668  0.202877  0.599886  1
  Mg  Mg16  1  0.829372  0.826700  0.826700  1
  Cd  Cd17  1  0.833886  0.831216  0.502573  1
  Cd  Cd18  1  0.833886  0.502573  0.831216  1
  Cd  Cd19  1  0.500958  0.832528  0.832528  1
  Ir  Ir20  1  0.393182  0.392344  0.392344  1
  Ir  Ir21  1  0.392924  0.392079  0.822648  1
  Ir  Ir22  1  0.392924  0.822648  0.392079  1
  Ir  Ir23  1  0.821548  0.392733  0.392733  1
