# generated using pymatgen
data_La6PdAuI6
_symmetry_space_group_name_H-M   'P 1'
_cell_length_a   10.99680045
_cell_length_b   10.99680113
_cell_length_c   11.13244100
_cell_angle_alpha   109.45446485
_cell_angle_beta   109.45446611
_cell_angle_gamma   109.00608833
_symmetry_Int_Tables_number   1
_chemical_formula_structural   La6PdAuI6
_chemical_formula_sum   'La12 Pd2 Au2 I12'
_cell_volume   1042.65032625
_cell_formula_units_Z   2
loop_
 _symmetry_equiv_pos_site_id
 _symmetry_equiv_pos_as_xyz
  1  'x, y, z'
loop_
 _atom_site_type_symbol
 _atom_site_label
 _atom_site_symmetry_multiplicity
 _atom_site_fract_x
 _atom_site_fract_y
 _atom_site_fract_z
 _atom_site_occupancy
  La  La0  1  0.469015  0.481700  0.236910  1
  La  La1  1  0.744790  0.232106  0.263090  1
  La  La2  1  0.745748  0.014159  0.481391  1
  La  La3  1  0.235642  0.467231  0.481391  1
  La  La4  1  0.267894  0.755210  0.236910  1
  La  La5  1  0.032769  0.264358  0.018609  1
  La  La6  1  0.018300  0.030985  0.263090  1
  La  La7  1  0.485841  0.754252  0.018609  1
  La  La8  1  0.482272  0.232272  0.464542  1
  La  La9  1  0.013863  0.486137  0.750000  1
  La  La10  1  0.267728  0.017728  0.035458  1
  La  La11  1  0.236137  0.263863  0.750000  1
  Pd  Pd12  1  0.250649  0.249351  0.250000  1
  Pd  Pd13  1  0.499351  0.000649  0.250000  1
  Au  Au14  1  0.999416  0.249416  0.498832  1
  Au  Au15  1  0.250584  0.500584  0.001168  1
  I  I16  1  0.250173  0.759324  0.740457  1
  I  I17  1  0.518868  0.509717  0.759543  1
  I  I18  1  0.980685  0.739777  0.990130  1
  I  I19  1  0.740676  0.249827  0.759543  1
  I  I20  1  0.990283  0.981132  0.740457  1
  I  I21  1  0.249647  0.990556  0.509870  1
  I  I22  1  0.760223  0.519315  0.509870  1
  I  I23  1  0.509444  0.250353  0.990130  1
  I  I24  1  0.759397  0.740603  0.250000  1
  I  I25  1  0.740222  0.990222  0.980443  1
  I  I26  1  0.990603  0.509397  0.250000  1
  I  I27  1  0.509778  0.759778  0.519557  1
