# generated using pymatgen
data_Dy2LuNi2Rh7
_symmetry_space_group_name_H-M   'P 1'
_cell_length_a   5.25276522
_cell_length_b   5.25276648
_cell_length_c   8.99664327
_cell_angle_alpha   73.02650393
_cell_angle_beta   73.02650177
_cell_angle_gamma   60.00001294
_symmetry_Int_Tables_number   1
_chemical_formula_structural   Dy2LuNi2Rh7
_chemical_formula_sum   'Dy2 Lu1 Ni2 Rh7'
_cell_volume   202.39264134
_cell_formula_units_Z   1
loop_
 _symmetry_equiv_pos_site_id
 _symmetry_equiv_pos_as_xyz
  1  'x, y, z'
loop_
 _atom_site_type_symbol
 _atom_site_label
 _atom_site_symmetry_multiplicity
 _atom_site_fract_x
 _atom_site_fract_y
 _atom_site_fract_z
 _atom_site_occupancy
  Dy  Dy0  1  0.860099  0.860099  0.419704  1
  Dy  Dy1  1  0.000239  0.000239  0.999284  1
  Lu  Lu2  1  0.139210  0.139210  0.582371  1
  Ni  Ni3  1  0.333404  0.333404  0.999788  1
  Ni  Ni4  1  0.666622  0.666622  0.000134  1
  Rh  Rh5  1  0.078208  0.581764  0.758264  1
  Rh  Rh6  1  0.581764  0.581764  0.758264  1
  Rh  Rh7  1  0.581764  0.078208  0.758264  1
  Rh  Rh8  1  0.922109  0.418341  0.241209  1
  Rh  Rh9  1  0.418341  0.418341  0.241209  1
  Rh  Rh10  1  0.418341  0.922109  0.241209  1
  Rh  Rh11  1  0.499900  0.499900  0.500299  1
