# generated using pymatgen
data_ErAlZnCu3
_symmetry_space_group_name_H-M   'P 1'
_cell_length_a   5.04122800
_cell_length_b   5.07520119
_cell_length_c   4.17452700
_cell_angle_alpha   90.00000000
_cell_angle_beta   90.00000000
_cell_angle_gamma   118.64513604
_symmetry_Int_Tables_number   1
_chemical_formula_structural   ErAlZnCu3
_chemical_formula_sum   'Er1 Al1 Zn1 Cu3'
_cell_volume   93.73380876
_cell_formula_units_Z   1
loop_
 _symmetry_equiv_pos_site_id
 _symmetry_equiv_pos_as_xyz
  1  'x, y, z'
loop_
 _atom_site_type_symbol
 _atom_site_label
 _atom_site_symmetry_multiplicity
 _atom_site_fract_x
 _atom_site_fract_y
 _atom_site_fract_z
 _atom_site_occupancy
  Er  Er0  1  0.500000  0.500000  0.000000  1
  Al  Al1  1  0.500000  0.000000  0.500000  1
  Zn  Zn2  1  0.000000  0.500000  0.500000  1
  Cu  Cu3  1  0.166595  0.838422  0.000000  1
  Cu  Cu4  1  0.833405  0.161578  0.000000  1
  Cu  Cu5  1  0.000000  0.000000  0.500000  1
