# generated using pymatgen
data_Ho4MnFe3Os4
_symmetry_space_group_name_H-M   'P 1'
_cell_length_a   5.28400634
_cell_length_b   5.26882693
_cell_length_c   8.58191200
_cell_angle_alpha   90.00000000
_cell_angle_beta   90.00000000
_cell_angle_gamma   120.32483446
_symmetry_Int_Tables_number   1
_chemical_formula_structural   Ho4MnFe3Os4
_chemical_formula_sum   'Ho4 Mn1 Fe3 Os4'
_cell_volume   206.23438309
_cell_formula_units_Z   1
loop_
 _symmetry_equiv_pos_site_id
 _symmetry_equiv_pos_as_xyz
  1  'x, y, z'
loop_
 _atom_site_type_symbol
 _atom_site_label
 _atom_site_symmetry_multiplicity
 _atom_site_fract_x
 _atom_site_fract_y
 _atom_site_fract_z
 _atom_site_occupancy
  Ho  Ho0  1  0.333904  0.667584  0.437543  1
  Ho  Ho1  1  0.664718  0.332198  0.565369  1
  Ho  Ho2  1  0.664718  0.332198  0.934631  1
  Ho  Ho3  1  0.333904  0.667584  0.062457  1
  Mn  Mn4  1  0.834260  0.166938  0.250000  1
  Fe  Fe5  1  0.003186  0.998702  0.499795  1
  Fe  Fe6  1  0.003186  0.998702  0.000205  1
  Fe  Fe7  1  0.669501  0.834625  0.750000  1
  Os  Os8  1  0.826318  0.662527  0.250000  1
  Os  Os9  1  0.339145  0.175693  0.250000  1
  Os  Os10  1  0.163410  0.825894  0.750000  1
  Os  Os11  1  0.163750  0.337355  0.750000  1
