# generated using pymatgen
data_GdHoBeSi4Ni
_symmetry_space_group_name_H-M   'P 1'
_cell_length_a   8.48156100
_cell_length_b   8.48156190
_cell_length_c   3.92565300
_cell_angle_alpha   90.00000000
_cell_angle_beta   90.00000000
_cell_angle_gamma   152.65662075
_symmetry_Int_Tables_number   1
_chemical_formula_structural   GdHoBeSi4Ni
_chemical_formula_sum   'Gd1 Ho1 Be1 Si4 Ni1'
_cell_volume   129.71224467
_cell_formula_units_Z   1
loop_
 _symmetry_equiv_pos_site_id
 _symmetry_equiv_pos_as_xyz
  1  'x, y, z'
loop_
 _atom_site_type_symbol
 _atom_site_label
 _atom_site_symmetry_multiplicity
 _atom_site_fract_x
 _atom_site_fract_y
 _atom_site_fract_z
 _atom_site_occupancy
  Gd  Gd0  1  0.106961  0.893039  0.250000  1
  Ho  Ho1  1  0.898147  0.101853  0.750000  1
  Be  Be2  1  0.672750  0.327250  0.750000  1
  Si  Si3  1  0.751456  0.248544  0.250000  1
  Si  Si4  1  0.249660  0.750340  0.750000  1
  Si  Si5  1  0.538594  0.461406  0.750000  1
  Si  Si6  1  0.459820  0.540180  0.250000  1
  Ni  Ni7  1  0.322610  0.677390  0.250000  1
