# generated using pymatgen
data_Mn2BPdPt5
_symmetry_space_group_name_H-M   'P 1'
_cell_length_a   5.74115240
_cell_length_b   5.74115261
_cell_length_c   5.72785500
_cell_angle_alpha   60.07659524
_cell_angle_beta   60.07659402
_cell_angle_gamma   59.84681787
_symmetry_Int_Tables_number   1
_chemical_formula_structural   Mn2BPdPt5
_chemical_formula_sum   'Mn2 B1 Pd1 Pt5'
_cell_volume   133.49670866
_cell_formula_units_Z   1
loop_
 _symmetry_equiv_pos_site_id
 _symmetry_equiv_pos_as_xyz
  1  'x, y, z'
loop_
 _atom_site_type_symbol
 _atom_site_label
 _atom_site_symmetry_multiplicity
 _atom_site_fract_x
 _atom_site_fract_y
 _atom_site_fract_z
 _atom_site_occupancy
  Mn  Mn0  1  0.250129  0.250129  0.249873  1
  Mn  Mn1  1  0.750128  0.750128  0.749872  1
  B  B2  1  0.499969  0.499969  0.500031  1
  Pd  Pd3  1  0.756986  0.756986  0.243014  1
  Pt  Pt4  1  0.242979  0.757439  0.242561  1
  Pt  Pt5  1  0.757439  0.242979  0.242561  1
  Pt  Pt6  1  0.241953  0.241953  0.758047  1
  Pt  Pt7  1  0.757439  0.242979  0.757021  1
  Pt  Pt8  1  0.242979  0.757439  0.757021  1
