# generated using pymatgen
data_Ta8Tc2W
_symmetry_space_group_name_H-M   'P 1'
_cell_length_a   5.44581576
_cell_length_b   5.44581660
_cell_length_c   11.75012718
_cell_angle_alpha   104.51261380
_cell_angle_beta   104.51260433
_cell_angle_gamma   34.44277282
_symmetry_Int_Tables_number   1
_chemical_formula_structural   Ta8Tc2W
_chemical_formula_sum   'Ta8 Tc2 W1'
_cell_volume   190.18628050
_cell_formula_units_Z   1
loop_
 _symmetry_equiv_pos_site_id
 _symmetry_equiv_pos_as_xyz
  1  'x, y, z'
loop_
 _atom_site_type_symbol
 _atom_site_label
 _atom_site_symmetry_multiplicity
 _atom_site_fract_x
 _atom_site_fract_y
 _atom_site_fract_z
 _atom_site_occupancy
  Ta  Ta0  1  0.720489  0.720489  0.087857  1
  Ta  Ta1  1  0.456614  0.456614  0.184809  1
  Ta  Ta2  1  0.192326  0.192326  0.277591  1
  Ta  Ta3  1  0.630196  0.630196  0.457323  1
  Ta  Ta4  1  0.369804  0.369804  0.542677  1
  Ta  Ta5  1  0.807674  0.807674  0.722409  1
  Ta  Ta6  1  0.543386  0.543386  0.815191  1
  Ta  Ta7  1  0.279511  0.279511  0.912144  1
  Tc  Tc8  1  0.911058  0.911058  0.364939  1
  Tc  Tc9  1  0.088942  0.088942  0.635062  1
  W  W10  1  0.000000  0.000000  0.000000  1
