# generated using pymatgen
data_Dy3CI5
_symmetry_space_group_name_H-M   'P 1'
_cell_length_a   7.65525082
_cell_length_b   9.50009162
_cell_length_c   9.57706078
_cell_angle_alpha   107.03924920
_cell_angle_beta   96.51528870
_cell_angle_gamma   104.35693507
_symmetry_Int_Tables_number   1
_chemical_formula_structural   Dy3CI5
_chemical_formula_sum   'Dy6 C2 I10'
_cell_volume   631.96766831
_cell_formula_units_Z   2
loop_
 _symmetry_equiv_pos_site_id
 _symmetry_equiv_pos_as_xyz
  1  'x, y, z'
loop_
 _atom_site_type_symbol
 _atom_site_label
 _atom_site_symmetry_multiplicity
 _atom_site_fract_x
 _atom_site_fract_y
 _atom_site_fract_z
 _atom_site_occupancy
  Dy  Dy0  1  0.102914  0.037966  0.781734  1
  Dy  Dy1  1  0.373945  0.131925  0.177263  1
  Dy  Dy2  1  0.897086  0.962034  0.218266  1
  Dy  Dy3  1  0.028046  0.742812  0.925235  1
  Dy  Dy4  1  0.971954  0.257188  0.074765  1
  Dy  Dy5  1  0.626055  0.868075  0.822737  1
  C  C6  1  0.908218  0.969842  0.958571  1
  C  C7  1  0.091782  0.030158  0.041429  1
  I  I8  1  0.191309  0.735848  0.648311  1
  I  I9  1  0.087219  0.364528  0.822092  1
  I  I10  1  0.456252  0.809770  0.093395  1
  I  I11  1  0.254931  0.084818  0.458218  1
  I  I12  1  0.543748  0.190230  0.906605  1
  I  I13  1  0.808691  0.264152  0.351689  1
  I  I14  1  0.345690  0.453236  0.272869  1
  I  I15  1  0.912781  0.635472  0.177908  1
  I  I16  1  0.654310  0.546764  0.727131  1
  I  I17  1  0.745069  0.915182  0.541782  1
