# generated using pymatgen
data_Ca11Pr9Pb16
_symmetry_space_group_name_H-M   'P 1'
_cell_length_a   8.10232002
_cell_length_b   8.69650463
_cell_length_c   16.30710800
_cell_angle_alpha   89.96713721
_cell_angle_beta   89.99643595
_cell_angle_gamma   90.12347726
_symmetry_Int_Tables_number   1
_chemical_formula_structural   Ca11Pr9Pb16
_chemical_formula_sum   'Ca11 Pr9 Pb16'
_cell_volume   1149.02635837
_cell_formula_units_Z   1
loop_
 _symmetry_equiv_pos_site_id
 _symmetry_equiv_pos_as_xyz
  1  'x, y, z'
loop_
 _atom_site_type_symbol
 _atom_site_label
 _atom_site_symmetry_multiplicity
 _atom_site_fract_x
 _atom_site_fract_y
 _atom_site_fract_z
 _atom_site_occupancy
  Ca  Ca0  1  0.330303  0.831946  0.878368  1
  Ca  Ca1  1  0.830344  0.667427  0.621901  1
  Ca  Ca2  1  0.669718  0.167246  0.377346  1
  Ca  Ca3  1  0.171620  0.332779  0.123405  1
  Ca  Ca4  1  0.668485  0.167837  0.123531  1
  Ca  Ca5  1  0.169567  0.332604  0.377363  1
  Ca  Ca6  1  0.329884  0.831757  0.621922  1
  Ca  Ca7  1  0.160527  0.499217  0.748507  1
  Ca  Ca8  1  0.658965  0.999612  0.748253  1
  Ca  Ca9  1  0.840143  0.498114  0.250217  1
  Ca  Ca10  1  0.339562  0.002923  0.250555  1
  Pr  Pr11  1  0.832892  0.671456  0.875854  1
  Pr  Pr12  1  0.493561  0.311195  0.906129  1
  Pr  Pr13  1  0.994562  0.186743  0.594792  1
  Pr  Pr14  1  0.505340  0.688118  0.404401  1
  Pr  Pr15  1  0.007805  0.812759  0.097415  1
  Pr  Pr16  1  0.505422  0.687327  0.097109  1
  Pr  Pr17  1  0.005084  0.812016  0.404045  1
  Pr  Pr18  1  0.493340  0.312500  0.593254  1
  Pr  Pr19  1  0.995068  0.184428  0.904296  1
  Pb  Pb20  1  0.291978  0.146795  0.749638  1
  Pb  Pb21  1  0.789451  0.353656  0.750677  1
  Pb  Pb22  1  0.708881  0.853891  0.249778  1
  Pb  Pb23  1  0.209823  0.647012  0.250132  1
  Pb  Pb24  1  0.321555  0.037140  0.040735  1
  Pb  Pb25  1  0.822668  0.463842  0.459254  1
  Pb  Pb26  1  0.677427  0.963461  0.540010  1
  Pb  Pb27  1  0.176651  0.534297  0.959085  1
  Pb  Pb28  1  0.677785  0.964062  0.960535  1
  Pb  Pb29  1  0.175980  0.535692  0.540164  1
  Pb  Pb30  1  0.321994  0.036435  0.459649  1
  Pb  Pb31  1  0.822284  0.462966  0.040466  1
  Pb  Pb32  1  0.527241  0.606935  0.750853  1
  Pb  Pb33  1  0.028395  0.894181  0.749396  1
  Pb  Pb34  1  0.472905  0.394428  0.250978  1
  Pb  Pb35  1  0.972791  0.107197  0.249986  1
