# generated using pymatgen
data_ScCoI18
_symmetry_space_group_name_H-M   'P 1'
_cell_length_a   10.05070366
_cell_length_b   10.05071475
_cell_length_c   10.03757778
_cell_angle_alpha   89.09256545
_cell_angle_beta   89.02810692
_cell_angle_gamma   89.08310675
_symmetry_Int_Tables_number   1
_chemical_formula_structural   ScCoI18
_chemical_formula_sum   'Sc1 Co1 I18'
_cell_volume   1013.56498008
_cell_formula_units_Z   1
loop_
 _symmetry_equiv_pos_site_id
 _symmetry_equiv_pos_as_xyz
  1  'x, y, z'
loop_
 _atom_site_type_symbol
 _atom_site_label
 _atom_site_symmetry_multiplicity
 _atom_site_fract_x
 _atom_site_fract_y
 _atom_site_fract_z
 _atom_site_occupancy
  Sc  Sc0  1  0.000000  0.000000  0.000000  1
  Co  Co1  1  0.500000  0.500000  0.500000  1
  I  I2  1  0.759557  0.475796  0.500434  1
  I  I3  1  0.500757  0.759543  0.475736  1
  I  I4  1  0.475871  0.500935  0.759888  1
  I  I5  1  0.240443  0.524204  0.499566  1
  I  I6  1  0.499243  0.240457  0.524264  1
  I  I7  1  0.524129  0.499065  0.240112  1
  I  I8  1  0.880578  0.379647  0.745956  1
  I  I9  1  0.746424  0.880616  0.380150  1
  I  I10  1  0.379876  0.746627  0.880599  1
  I  I11  1  0.119422  0.620353  0.254044  1
  I  I12  1  0.253576  0.119384  0.619850  1
  I  I13  1  0.620124  0.253373  0.119401  1
  I  I14  1  0.014876  0.970774  0.712915  1
  I  I15  1  0.713230  0.014340  0.971359  1
  I  I16  1  0.971083  0.713282  0.015186  1
  I  I17  1  0.985124  0.029226  0.287085  1
  I  I18  1  0.286770  0.985660  0.028641  1
  I  I19  1  0.028917  0.286718  0.984814  1
