# generated using pymatgen
data_Cr2PtO6
_symmetry_space_group_name_H-M   'P 1'
_cell_length_a   4.53953008
_cell_length_b   4.53951707
_cell_length_c   9.20140200
_cell_angle_alpha   89.99679681
_cell_angle_beta   90.00061414
_cell_angle_gamma   89.97943952
_symmetry_Int_Tables_number   1
_chemical_formula_structural   Cr2PtO6
_chemical_formula_sum   'Cr4 Pt2 O12'
_cell_volume   189.61580233
_cell_formula_units_Z   2
loop_
 _symmetry_equiv_pos_site_id
 _symmetry_equiv_pos_as_xyz
  1  'x, y, z'
loop_
 _atom_site_type_symbol
 _atom_site_label
 _atom_site_symmetry_multiplicity
 _atom_site_fract_x
 _atom_site_fract_y
 _atom_site_fract_z
 _atom_site_occupancy
  Cr  Cr0  1  0.500040  0.499911  0.165771  1
  Cr  Cr1  1  0.999965  0.000111  0.665765  1
  Cr  Cr2  1  0.000016  0.000017  0.334303  1
  Cr  Cr3  1  0.499943  0.499991  0.834209  1
  Pt  Pt4  1  0.999978  0.000058  0.999960  1
  Pt  Pt5  1  0.500071  0.499947  0.499988  1
  O  O6  1  0.307539  0.307614  0.000015  1
  O  O7  1  0.192600  0.807391  0.499998  1
  O  O8  1  0.807541  0.192452  0.499968  1
  O  O9  1  0.692360  0.692438  0.000015  1
  O  O10  1  0.304764  0.304706  0.330495  1
  O  O11  1  0.195062  0.804905  0.169411  1
  O  O12  1  0.195010  0.804931  0.830520  1
  O  O13  1  0.304793  0.304770  0.669532  1
  O  O14  1  0.804859  0.195104  0.169498  1
  O  O15  1  0.695300  0.695241  0.330509  1
  O  O16  1  0.695325  0.695306  0.669536  1
  O  O17  1  0.804836  0.195107  0.830506  1
