# generated using pymatgen
data_DyMgInNi7B2
_symmetry_space_group_name_H-M   'P 1'
_cell_length_a   4.96752200
_cell_length_b   4.96752179
_cell_length_c   14.00686900
_cell_angle_alpha   90.00000000
_cell_angle_beta   90.00000000
_cell_angle_gamma   120.00000142
_symmetry_Int_Tables_number   1
_chemical_formula_structural   DyMgInNi7B2
_chemical_formula_sum   'Dy2 Mg2 In2 Ni14 B4'
_cell_volume   299.33070747
_cell_formula_units_Z   2
loop_
 _symmetry_equiv_pos_site_id
 _symmetry_equiv_pos_as_xyz
  1  'x, y, z'
loop_
 _atom_site_type_symbol
 _atom_site_label
 _atom_site_symmetry_multiplicity
 _atom_site_fract_x
 _atom_site_fract_y
 _atom_site_fract_z
 _atom_site_occupancy
  Dy  Dy0  1  0.666667  0.333333  0.750556  1
  Dy  Dy1  1  0.333333  0.666667  0.250556  1
  Mg  Mg2  1  0.666667  0.333333  0.527672  1
  Mg  Mg3  1  0.333333  0.666667  0.027672  1
  In  In4  1  0.333333  0.666667  0.472895  1
  In  In5  1  0.666667  0.333333  0.972895  1
  Ni  Ni6  1  0.833536  0.667073  0.354361  1
  Ni  Ni7  1  0.332927  0.166464  0.354361  1
  Ni  Ni8  1  0.000000  0.000000  0.000183  1
  Ni  Ni9  1  0.000000  0.000000  0.500183  1
  Ni  Ni10  1  0.833617  0.166383  0.145435  1
  Ni  Ni11  1  0.667234  0.833617  0.645435  1
  Ni  Ni12  1  0.166383  0.332766  0.645435  1
  Ni  Ni13  1  0.833617  0.667234  0.145435  1
  Ni  Ni14  1  0.332766  0.166383  0.145435  1
  Ni  Ni15  1  0.667073  0.833536  0.854361  1
  Ni  Ni16  1  0.166464  0.332927  0.854361  1
  Ni  Ni17  1  0.166383  0.833617  0.645435  1
  Ni  Ni18  1  0.166464  0.833536  0.854361  1
  Ni  Ni19  1  0.833536  0.166464  0.354361  1
  B  B20  1  0.666667  0.333333  0.250015  1
  B  B21  1  0.333333  0.666667  0.750015  1
  B  B22  1  0.000000  0.000000  0.749290  1
  B  B23  1  0.000000  0.000000  0.249290  1
