# generated using pymatgen
data_Li5Mg(Rh2Pb)6
_symmetry_space_group_name_H-M   'P 1'
_cell_length_a   4.49093000
_cell_length_b   6.37127001
_cell_length_c   13.48048202
_cell_angle_alpha   89.99332294
_cell_angle_beta   90.00104587
_cell_angle_gamma   89.99997828
_symmetry_Int_Tables_number   1
_chemical_formula_structural   Li5Mg(Rh2Pb)6
_chemical_formula_sum   'Li5 Mg1 Rh12 Pb6'
_cell_volume   385.71605388
_cell_formula_units_Z   1
loop_
 _symmetry_equiv_pos_site_id
 _symmetry_equiv_pos_as_xyz
  1  'x, y, z'
loop_
 _atom_site_type_symbol
 _atom_site_label
 _atom_site_symmetry_multiplicity
 _atom_site_fract_x
 _atom_site_fract_y
 _atom_site_fract_z
 _atom_site_occupancy
  Li  Li0  1  0.999959  0.999995  0.000573  1
  Li  Li1  1  0.499948  0.499987  0.167410  1
  Li  Li2  1  0.999973  0.999999  0.333293  1
  Li  Li3  1  0.499953  0.500000  0.499192  1
  Li  Li4  1  0.999952  0.000001  0.666236  1
  Mg  Mg5  1  0.499985  0.500102  0.833310  1
  Rh  Rh6  1  0.500009  0.249084  0.000060  1
  Rh  Rh7  1  0.500015  0.750891  0.000015  1
  Rh  Rh8  1  0.000026  0.247703  0.167891  1
  Rh  Rh9  1  0.000014  0.752292  0.167881  1
  Rh  Rh10  1  0.500064  0.251210  0.333340  1
  Rh  Rh11  1  0.500079  0.748838  0.333367  1
  Rh  Rh12  1  0.999924  0.247784  0.498697  1
  Rh  Rh13  1  0.999929  0.752248  0.498694  1
  Rh  Rh14  1  0.500006  0.249240  0.666575  1
  Rh  Rh15  1  0.500006  0.750736  0.666562  1
  Rh  Rh16  1  0.999898  0.252617  0.833350  1
  Rh  Rh17  1  0.999906  0.747291  0.833345  1
  Pb  Pb18  1  0.000194  0.499923  0.004847  1
  Pb  Pb19  1  0.500174  0.999845  0.167878  1
  Pb  Pb20  1  0.999699  0.500193  0.333374  1
  Pb  Pb21  1  0.500121  0.000073  0.498885  1
  Pb  Pb22  1  0.000117  0.499966  0.661802  1
  Pb  Pb23  1  0.500045  0.999978  0.833420  1
