# generated using pymatgen
data_Ca3DyRuRh3O14
_symmetry_space_group_name_H-M   'P 1'
_cell_length_a   7.23131384
_cell_length_b   7.23131271
_cell_length_c   7.30192482
_cell_angle_alpha   60.31936931
_cell_angle_beta   60.31937517
_cell_angle_gamma   60.00000173
_symmetry_Int_Tables_number   1
_chemical_formula_structural   Ca3DyRuRh3O14
_chemical_formula_sum   'Ca3 Dy1 Ru1 Rh3 O14'
_cell_volume   271.29163983
_cell_formula_units_Z   1
loop_
 _symmetry_equiv_pos_site_id
 _symmetry_equiv_pos_as_xyz
  1  'x, y, z'
loop_
 _atom_site_type_symbol
 _atom_site_label
 _atom_site_symmetry_multiplicity
 _atom_site_fract_x
 _atom_site_fract_y
 _atom_site_fract_z
 _atom_site_occupancy
  Ca  Ca0  1  0.625000  0.125000  0.625000  1
  Ca  Ca1  1  0.125000  0.625000  0.625000  1
  Ca  Ca2  1  0.625000  0.625000  0.625000  1
  Dy  Dy3  1  0.625000  0.625000  0.125000  1
  Ru  Ru4  1  0.125000  0.125000  0.625000  1
  Rh  Rh5  1  0.625000  0.125000  0.125000  1
  Rh  Rh6  1  0.125000  0.625000  0.125000  1
  Rh  Rh7  1  0.125000  0.125000  0.125000  1
  O  O8  1  0.195637  0.195637  0.801737  1
  O  O9  1  0.208138  0.794679  0.202503  1
  O  O10  1  0.455321  0.041862  0.047497  1
  O  O11  1  0.195637  0.806988  0.801737  1
  O  O12  1  0.054363  0.443012  0.448263  1
  O  O13  1  0.794679  0.794679  0.202503  1
  O  O14  1  0.455321  0.455321  0.047497  1
  O  O15  1  0.503173  0.503173  0.490480  1
  O  O16  1  0.054363  0.054363  0.448263  1
  O  O17  1  0.443012  0.054363  0.448263  1
  O  O18  1  0.041862  0.455321  0.047497  1
  O  O19  1  0.746827  0.746827  0.759520  1
  O  O20  1  0.806988  0.195637  0.801737  1
  O  O21  1  0.794679  0.208138  0.202503  1
