# generated using pymatgen
data_Ni4Cl7F
_symmetry_space_group_name_H-M   'P 1'
_cell_length_a   7.06503657
_cell_length_b   7.06503600
_cell_length_c   7.06503563
_cell_angle_alpha   58.43546244
_cell_angle_beta   58.43546511
_cell_angle_gamma   58.43546003
_symmetry_Int_Tables_number   1
_chemical_formula_structural   Ni4Cl7F
_chemical_formula_sum   'Ni4 Cl7 F1'
_cell_volume   240.43290085
_cell_formula_units_Z   1
loop_
 _symmetry_equiv_pos_site_id
 _symmetry_equiv_pos_as_xyz
  1  'x, y, z'
loop_
 _atom_site_type_symbol
 _atom_site_label
 _atom_site_symmetry_multiplicity
 _atom_site_fract_x
 _atom_site_fract_y
 _atom_site_fract_z
 _atom_site_occupancy
  Ni  Ni0  1  0.618566  0.131806  0.131806  1
  Ni  Ni1  1  0.126751  0.126751  0.126751  1
  Ni  Ni2  1  0.131806  0.131806  0.618566  1
  Ni  Ni3  1  0.131806  0.618566  0.131806  1
  Cl  Cl4  1  0.373187  0.373187  0.887363  1
  Cl  Cl5  1  0.886555  0.886555  0.886555  1
  Cl  Cl6  1  0.880807  0.880807  0.366070  1
  Cl  Cl7  1  0.366070  0.880807  0.880807  1
  Cl  Cl8  1  0.373187  0.887363  0.373187  1
  Cl  Cl9  1  0.880807  0.366070  0.880807  1
  Cl  Cl10  1  0.887363  0.373187  0.373187  1
  F  F11  1  0.343093  0.343093  0.343093  1
