# generated using pymatgen
data_Gd3Sc(SbTe)4
_symmetry_space_group_name_H-M   'P 1'
_cell_length_a   4.33013800
_cell_length_b   4.34727514
_cell_length_c   18.65414500
_cell_angle_alpha   89.98521238
_cell_angle_beta   90.00000000
_cell_angle_gamma   90.00000000
_symmetry_Int_Tables_number   1
_chemical_formula_structural   Gd3Sc(SbTe)4
_chemical_formula_sum   'Gd3 Sc1 Sb4 Te4'
_cell_volume   351.15123430
_cell_formula_units_Z   1
loop_
 _symmetry_equiv_pos_site_id
 _symmetry_equiv_pos_as_xyz
  1  'x, y, z'
loop_
 _atom_site_type_symbol
 _atom_site_label
 _atom_site_symmetry_multiplicity
 _atom_site_fract_x
 _atom_site_fract_y
 _atom_site_fract_z
 _atom_site_occupancy
  Gd  Gd0  1  0.250000  0.758687  0.136260  1
  Gd  Gd1  1  0.750000  0.264474  0.361180  1
  Gd  Gd2  1  0.250000  0.738166  0.642357  1
  Sc  Sc3  1  0.750000  0.234947  0.861244  1
  Sb  Sb4  1  0.250000  0.272828  0.995244  1
  Sb  Sb5  1  0.750000  0.773825  0.500915  1
  Sb  Sb6  1  0.250000  0.229232  0.503291  1
  Sb  Sb7  1  0.750000  0.727466  0.992670  1
  Te  Te8  1  0.750000  0.258493  0.185235  1
  Te  Te9  1  0.250000  0.762439  0.311957  1
  Te  Te10  1  0.750000  0.239256  0.694746  1
  Te  Te11  1  0.250000  0.740185  0.814899  1
