# generated using pymatgen
data_HfZr3Fe2(As2Pd)2
_symmetry_space_group_name_H-M   'P 1'
_cell_length_a   3.90197700
_cell_length_b   6.65866030
_cell_length_c   7.54346918
_cell_angle_alpha   92.72236796
_cell_angle_beta   90.00000000
_cell_angle_gamma   90.00000000
_symmetry_Int_Tables_number   1
_chemical_formula_structural   HfZr3Fe2(As2Pd)2
_chemical_formula_sum   'Hf1 Zr3 Fe2 As4 Pd2'
_cell_volume   195.77276162
_cell_formula_units_Z   1
loop_
 _symmetry_equiv_pos_site_id
 _symmetry_equiv_pos_as_xyz
  1  'x, y, z'
loop_
 _atom_site_type_symbol
 _atom_site_label
 _atom_site_symmetry_multiplicity
 _atom_site_fract_x
 _atom_site_fract_y
 _atom_site_fract_z
 _atom_site_occupancy
  Hf  Hf0  1  0.250000  0.473941  0.198958  1
  Zr  Zr1  1  0.750000  0.525711  0.804076  1
  Zr  Zr2  1  0.750000  0.023015  0.673715  1
  Zr  Zr3  1  0.250000  0.976562  0.326065  1
  Fe  Fe4  1  0.750000  0.632701  0.440347  1
  Fe  Fe5  1  0.250000  0.366705  0.555206  1
  As  As6  1  0.250000  0.724087  0.600229  1
  As  As7  1  0.750000  0.275429  0.399381  1
  As  As8  1  0.750000  0.745101  0.138817  1
  As  As9  1  0.250000  0.252354  0.860898  1
  Pd  Pd10  1  0.250000  0.852724  0.935017  1
  Pd  Pd11  1  0.750000  0.151669  0.067291  1
