# generated using pymatgen
data_Y4Hf5TaGe8
_symmetry_space_group_name_H-M   'P 1'
_cell_length_a   7.35431700
_cell_length_b   7.35431860
_cell_length_c   13.51053400
_cell_angle_alpha   90.00000000
_cell_angle_beta   90.00000000
_cell_angle_gamma   90.16665252
_symmetry_Int_Tables_number   1
_chemical_formula_structural   Y4Hf5TaGe8
_chemical_formula_sum   'Y8 Hf10 Ta2 Ge16'
_cell_volume   730.72752032
_cell_formula_units_Z   2
loop_
 _symmetry_equiv_pos_site_id
 _symmetry_equiv_pos_as_xyz
  1  'x, y, z'
loop_
 _atom_site_type_symbol
 _atom_site_label
 _atom_site_symmetry_multiplicity
 _atom_site_fract_x
 _atom_site_fract_y
 _atom_site_fract_z
 _atom_site_occupancy
  Y  Y0  1  0.997946  0.341771  0.217442  1
  Y  Y1  1  0.002054  0.658229  0.717442  1
  Y  Y2  1  0.157879  0.498687  0.468537  1
  Y  Y3  1  0.501313  0.842121  0.031463  1
  Y  Y4  1  0.842121  0.501313  0.968537  1
  Y  Y5  1  0.498687  0.157879  0.531463  1
  Y  Y6  1  0.341771  0.997946  0.782558  1
  Y  Y7  1  0.658229  0.002054  0.282558  1
  Hf  Hf8  1  0.326351  0.673649  0.250000  1
  Hf  Hf9  1  0.673649  0.326351  0.750000  1
  Hf  Hf10  1  0.152430  0.995938  0.376900  1
  Hf  Hf11  1  0.847570  0.004062  0.876900  1
  Hf  Hf12  1  0.506360  0.655827  0.623780  1
  Hf  Hf13  1  0.344173  0.493640  0.876220  1
  Hf  Hf14  1  0.493640  0.344173  0.123780  1
  Hf  Hf15  1  0.655827  0.506360  0.376220  1
  Hf  Hf16  1  0.995938  0.152430  0.623100  1
  Hf  Hf17  1  0.004062  0.847570  0.123100  1
  Ta  Ta18  1  0.172722  0.172722  0.000000  1
  Ta  Ta19  1  0.827278  0.827278  0.500000  1
  Ge  Ge20  1  0.365793  0.301041  0.321881  1
  Ge  Ge21  1  0.634207  0.698959  0.821881  1
  Ge  Ge22  1  0.197594  0.864142  0.571696  1
  Ge  Ge23  1  0.135858  0.802406  0.928304  1
  Ge  Ge24  1  0.802406  0.135858  0.071696  1
  Ge  Ge25  1  0.864142  0.197594  0.428304  1
  Ge  Ge26  1  0.301041  0.365793  0.678119  1
  Ge  Ge27  1  0.698959  0.634207  0.178119  1
  Ge  Ge28  1  0.296243  0.040069  0.180699  1
  Ge  Ge29  1  0.703757  0.959931  0.680699  1
  Ge  Ge30  1  0.462240  0.798309  0.431848  1
  Ge  Ge31  1  0.201691  0.537760  0.068152  1
  Ge  Ge32  1  0.537760  0.201691  0.931848  1
  Ge  Ge33  1  0.798309  0.462240  0.568152  1
  Ge  Ge34  1  0.040069  0.296243  0.819301  1
  Ge  Ge35  1  0.959931  0.703757  0.319301  1
