# generated using pymatgen
data_Tb4ErGa6P6Ir19
_symmetry_space_group_name_H-M   'P 1'
_cell_length_a   12.97568400
_cell_length_b   12.97568402
_cell_length_c   3.98614000
_cell_angle_alpha   90.00000000
_cell_angle_beta   90.00000000
_cell_angle_gamma   119.99999995
_symmetry_Int_Tables_number   1
_chemical_formula_structural   Tb4ErGa6P6Ir19
_chemical_formula_sum   'Tb4 Er1 Ga6 P6 Ir19'
_cell_volume   581.22421749
_cell_formula_units_Z   1
loop_
 _symmetry_equiv_pos_site_id
 _symmetry_equiv_pos_as_xyz
  1  'x, y, z'
loop_
 _atom_site_type_symbol
 _atom_site_label
 _atom_site_symmetry_multiplicity
 _atom_site_fract_x
 _atom_site_fract_y
 _atom_site_fract_z
 _atom_site_occupancy
  Tb  Tb0  1  0.666667  0.333333  0.000000  1
  Tb  Tb1  1  0.816496  0.812302  0.500000  1
  Tb  Tb2  1  0.187698  0.004195  0.500000  1
  Tb  Tb3  1  0.995805  0.183504  0.500000  1
  Er  Er4  1  0.333333  0.666667  0.000000  1
  Ga  Ga5  1  0.677120  0.158323  0.500000  1
  Ga  Ga6  1  0.841677  0.518798  0.500000  1
  Ga  Ga7  1  0.481202  0.322880  0.500000  1
  Ga  Ga8  1  0.635007  0.636631  0.000000  1
  Ga  Ga9  1  0.363369  0.998376  0.000000  1
  Ga  Ga10  1  0.001624  0.364993  0.000000  1
  P  P11  1  0.180527  0.697557  0.500000  1
  P  P12  1  0.517028  0.819473  0.500000  1
  P  P13  1  0.302443  0.482972  0.500000  1
  P  P14  1  0.176080  0.181734  0.000000  1
  P  P15  1  0.818266  0.994345  0.000000  1
  P  P16  1  0.005655  0.823920  0.000000  1
  Ir  Ir17  1  0.808442  0.169131  0.000000  1
  Ir  Ir18  1  0.830869  0.639311  0.000000  1
  Ir  Ir19  1  0.360689  0.191558  0.000000  1
  Ir  Ir20  1  0.182284  0.793452  0.000000  1
  Ir  Ir21  1  0.611168  0.817716  0.000000  1
  Ir  Ir22  1  0.206548  0.388832  0.000000  1
  Ir  Ir23  1  0.446359  0.440493  0.000000  1
  Ir  Ir24  1  0.559507  0.005866  0.000000  1
  Ir  Ir25  1  0.994134  0.553641  0.000000  1
  Ir  Ir26  1  0.268676  0.281444  0.500000  1
  Ir  Ir27  1  0.718556  0.987232  0.500000  1
  Ir  Ir28  1  0.012768  0.731324  0.500000  1
  Ir  Ir29  1  0.873195  0.348800  0.500000  1
  Ir  Ir30  1  0.651200  0.524397  0.500000  1
  Ir  Ir31  1  0.475603  0.126805  0.500000  1
  Ir  Ir32  1  0.371557  0.868559  0.500000  1
  Ir  Ir33  1  0.497005  0.628443  0.500000  1
  Ir  Ir34  1  0.131441  0.502995  0.500000  1
  Ir  Ir35  1  0.000000  0.000000  0.000000  1
