# generated using pymatgen
data_PaMoCl10
_symmetry_space_group_name_H-M   'P 1'
_cell_length_a   13.60432196
_cell_length_b   13.59810932
_cell_length_c   6.75478931
_cell_angle_alpha   86.06448387
_cell_angle_beta   85.96169706
_cell_angle_gamma   89.33080305
_symmetry_Int_Tables_number   1
_chemical_formula_structural   PaMoCl10
_chemical_formula_sum   'Pa3 Mo3 Cl30'
_cell_volume   1243.51790534
_cell_formula_units_Z   3
loop_
 _symmetry_equiv_pos_site_id
 _symmetry_equiv_pos_as_xyz
  1  'x, y, z'
loop_
 _atom_site_type_symbol
 _atom_site_label
 _atom_site_symmetry_multiplicity
 _atom_site_fract_x
 _atom_site_fract_y
 _atom_site_fract_z
 _atom_site_occupancy
  Pa  Pa0  1  0.898048  0.101412  0.000523  1
  Pa  Pa1  1  0.768633  0.564948  0.433590  1
  Pa  Pa2  1  0.231434  0.435399  0.566128  1
  Mo  Mo3  1  0.108242  0.891471  0.999828  1
  Mo  Mo4  1  0.441418  0.224802  0.565990  1
  Mo  Mo5  1  0.558599  0.775179  0.433689  1
  Cl  Cl6  1  0.497380  0.314530  0.804373  1
  Cl  Cl7  1  0.269862  0.255897  0.749490  1
  Cl  Cl8  1  0.159305  0.977999  0.711916  1
  Cl  Cl9  1  0.588863  0.604195  0.616595  1
  Cl  Cl10  1  0.221571  0.599025  0.372595  1
  Cl  Cl11  1  0.729194  0.744448  0.250054  1
  Cl  Cl12  1  0.154028  0.350032  0.299456  1
  Cl  Cl13  1  0.080540  0.066476  0.132049  1
  Cl  Cl14  1  0.649146  0.831207  0.671144  1
  Cl  Cl15  1  0.588104  0.211212  0.391436  1
  Cl  Cl16  1  0.118318  0.741432  0.876018  1
  Cl  Cl17  1  0.023205  0.841296  0.288703  1
  Cl  Cl18  1  0.930991  0.556563  0.238001  1
  Cl  Cl19  1  0.823764  0.020698  0.322022  1
  Cl  Cl20  1  0.410980  0.788492  0.607646  1
  Cl  Cl21  1  0.777671  0.402782  0.629473  1
  Cl  Cl22  1  0.545938  0.922908  0.260119  1
  Cl  Cl23  1  0.978184  0.174339  0.678971  1
  Cl  Cl24  1  0.846807  0.651756  0.698417  1
  Cl  Cl25  1  0.888894  0.266433  0.140035  1
  Cl  Cl26  1  0.501867  0.684727  0.196414  1
  Cl  Cl27  1  0.349888  0.168948  0.328986  1
  Cl  Cl28  1  0.069761  0.447883  0.760911  1
  Cl  Cl29  1  0.731433  0.108477  0.862886  1
  Cl  Cl30  1  0.453188  0.076619  0.738988  1
  Cl  Cl31  1  0.411330  0.395978  0.383514  1
  Cl  Cl32  1  0.317426  0.514494  0.831461  1
  Cl  Cl33  1  0.259297  0.882744  0.122452  1
  Cl  Cl34  1  0.934170  0.918715  0.867979  1
  Cl  Cl35  1  0.682520  0.486487  0.168147  1
