# generated using pymatgen
data_Lu5Mg3(ReB6)4
_symmetry_space_group_name_H-M   'P 1'
_cell_length_a   3.56656100
_cell_length_b   8.97708026
_cell_length_c   11.25664801
_cell_angle_alpha   89.98807844
_cell_angle_beta   90.00000000
_cell_angle_gamma   90.00000000
_symmetry_Int_Tables_number   1
_chemical_formula_structural   Lu5Mg3(ReB6)4
_chemical_formula_sum   'Lu5 Mg3 Re4 B24'
_cell_volume   360.40751717
_cell_formula_units_Z   1
loop_
 _symmetry_equiv_pos_site_id
 _symmetry_equiv_pos_as_xyz
  1  'x, y, z'
loop_
 _atom_site_type_symbol
 _atom_site_label
 _atom_site_symmetry_multiplicity
 _atom_site_fract_x
 _atom_site_fract_y
 _atom_site_fract_z
 _atom_site_occupancy
  Lu  Lu0  1  0.000000  0.324229  0.414156  1
  Lu  Lu1  1  0.000000  0.673600  0.587726  1
  Lu  Lu2  1  0.000000  0.824176  0.084801  1
  Lu  Lu3  1  0.000000  0.173973  0.911981  1
  Lu  Lu4  1  0.000000  0.943792  0.370594  1
  Mg  Mg5  1  0.000000  0.055972  0.629658  1
  Mg  Mg6  1  0.000000  0.446101  0.125229  1
  Mg  Mg7  1  0.000000  0.555704  0.872661  1
  Re  Re8  1  0.000000  0.638405  0.317195  1
  Re  Re9  1  0.000000  0.358644  0.682806  1
  Re  Re10  1  0.000000  0.144577  0.178182  1
  Re  Re11  1  0.000000  0.857822  0.819210  1
  B  B12  1  0.500000  0.552359  0.433696  1
  B  B13  1  0.500000  0.445000  0.566768  1
  B  B14  1  0.500000  0.055657  0.065462  1
  B  B15  1  0.500000  0.945141  0.933725  1
  B  B16  1  0.500000  0.751412  0.420353  1
  B  B17  1  0.500000  0.245565  0.581568  1
  B  B18  1  0.500000  0.256447  0.079245  1
  B  B19  1  0.500000  0.743862  0.919667  1
  B  B20  1  0.500000  0.793398  0.262326  1
  B  B21  1  0.500000  0.205049  0.738630  1
  B  B22  1  0.500000  0.296931  0.236895  1
  B  B23  1  0.500000  0.704551  0.762450  1
  B  B24  1  0.500000  0.627782  0.180663  1
  B  B25  1  0.500000  0.371469  0.819286  1
  B  B26  1  0.500000  0.132385  0.317395  1
  B  B27  1  0.500000  0.870385  0.682405  1
  B  B28  1  0.500000  0.982102  0.211654  1
  B  B29  1  0.500000  0.019841  0.787874  1
  B  B30  1  0.500000  0.479561  0.287150  1
  B  B31  1  0.500000  0.520310  0.712879  1
  B  B32  1  0.500000  0.592812  0.025043  1
  B  B33  1  0.500000  0.407619  0.974048  1
  B  B34  1  0.500000  0.096875  0.477321  1
  B  B35  1  0.500000  0.906492  0.529299  1
