# generated using pymatgen
data_Tb2Y3Bi2Ir
_symmetry_space_group_name_H-M   'P 1'
_cell_length_a   8.07804700
_cell_length_b   8.98996400
_cell_length_c   12.52944800
_cell_angle_alpha   90.00000000
_cell_angle_beta   90.00000000
_cell_angle_gamma   90.00000000
_symmetry_Int_Tables_number   1
_chemical_formula_structural   Tb2Y3Bi2Ir
_chemical_formula_sum   'Tb8 Y12 Bi8 Ir4'
_cell_volume   909.90545007
_cell_formula_units_Z   4
loop_
 _symmetry_equiv_pos_site_id
 _symmetry_equiv_pos_as_xyz
  1  'x, y, z'
loop_
 _atom_site_type_symbol
 _atom_site_label
 _atom_site_symmetry_multiplicity
 _atom_site_fract_x
 _atom_site_fract_y
 _atom_site_fract_z
 _atom_site_occupancy
  Tb  Tb0  1  0.676699  0.040973  0.565355  1
  Tb  Tb1  1  0.323301  0.959027  0.434645  1
  Tb  Tb2  1  0.176699  0.959027  0.934645  1
  Tb  Tb3  1  0.323301  0.540973  0.434645  1
  Tb  Tb4  1  0.823301  0.040973  0.065355  1
  Tb  Tb5  1  0.676699  0.459027  0.565355  1
  Tb  Tb6  1  0.823301  0.459027  0.065355  1
  Tb  Tb7  1  0.176699  0.540973  0.934645  1
  Y  Y8  1  0.840552  0.750000  0.793386  1
  Y  Y9  1  0.159448  0.250000  0.206614  1
  Y  Y10  1  0.340552  0.250000  0.706614  1
  Y  Y11  1  0.659448  0.750000  0.293386  1
  Y  Y12  1  0.375895  0.750000  0.695462  1
  Y  Y13  1  0.624105  0.250000  0.304538  1
  Y  Y14  1  0.875895  0.250000  0.804538  1
  Y  Y15  1  0.124105  0.750000  0.195462  1
  Y  Y16  1  0.948277  0.750000  0.501079  1
  Y  Y17  1  0.051723  0.250000  0.498921  1
  Y  Y18  1  0.448277  0.250000  0.998921  1
  Y  Y19  1  0.551723  0.750000  0.001079  1
  Bi  Bi20  1  0.570003  0.490836  0.827207  1
  Bi  Bi21  1  0.429997  0.509164  0.172793  1
  Bi  Bi22  1  0.070003  0.509164  0.672793  1
  Bi  Bi23  1  0.429997  0.990836  0.172793  1
  Bi  Bi24  1  0.929997  0.490836  0.327207  1
  Bi  Bi25  1  0.570003  0.009164  0.827207  1
  Bi  Bi26  1  0.929997  0.009164  0.327207  1
  Bi  Bi27  1  0.070003  0.990836  0.672793  1
  Ir  Ir28  1  0.568664  0.750000  0.509911  1
  Ir  Ir29  1  0.431336  0.250000  0.490089  1
  Ir  Ir30  1  0.068664  0.250000  0.990089  1
  Ir  Ir31  1  0.931336  0.750000  0.009911  1
