# generated using pymatgen
data_V12FePtRh2
_symmetry_space_group_name_H-M   'P 1'
_cell_length_a   4.76794000
_cell_length_b   4.76731600
_cell_length_c   9.51540000
_cell_angle_alpha   90.00000000
_cell_angle_beta   90.00000000
_cell_angle_gamma   90.00000000
_symmetry_Int_Tables_number   1
_chemical_formula_structural   V12FePtRh2
_chemical_formula_sum   'V12 Fe1 Pt1 Rh2'
_cell_volume   216.28767443
_cell_formula_units_Z   1
loop_
 _symmetry_equiv_pos_site_id
 _symmetry_equiv_pos_as_xyz
  1  'x, y, z'
loop_
 _atom_site_type_symbol
 _atom_site_label
 _atom_site_symmetry_multiplicity
 _atom_site_fract_x
 _atom_site_fract_y
 _atom_site_fract_z
 _atom_site_occupancy
  V  V0  1  0.500000  0.000000  0.621828  1
  V  V1  1  0.500000  0.000000  0.126887  1
  V  V2  1  0.747434  0.500000  0.257897  1
  V  V3  1  0.747434  0.500000  0.742103  1
  V  V4  1  0.000000  0.745852  0.500000  1
  V  V5  1  0.000000  0.752184  0.000000  1
  V  V6  1  0.500000  0.000000  0.378172  1
  V  V7  1  0.500000  0.000000  0.873113  1
  V  V8  1  0.252566  0.500000  0.257897  1
  V  V9  1  0.252566  0.500000  0.742103  1
  V  V10  1  0.000000  0.254148  0.500000  1
  V  V11  1  0.000000  0.247816  0.000000  1
  Fe  Fe12  1  0.500000  0.500000  0.500000  1
  Pt  Pt13  1  0.500000  0.500000  0.000000  1
  Rh  Rh14  1  0.000000  0.000000  0.250476  1
  Rh  Rh15  1  0.000000  0.000000  0.749524  1
