# generated using pymatgen
data_TbDy4Mg2P12Ir17
_symmetry_space_group_name_H-M   'P 1'
_cell_length_a   12.67333000
_cell_length_b   12.83619181
_cell_length_c   3.98310700
_cell_angle_alpha   90.00000000
_cell_angle_beta   90.00000000
_cell_angle_gamma   119.58024146
_symmetry_Int_Tables_number   1
_chemical_formula_structural   TbDy4Mg2P12Ir17
_chemical_formula_sum   'Tb1 Dy4 Mg2 P12 Ir17'
_cell_volume   563.50920397
_cell_formula_units_Z   1
loop_
 _symmetry_equiv_pos_site_id
 _symmetry_equiv_pos_as_xyz
  1  'x, y, z'
loop_
 _atom_site_type_symbol
 _atom_site_label
 _atom_site_symmetry_multiplicity
 _atom_site_fract_x
 _atom_site_fract_y
 _atom_site_fract_z
 _atom_site_occupancy
  Tb  Tb0  1  0.002418  0.813228  0.000000  1
  Dy  Dy1  1  0.332849  0.664072  0.500000  1
  Dy  Dy2  1  0.668771  0.335913  0.500000  1
  Dy  Dy3  1  0.189177  0.186829  0.000000  1
  Dy  Dy4  1  0.810018  0.000008  0.000000  1
  Mg  Mg5  1  0.997481  0.443774  0.500000  1
  Mg  Mg6  1  0.553588  0.556123  0.500000  1
  P  P7  1  0.003113  0.643090  0.500000  1
  P  P8  1  0.359783  0.356612  0.500000  1
  P  P9  1  0.642640  0.000002  0.500000  1
  P  P10  1  0.513951  0.686058  0.000000  1
  P  P11  1  0.308166  0.824001  0.000000  1
  P  P12  1  0.168656  0.481323  0.000000  1
  P  P13  1  0.484202  0.176019  0.000000  1
  P  P14  1  0.687304  0.518694  0.000000  1
  P  P15  1  0.827908  0.313901  0.000000  1
  P  P16  1  0.998719  0.175846  0.500000  1
  P  P17  1  0.822815  0.824256  0.500000  1
  P  P18  1  0.179166  0.000191  0.500000  1
  Ir  Ir19  1  0.504877  0.866075  0.000000  1
  Ir  Ir20  1  0.128024  0.639658  0.000000  1
  Ir  Ir21  1  0.357574  0.492671  0.000000  1
  Ir  Ir22  1  0.488291  0.360280  0.000000  1
  Ir  Ir23  1  0.864942  0.507313  0.000000  1
  Ir  Ir24  1  0.638841  0.133924  0.000000  1
  Ir  Ir25  1  0.462006  0.000030  0.500000  1
  Ir  Ir26  1  0.996365  0.279208  0.000000  1
  Ir  Ir27  1  0.717000  0.720786  0.000000  1
  Ir  Ir28  1  0.287670  0.000117  0.000000  1
  Ir  Ir29  1  0.622925  0.807307  0.500000  1
  Ir  Ir30  1  0.201742  0.824849  0.500000  1
  Ir  Ir31  1  0.176983  0.367374  0.500000  1
  Ir  Ir32  1  0.376530  0.175267  0.500000  1
  Ir  Ir33  1  0.809110  0.632204  0.500000  1
  Ir  Ir34  1  0.815683  0.192728  0.500000  1
  Ir  Ir35  1  0.000712  0.000268  0.500000  1
