# generated using pymatgen
data_CsRb7Na4(VSe4)4
_symmetry_space_group_name_H-M   'P 1'
_cell_length_a   7.58840825
_cell_length_b   7.55232035
_cell_length_c   19.66265668
_cell_angle_alpha   86.69721061
_cell_angle_beta   86.67312015
_cell_angle_gamma   77.88958698
_symmetry_Int_Tables_number   1
_chemical_formula_structural   CsRb7Na4(VSe4)4
_chemical_formula_sum   'Cs1 Rb7 Na4 V4 Se16'
_cell_volume   1098.74107033
_cell_formula_units_Z   1
loop_
 _symmetry_equiv_pos_site_id
 _symmetry_equiv_pos_as_xyz
  1  'x, y, z'
loop_
 _atom_site_type_symbol
 _atom_site_label
 _atom_site_symmetry_multiplicity
 _atom_site_fract_x
 _atom_site_fract_y
 _atom_site_fract_z
 _atom_site_occupancy
  Cs  Cs0  1  0.843017  0.890966  0.927204  1
  Rb  Rb1  1  0.893687  0.836926  0.427160  1
  Rb  Rb2  1  0.321259  0.679533  0.749198  1
  Rb  Rb3  1  0.499261  0.475513  0.500609  1
  Rb  Rb4  1  0.679592  0.321272  0.250170  1
  Rb  Rb5  1  0.475306  0.498753  0.001146  1
  Rb  Rb6  1  0.100756  0.153465  0.573650  1
  Rb  Rb7  1  0.153721  0.100989  0.074270  1
  Na  Na8  1  0.882220  0.401271  0.786628  1
  Na  Na9  1  0.401349  0.882160  0.287182  1
  Na  Na10  1  0.598722  0.117458  0.713586  1
  Na  Na11  1  0.117501  0.600095  0.214193  1
  V  V12  1  0.815921  0.700865  0.641981  1
  V  V13  1  0.700259  0.815599  0.144516  1
  V  V14  1  0.299041  0.186071  0.856368  1
  V  V15  1  0.184860  0.298584  0.356995  1
  Se  Se16  1  0.839078  0.784994  0.751210  1
  Se  Se17  1  0.611018  0.916228  0.585339  1
  Se  Se18  1  0.784074  0.837372  0.253986  1
  Se  Se19  1  0.914648  0.609813  0.087628  1
  Se  Se20  1  0.339878  0.908029  0.912576  1
  Se  Se21  1  0.907898  0.332239  0.413264  1
  Se  Se22  1  0.717498  0.430087  0.649030  1
  Se  Se23  1  0.430388  0.717326  0.149816  1
  Se  Se24  1  0.564919  0.290660  0.850181  1
  Se  Se25  1  0.281574  0.569919  0.351642  1
  Se  Se26  1  0.093422  0.664595  0.585963  1
  Se  Se27  1  0.663312  0.094865  0.089026  1
  Se  Se28  1  0.083067  0.387089  0.914668  1
  Se  Se29  1  0.214812  0.163723  0.746919  1
  Se  Se30  1  0.390103  0.084744  0.414338  1
  Se  Se31  1  0.163942  0.214897  0.247241  1
