# generated using pymatgen
data_NaReOF4
_symmetry_space_group_name_H-M   'P 1'
_cell_length_a   5.69859933
_cell_length_b   5.69859947
_cell_length_c   6.82676803
_cell_angle_alpha   127.30251611
_cell_angle_beta   127.30251751
_cell_angle_gamma   38.25309485
_symmetry_Int_Tables_number   1
_chemical_formula_structural   NaReOF4
_chemical_formula_sum   'Na1 Re1 O1 F4'
_cell_volume   105.30156753
_cell_formula_units_Z   1
loop_
 _symmetry_equiv_pos_site_id
 _symmetry_equiv_pos_as_xyz
  1  'x, y, z'
loop_
 _atom_site_type_symbol
 _atom_site_label
 _atom_site_symmetry_multiplicity
 _atom_site_fract_x
 _atom_site_fract_y
 _atom_site_fract_z
 _atom_site_occupancy
  Na  Na0  1  0.999712  0.000288  0.000000  1
  Re  Re1  1  0.499847  0.500153  0.499999  1
  O  O2  1  0.999834  0.000166  0.499999  1
  F  F3  1  0.268686  0.268697  0.214296  1
  F  F4  1  0.542267  0.542349  0.257472  1
  F  F5  1  0.457651  0.457733  0.742528  1
  F  F6  1  0.731302  0.731313  0.785704  1
