# generated using pymatgen
data_BaLa3(USe5)2
_symmetry_space_group_name_H-M   'P 1'
_cell_length_a   8.02487412
_cell_length_b   8.66065236
_cell_length_c   12.64954200
_cell_angle_alpha   90.00000000
_cell_angle_beta   90.00000000
_cell_angle_gamma   90.78864183
_symmetry_Int_Tables_number   1
_chemical_formula_structural   BaLa3(USe5)2
_chemical_formula_sum   'Ba2 La6 U4 Se20'
_cell_volume   879.06804772
_cell_formula_units_Z   2
loop_
 _symmetry_equiv_pos_site_id
 _symmetry_equiv_pos_as_xyz
  1  'x, y, z'
loop_
 _atom_site_type_symbol
 _atom_site_label
 _atom_site_symmetry_multiplicity
 _atom_site_fract_x
 _atom_site_fract_y
 _atom_site_fract_z
 _atom_site_occupancy
  Ba  Ba0  1  0.539255  0.504443  0.327967  1
  Ba  Ba1  1  0.960745  0.995557  0.827967  1
  La  La2  1  0.468346  0.999949  0.678918  1
  La  La3  1  0.031654  0.500051  0.178918  1
  La  La4  1  0.464021  0.499128  0.674599  1
  La  La5  1  0.035979  0.000872  0.174599  1
  La  La6  1  0.531051  0.001104  0.324959  1
  La  La7  1  0.968949  0.498896  0.824959  1
  U  U8  1  0.064188  0.753475  0.492992  1
  U  U9  1  0.435812  0.746525  0.992992  1
  U  U10  1  0.932793  0.249398  0.507089  1
  U  U11  1  0.567207  0.250602  0.007089  1
  Se  Se12  1  0.830327  0.954587  0.580969  1
  Se  Se13  1  0.669673  0.545413  0.080969  1
  Se  Se14  1  0.153341  0.466789  0.409508  1
  Se  Se15  1  0.346659  0.033211  0.909508  1
  Se  Se16  1  0.167338  0.041564  0.410184  1
  Se  Se17  1  0.332662  0.458436  0.910184  1
  Se  Se18  1  0.832457  0.540718  0.589447  1
  Se  Se19  1  0.667543  0.959282  0.089447  1
  Se  Se20  1  0.850942  0.759636  0.310912  1
  Se  Se21  1  0.649058  0.740364  0.810912  1
  Se  Se22  1  0.164368  0.260846  0.681797  1
  Se  Se23  1  0.335632  0.239154  0.181797  1
  Se  Se24  1  0.443548  0.764821  0.502696  1
  Se  Se25  1  0.056452  0.735179  0.002696  1
  Se  Se26  1  0.553847  0.238413  0.509606  1
  Se  Se27  1  0.946153  0.261587  0.009606  1
  Se  Se28  1  0.187543  0.738608  0.708612  1
  Se  Se29  1  0.312457  0.761392  0.208612  1
  Se  Se30  1  0.821718  0.237798  0.289744  1
  Se  Se31  1  0.678282  0.262202  0.789744  1
