# generated using pymatgen
data_Sr4DySn3
_symmetry_space_group_name_H-M   'P 1'
_cell_length_a   9.76727538
_cell_length_b   9.76731301
_cell_length_c   9.76727601
_cell_angle_alpha   96.85756091
_cell_angle_beta   96.85272668
_cell_angle_gamma   139.57693741
_symmetry_Int_Tables_number   1
_chemical_formula_structural   Sr4DySn3
_chemical_formula_sum   'Sr8 Dy2 Sn6'
_cell_volume   566.99915028
_cell_formula_units_Z   2
loop_
 _symmetry_equiv_pos_site_id
 _symmetry_equiv_pos_as_xyz
  1  'x, y, z'
loop_
 _atom_site_type_symbol
 _atom_site_label
 _atom_site_symmetry_multiplicity
 _atom_site_fract_x
 _atom_site_fract_y
 _atom_site_fract_z
 _atom_site_occupancy
  Sr  Sr0  1  0.085028  0.211890  0.296912  1
  Sr  Sr1  1  0.914972  0.788110  0.703088  1
  Sr  Sr2  1  0.788106  0.085019  0.873138  1
  Sr  Sr3  1  0.414978  0.711890  0.126862  1
  Sr  Sr4  1  0.211894  0.914981  0.126862  1
  Sr  Sr5  1  0.585022  0.288110  0.873138  1
  Sr  Sr6  1  0.711881  0.585019  0.296912  1
  Sr  Sr7  1  0.288119  0.414981  0.703088  1
  Dy  Dy8  1  0.249995  0.750000  0.499995  1
  Dy  Dy9  1  0.750005  0.250000  0.500005  1
  Sn  Sn10  1  0.145256  0.645256  0.790509  1
  Sn  Sn11  1  0.854744  0.354744  0.209491  1
  Sn  Sn12  1  0.354748  0.145256  0.500001  1
  Sn  Sn13  1  0.645252  0.854744  0.499999  1
  Sn  Sn14  1  0.249966  0.250000  0.999966  1
  Sn  Sn15  1  0.750034  0.750000  0.000034  1
