# generated using pymatgen
data_DyHo(SnIr)2
_symmetry_space_group_name_H-M   'P 1'
_cell_length_a   7.48060400
_cell_length_b   7.48060391
_cell_length_c   7.92367500
_cell_angle_alpha   90.00000000
_cell_angle_beta   90.00000000
_cell_angle_gamma   120.00000038
_symmetry_Int_Tables_number   1
_chemical_formula_structural   DyHo(SnIr)2
_chemical_formula_sum   'Dy3 Ho3 Sn6 Ir6'
_cell_volume   383.99945623
_cell_formula_units_Z   3
loop_
 _symmetry_equiv_pos_site_id
 _symmetry_equiv_pos_as_xyz
  1  'x, y, z'
loop_
 _atom_site_type_symbol
 _atom_site_label
 _atom_site_symmetry_multiplicity
 _atom_site_fract_x
 _atom_site_fract_y
 _atom_site_fract_z
 _atom_site_occupancy
  Dy  Dy0  1  0.404931  0.999971  0.250000  1
  Dy  Dy1  1  0.595041  0.595069  0.250000  1
  Dy  Dy2  1  0.000029  0.404959  0.250000  1
  Ho  Ho3  1  0.596582  0.596889  0.750000  1
  Ho  Ho4  1  0.000307  0.403418  0.750000  1
  Ho  Ho5  1  0.403111  0.999693  0.750000  1
  Sn  Sn6  1  0.259991  0.259820  0.500739  1
  Sn  Sn7  1  0.259991  0.259820  0.999261  1
  Sn  Sn8  1  0.740180  0.000171  0.999261  1
  Sn  Sn9  1  0.999829  0.740009  0.500739  1
  Sn  Sn10  1  0.740180  0.000171  0.500739  1
  Sn  Sn11  1  0.999829  0.740009  0.999261  1
  Ir  Ir12  1  0.666667  0.333333  0.503259  1
  Ir  Ir13  1  0.666667  0.333333  0.996741  1
  Ir  Ir14  1  0.333333  0.666667  0.997529  1
  Ir  Ir15  1  0.333333  0.666667  0.502471  1
  Ir  Ir16  1  0.000000  0.000000  0.750000  1
  Ir  Ir17  1  0.000000  0.000000  0.250000  1
