# generated using pymatgen
data_Ho6Tm10Cd3AgIr4
_symmetry_space_group_name_H-M   'P 1'
_cell_length_a   9.55076259
_cell_length_b   9.55076277
_cell_length_c   9.55076213
_cell_angle_alpha   59.69614329
_cell_angle_beta   59.69614188
_cell_angle_gamma   59.69613853
_symmetry_Int_Tables_number   1
_chemical_formula_structural   Ho6Tm10Cd3AgIr4
_chemical_formula_sum   'Ho6 Tm10 Cd3 Ag1 Ir4'
_cell_volume   611.77414902
_cell_formula_units_Z   1
loop_
 _symmetry_equiv_pos_site_id
 _symmetry_equiv_pos_as_xyz
  1  'x, y, z'
loop_
 _atom_site_type_symbol
 _atom_site_label
 _atom_site_symmetry_multiplicity
 _atom_site_fract_x
 _atom_site_fract_y
 _atom_site_fract_z
 _atom_site_occupancy
  Ho  Ho0  1  0.186997  0.811233  0.811233  1
  Ho  Ho1  1  0.811667  0.187633  0.187633  1
  Ho  Ho2  1  0.811233  0.186997  0.811233  1
  Ho  Ho3  1  0.187633  0.811667  0.187633  1
  Ho  Ho4  1  0.811233  0.811233  0.186997  1
  Ho  Ho5  1  0.187633  0.187633  0.811667  1
  Tm  Tm6  1  0.598831  0.598831  0.598831  1
  Tm  Tm7  1  0.600188  0.600188  0.202240  1
  Tm  Tm8  1  0.600188  0.202240  0.600188  1
  Tm  Tm9  1  0.202240  0.600188  0.600188  1
  Tm  Tm10  1  0.060133  0.438958  0.438958  1
  Tm  Tm11  1  0.437523  0.060692  0.060692  1
  Tm  Tm12  1  0.438958  0.060133  0.438958  1
  Tm  Tm13  1  0.060692  0.437523  0.060692  1
  Tm  Tm14  1  0.438958  0.438958  0.060133  1
  Tm  Tm15  1  0.060692  0.060692  0.437523  1
  Cd  Cd16  1  0.831186  0.831186  0.508247  1
  Cd  Cd17  1  0.831186  0.508247  0.831186  1
  Cd  Cd18  1  0.508247  0.831186  0.831186  1
  Ag  Ag19  1  0.832447  0.832447  0.832447  1
  Ir  Ir20  1  0.391966  0.391966  0.391966  1
  Ir  Ir21  1  0.392598  0.392598  0.824973  1
  Ir  Ir22  1  0.392598  0.824973  0.392598  1
  Ir  Ir23  1  0.824973  0.392598  0.392598  1
