# generated using pymatgen
data_Pr6EuPtCl12
_symmetry_space_group_name_H-M   'P 1'
_cell_length_a   9.35388011
_cell_length_b   9.35379284
_cell_length_c   9.35346500
_cell_angle_alpha   106.31592195
_cell_angle_beta   106.32149692
_cell_angle_gamma   106.32007447
_symmetry_Int_Tables_number   1
_chemical_formula_structural   Pr6EuPtCl12
_chemical_formula_sum   'Pr6 Eu1 Pt1 Cl12'
_cell_volume   693.81911563
_cell_formula_units_Z   1
loop_
 _symmetry_equiv_pos_site_id
 _symmetry_equiv_pos_as_xyz
  1  'x, y, z'
loop_
 _atom_site_type_symbol
 _atom_site_label
 _atom_site_symmetry_multiplicity
 _atom_site_fract_x
 _atom_site_fract_y
 _atom_site_fract_z
 _atom_site_occupancy
  Pr  Pr0  1  0.113048  0.321479  0.017400  1
  Pr  Pr1  1  0.321493  0.017410  0.113078  1
  Pr  Pr2  1  0.017414  0.113066  0.321493  1
  Pr  Pr3  1  0.982587  0.886934  0.678508  1
  Pr  Pr4  1  0.678507  0.982591  0.886922  1
  Pr  Pr5  1  0.886952  0.678521  0.982600  1
  Eu  Eu6  1  0.500000  0.500000  0.500000  1
  Pt  Pt7  1  0.000000  0.000000  0.000000  1
  Cl  Cl8  1  0.208521  0.682143  0.072198  1
  Cl  Cl9  1  0.446182  0.361145  0.160836  1
  Cl  Cl10  1  0.682133  0.072188  0.208515  1
  Cl  Cl11  1  0.927791  0.791478  0.317863  1
  Cl  Cl12  1  0.160829  0.446183  0.361126  1
  Cl  Cl13  1  0.361149  0.160835  0.446195  1
  Cl  Cl14  1  0.638851  0.839165  0.553806  1
  Cl  Cl15  1  0.839172  0.553817  0.638874  1
  Cl  Cl16  1  0.072210  0.208522  0.682138  1
  Cl  Cl17  1  0.317868  0.927813  0.791485  1
  Cl  Cl18  1  0.553818  0.638855  0.839165  1
  Cl  Cl19  1  0.791479  0.317857  0.927802  1
