# generated using pymatgen
data_Tb3Y7(InSb2)2
_symmetry_space_group_name_H-M   'P 1'
_cell_length_a   6.51767602
_cell_length_b   8.98491785
_cell_length_c   8.99119401
_cell_angle_alpha   120.02073220
_cell_angle_beta   90.00195239
_cell_angle_gamma   89.99074400
_symmetry_Int_Tables_number   1
_chemical_formula_structural   Tb3Y7(InSb2)2
_chemical_formula_sum   'Tb3 Y7 In2 Sb4'
_cell_volume   455.89424149
_cell_formula_units_Z   1
loop_
 _symmetry_equiv_pos_site_id
 _symmetry_equiv_pos_as_xyz
  1  'x, y, z'
loop_
 _atom_site_type_symbol
 _atom_site_label
 _atom_site_symmetry_multiplicity
 _atom_site_fract_x
 _atom_site_fract_y
 _atom_site_fract_z
 _atom_site_occupancy
  Tb  Tb0  1  0.498970  0.336170  0.667535  1
  Tb  Tb1  1  0.498793  0.663892  0.331439  1
  Tb  Tb2  1  0.001265  0.663948  0.331448  1
  Y  Y3  1  0.001070  0.336029  0.667591  1
  Y  Y4  1  0.749996  0.241965  0.004561  1
  Y  Y5  1  0.749999  0.758043  0.762675  1
  Y  Y6  1  0.750032  0.000067  0.240292  1
  Y  Y7  1  0.249918  0.758913  0.997834  1
  Y  Y8  1  0.249881  0.241086  0.238891  1
  Y  Y9  1  0.249980  0.999979  0.756707  1
  In  In10  1  0.750164  0.605810  0.000849  1
  In  In11  1  0.750197  0.393984  0.395178  1
  Sb  Sb12  1  0.750136  0.000152  0.609914  1
  Sb  Sb13  1  0.249791  0.391308  0.997953  1
  Sb  Sb14  1  0.249904  0.608404  0.606956  1
  Sb  Sb15  1  0.249904  0.000252  0.390174  1
