# generated using pymatgen
data_Sr9CaSi5Te
_symmetry_space_group_name_H-M   'P 1'
_cell_length_a   9.73108225
_cell_length_b   9.73096772
_cell_length_c   9.73059546
_cell_angle_alpha   130.61695466
_cell_angle_beta   130.63121723
_cell_angle_gamma   72.40701548
_symmetry_Int_Tables_number   1
_chemical_formula_structural   Sr9CaSi5Te
_chemical_formula_sum   'Sr9 Ca1 Si5 Te1'
_cell_volume   518.83414275
_cell_formula_units_Z   1
loop_
 _symmetry_equiv_pos_site_id
 _symmetry_equiv_pos_as_xyz
  1  'x, y, z'
loop_
 _atom_site_type_symbol
 _atom_site_label
 _atom_site_symmetry_multiplicity
 _atom_site_fract_x
 _atom_site_fract_y
 _atom_site_fract_z
 _atom_site_occupancy
  Sr  Sr0  1  0.541531  0.028154  0.849365  1
  Sr  Sr1  1  0.178851  0.692175  0.150708  1
  Sr  Sr2  1  0.028099  0.178787  0.486687  1
  Sr  Sr3  1  0.692138  0.541421  0.513340  1
  Sr  Sr4  1  0.476085  0.954365  0.150533  1
  Sr  Sr5  1  0.803818  0.325490  0.849396  1
  Sr  Sr6  1  0.954393  0.803838  0.478321  1
  Sr  Sr7  1  0.325530  0.476061  0.521657  1
  Sr  Sr8  1  0.001202  0.001216  0.000005  1
  Ca  Ca9  1  0.500361  0.500371  0.000006  1
  Si  Si10  1  0.750823  0.750878  0.999977  1
  Si  Si11  1  0.886247  0.391994  0.278796  1
  Si  Si12  1  0.113190  0.607508  0.721200  1
  Si  Si13  1  0.391987  0.113248  0.505765  1
  Si  Si14  1  0.607485  0.886218  0.494242  1
  Te  Te15  1  0.248261  0.248277  0.000001  1
