# generated using pymatgen
data_DyHf2ZrAl17GaIr6
_symmetry_space_group_name_H-M   'P 1'
_cell_length_a   7.49622000
_cell_length_b   7.48820251
_cell_length_c   9.30008700
_cell_angle_alpha   90.00000000
_cell_angle_beta   90.00000000
_cell_angle_gamma   119.79778981
_symmetry_Int_Tables_number   1
_chemical_formula_structural   DyHf2ZrAl17GaIr6
_chemical_formula_sum   'Dy1 Hf2 Zr1 Al17 Ga1 Ir6'
_cell_volume   453.02155529
_cell_formula_units_Z   1
loop_
 _symmetry_equiv_pos_site_id
 _symmetry_equiv_pos_as_xyz
  1  'x, y, z'
loop_
 _atom_site_type_symbol
 _atom_site_label
 _atom_site_symmetry_multiplicity
 _atom_site_fract_x
 _atom_site_fract_y
 _atom_site_fract_z
 _atom_site_occupancy
  Dy  Dy0  1  0.326383  0.006187  0.250000  1
  Hf  Hf1  1  0.994065  0.671987  0.750000  1
  Hf  Hf2  1  0.671680  0.993963  0.750000  1
  Zr  Zr3  1  0.006035  0.328624  0.250000  1
  Al  Al4  1  0.125188  0.126611  0.750000  1
  Al  Al5  1  0.997705  0.334832  0.577484  1
  Al  Al6  1  0.000002  0.662834  0.427187  1
  Al  Al7  1  0.000002  0.662834  0.072813  1
  Al  Al8  1  0.335309  0.998379  0.919050  1
  Al  Al9  1  0.997705  0.334832  0.922516  1
  Al  Al10  1  0.668095  0.001750  0.073408  1
  Al  Al11  1  0.668095  0.001750  0.426592  1
  Al  Al12  1  0.335309  0.998379  0.580950  1
  Al  Al13  1  0.331935  0.334204  0.054366  1
  Al  Al14  1  0.668096  0.668011  0.936768  1
  Al  Al15  1  0.668096  0.668011  0.563232  1
  Al  Al16  1  0.331935  0.334204  0.445634  1
  Al  Al17  1  0.337747  0.552575  0.750000  1
  Al  Al18  1  0.667452  0.451494  0.250000  1
  Al  Al19  1  0.553805  0.339195  0.750000  1
  Al  Al20  1  0.446316  0.658107  0.250000  1
  Ga  Ga21  1  0.866416  0.869172  0.250000  1
  Ir  Ir22  1  0.673198  0.328663  0.501778  1
  Ir  Ir23  1  0.329260  0.674170  0.502132  1
  Ir  Ir24  1  0.329260  0.674170  0.997868  1
  Ir  Ir25  1  0.673198  0.328663  0.998222  1
  Ir  Ir26  1  0.998854  0.998199  0.504899  1
  Ir  Ir27  1  0.998854  0.998199  0.995101  1
