# generated using pymatgen
data_Na6V3GaN8
_symmetry_space_group_name_H-M   'P 1'
_cell_length_a   6.76997977
_cell_length_b   8.35309368
_cell_length_c   5.57915696
_cell_angle_alpha   89.89806683
_cell_angle_beta   92.23823836
_cell_angle_gamma   128.19375667
_symmetry_Int_Tables_number   1
_chemical_formula_structural   Na6V3GaN8
_chemical_formula_sum   'Na6 V3 Ga1 N8'
_cell_volume   247.67164647
_cell_formula_units_Z   1
loop_
 _symmetry_equiv_pos_site_id
 _symmetry_equiv_pos_as_xyz
  1  'x, y, z'
loop_
 _atom_site_type_symbol
 _atom_site_label
 _atom_site_symmetry_multiplicity
 _atom_site_fract_x
 _atom_site_fract_y
 _atom_site_fract_z
 _atom_site_occupancy
  Na  Na0  1  0.213480  0.952391  0.039488  1
  Na  Na1  1  0.785720  0.750841  0.462360  1
  Na  Na2  1  0.787379  0.046471  0.967202  1
  Na  Na3  1  0.220740  0.254708  0.537546  1
  Na  Na4  1  0.990118  0.600839  0.737503  1
  Na  Na5  1  0.000383  0.395882  0.260086  1
  V  V6  1  0.415808  0.596549  0.916380  1
  V  V7  1  0.423780  0.830906  0.422515  1
  V  V8  1  0.588344  0.407216  0.085381  1
  Ga  Ga9  1  0.584618  0.178418  0.583548  1
  N  N10  1  0.246707  0.916952  0.505541  1
  N  N11  1  0.730668  0.671926  0.976128  1
  N  N12  1  0.747423  0.050607  0.474221  1
  N  N13  1  0.269562  0.335787  0.013628  1
  N  N14  1  0.653545  0.265310  0.916133  1
  N  N15  1  0.339225  0.610049  0.604289  1
  N  N16  1  0.349525  0.734965  0.102851  1
  N  N17  1  0.652975  0.400183  0.395201  1
