# generated using pymatgen
data_NdTm3(AlRu)4
_symmetry_space_group_name_H-M   'P 1'
_cell_length_a   7.03644619
_cell_length_b   4.01908300
_cell_length_c   8.09607401
_cell_angle_alpha   90.00000000
_cell_angle_beta   89.66962157
_cell_angle_gamma   90.00000000
_symmetry_Int_Tables_number   1
_chemical_formula_structural   NdTm3(AlRu)4
_chemical_formula_sum   'Nd1 Tm3 Al4 Ru4'
_cell_volume   228.95366279
_cell_formula_units_Z   1
loop_
 _symmetry_equiv_pos_site_id
 _symmetry_equiv_pos_as_xyz
  1  'x, y, z'
loop_
 _atom_site_type_symbol
 _atom_site_label
 _atom_site_symmetry_multiplicity
 _atom_site_fract_x
 _atom_site_fract_y
 _atom_site_fract_z
 _atom_site_occupancy
  Nd  Nd0  1  0.529542  0.750000  0.680338  1
  Tm  Tm1  1  0.968050  0.250000  0.176675  1
  Tm  Tm2  1  0.468001  0.250000  0.318344  1
  Tm  Tm3  1  0.032599  0.750000  0.823644  1
  Al  Al4  1  0.864995  0.250000  0.554946  1
  Al  Al5  1  0.358283  0.250000  0.945017  1
  Al  Al6  1  0.135304  0.750000  0.438578  1
  Al  Al7  1  0.640639  0.750000  0.062295  1
  Ru  Ru8  1  0.738078  0.250000  0.878381  1
  Ru  Ru9  1  0.222828  0.250000  0.625148  1
  Ru  Ru10  1  0.271036  0.750000  0.127407  1
  Ru  Ru11  1  0.770644  0.750000  0.369228  1
