# generated using pymatgen
data_TbHo3(TcRu)4
_symmetry_space_group_name_H-M   'P 1'
_cell_length_a   5.19725079
_cell_length_b   5.19725001
_cell_length_c   9.10536902
_cell_angle_alpha   89.99362531
_cell_angle_beta   90.00637799
_cell_angle_gamma   117.16358201
_symmetry_Int_Tables_number   1
_chemical_formula_structural   TbHo3(TcRu)4
_chemical_formula_sum   'Tb1 Ho3 Tc4 Ru4'
_cell_volume   218.82236436
_cell_formula_units_Z   1
loop_
 _symmetry_equiv_pos_site_id
 _symmetry_equiv_pos_as_xyz
  1  'x, y, z'
loop_
 _atom_site_type_symbol
 _atom_site_label
 _atom_site_symmetry_multiplicity
 _atom_site_fract_x
 _atom_site_fract_y
 _atom_site_fract_z
 _atom_site_occupancy
  Tb  Tb0  1  0.332460  0.667540  0.063014  1
  Ho  Ho1  1  0.332149  0.667851  0.436842  1
  Ho  Ho2  1  0.670937  0.329063  0.566983  1
  Ho  Ho3  1  0.670915  0.329085  0.932811  1
  Tc  Tc4  1  0.827007  0.172993  0.250539  1
  Tc  Tc5  1  0.829728  0.659694  0.250591  1
  Tc  Tc6  1  0.340306  0.170272  0.250591  1
  Tc  Tc7  1  0.162808  0.837192  0.749505  1
  Ru  Ru8  1  0.007030  0.992970  0.502530  1
  Ru  Ru9  1  0.006832  0.993168  0.997407  1
  Ru  Ru10  1  0.170055  0.350228  0.749594  1
  Ru  Ru11  1  0.649772  0.829945  0.749594  1
