# generated using pymatgen
data_Y7Ta(Si4W3)4
_symmetry_space_group_name_H-M   'P 1'
_cell_length_a   6.74218697
_cell_length_b   6.88604452
_cell_length_c   12.88730690
_cell_angle_alpha   90.14808530
_cell_angle_beta   89.95901481
_cell_angle_gamma   90.18062489
_symmetry_Int_Tables_number   1
_chemical_formula_structural   Y7Ta(Si4W3)4
_chemical_formula_sum   'Y7 Ta1 Si16 W12'
_cell_volume   598.31387127
_cell_formula_units_Z   1
loop_
 _symmetry_equiv_pos_site_id
 _symmetry_equiv_pos_as_xyz
  1  'x, y, z'
loop_
 _atom_site_type_symbol
 _atom_site_label
 _atom_site_symmetry_multiplicity
 _atom_site_fract_x
 _atom_site_fract_y
 _atom_site_fract_z
 _atom_site_occupancy
  Y  Y0  1  0.494617  0.668164  0.592773  1
  Y  Y1  1  0.995676  0.832369  0.906508  1
  Y  Y2  1  0.504063  0.332715  0.093447  1
  Y  Y3  1  0.001867  0.164672  0.410146  1
  Y  Y4  1  0.502363  0.332050  0.408895  1
  Y  Y5  1  0.003662  0.168304  0.093689  1
  Y  Y6  1  0.494960  0.668508  0.904595  1
  Ta  Ta7  1  0.991310  0.827679  0.599769  1
  Si  Si8  1  0.664277  0.955334  0.457080  1
  Si  Si9  1  0.161039  0.542567  0.045574  1
  Si  Si10  1  0.338492  0.043477  0.952343  1
  Si  Si11  1  0.842467  0.463317  0.546328  1
  Si  Si12  1  0.326270  0.037121  0.546116  1
  Si  Si13  1  0.839129  0.456578  0.952327  1
  Si  Si14  1  0.662432  0.956894  0.045931  1
  Si  Si15  1  0.159661  0.548231  0.457699  1
  Si  Si16  1  0.465768  0.370230  0.748902  1
  Si  Si17  1  0.964902  0.124369  0.746396  1
  Si  Si18  1  0.537368  0.630162  0.251164  1
  Si  Si19  1  0.036657  0.871588  0.249806  1
  Si  Si20  1  0.704119  0.864777  0.747840  1
  Si  Si21  1  0.193719  0.638393  0.746581  1
  Si  Si22  1  0.301876  0.134500  0.250918  1
  Si  Si23  1  0.804100  0.366977  0.251664  1
  W  W24  1  0.668134  0.158583  0.623538  1
  W  W25  1  0.166480  0.335649  0.872505  1
  W  W26  1  0.334794  0.837005  0.125598  1
  W  W27  1  0.836300  0.666629  0.377517  1
  W  W28  1  0.332301  0.836863  0.375588  1
  W  W29  1  0.833704  0.664122  0.125835  1
  W  W30  1  0.668294  0.161006  0.872530  1
  W  W31  1  0.168388  0.337290  0.625260  1
  W  W32  1  0.834973  0.504798  0.747054  1
  W  W33  1  0.334338  0.997615  0.746225  1
  W  W34  1  0.166411  0.502172  0.250268  1
  W  W35  1  0.665087  0.999289  0.251588  1
