# generated using pymatgen
data_Pr16NdAg3Rh4
_symmetry_space_group_name_H-M   'P 1'
_cell_length_a   10.10694785
_cell_length_b   10.10694761
_cell_length_c   10.10694746
_cell_angle_alpha   59.32642697
_cell_angle_beta   59.32643070
_cell_angle_gamma   59.32642757
_symmetry_Int_Tables_number   1
_chemical_formula_structural   Pr16NdAg3Rh4
_chemical_formula_sum   'Pr16 Nd1 Ag3 Rh4'
_cell_volume   718.84228069
_cell_formula_units_Z   1
loop_
 _symmetry_equiv_pos_site_id
 _symmetry_equiv_pos_as_xyz
  1  'x, y, z'
loop_
 _atom_site_type_symbol
 _atom_site_label
 _atom_site_symmetry_multiplicity
 _atom_site_fract_x
 _atom_site_fract_y
 _atom_site_fract_z
 _atom_site_occupancy
  Pr  Pr0  1  0.350347  0.350347  0.350347  1
  Pr  Pr1  1  0.346575  0.346575  0.962876  1
  Pr  Pr2  1  0.346575  0.962876  0.346575  1
  Pr  Pr3  1  0.962876  0.346575  0.346575  1
  Pr  Pr4  1  0.807640  0.194619  0.194619  1
  Pr  Pr5  1  0.186299  0.816036  0.816035  1
  Pr  Pr6  1  0.194619  0.807640  0.194618  1
  Pr  Pr7  1  0.816035  0.186299  0.816035  1
  Pr  Pr8  1  0.194619  0.194619  0.807640  1
  Pr  Pr9  1  0.816036  0.816036  0.186298  1
  Pr  Pr10  1  0.934616  0.564206  0.564206  1
  Pr  Pr11  1  0.563800  0.938425  0.938425  1
  Pr  Pr12  1  0.564206  0.934616  0.564206  1
  Pr  Pr13  1  0.938425  0.563800  0.938425  1
  Pr  Pr14  1  0.564206  0.564206  0.934616  1
  Pr  Pr15  1  0.938425  0.938425  0.563800  1
  Nd  Nd16  1  0.562827  0.562827  0.562827  1
  Ag  Ag17  1  0.585346  0.585346  0.235933  1
  Ag  Ag18  1  0.585346  0.235933  0.585346  1
  Ag  Ag19  1  0.235933  0.585346  0.585346  1
  Rh  Rh20  1  0.141701  0.141701  0.141701  1
  Rh  Rh21  1  0.144171  0.144171  0.575208  1
  Rh  Rh22  1  0.144171  0.575208  0.144171  1
  Rh  Rh23  1  0.575208  0.144171  0.144171  1
