# generated using pymatgen
data_BaTbGdSi3O10
_symmetry_space_group_name_H-M   'P 1'
_cell_length_a   5.49523143
_cell_length_b   12.42248100
_cell_length_c   6.97495476
_cell_angle_alpha   90.00000000
_cell_angle_beta   106.39627208
_cell_angle_gamma   90.00000000
_symmetry_Int_Tables_number   1
_chemical_formula_structural   BaTbGdSi3O10
_chemical_formula_sum   'Ba2 Tb2 Gd2 Si6 O20'
_cell_volume   456.77761183
_cell_formula_units_Z   2
loop_
 _symmetry_equiv_pos_site_id
 _symmetry_equiv_pos_as_xyz
  1  'x, y, z'
loop_
 _atom_site_type_symbol
 _atom_site_label
 _atom_site_symmetry_multiplicity
 _atom_site_fract_x
 _atom_site_fract_y
 _atom_site_fract_z
 _atom_site_occupancy
  Ba  Ba0  1  0.765449  0.250000  0.012291  1
  Ba  Ba1  1  0.234519  0.750000  0.986470  1
  Tb  Tb2  1  0.840316  0.599500  0.314216  1
  Tb  Tb3  1  0.840316  0.900500  0.314216  1
  Gd  Gd4  1  0.159003  0.096910  0.685415  1
  Gd  Gd5  1  0.159003  0.403090  0.685415  1
  Si  Si6  1  0.305758  0.061635  0.215539  1
  Si  Si7  1  0.305758  0.438365  0.215539  1
  Si  Si8  1  0.581063  0.250000  0.488917  1
  Si  Si9  1  0.416739  0.750000  0.511107  1
  Si  Si10  1  0.695601  0.563909  0.785108  1
  Si  Si11  1  0.695601  0.936091  0.785108  1
  O  O12  1  0.166139  0.122702  0.006180  1
  O  O13  1  0.166139  0.377298  0.006180  1
  O  O14  1  0.436686  0.552648  0.191652  1
  O  O15  1  0.436686  0.947352  0.191652  1
  O  O16  1  0.544321  0.143552  0.340642  1
  O  O17  1  0.544321  0.356449  0.340642  1
  O  O18  1  0.102688  0.048268  0.349878  1
  O  O19  1  0.102688  0.451731  0.349878  1
  O  O20  1  0.123669  0.750000  0.367363  1
  O  O21  1  0.620788  0.750000  0.380412  1
  O  O22  1  0.376953  0.250000  0.619429  1
  O  O23  1  0.873581  0.250000  0.632626  1
  O  O24  1  0.896218  0.553927  0.647893  1
  O  O25  1  0.896218  0.946072  0.647893  1
  O  O26  1  0.453026  0.644139  0.661019  1
  O  O27  1  0.453026  0.855861  0.661019  1
  O  O28  1  0.569266  0.051920  0.807713  1
  O  O29  1  0.569266  0.448080  0.807713  1
  O  O30  1  0.834596  0.623941  0.995436  1
  O  O31  1  0.834596  0.876059  0.995436  1
