# generated using pymatgen
data_LaPrY4IrI10
_symmetry_space_group_name_H-M   'P 1'
_cell_length_a   7.85899614
_cell_length_b   9.90238589
_cell_length_c   9.91460708
_cell_angle_alpha   106.80610176
_cell_angle_beta   95.81784620
_cell_angle_gamma   105.35896091
_symmetry_Int_Tables_number   1
_chemical_formula_structural   LaPrY4IrI10
_chemical_formula_sum   'La1 Pr1 Y4 Ir1 I10'
_cell_volume   698.88830116
_cell_formula_units_Z   1
loop_
 _symmetry_equiv_pos_site_id
 _symmetry_equiv_pos_as_xyz
  1  'x, y, z'
loop_
 _atom_site_type_symbol
 _atom_site_label
 _atom_site_symmetry_multiplicity
 _atom_site_fract_x
 _atom_site_fract_y
 _atom_site_fract_z
 _atom_site_occupancy
  La  La0  1  0.881813  0.955686  0.237962  1
  Pr  Pr1  1  0.117570  0.043807  0.762816  1
  Y  Y2  1  0.971288  0.287181  0.086467  1
  Y  Y3  1  0.028919  0.712711  0.912479  1
  Y  Y4  1  0.349105  0.126841  0.164105  1
  Y  Y5  1  0.651314  0.873571  0.835697  1
  Ir  Ir6  1  0.999089  0.999523  0.002048  1
  I  I7  1  0.347268  0.447134  0.269390  1
  I  I8  1  0.652572  0.552958  0.730599  1
  I  I9  1  0.269750  0.089434  0.456335  1
  I  I10  1  0.732899  0.911506  0.544812  1
  I  I11  1  0.082712  0.378441  0.825080  1
  I  I12  1  0.917838  0.619830  0.173766  1
  I  I13  1  0.444903  0.817769  0.087170  1
  I  I14  1  0.553212  0.181519  0.911537  1
  I  I15  1  0.772135  0.262761  0.340456  1
  I  I16  1  0.227612  0.739329  0.659279  1
