# generated using pymatgen
data_LaPr7(InIr)2
_symmetry_space_group_name_H-M   'P 1'
_cell_length_a   10.07839068
_cell_length_b   10.07839073
_cell_length_c   10.05976900
_cell_angle_alpha   60.06110555
_cell_angle_beta   60.06110536
_cell_angle_gamma   60.09810603
_symmetry_Int_Tables_number   1
_chemical_formula_structural   LaPr7(InIr)2
_chemical_formula_sum   'La2 Pr14 In4 Ir4'
_cell_volume   723.73146515
_cell_formula_units_Z   2
loop_
 _symmetry_equiv_pos_site_id
 _symmetry_equiv_pos_as_xyz
  1  'x, y, z'
loop_
 _atom_site_type_symbol
 _atom_site_label
 _atom_site_symmetry_multiplicity
 _atom_site_fract_x
 _atom_site_fract_y
 _atom_site_fract_z
 _atom_site_occupancy
  La  La0  1  0.346679  0.346679  0.346371  1
  La  La1  1  0.346679  0.346679  0.960270  1
  Pr  Pr2  1  0.349513  0.953257  0.348615  1
  Pr  Pr3  1  0.953257  0.349513  0.348615  1
  Pr  Pr4  1  0.809168  0.190363  0.191602  1
  Pr  Pr5  1  0.190363  0.809168  0.808867  1
  Pr  Pr6  1  0.190363  0.809168  0.191602  1
  Pr  Pr7  1  0.809168  0.190363  0.808867  1
  Pr  Pr8  1  0.190703  0.190703  0.809297  1
  Pr  Pr9  1  0.808962  0.808962  0.191038  1
  Pr  Pr10  1  0.940964  0.559355  0.560264  1
  Pr  Pr11  1  0.559355  0.940964  0.939417  1
  Pr  Pr12  1  0.559355  0.940964  0.560264  1
  Pr  Pr13  1  0.940964  0.559355  0.939417  1
  Pr  Pr14  1  0.560186  0.560186  0.939814  1
  Pr  Pr15  1  0.941197  0.941197  0.558803  1
  In  In16  1  0.581287  0.581287  0.580551  1
  In  In17  1  0.581287  0.581287  0.256874  1
  In  In18  1  0.581614  0.256431  0.580977  1
  In  In19  1  0.256431  0.581614  0.580977  1
  Ir  Ir20  1  0.142152  0.142152  0.140280  1
  Ir  Ir21  1  0.142152  0.142152  0.575417  1
  Ir  Ir22  1  0.143033  0.575166  0.140901  1
  Ir  Ir23  1  0.575166  0.143033  0.140901  1
