# generated using pymatgen
data_Th2NbPd12Au
_symmetry_space_group_name_H-M   'P 1'
_cell_length_a   5.80747700
_cell_length_b   5.80747622
_cell_length_c   9.49349100
_cell_angle_alpha   90.00000000
_cell_angle_beta   90.00000000
_cell_angle_gamma   119.99999876
_symmetry_Int_Tables_number   1
_chemical_formula_structural   Th2NbPd12Au
_chemical_formula_sum   'Th2 Nb1 Pd12 Au1'
_cell_volume   277.28828307
_cell_formula_units_Z   1
loop_
 _symmetry_equiv_pos_site_id
 _symmetry_equiv_pos_as_xyz
  1  'x, y, z'
loop_
 _atom_site_type_symbol
 _atom_site_label
 _atom_site_symmetry_multiplicity
 _atom_site_fract_x
 _atom_site_fract_y
 _atom_site_fract_z
 _atom_site_occupancy
  Th  Th0  1  0.000000  0.000000  0.493291  1
  Th  Th1  1  0.000000  0.000000  0.006709  1
  Nb  Nb2  1  0.666667  0.333333  0.750000  1
  Pd  Pd3  1  0.503234  0.496766  0.506950  1
  Pd  Pd4  1  0.503234  0.006467  0.506950  1
  Pd  Pd5  1  0.993533  0.496766  0.506950  1
  Pd  Pd6  1  0.503234  0.496766  0.993050  1
  Pd  Pd7  1  0.503234  0.006467  0.993050  1
  Pd  Pd8  1  0.993533  0.496766  0.993050  1
  Pd  Pd9  1  0.825528  0.651056  0.250000  1
  Pd  Pd10  1  0.348944  0.174472  0.250000  1
  Pd  Pd11  1  0.825528  0.174472  0.250000  1
  Pd  Pd12  1  0.171938  0.343877  0.750000  1
  Pd  Pd13  1  0.656123  0.828062  0.750000  1
  Pd  Pd14  1  0.171938  0.828062  0.750000  1
  Au  Au15  1  0.333333  0.666667  0.250000  1
