# generated using pymatgen
data_PrLu(CuSi)2
_symmetry_space_group_name_H-M   'P 1'
_cell_length_a   4.18570600
_cell_length_b   4.18570537
_cell_length_c   7.50496500
_cell_angle_alpha   90.00000000
_cell_angle_beta   90.00000000
_cell_angle_gamma   120.00000499
_symmetry_Int_Tables_number   1
_chemical_formula_structural   PrLu(CuSi)2
_chemical_formula_sum   'Pr1 Lu1 Cu2 Si2'
_cell_volume   113.87192354
_cell_formula_units_Z   1
loop_
 _symmetry_equiv_pos_site_id
 _symmetry_equiv_pos_as_xyz
  1  'x, y, z'
loop_
 _atom_site_type_symbol
 _atom_site_label
 _atom_site_symmetry_multiplicity
 _atom_site_fract_x
 _atom_site_fract_y
 _atom_site_fract_z
 _atom_site_occupancy
  Pr  Pr0  1  0.000000  0.000000  0.000000  1
  Lu  Lu1  1  0.000000  0.000000  0.500000  1
  Cu  Cu2  1  0.333333  0.666667  0.279704  1
  Cu  Cu3  1  0.666667  0.333333  0.720296  1
  Si  Si4  1  0.666667  0.333333  0.268355  1
  Si  Si5  1  0.333333  0.666667  0.731645  1
