# generated using pymatgen
data_ErTm7Zn2(Si6Rh)2
_symmetry_space_group_name_H-M   'P 1'
_cell_length_a   8.09648200
_cell_length_b   8.09648329
_cell_length_c   7.90927400
_cell_angle_alpha   90.00000000
_cell_angle_beta   90.00000000
_cell_angle_gamma   120.00000292
_symmetry_Int_Tables_number   1
_chemical_formula_structural   ErTm7Zn2(Si6Rh)2
_chemical_formula_sum   'Er1 Tm7 Zn2 Si12 Rh2'
_cell_volume   449.01414060
_cell_formula_units_Z   1
loop_
 _symmetry_equiv_pos_site_id
 _symmetry_equiv_pos_as_xyz
  1  'x, y, z'
loop_
 _atom_site_type_symbol
 _atom_site_label
 _atom_site_symmetry_multiplicity
 _atom_site_fract_x
 _atom_site_fract_y
 _atom_site_fract_z
 _atom_site_occupancy
  Er  Er0  1  0.000000  0.000000  0.250059  1
  Tm  Tm1  1  0.984064  0.492033  0.257082  1
  Tm  Tm2  1  0.507967  0.492033  0.257082  1
  Tm  Tm3  1  0.492131  0.984260  0.743368  1
  Tm  Tm4  1  0.015740  0.507869  0.743368  1
  Tm  Tm5  1  0.492131  0.507869  0.743368  1
  Tm  Tm6  1  0.507967  0.015936  0.257082  1
  Tm  Tm7  1  0.000000  0.000000  0.749690  1
  Zn  Zn8  1  0.333333  0.666667  0.039989  1
  Zn  Zn9  1  0.666667  0.333333  0.959969  1
  Si  Si10  1  0.166803  0.833197  0.492402  1
  Si  Si11  1  0.166803  0.333604  0.492402  1
  Si  Si12  1  0.666396  0.833197  0.492402  1
  Si  Si13  1  0.333457  0.166729  0.007151  1
  Si  Si14  1  0.833379  0.666758  0.508310  1
  Si  Si15  1  0.833271  0.166729  0.007151  1
  Si  Si16  1  0.833271  0.666543  0.007151  1
  Si  Si17  1  0.166742  0.333482  0.991992  1
  Si  Si18  1  0.666518  0.833258  0.991992  1
  Si  Si19  1  0.333242  0.166621  0.508310  1
  Si  Si20  1  0.833379  0.166621  0.508310  1
  Si  Si21  1  0.166742  0.833258  0.991992  1
  Rh  Rh22  1  0.666667  0.333333  0.518602  1
  Rh  Rh23  1  0.333333  0.666667  0.480774  1
