# generated using pymatgen
data_DyY3CdIr
_symmetry_space_group_name_H-M   'P 1'
_cell_length_a   9.67390073
_cell_length_b   9.67390077
_cell_length_c   9.67390100
_cell_angle_alpha   60.00000263
_cell_angle_beta   60.00000251
_cell_angle_gamma   59.99999982
_symmetry_Int_Tables_number   1
_chemical_formula_structural   DyY3CdIr
_chemical_formula_sum   'Dy4 Y12 Cd4 Ir4'
_cell_volume   640.16203121
_cell_formula_units_Z   4
loop_
 _symmetry_equiv_pos_site_id
 _symmetry_equiv_pos_as_xyz
  1  'x, y, z'
loop_
 _atom_site_type_symbol
 _atom_site_label
 _atom_site_symmetry_multiplicity
 _atom_site_fract_x
 _atom_site_fract_y
 _atom_site_fract_z
 _atom_site_occupancy
  Dy  Dy0  1  0.348830  0.348830  0.348830  1
  Dy  Dy1  1  0.348830  0.348830  0.953509  1
  Dy  Dy2  1  0.348830  0.953509  0.348830  1
  Dy  Dy3  1  0.953509  0.348830  0.348830  1
  Y  Y4  1  0.810055  0.189945  0.189945  1
  Y  Y5  1  0.189945  0.810055  0.810055  1
  Y  Y6  1  0.189945  0.810055  0.189945  1
  Y  Y7  1  0.810055  0.189945  0.810055  1
  Y  Y8  1  0.189945  0.189945  0.810055  1
  Y  Y9  1  0.810055  0.810055  0.189945  1
  Y  Y10  1  0.938287  0.561713  0.561713  1
  Y  Y11  1  0.561713  0.938287  0.938287  1
  Y  Y12  1  0.561713  0.938287  0.561713  1
  Y  Y13  1  0.938287  0.561713  0.938287  1
  Y  Y14  1  0.561713  0.561713  0.938287  1
  Y  Y15  1  0.938287  0.938287  0.561713  1
  Cd  Cd16  1  0.580845  0.580845  0.580845  1
  Cd  Cd17  1  0.580845  0.580845  0.257466  1
  Cd  Cd18  1  0.580845  0.257466  0.580845  1
  Cd  Cd19  1  0.257466  0.580845  0.580845  1
  Ir  Ir20  1  0.142374  0.142374  0.142374  1
  Ir  Ir21  1  0.142374  0.142374  0.572877  1
  Ir  Ir22  1  0.142374  0.572877  0.142374  1
  Ir  Ir23  1  0.572877  0.142374  0.142374  1
