# generated using pymatgen
data_La8IrPt2Rh3
_symmetry_space_group_name_H-M   'P 1'
_cell_length_a   7.85188566
_cell_length_b   7.84500178
_cell_length_c   7.85558637
_cell_angle_alpha   109.03674412
_cell_angle_beta   109.69089259
_cell_angle_gamma   109.69294762
_symmetry_Int_Tables_number   1
_chemical_formula_structural   La8IrPt2Rh3
_chemical_formula_sum   'La8 Ir1 Pt2 Rh3'
_cell_volume   372.45383523
_cell_formula_units_Z   1
loop_
 _symmetry_equiv_pos_site_id
 _symmetry_equiv_pos_as_xyz
  1  'x, y, z'
loop_
 _atom_site_type_symbol
 _atom_site_label
 _atom_site_symmetry_multiplicity
 _atom_site_fract_x
 _atom_site_fract_y
 _atom_site_fract_z
 _atom_site_occupancy
  La  La0  1  0.114869  0.497572  0.993363  1
  La  La1  1  0.504609  0.001241  0.615376  1
  La  La2  1  0.391501  0.391196  0.390741  1
  La  La3  1  0.998841  0.114655  0.505383  1
  La  La4  1  0.884553  0.882679  0.878972  1
  La  La5  1  0.002118  0.615678  0.506731  1
  La  La6  1  0.608254  0.499526  0.998396  1
  La  La7  1  0.495288  0.996732  0.110191  1
  Ir  Ir8  1  0.375680  0.626429  0.750853  1
  Pt  Pt9  1  0.875979  0.249678  0.125045  1
  Pt  Pt10  1  0.124189  0.873817  0.249346  1
  Rh  Rh11  1  0.248293  0.124186  0.874326  1
  Rh  Rh12  1  0.751275  0.375553  0.625953  1
  Rh  Rh13  1  0.624550  0.751061  0.375327  1
