# generated using pymatgen
data_Yb2YEr(NiB4)4
_symmetry_space_group_name_H-M   'P 1'
_cell_length_a   6.80127814
_cell_length_b   6.80160430
_cell_length_c   6.80127853
_cell_angle_alpha   112.82474348
_cell_angle_beta   112.90252924
_cell_angle_gamma   102.87896462
_symmetry_Int_Tables_number   1
_chemical_formula_structural   Yb2YEr(NiB4)4
_chemical_formula_sum   'Yb2 Y1 Er1 Ni4 B16'
_cell_volume   239.83718557
_cell_formula_units_Z   1
loop_
 _symmetry_equiv_pos_site_id
 _symmetry_equiv_pos_as_xyz
  1  'x, y, z'
loop_
 _atom_site_type_symbol
 _atom_site_label
 _atom_site_symmetry_multiplicity
 _atom_site_fract_x
 _atom_site_fract_y
 _atom_site_fract_z
 _atom_site_occupancy
  Yb  Yb0  1  0.795197  0.795211  0.000014  1
  Yb  Yb1  1  0.204763  0.204802  0.000039  1
  Y  Y2  1  0.249888  0.749946  0.500059  1
  Er  Er3  1  0.750130  0.250019  0.499889  1
  Ni  Ni4  1  0.272729  0.499570  0.773412  1
  Ni  Ni5  1  0.726158  0.499570  0.226841  1
  Ni  Ni6  1  0.500706  0.727912  0.227206  1
  Ni  Ni7  1  0.500644  0.273444  0.772800  1
  B  B8  1  0.275704  0.111852  0.388050  1
  B  B9  1  0.723847  0.887728  0.612070  1
  B  B10  1  0.275657  0.887728  0.163881  1
  B  B11  1  0.723803  0.111852  0.836148  1
  B  B12  1  0.112294  0.723716  0.835589  1
  B  B13  1  0.888085  0.276595  0.164288  1
  B  B14  1  0.112307  0.276595  0.388511  1
  B  B15  1  0.888127  0.723716  0.611421  1
  B  B16  1  0.112688  0.113805  0.530375  1
  B  B17  1  0.583378  0.582242  0.469542  1
  B  B18  1  0.112700  0.582242  0.998865  1
  B  B19  1  0.583430  0.113805  0.001117  1
  B  B20  1  0.886081  0.887386  0.469593  1
  B  B21  1  0.417774  0.416439  0.530321  1
  B  B22  1  0.886119  0.416439  0.998665  1
  B  B23  1  0.417793  0.887386  0.001305  1
