# generated using pymatgen
data_DyHo3Al3ZnPt4
_symmetry_space_group_name_H-M   'P 1'
_cell_length_a   4.42184900
_cell_length_b   6.81081763
_cell_length_c   7.80748195
_cell_angle_alpha   89.72601865
_cell_angle_beta   90.00000000
_cell_angle_gamma   90.00000000
_symmetry_Int_Tables_number   1
_chemical_formula_structural   DyHo3Al3ZnPt4
_chemical_formula_sum   'Dy1 Ho3 Al3 Zn1 Pt4'
_cell_volume   235.13061683
_cell_formula_units_Z   1
loop_
 _symmetry_equiv_pos_site_id
 _symmetry_equiv_pos_as_xyz
  1  'x, y, z'
loop_
 _atom_site_type_symbol
 _atom_site_label
 _atom_site_symmetry_multiplicity
 _atom_site_fract_x
 _atom_site_fract_y
 _atom_site_fract_z
 _atom_site_occupancy
  Dy  Dy0  1  0.750000  0.970679  0.317373  1
  Ho  Ho1  1  0.250000  0.029465  0.685089  1
  Ho  Ho2  1  0.250000  0.528511  0.819214  1
  Ho  Ho3  1  0.750000  0.466716  0.178631  1
  Al  Al4  1  0.250000  0.647770  0.438566  1
  Al  Al5  1  0.750000  0.855075  0.937329  1
  Al  Al6  1  0.750000  0.356606  0.559879  1
  Zn  Zn7  1  0.250000  0.149504  0.065002  1
  Pt  Pt8  1  0.250000  0.274167  0.390009  1
  Pt  Pt9  1  0.250000  0.762533  0.117164  1
  Pt  Pt10  1  0.750000  0.728529  0.618471  1
  Pt  Pt11  1  0.750000  0.230445  0.873271  1
