# generated using pymatgen
data_Cs12Ga(FeS4)3
_symmetry_space_group_name_H-M   'P 1'
_cell_length_a   10.62368897
_cell_length_b   10.62368768
_cell_length_c   13.57509129
_cell_angle_alpha   89.96265742
_cell_angle_beta   89.96270543
_cell_angle_gamma   138.83756270
_symmetry_Int_Tables_number   1
_chemical_formula_structural   Cs12Ga(FeS4)3
_chemical_formula_sum   'Cs12 Ga1 Fe3 S12'
_cell_volume   1008.43502498
_cell_formula_units_Z   1
loop_
 _symmetry_equiv_pos_site_id
 _symmetry_equiv_pos_as_xyz
  1  'x, y, z'
loop_
 _atom_site_type_symbol
 _atom_site_label
 _atom_site_symmetry_multiplicity
 _atom_site_fract_x
 _atom_site_fract_y
 _atom_site_fract_z
 _atom_site_occupancy
  Cs  Cs0  1  0.870005  0.869176  0.677854  1
  Cs  Cs1  1  0.130824  0.129995  0.322146  1
  Cs  Cs2  1  0.629711  0.629192  0.180278  1
  Cs  Cs3  1  0.370808  0.370289  0.819722  1
  Cs  Cs4  1  0.164198  0.519143  0.126510  1
  Cs  Cs5  1  0.480857  0.835802  0.873490  1
  Cs  Cs6  1  0.980979  0.334192  0.626516  1
  Cs  Cs7  1  0.665808  0.019021  0.373483  1
  Cs  Cs8  1  0.836675  0.482325  0.874009  1
  Cs  Cs9  1  0.517675  0.163325  0.125991  1
  Cs  Cs10  1  0.018129  0.663412  0.373468  1
  Cs  Cs11  1  0.336588  0.981871  0.626532  1
  Ga  Ga12  1  0.920371  0.079629  0.000000  1
  Fe  Fe13  1  0.420204  0.579796  0.500000  1
  Fe  Fe14  1  0.078736  0.921265  0.000000  1
  Fe  Fe15  1  0.579313  0.420687  0.500000  1
  S  S16  1  0.296196  0.296294  0.564215  1
  S  S17  1  0.703705  0.703804  0.435785  1
  S  S18  1  0.203712  0.203593  0.064614  1
  S  S19  1  0.796407  0.796288  0.935386  1
  S  S20  1  0.721199  0.009612  0.118573  1
  S  S21  1  0.990388  0.278801  0.881427  1
  S  S22  1  0.488167  0.775679  0.616688  1
  S  S23  1  0.224321  0.511833  0.383312  1
  S  S24  1  0.275198  0.988044  0.883556  1
  S  S25  1  0.011956  0.724802  0.116444  1
  S  S26  1  0.512034  0.224163  0.383605  1
  S  S27  1  0.775837  0.487966  0.616395  1
