# generated using pymatgen
data_Dy3YGa18(Ir2Pt)2
_symmetry_space_group_name_H-M   'P 1'
_cell_length_a   7.62901201
_cell_length_b   7.62874918
_cell_length_c   9.49066801
_cell_angle_alpha   90.00288730
_cell_angle_beta   89.99651292
_cell_angle_gamma   119.89307818
_symmetry_Int_Tables_number   1
_chemical_formula_structural   Dy3YGa18(Ir2Pt)2
_chemical_formula_sum   'Dy3 Y1 Ga18 Ir4 Pt2'
_cell_volume   478.86815258
_cell_formula_units_Z   1
loop_
 _symmetry_equiv_pos_site_id
 _symmetry_equiv_pos_as_xyz
  1  'x, y, z'
loop_
 _atom_site_type_symbol
 _atom_site_label
 _atom_site_symmetry_multiplicity
 _atom_site_fract_x
 _atom_site_fract_y
 _atom_site_fract_z
 _atom_site_occupancy
  Dy  Dy0  1  0.996551  0.669738  0.250028  1
  Dy  Dy1  1  0.003510  0.330263  0.749939  1
  Dy  Dy2  1  0.669752  0.996508  0.249998  1
  Y  Y3  1  0.330145  0.003437  0.749983  1
  Ga  Ga4  1  0.131546  0.131537  0.250007  1
  Ga  Ga5  1  0.868446  0.868498  0.749999  1
  Ga  Ga6  1  0.998539  0.337598  0.081235  1
  Ga  Ga7  1  0.001436  0.662382  0.918806  1
  Ga  Ga8  1  0.001457  0.662344  0.581187  1
  Ga  Ga9  1  0.337621  0.998551  0.418724  1
  Ga  Ga10  1  0.998516  0.337590  0.418788  1
  Ga  Ga11  1  0.662424  0.001469  0.581196  1
  Ga  Ga12  1  0.662411  0.001457  0.918808  1
  Ga  Ga13  1  0.337647  0.998552  0.081285  1
  Ga  Ga14  1  0.335637  0.335683  0.567247  1
  Ga  Ga15  1  0.664318  0.664343  0.432711  1
  Ga  Ga16  1  0.664329  0.664338  0.067294  1
  Ga  Ga17  1  0.335672  0.335708  0.932746  1
  Ga  Ga18  1  0.337610  0.546607  0.249996  1
  Ga  Ga19  1  0.662451  0.453423  0.750020  1
  Ga  Ga20  1  0.546603  0.337589  0.249999  1
  Ga  Ga21  1  0.453332  0.662362  0.749999  1
  Ir  Ir22  1  0.671292  0.328854  0.000029  1
  Ir  Ir23  1  0.328789  0.671150  0.000018  1
  Ir  Ir24  1  0.328802  0.671187  0.499988  1
  Ir  Ir25  1  0.671232  0.328807  0.499978  1
  Pt  Pt26  1  0.999980  0.000038  0.000012  1
  Pt  Pt27  1  0.999953  0.999987  0.499983  1
