# generated using pymatgen
data_KBa3Pu4O12
_symmetry_space_group_name_H-M   'P 1'
_cell_length_a   6.17756300
_cell_length_b   6.21451500
_cell_length_c   8.69382400
_cell_angle_alpha   90.00000000
_cell_angle_beta   90.00000000
_cell_angle_gamma   90.00000000
_symmetry_Int_Tables_number   1
_chemical_formula_structural   KBa3Pu4O12
_chemical_formula_sum   'K1 Ba3 Pu4 O12'
_cell_volume   333.76075388
_cell_formula_units_Z   1
loop_
 _symmetry_equiv_pos_site_id
 _symmetry_equiv_pos_as_xyz
  1  'x, y, z'
loop_
 _atom_site_type_symbol
 _atom_site_label
 _atom_site_symmetry_multiplicity
 _atom_site_fract_x
 _atom_site_fract_y
 _atom_site_fract_z
 _atom_site_occupancy
  K  K0  1  0.500000  0.005210  0.500000  1
  Ba  Ba1  1  0.000000  0.498629  0.000000  1
  Ba  Ba2  1  0.500000  0.996345  0.000000  1
  Ba  Ba3  1  0.000000  0.494407  0.500000  1
  Pu  Pu4  1  0.000000  0.999313  0.251567  1
  Pu  Pu5  1  0.500000  0.500213  0.748616  1
  Pu  Pu6  1  0.000000  0.999313  0.748433  1
  Pu  Pu7  1  0.500000  0.500213  0.251384  1
  O  O8  1  0.000000  0.052754  0.000000  1
  O  O9  1  0.500000  0.548191  0.500000  1
  O  O10  1  0.000000  0.942644  0.500000  1
  O  O11  1  0.500000  0.444180  0.000000  1
  O  O12  1  0.756498  0.257042  0.271683  1
  O  O13  1  0.248233  0.747605  0.784660  1
  O  O14  1  0.751767  0.747605  0.215340  1
  O  O15  1  0.243502  0.257042  0.728317  1
  O  O16  1  0.243502  0.257042  0.271683  1
  O  O17  1  0.751767  0.747605  0.784660  1
  O  O18  1  0.248233  0.747605  0.215340  1
  O  O19  1  0.756498  0.257042  0.728317  1
