# generated using pymatgen
data_Tb5Pr3(CdRu)2
_symmetry_space_group_name_H-M   'P 1'
_cell_length_a   9.78246061
_cell_length_b   9.78246040
_cell_length_c   9.78246000
_cell_angle_alpha   59.99999457
_cell_angle_beta   59.99999530
_cell_angle_gamma   59.99999614
_symmetry_Int_Tables_number   1
_chemical_formula_structural   Tb5Pr3(CdRu)2
_chemical_formula_sum   'Tb10 Pr6 Cd4 Ru4'
_cell_volume   661.95618335
_cell_formula_units_Z   2
loop_
 _symmetry_equiv_pos_site_id
 _symmetry_equiv_pos_as_xyz
  1  'x, y, z'
loop_
 _atom_site_type_symbol
 _atom_site_label
 _atom_site_symmetry_multiplicity
 _atom_site_fract_x
 _atom_site_fract_y
 _atom_site_fract_z
 _atom_site_occupancy
  Tb  Tb0  1  0.344913  0.344913  0.344913  1
  Tb  Tb1  1  0.344913  0.344913  0.965262  1
  Tb  Tb2  1  0.344913  0.965262  0.344913  1
  Tb  Tb3  1  0.965262  0.344913  0.344913  1
  Tb  Tb4  1  0.812193  0.187807  0.187807  1
  Tb  Tb5  1  0.187807  0.812193  0.812193  1
  Tb  Tb6  1  0.187807  0.812193  0.187807  1
  Tb  Tb7  1  0.812193  0.187807  0.812193  1
  Tb  Tb8  1  0.187807  0.187807  0.812193  1
  Tb  Tb9  1  0.812193  0.812193  0.187807  1
  Pr  Pr10  1  0.941053  0.558947  0.558947  1
  Pr  Pr11  1  0.558947  0.941053  0.941053  1
  Pr  Pr12  1  0.558947  0.941053  0.558947  1
  Pr  Pr13  1  0.941053  0.558947  0.941053  1
  Pr  Pr14  1  0.558947  0.558947  0.941053  1
  Pr  Pr15  1  0.941053  0.941053  0.558947  1
  Cd  Cd16  1  0.578641  0.578641  0.578641  1
  Cd  Cd17  1  0.578641  0.578641  0.264077  1
  Cd  Cd18  1  0.578641  0.264077  0.578641  1
  Cd  Cd19  1  0.264077  0.578641  0.578641  1
  Ru  Ru20  1  0.138923  0.138923  0.138923  1
  Ru  Ru21  1  0.138923  0.138923  0.583230  1
  Ru  Ru22  1  0.138923  0.583230  0.138923  1
  Ru  Ru23  1  0.583230  0.138923  0.138923  1
