# generated using pymatgen
data_Ho5ErCo6(PRu)12
_symmetry_space_group_name_H-M   'P 1'
_cell_length_a   3.87513700
_cell_length_b   10.78774301
_cell_length_c   12.56341201
_cell_angle_alpha   89.99650594
_cell_angle_beta   90.00000000
_cell_angle_gamma   90.00000000
_symmetry_Int_Tables_number   1
_chemical_formula_structural   Ho5ErCo6(PRu)12
_chemical_formula_sum   'Ho5 Er1 Co6 P12 Ru12'
_cell_volume   525.20064919
_cell_formula_units_Z   1
loop_
 _symmetry_equiv_pos_site_id
 _symmetry_equiv_pos_as_xyz
  1  'x, y, z'
loop_
 _atom_site_type_symbol
 _atom_site_label
 _atom_site_symmetry_multiplicity
 _atom_site_fract_x
 _atom_site_fract_y
 _atom_site_fract_z
 _atom_site_occupancy
  Ho  Ho0  1  0.000000  0.500061  0.527682  1
  Ho  Ho1  1  0.500000  0.999957  0.471099  1
  Ho  Ho2  1  0.500000  0.176961  0.203805  1
  Ho  Ho3  1  0.000000  0.680363  0.797408  1
  Ho  Ho4  1  0.000000  0.319608  0.797498  1
  Er  Er5  1  0.500000  0.823016  0.203718  1
  Co  Co6  1  0.000000  0.500079  0.985176  1
  Co  Co7  1  0.500000  0.999806  0.016105  1
  Co  Co8  1  0.000000  0.161126  0.013428  1
  Co  Co9  1  0.000000  0.838716  0.013529  1
  Co  Co10  1  0.500000  0.500032  0.699674  1
  Co  Co11  1  0.000000  0.999764  0.299495  1
  P  P12  1  0.500000  0.314074  0.617708  1
  P  P13  1  0.500000  0.685927  0.617593  1
  P  P14  1  0.000000  0.186768  0.382284  1
  P  P15  1  0.000000  0.813318  0.382101  1
  P  P16  1  0.500000  0.500056  0.878310  1
  P  P17  1  0.000000  0.999749  0.121027  1
  P  P18  1  0.500000  0.852414  0.896234  1
  P  P19  1  0.500000  0.147441  0.896347  1
  P  P20  1  0.000000  0.656082  0.101018  1
  P  P21  1  0.000000  0.344196  0.100906  1
  P  P22  1  0.500000  0.499986  0.338587  1
  P  P23  1  0.000000  0.000006  0.661175  1
  Ru  Ru24  1  0.500000  0.298241  0.428441  1
  Ru  Ru25  1  0.500000  0.701833  0.428295  1
  Ru  Ru26  1  0.000000  0.201868  0.571159  1
  Ru  Ru27  1  0.000000  0.798112  0.571187  1
  Ru  Ru28  1  0.500000  0.876539  0.714701  1
  Ru  Ru29  1  0.500000  0.123450  0.714709  1
  Ru  Ru30  1  0.000000  0.625349  0.282662  1
  Ru  Ru31  1  0.000000  0.375073  0.282842  1
  Ru  Ru32  1  0.500000  0.328132  0.989955  1
  Ru  Ru33  1  0.500000  0.671963  0.990098  1
  Ru  Ru34  1  0.500000  0.500004  0.152544  1
  Ru  Ru35  1  0.000000  0.999930  0.851502  1
