# generated using pymatgen
data_La5PdRuO12
_symmetry_space_group_name_H-M   'P 1'
_cell_length_a   7.20619109
_cell_length_b   7.20619147
_cell_length_c   7.73513528
_cell_angle_alpha   74.44889369
_cell_angle_beta   74.44889568
_cell_angle_gamma   50.41308128
_symmetry_Int_Tables_number   1
_chemical_formula_structural   La5PdRuO12
_chemical_formula_sum   'La5 Pd1 Ru1 O12'
_cell_volume   295.65571337
_cell_formula_units_Z   1
loop_
 _symmetry_equiv_pos_site_id
 _symmetry_equiv_pos_as_xyz
  1  'x, y, z'
loop_
 _atom_site_type_symbol
 _atom_site_label
 _atom_site_symmetry_multiplicity
 _atom_site_fract_x
 _atom_site_fract_y
 _atom_site_fract_z
 _atom_site_occupancy
  La  La0  1  0.311139  0.300023  0.356336  1
  La  La1  1  0.699977  0.688861  0.643664  1
  La  La2  1  0.696402  0.691179  0.163770  1
  La  La3  1  0.308821  0.303598  0.836230  1
  La  La4  1  0.000208  0.999792  0.500000  1
  Pd  Pd5  1  0.751048  0.248952  0.000000  1
  Ru  Ru6  1  0.240101  0.759899  0.000000  1
  O  O7  1  0.095798  0.599208  0.575427  1
  O  O8  1  0.002988  0.995718  0.171300  1
  O  O9  1  0.400792  0.904202  0.424573  1
  O  O10  1  0.493456  0.507236  0.170690  1
  O  O11  1  0.102121  0.584957  0.078295  1
  O  O12  1  0.907983  0.401158  0.422026  1
  O  O13  1  0.004282  0.997012  0.828700  1
  O  O14  1  0.598842  0.092016  0.577974  1
  O  O15  1  0.492764  0.506544  0.829310  1
  O  O16  1  0.574434  0.096199  0.080907  1
  O  O17  1  0.415043  0.897879  0.921705  1
  O  O18  1  0.903801  0.425566  0.919093  1
