# generated using pymatgen
data_BaAc(PPt3)4
_symmetry_space_group_name_H-M   'P 1'
_cell_length_a   8.62065065
_cell_length_b   8.63333900
_cell_length_c   8.63435000
_cell_angle_alpha   90.00000000
_cell_angle_beta   90.11919556
_cell_angle_gamma   90.00000000
_symmetry_Int_Tables_number   1
_chemical_formula_structural   BaAc(PPt3)4
_chemical_formula_sum   'Ba2 Ac2 P8 Pt24'
_cell_volume   642.61010387
_cell_formula_units_Z   2
loop_
 _symmetry_equiv_pos_site_id
 _symmetry_equiv_pos_as_xyz
  1  'x, y, z'
loop_
 _atom_site_type_symbol
 _atom_site_label
 _atom_site_symmetry_multiplicity
 _atom_site_fract_x
 _atom_site_fract_y
 _atom_site_fract_z
 _atom_site_occupancy
  Ba  Ba0  1  0.500000  0.500000  0.000000  1
  Ba  Ba1  1  0.500000  0.000000  0.500000  1
  Ac  Ac2  1  0.000000  0.500000  0.500000  1
  Ac  Ac3  1  0.000000  0.000000  0.000000  1
  P  P4  1  0.804585  0.307420  0.196428  1
  P  P5  1  0.195415  0.807420  0.303572  1
  P  P6  1  0.693865  0.696905  0.694002  1
  P  P7  1  0.306135  0.196905  0.805998  1
  P  P8  1  0.195415  0.692580  0.803572  1
  P  P9  1  0.804585  0.192580  0.696428  1
  P  P10  1  0.306135  0.303095  0.305998  1
  P  P11  1  0.693865  0.803095  0.194002  1
  Pt  Pt12  1  0.424112  0.842777  0.155070  1
  Pt  Pt13  1  0.575888  0.342777  0.344930  1
  Pt  Pt14  1  0.080608  0.156603  0.656300  1
  Pt  Pt15  1  0.919392  0.656603  0.843700  1
  Pt  Pt16  1  0.151545  0.422971  0.839092  1
  Pt  Pt17  1  0.339277  0.579691  0.346180  1
  Pt  Pt18  1  0.660723  0.079691  0.153820  1
  Pt  Pt19  1  0.848455  0.922971  0.660908  1
  Pt  Pt20  1  0.846392  0.161150  0.422720  1
  Pt  Pt21  1  0.337895  0.348883  0.577870  1
  Pt  Pt22  1  0.153608  0.661150  0.077280  1
  Pt  Pt23  1  0.662105  0.848883  0.922130  1
  Pt  Pt24  1  0.575888  0.157223  0.844930  1
  Pt  Pt25  1  0.424112  0.657223  0.655070  1
  Pt  Pt26  1  0.919392  0.843397  0.343700  1
  Pt  Pt27  1  0.080608  0.343397  0.156300  1
  Pt  Pt28  1  0.848455  0.577029  0.160908  1
  Pt  Pt29  1  0.660723  0.420309  0.653820  1
  Pt  Pt30  1  0.339277  0.920309  0.846180  1
  Pt  Pt31  1  0.151545  0.077029  0.339092  1
  Pt  Pt32  1  0.153608  0.838850  0.577280  1
  Pt  Pt33  1  0.662105  0.651117  0.422130  1
  Pt  Pt34  1  0.846392  0.338850  0.922720  1
  Pt  Pt35  1  0.337895  0.151117  0.077870  1
