# generated using pymatgen
data_Ho16Cd2Co3Hg2Ru
_symmetry_space_group_name_H-M   'P 1'
_cell_length_a   9.48345739
_cell_length_b   9.47023142
_cell_length_c   9.44718880
_cell_angle_alpha   59.91928046
_cell_angle_beta   59.99535901
_cell_angle_gamma   60.04612660
_symmetry_Int_Tables_number   1
_chemical_formula_structural   Ho16Cd2Co3Hg2Ru
_chemical_formula_sum   'Ho16 Cd2 Co3 Hg2 Ru1'
_cell_volume   599.77036697
_cell_formula_units_Z   1
loop_
 _symmetry_equiv_pos_site_id
 _symmetry_equiv_pos_as_xyz
  1  'x, y, z'
loop_
 _atom_site_type_symbol
 _atom_site_label
 _atom_site_symmetry_multiplicity
 _atom_site_fract_x
 _atom_site_fract_y
 _atom_site_fract_z
 _atom_site_occupancy
  Ho  Ho0  1  0.939302  0.935942  0.562287  1
  Ho  Ho1  1  0.814670  0.189858  0.187814  1
  Ho  Ho2  1  0.939302  0.562469  0.562287  1
  Ho  Ho3  1  0.937672  0.562062  0.938204  1
  Ho  Ho4  1  0.814670  0.807658  0.187814  1
  Ho  Ho5  1  0.342315  0.350076  0.350650  1
  Ho  Ho6  1  0.563054  0.938299  0.940981  1
  Ho  Ho7  1  0.564004  0.939115  0.557767  1
  Ho  Ho8  1  0.189075  0.811482  0.810452  1
  Ho  Ho9  1  0.189075  0.188992  0.810452  1
  Ho  Ho10  1  0.341916  0.350039  0.958007  1
  Ho  Ho11  1  0.342315  0.956960  0.350650  1
  Ho  Ho12  1  0.815655  0.188371  0.807604  1
  Ho  Ho13  1  0.563054  0.557667  0.940981  1
  Ho  Ho14  1  0.189885  0.810716  0.188683  1
  Ho  Ho15  1  0.962327  0.345132  0.347409  1
  Cd  Cd16  1  0.580742  0.579873  0.580046  1
  Cd  Cd17  1  0.580742  0.259341  0.580046  1
  Co  Co18  1  0.139819  0.139619  0.142099  1
  Co  Co19  1  0.139819  0.578464  0.142099  1
  Co  Co20  1  0.140830  0.140154  0.578863  1
  Hg  Hg21  1  0.586018  0.583720  0.246542  1
  Hg  Hg22  1  0.246436  0.583986  0.585591  1
  Ru  Ru23  1  0.577307  0.140010  0.142675  1
