# generated using pymatgen
data_Lu2Co7Tc5P7
_symmetry_space_group_name_H-M   'P 1'
_cell_length_a   9.18143322
_cell_length_b   9.07598277
_cell_length_c   3.72671700
_cell_angle_alpha   90.00000000
_cell_angle_beta   90.00000000
_cell_angle_gamma   119.55009139
_symmetry_Int_Tables_number   1
_chemical_formula_structural   Lu2Co7Tc5P7
_chemical_formula_sum   'Lu2 Co7 Tc5 P7'
_cell_volume   270.15455694
_cell_formula_units_Z   1
loop_
 _symmetry_equiv_pos_site_id
 _symmetry_equiv_pos_as_xyz
  1  'x, y, z'
loop_
 _atom_site_type_symbol
 _atom_site_label
 _atom_site_symmetry_multiplicity
 _atom_site_fract_x
 _atom_site_fract_y
 _atom_site_fract_z
 _atom_site_occupancy
  Lu  Lu0  1  0.671115  0.337888  0.500000  1
  Lu  Lu1  1  0.330654  0.666466  0.000000  1
  Co  Co2  1  0.115745  0.835177  0.000000  1
  Co  Co3  1  0.731514  0.883664  0.000000  1
  Co  Co4  1  0.935636  0.369110  0.000000  1
  Co  Co5  1  0.640168  0.570215  0.000000  1
  Co  Co6  1  0.424108  0.064256  0.000000  1
  Co  Co7  1  0.046220  0.609110  0.500000  1
  Co  Co8  1  0.153617  0.275170  0.000000  1
  Tc  Tc9  1  0.389483  0.438620  0.500000  1
  Tc  Tc10  1  0.563652  0.955770  0.500000  1
  Tc  Tc11  1  0.207582  0.086367  0.500000  1
  Tc  Tc12  1  0.879602  0.780780  0.500000  1
  Tc  Tc13  1  0.909519  0.123003  0.500000  1
  P  P14  1  0.001598  0.999934  0.000000  1
  P  P15  1  0.599743  0.717764  0.500000  1
  P  P16  1  0.700767  0.118684  0.000000  1
  P  P17  1  0.887681  0.585821  0.000000  1
  P  P18  1  0.414534  0.299186  0.000000  1
  P  P19  1  0.279938  0.874284  0.500000  1
  P  P20  1  0.117126  0.408730  0.500000  1
