# generated using pymatgen
data_Tb3YB4I5
_symmetry_space_group_name_H-M   'P 1'
_cell_length_a   9.65595658
_cell_length_b   9.65595539
_cell_length_c   9.79850497
_cell_angle_alpha   75.01587877
_cell_angle_beta   75.01587961
_cell_angle_gamma   25.68397545
_symmetry_Int_Tables_number   1
_chemical_formula_structural   Tb3YB4I5
_chemical_formula_sum   'Tb3 Y1 B4 I5'
_cell_volume   381.77935254
_cell_formula_units_Z   1
loop_
 _symmetry_equiv_pos_site_id
 _symmetry_equiv_pos_as_xyz
  1  'x, y, z'
loop_
 _atom_site_type_symbol
 _atom_site_label
 _atom_site_symmetry_multiplicity
 _atom_site_fract_x
 _atom_site_fract_y
 _atom_site_fract_z
 _atom_site_occupancy
  Tb  Tb0  1  0.497228  0.497228  0.244159  1
  Tb  Tb1  1  0.129834  0.129834  0.934536  1
  Tb  Tb2  1  0.871148  0.871148  0.064118  1
  Y  Y3  1  0.504361  0.504361  0.755614  1
  B  B4  1  0.314596  0.686392  0.999639  1
  B  B5  1  0.686392  0.314596  0.999639  1
  B  B6  1  0.999885  0.999885  0.098503  1
  B  B7  1  0.001024  0.001024  0.900699  1
  I  I8  1  0.675618  0.675618  0.686120  1
  I  I9  1  0.325241  0.325241  0.313450  1
  I  I10  1  0.329870  0.329870  0.853084  1
  I  I11  1  0.672843  0.672843  0.142564  1
  I  I12  1  0.006262  0.006262  0.498074  1
