# generated using pymatgen
data_La2Dy18Si15Rh
_symmetry_space_group_name_H-M   'P 1'
_cell_length_a   7.43599508
_cell_length_b   7.79103482
_cell_length_c   14.67866800
_cell_angle_alpha   89.66790326
_cell_angle_beta   90.00863752
_cell_angle_gamma   89.95020420
_symmetry_Int_Tables_number   1
_chemical_formula_structural   La2Dy18Si15Rh
_chemical_formula_sum   'La2 Dy18 Si15 Rh1'
_cell_volume   850.38075405
_cell_formula_units_Z   1
loop_
 _symmetry_equiv_pos_site_id
 _symmetry_equiv_pos_as_xyz
  1  'x, y, z'
loop_
 _atom_site_type_symbol
 _atom_site_label
 _atom_site_symmetry_multiplicity
 _atom_site_fract_x
 _atom_site_fract_y
 _atom_site_fract_z
 _atom_site_occupancy
  La  La0  1  0.522323  0.569088  0.342339  1
  La  La1  1  0.024158  0.428241  0.658079  1
  Dy  Dy2  1  0.807289  0.577298  0.877428  1
  Dy  Dy3  1  0.322391  0.429340  0.123777  1
  Dy  Dy4  1  0.183252  0.928411  0.372670  1
  Dy  Dy5  1  0.682565  0.069228  0.627183  1
  Dy  Dy6  1  0.183697  0.927521  0.629030  1
  Dy  Dy7  1  0.682369  0.070505  0.371432  1
  Dy  Dy8  1  0.811252  0.573711  0.123622  1
  Dy  Dy9  1  0.325355  0.434483  0.874898  1
  Dy  Dy10  1  0.643938  0.233809  0.999300  1
  Dy  Dy11  1  0.158961  0.761883  0.000592  1
  Dy  Dy12  1  0.350945  0.264616  0.499814  1
  Dy  Dy13  1  0.849323  0.733861  0.499684  1
  Dy  Dy14  1  0.477550  0.927948  0.847805  1
  Dy  Dy15  1  0.973954  0.066138  0.151843  1
  Dy  Dy16  1  0.475735  0.929208  0.151367  1
  Dy  Dy17  1  0.971801  0.066581  0.849104  1
  Dy  Dy18  1  0.528714  0.564592  0.652229  1
  Dy  Dy19  1  0.027035  0.433433  0.347083  1
  Si  Si20  1  0.018982  0.351940  0.999715  1
  Si  Si21  1  0.475958  0.859037  0.501248  1
  Si  Si22  1  0.978534  0.139024  0.499132  1
  Si  Si23  1  0.651787  0.276620  0.790446  1
  Si  Si24  1  0.147742  0.720329  0.209316  1
  Si  Si25  1  0.351498  0.215192  0.286373  1
  Si  Si26  1  0.849535  0.783698  0.713729  1
  Si  Si27  1  0.362124  0.218835  0.711844  1
  Si  Si28  1  0.858697  0.780770  0.287841  1
  Si  Si29  1  0.647803  0.269200  0.206392  1
  Si  Si30  1  0.142032  0.727745  0.793667  1
  Si  Si31  1  0.770143  0.882891  0.000673  1
  Si  Si32  1  0.258593  0.126603  0.999514  1
  Si  Si33  1  0.233151  0.627097  0.501993  1
  Si  Si34  1  0.734449  0.372609  0.498733  1
  Rh  Rh35  1  0.516365  0.658515  0.000104  1
