# generated using pymatgen
data_Y6OsRh
_symmetry_space_group_name_H-M   'P 1'
_cell_length_a   6.43148008
_cell_length_b   7.36146222
_cell_length_c   9.18208800
_cell_angle_alpha   90.00000000
_cell_angle_beta   90.00000000
_cell_angle_gamma   90.40750816
_symmetry_Int_Tables_number   1
_chemical_formula_structural   Y6OsRh
_chemical_formula_sum   'Y12 Os2 Rh2'
_cell_volume   434.71585768
_cell_formula_units_Z   2
loop_
 _symmetry_equiv_pos_site_id
 _symmetry_equiv_pos_as_xyz
  1  'x, y, z'
loop_
 _atom_site_type_symbol
 _atom_site_label
 _atom_site_symmetry_multiplicity
 _atom_site_fract_x
 _atom_site_fract_y
 _atom_site_fract_z
 _atom_site_occupancy
  Y  Y0  1  0.632609  0.037852  0.250000  1
  Y  Y1  1  0.367391  0.962148  0.750000  1
  Y  Y2  1  0.127480  0.461351  0.750000  1
  Y  Y3  1  0.872520  0.538649  0.250000  1
  Y  Y4  1  0.174960  0.178648  0.066161  1
  Y  Y5  1  0.825040  0.821352  0.933839  1
  Y  Y6  1  0.666812  0.327194  0.938654  1
  Y  Y7  1  0.825040  0.821352  0.566161  1
  Y  Y8  1  0.333188  0.672806  0.061346  1
  Y  Y9  1  0.174960  0.178648  0.433839  1
  Y  Y10  1  0.333188  0.672806  0.438654  1
  Y  Y11  1  0.666812  0.327194  0.561346  1
  Os  Os12  1  0.466154  0.383024  0.250000  1
  Os  Os13  1  0.533846  0.616976  0.750000  1
  Rh  Rh14  1  0.955983  0.114955  0.750000  1
  Rh  Rh15  1  0.044017  0.885045  0.250000  1
