# generated using pymatgen
data_Yb10Cd2CuPt3
_symmetry_space_group_name_H-M   'P 1'
_cell_length_a   9.00462417
_cell_length_b   9.00462490
_cell_length_c   9.05316595
_cell_angle_alpha   128.81826030
_cell_angle_beta   128.81826445
_cell_angle_gamma   74.90247307
_symmetry_Int_Tables_number   1
_chemical_formula_structural   Yb10Cd2CuPt3
_chemical_formula_sum   'Yb10 Cd2 Cu1 Pt3'
_cell_volume   434.87492174
_cell_formula_units_Z   1
loop_
 _symmetry_equiv_pos_site_id
 _symmetry_equiv_pos_as_xyz
  1  'x, y, z'
loop_
 _atom_site_type_symbol
 _atom_site_label
 _atom_site_symmetry_multiplicity
 _atom_site_fract_x
 _atom_site_fract_y
 _atom_site_fract_z
 _atom_site_occupancy
  Yb  Yb0  1  0.501945  0.504719  0.006664  1
  Yb  Yb1  1  0.995281  0.998055  0.993336  1
  Yb  Yb2  1  0.537586  0.033753  0.835558  1
  Yb  Yb3  1  0.202029  0.698196  0.164442  1
  Yb  Yb4  1  0.032231  0.207014  0.500000  1
  Yb  Yb5  1  0.704132  0.537296  0.500000  1
  Yb  Yb6  1  0.466247  0.962414  0.164442  1
  Yb  Yb7  1  0.801804  0.297971  0.835558  1
  Yb  Yb8  1  0.962704  0.795868  0.500000  1
  Yb  Yb9  1  0.292986  0.467769  0.500000  1
  Cd  Cd10  1  0.250595  0.249405  0.000000  1
  Cd  Cd11  1  0.750595  0.749405  0.000000  1
  Cu  Cu12  1  0.378109  0.121891  0.500000  1
  Pt  Pt13  1  0.135035  0.634292  0.769328  1
  Pt  Pt14  1  0.865708  0.364965  0.230672  1
  Pt  Pt15  1  0.623012  0.876988  0.500000  1
