# generated using pymatgen
data_Li6Ti6Ir7Pt5
_symmetry_space_group_name_H-M   'P 1'
_cell_length_a   4.26259700
_cell_length_b   6.20414015
_cell_length_c   12.73178932
_cell_angle_alpha   90.02522168
_cell_angle_beta   90.00220474
_cell_angle_gamma   90.00016352
_symmetry_Int_Tables_number   1
_chemical_formula_structural   Li6Ti6Ir7Pt5
_chemical_formula_sum   'Li6 Ti6 Ir7 Pt5'
_cell_volume   336.70167407
_cell_formula_units_Z   1
loop_
 _symmetry_equiv_pos_site_id
 _symmetry_equiv_pos_as_xyz
  1  'x, y, z'
loop_
 _atom_site_type_symbol
 _atom_site_label
 _atom_site_symmetry_multiplicity
 _atom_site_fract_x
 _atom_site_fract_y
 _atom_site_fract_z
 _atom_site_occupancy
  Li  Li0  1  0.000002  0.499928  0.999595  1
  Li  Li1  1  0.499835  0.000169  0.166433  1
  Li  Li2  1  0.999854  0.499708  0.333850  1
  Li  Li3  1  0.499999  0.999916  0.500637  1
  Li  Li4  1  0.000148  0.499970  0.666659  1
  Li  Li5  1  0.500157  0.000183  0.832710  1
  Ti  Ti6  1  0.000011  0.000732  0.995302  1
  Ti  Ti7  1  0.499825  0.502859  0.167776  1
  Ti  Ti8  1  0.999842  0.992728  0.338378  1
  Ti  Ti9  1  0.500005  0.503167  0.503387  1
  Ti  Ti10  1  0.000157  0.000912  0.666420  1
  Ti  Ti11  1  0.500163  0.499511  0.828860  1
  Ir  Ir12  1  0.499846  0.750694  0.333039  1
  Ir  Ir13  1  0.000004  0.250928  0.500363  1
  Ir  Ir14  1  0.000001  0.748919  0.499908  1
  Ir  Ir15  1  0.500158  0.248775  0.666696  1
  Ir  Ir16  1  0.500157  0.751352  0.666752  1
  Ir  Ir17  1  0.000162  0.250712  0.833450  1
  Ir  Ir18  1  0.000160  0.749076  0.833464  1
  Pt  Pt19  1  0.500006  0.250241  0.999949  1
  Pt  Pt20  1  0.500006  0.749981  0.999970  1
  Pt  Pt21  1  0.999833  0.249731  0.166400  1
  Pt  Pt22  1  0.999835  0.750707  0.166601  1
  Pt  Pt23  1  0.499837  0.249101  0.333400  1
