# generated using pymatgen
data_La6Pr4Sn20Ir3Pd5
_symmetry_space_group_name_H-M   'P 1'
_cell_length_a   14.30329505
_cell_length_b   14.30346515
_cell_length_c   4.71540300
_cell_angle_alpha   90.00000000
_cell_angle_beta   90.00000000
_cell_angle_gamma   89.99636686
_symmetry_Int_Tables_number   1
_chemical_formula_structural   La6Pr4Sn20Ir3Pd5
_chemical_formula_sum   'La6 Pr4 Sn20 Ir3 Pd5'
_cell_volume   964.70865328
_cell_formula_units_Z   1
loop_
 _symmetry_equiv_pos_site_id
 _symmetry_equiv_pos_as_xyz
  1  'x, y, z'
loop_
 _atom_site_type_symbol
 _atom_site_label
 _atom_site_symmetry_multiplicity
 _atom_site_fract_x
 _atom_site_fract_y
 _atom_site_fract_z
 _atom_site_occupancy
  La  La0  1  0.500980  0.497977  0.000000  1
  La  La1  1  0.001000  0.999588  0.000000  1
  La  La2  1  0.894389  0.390203  0.500000  1
  La  La3  1  0.105508  0.609098  0.500000  1
  La  La4  1  0.394019  0.109793  0.500000  1
  La  La5  1  0.607700  0.892494  0.500000  1
  Pr  Pr6  1  0.677014  0.182330  0.500000  1
  Pr  Pr7  1  0.318866  0.820343  0.500000  1
  Pr  Pr8  1  0.176844  0.318149  0.500000  1
  Pr  Pr9  1  0.822091  0.680630  0.500000  1
  Sn  Sn10  1  0.568840  0.071698  0.000000  1
  Sn  Sn11  1  0.430743  0.932101  0.000000  1
  Sn  Sn12  1  0.069304  0.429603  0.000000  1
  Sn  Sn13  1  0.931271  0.570385  0.000000  1
  Sn  Sn14  1  0.651767  0.702346  0.000000  1
  Sn  Sn15  1  0.348696  0.294887  0.000000  1
  Sn  Sn16  1  0.149327  0.794749  0.000000  1
  Sn  Sn17  1  0.849640  0.204154  0.000000  1
  Sn  Sn18  1  0.298594  0.651106  0.000000  1
  Sn  Sn19  1  0.699920  0.348129  0.000000  1
  Sn  Sn20  1  0.199202  0.151298  0.000000  1
  Sn  Sn21  1  0.800621  0.849232  0.000000  1
  Sn  Sn22  1  0.665335  0.497566  0.500000  1
  Sn  Sn23  1  0.336027  0.498534  0.500000  1
  Sn  Sn24  1  0.163885  0.000134  0.500000  1
  Sn  Sn25  1  0.836468  0.003052  0.500000  1
  Sn  Sn26  1  0.501245  0.664075  0.500000  1
  Sn  Sn27  1  0.502584  0.336562  0.500000  1
  Sn  Sn28  1  0.003924  0.163078  0.500000  1
  Sn  Sn29  1  0.995466  0.836193  0.500000  1
  Ir  Ir30  1  0.533348  0.257083  0.000000  1
  Ir  Ir31  1  0.033454  0.244117  0.000000  1
  Ir  Ir32  1  0.965359  0.755796  0.000000  1
  Pd  Pd33  1  0.744285  0.532965  0.000000  1
  Pd  Pd34  1  0.256586  0.465992  0.000000  1
  Pd  Pd35  1  0.243143  0.965623  0.000000  1
  Pd  Pd36  1  0.755856  0.033633  0.000000  1
  Pd  Pd37  1  0.466699  0.745306  0.000000  1
