# generated using pymatgen
data_Tm16Tl3In(IrRu)2
_symmetry_space_group_name_H-M   'P 1'
_cell_length_a   9.54817323
_cell_length_b   9.55864262
_cell_length_c   9.55864314
_cell_angle_alpha   59.86324426
_cell_angle_beta   59.80886683
_cell_angle_gamma   59.80886556
_symmetry_Int_Tables_number   1
_chemical_formula_structural   Tm16Tl3In(IrRu)2
_chemical_formula_sum   'Tm16 Tl3 In1 Ir2 Ru2'
_cell_volume   614.45314556
_cell_formula_units_Z   1
loop_
 _symmetry_equiv_pos_site_id
 _symmetry_equiv_pos_as_xyz
  1  'x, y, z'
loop_
 _atom_site_type_symbol
 _atom_site_label
 _atom_site_symmetry_multiplicity
 _atom_site_fract_x
 _atom_site_fract_y
 _atom_site_fract_z
 _atom_site_occupancy
  Tm  Tm0  1  0.439329  0.441927  0.060101  1
  Tm  Tm1  1  0.651655  0.651572  0.043604  1
  Tm  Tm2  1  0.193561  0.811049  0.189990  1
  Tm  Tm3  1  0.057610  0.443218  0.059967  1
  Tm  Tm4  1  0.190933  0.809757  0.809757  1
  Tm  Tm5  1  0.059371  0.439903  0.439903  1
  Tm  Tm6  1  0.810732  0.192964  0.192964  1
  Tm  Tm7  1  0.650161  0.651214  0.651214  1
  Tm  Tm8  1  0.810249  0.189534  0.808506  1
  Tm  Tm9  1  0.193561  0.189990  0.811049  1
  Tm  Tm10  1  0.045508  0.651006  0.651006  1
  Tm  Tm11  1  0.443805  0.057012  0.057012  1
  Tm  Tm12  1  0.057610  0.059967  0.443218  1
  Tm  Tm13  1  0.651655  0.043604  0.651572  1
  Tm  Tm14  1  0.810249  0.808506  0.189534  1
  Tm  Tm15  1  0.439329  0.060101  0.441927  1
  Tl  Tl16  1  0.415629  0.414523  0.414523  1
  Tl  Tl17  1  0.414894  0.413818  0.757456  1
  Tl  Tl18  1  0.414894  0.757456  0.413818  1
  In  In19  1  0.749485  0.416929  0.416929  1
  Ir  Ir20  1  0.859008  0.421048  0.857864  1
  Ir  Ir21  1  0.859008  0.857864  0.421048  1
  Ru  Ru22  1  0.420314  0.858125  0.858125  1
  Ru  Ru23  1  0.861455  0.858916  0.858916  1
