# generated using pymatgen
data_Tb15Dy(ZnCo)4
_symmetry_space_group_name_H-M   'P 1'
_cell_length_a   9.40738159
_cell_length_b   9.40738178
_cell_length_c   9.40982900
_cell_angle_alpha   59.99139785
_cell_angle_beta   59.99139716
_cell_angle_gamma   59.98796239
_symmetry_Int_Tables_number   1
_chemical_formula_structural   Tb15Dy(ZnCo)4
_chemical_formula_sum   'Tb15 Dy1 Zn4 Co4'
_cell_volume   588.71929029
_cell_formula_units_Z   1
loop_
 _symmetry_equiv_pos_site_id
 _symmetry_equiv_pos_as_xyz
  1  'x, y, z'
loop_
 _atom_site_type_symbol
 _atom_site_label
 _atom_site_symmetry_multiplicity
 _atom_site_fract_x
 _atom_site_fract_y
 _atom_site_fract_z
 _atom_site_occupancy
  Tb  Tb0  1  0.599831  0.599831  0.600120  1
  Tb  Tb1  1  0.188068  0.812045  0.812203  1
  Tb  Tb2  1  0.059220  0.059220  0.440780  1
  Tb  Tb3  1  0.440578  0.059550  0.059388  1
  Tb  Tb4  1  0.812045  0.188068  0.812203  1
  Tb  Tb5  1  0.440578  0.059550  0.440482  1
  Tb  Tb6  1  0.599869  0.200630  0.599750  1
  Tb  Tb7  1  0.812119  0.812119  0.187881  1
  Tb  Tb8  1  0.200630  0.599869  0.599750  1
  Tb  Tb9  1  0.812045  0.188068  0.187683  1
  Tb  Tb10  1  0.059550  0.440578  0.440482  1
  Tb  Tb11  1  0.188068  0.812045  0.187683  1
  Tb  Tb12  1  0.599831  0.599831  0.200220  1
  Tb  Tb13  1  0.187796  0.187796  0.812204  1
  Tb  Tb14  1  0.059550  0.440578  0.059388  1
  Dy  Dy15  1  0.440580  0.440580  0.059420  1
  Zn  Zn16  1  0.827943  0.827943  0.515914  1
  Zn  Zn17  1  0.827943  0.827943  0.828198  1
  Zn  Zn18  1  0.515908  0.827679  0.828206  1
  Zn  Zn19  1  0.827679  0.515908  0.828206  1
  Co  Co20  1  0.391584  0.391584  0.391341  1
  Co  Co21  1  0.825484  0.391514  0.391501  1
  Co  Co22  1  0.391514  0.825484  0.391501  1
  Co  Co23  1  0.391584  0.391584  0.825492  1
