# generated using pymatgen
data_Ti9Nb(GaSn3)2
_symmetry_space_group_name_H-M   'P 1'
_cell_length_a   8.28068900
_cell_length_b   8.28068785
_cell_length_c   5.56833100
_cell_angle_alpha   90.00000000
_cell_angle_beta   90.00000000
_cell_angle_gamma   120.00000058
_symmetry_Int_Tables_number   1
_chemical_formula_structural   Ti9Nb(GaSn3)2
_chemical_formula_sum   'Ti9 Nb1 Ga2 Sn6'
_cell_volume   330.66525272
_cell_formula_units_Z   1
loop_
 _symmetry_equiv_pos_site_id
 _symmetry_equiv_pos_as_xyz
  1  'x, y, z'
loop_
 _atom_site_type_symbol
 _atom_site_label
 _atom_site_symmetry_multiplicity
 _atom_site_fract_x
 _atom_site_fract_y
 _atom_site_fract_z
 _atom_site_occupancy
  Ti  Ti0  1  0.666667  0.333333  0.500000  1
  Ti  Ti1  1  0.666667  0.333333  0.000000  1
  Ti  Ti2  1  0.333333  0.666667  0.500000  1
  Ti  Ti3  1  0.268866  0.999408  0.248776  1
  Ti  Ti4  1  0.268866  0.269458  0.751224  1
  Ti  Ti5  1  0.000592  0.731134  0.751224  1
  Ti  Ti6  1  0.000592  0.269458  0.248776  1
  Ti  Ti7  1  0.730542  0.731134  0.248776  1
  Ti  Ti8  1  0.730542  0.999408  0.751224  1
  Nb  Nb9  1  0.333333  0.666667  0.000000  1
  Ga  Ga10  1  0.000000  0.000000  0.000000  1
  Ga  Ga11  1  0.000000  0.000000  0.500000  1
  Sn  Sn12  1  0.614138  0.001805  0.251603  1
  Sn  Sn13  1  0.614138  0.612333  0.748397  1
  Sn  Sn14  1  0.998195  0.385862  0.748397  1
  Sn  Sn15  1  0.998195  0.612333  0.251603  1
  Sn  Sn16  1  0.387667  0.385862  0.251603  1
  Sn  Sn17  1  0.387667  0.001805  0.748397  1
