# generated using pymatgen
data_Li2La8Nd10Si15As
_symmetry_space_group_name_H-M   'P 1'
_cell_length_a   7.61584000
_cell_length_b   7.99889821
_cell_length_c   15.27718400
_cell_angle_alpha   90.00000000
_cell_angle_beta   90.00000000
_cell_angle_gamma   90.19474690
_symmetry_Int_Tables_number   1
_chemical_formula_structural   Li2La8Nd10Si15As
_chemical_formula_sum   'Li2 La8 Nd10 Si15 As1'
_cell_volume   930.65514378
_cell_formula_units_Z   1
loop_
 _symmetry_equiv_pos_site_id
 _symmetry_equiv_pos_as_xyz
  1  'x, y, z'
loop_
 _atom_site_type_symbol
 _atom_site_label
 _atom_site_symmetry_multiplicity
 _atom_site_fract_x
 _atom_site_fract_y
 _atom_site_fract_z
 _atom_site_occupancy
  Li  Li0  1  0.663235  0.975350  0.750000  1
  Li  Li1  1  0.843635  0.475827  0.250000  1
  La  La2  1  0.025198  0.193370  0.398306  1
  La  La3  1  0.535390  0.319688  0.396950  1
  La  La4  1  0.476957  0.690383  0.899209  1
  La  La5  1  0.476957  0.690383  0.600791  1
  La  La6  1  0.964612  0.821289  0.602920  1
  La  La7  1  0.964612  0.821289  0.897080  1
  La  La8  1  0.535390  0.319688  0.103050  1
  La  La9  1  0.025198  0.193370  0.101694  1
  Nd  Nd10  1  0.329888  0.177214  0.624222  1
  Nd  Nd11  1  0.687443  0.809126  0.373902  1
  Nd  Nd12  1  0.169526  0.675627  0.374945  1
  Nd  Nd13  1  0.811377  0.308792  0.874503  1
  Nd  Nd14  1  0.811377  0.308792  0.625497  1
  Nd  Nd15  1  0.355741  0.009243  0.250000  1
  Nd  Nd16  1  0.329888  0.177214  0.875778  1
  Nd  Nd17  1  0.169526  0.675627  0.125055  1
  Nd  Nd18  1  0.687443  0.809126  0.126098  1
  Nd  Nd19  1  0.142656  0.503836  0.750000  1
  Si  Si20  1  0.471201  0.596844  0.250000  1
  Si  Si21  1  0.025230  0.106284  0.750000  1
  Si  Si22  1  0.519503  0.415149  0.750000  1
  Si  Si23  1  0.139459  0.475084  0.542306  1
  Si  Si24  1  0.979692  0.916647  0.250000  1
  Si  Si25  1  0.740446  0.119257  0.250000  1
  Si  Si26  1  0.854709  0.532161  0.028424  1
  Si  Si27  1  0.359077  0.972034  0.041237  1
  Si  Si28  1  0.139459  0.475084  0.957694  1
  Si  Si29  1  0.643862  0.028729  0.529608  1
  Si  Si30  1  0.359077  0.972034  0.458763  1
  Si  Si31  1  0.854709  0.532161  0.471576  1
  Si  Si32  1  0.759510  0.619309  0.750000  1
  Si  Si33  1  0.241605  0.379634  0.250000  1
  Si  Si34  1  0.643862  0.028729  0.970392  1
  As  As35  1  0.262554  0.875624  0.750000  1
