# generated using pymatgen
data_YbCe2(SnPd)3
_symmetry_space_group_name_H-M   'P 1'
_cell_length_a   7.57351360
_cell_length_b   7.58203172
_cell_length_c   4.13769800
_cell_angle_alpha   90.00000000
_cell_angle_beta   90.00000000
_cell_angle_gamma   120.03721486
_symmetry_Int_Tables_number   1
_chemical_formula_structural   YbCe2(SnPd)3
_chemical_formula_sum   'Yb1 Ce2 Sn3 Pd3'
_cell_volume   205.68823156
_cell_formula_units_Z   1
loop_
 _symmetry_equiv_pos_site_id
 _symmetry_equiv_pos_as_xyz
  1  'x, y, z'
loop_
 _atom_site_type_symbol
 _atom_site_label
 _atom_site_symmetry_multiplicity
 _atom_site_fract_x
 _atom_site_fract_y
 _atom_site_fract_z
 _atom_site_occupancy
  Yb  Yb0  1  0.000000  0.590263  0.000000  1
  Ce  Ce1  1  0.415621  0.415559  0.000000  1
  Ce  Ce2  1  0.584379  0.999938  0.000000  1
  Sn  Sn3  1  0.749442  0.745559  0.500000  1
  Sn  Sn4  1  0.000000  0.255793  0.500000  1
  Sn  Sn5  1  0.250558  0.996117  0.500000  1
  Pd  Pd6  1  0.663652  0.330595  0.500000  1
  Pd  Pd7  1  0.000000  0.999231  0.000000  1
  Pd  Pd8  1  0.336348  0.666944  0.500000  1
