# generated using pymatgen
data_In5Sn4Pd13
_symmetry_space_group_name_H-M   'P 1'
_cell_length_a   7.24505256
_cell_length_b   7.24505272
_cell_length_c   9.71079465
_cell_angle_alpha   62.20796601
_cell_angle_beta   62.20796179
_cell_angle_gamma   75.30099555
_symmetry_Int_Tables_number   1
_chemical_formula_structural   In5Sn4Pd13
_chemical_formula_sum   'In5 Sn4 Pd13'
_cell_volume   398.48134001
_cell_formula_units_Z   1
loop_
 _symmetry_equiv_pos_site_id
 _symmetry_equiv_pos_as_xyz
  1  'x, y, z'
loop_
 _atom_site_type_symbol
 _atom_site_label
 _atom_site_symmetry_multiplicity
 _atom_site_fract_x
 _atom_site_fract_y
 _atom_site_fract_z
 _atom_site_occupancy
  In  In0  1  0.248393  0.829794  0.188010  1
  In  In1  1  0.829794  0.248393  0.188010  1
  In  In2  1  0.500000  0.500000  0.000000  1
  In  In3  1  0.751607  0.170206  0.811990  1
  In  In4  1  0.170206  0.751607  0.811990  1
  Sn  Sn5  1  0.179393  0.179393  0.387256  1
  Sn  Sn6  1  0.296381  0.296381  0.669099  1
  Sn  Sn7  1  0.703619  0.703619  0.330901  1
  Sn  Sn8  1  0.820607  0.820607  0.612744  1
  Pd  Pd9  1  0.536253  0.062138  0.163476  1
  Pd  Pd10  1  0.500000  0.000000  0.500000  1
  Pd  Pd11  1  0.546461  0.546461  0.674417  1
  Pd  Pd12  1  0.062138  0.536253  0.163476  1
  Pd  Pd13  1  0.453539  0.453539  0.325583  1
  Pd  Pd14  1  0.247904  0.752096  0.500000  1
  Pd  Pd15  1  0.261441  0.261441  0.985220  1
  Pd  Pd16  1  0.937862  0.463747  0.836524  1
  Pd  Pd17  1  0.738559  0.738559  0.014780  1
  Pd  Pd18  1  0.463747  0.937862  0.836524  1
  Pd  Pd19  1  0.752096  0.247904  0.500000  1
  Pd  Pd20  1  0.000000  0.000000  0.000000  1
  Pd  Pd21  1  0.000000  0.500000  0.500000  1
