# generated using pymatgen
data_Na5P2Au
_symmetry_space_group_name_H-M   'P 1'
_cell_length_a   5.03247300
_cell_length_b   5.03247285
_cell_length_c   17.52748500
_cell_angle_alpha   90.00000000
_cell_angle_beta   90.00000000
_cell_angle_gamma   120.00000756
_symmetry_Int_Tables_number   1
_chemical_formula_structural   Na5P2Au
_chemical_formula_sum   'Na10 P4 Au2'
_cell_volume   384.42630454
_cell_formula_units_Z   2
loop_
 _symmetry_equiv_pos_site_id
 _symmetry_equiv_pos_as_xyz
  1  'x, y, z'
loop_
 _atom_site_type_symbol
 _atom_site_label
 _atom_site_symmetry_multiplicity
 _atom_site_fract_x
 _atom_site_fract_y
 _atom_site_fract_z
 _atom_site_occupancy
  Na  Na0  1  0.333333  0.666667  0.550979  1
  Na  Na1  1  0.666667  0.333333  0.050979  1
  Na  Na2  1  0.666667  0.333333  0.449021  1
  Na  Na3  1  0.333333  0.666667  0.949021  1
  Na  Na4  1  0.000000  0.000000  0.140764  1
  Na  Na5  1  0.000000  0.000000  0.640764  1
  Na  Na6  1  0.000000  0.000000  0.859236  1
  Na  Na7  1  0.000000  0.000000  0.359236  1
  Na  Na8  1  0.333333  0.666667  0.750000  1
  Na  Na9  1  0.666667  0.333333  0.250000  1
  P  P10  1  0.333333  0.666667  0.114019  1
  P  P11  1  0.666667  0.333333  0.614019  1
  P  P12  1  0.333333  0.666667  0.385981  1
  P  P13  1  0.666667  0.333333  0.885981  1
  Au  Au14  1  0.666667  0.333333  0.750000  1
  Au  Au15  1  0.333333  0.666667  0.250000  1
