# generated using pymatgen
data_PaTi3(NbSn2)3
_symmetry_space_group_name_H-M   'P 1'
_cell_length_a   5.76307223
_cell_length_b   5.75806903
_cell_length_c   9.60908900
_cell_angle_alpha   90.00000000
_cell_angle_beta   90.00000000
_cell_angle_gamma   120.29375535
_symmetry_Int_Tables_number   1
_chemical_formula_structural   PaTi3(NbSn2)3
_chemical_formula_sum   'Pa1 Ti3 Nb3 Sn6'
_cell_volume   275.32814408
_cell_formula_units_Z   1
loop_
 _symmetry_equiv_pos_site_id
 _symmetry_equiv_pos_as_xyz
  1  'x, y, z'
loop_
 _atom_site_type_symbol
 _atom_site_label
 _atom_site_symmetry_multiplicity
 _atom_site_fract_x
 _atom_site_fract_y
 _atom_site_fract_z
 _atom_site_occupancy
  Pa  Pa0  1  0.000000  0.000000  0.999555  1
  Ti  Ti1  1  0.000000  0.500000  0.753135  1
  Ti  Ti2  1  0.500000  0.000000  0.754073  1
  Ti  Ti3  1  0.000000  0.500000  0.246552  1
  Nb  Nb4  1  0.500000  0.500000  0.754719  1
  Nb  Nb5  1  0.500000  0.500000  0.245416  1
  Nb  Nb6  1  0.500000  0.000000  0.246960  1
  Sn  Sn7  1  0.667588  0.334031  0.500961  1
  Sn  Sn8  1  0.332412  0.665969  0.500961  1
  Sn  Sn9  1  0.670812  0.333085  0.998417  1
  Sn  Sn10  1  0.329188  0.666915  0.998417  1
  Sn  Sn11  1  0.000000  0.000000  0.668622  1
  Sn  Sn12  1  0.000000  0.000000  0.332214  1
