# generated using pymatgen
data_CeLu5(BePd5)2
_symmetry_space_group_name_H-M   'P 1'
_cell_length_a   7.91004264
_cell_length_b   7.91004375
_cell_length_c   7.91004300
_cell_angle_alpha   127.10692446
_cell_angle_beta   124.51434974
_cell_angle_gamma   80.21700858
_symmetry_Int_Tables_number   1
_chemical_formula_structural   CeLu5(BePd5)2
_chemical_formula_sum   'Ce1 Lu5 Be2 Pd10'
_cell_volume   313.90331868
_cell_formula_units_Z   1
loop_
 _symmetry_equiv_pos_site_id
 _symmetry_equiv_pos_as_xyz
  1  'x, y, z'
loop_
 _atom_site_type_symbol
 _atom_site_label
 _atom_site_symmetry_multiplicity
 _atom_site_fract_x
 _atom_site_fract_y
 _atom_site_fract_z
 _atom_site_occupancy
  Ce  Ce0  1  0.597952  0.750000  0.847952  1
  Lu  Lu1  1  0.223175  0.445452  0.777722  1
  Lu  Lu2  1  0.777805  0.552631  0.225174  1
  Lu  Lu3  1  0.832270  0.054548  0.777722  1
  Lu  Lu4  1  0.172543  0.947369  0.225174  1
  Lu  Lu5  1  0.405217  0.250000  0.155217  1
  Be  Be6  1  0.792831  0.250000  0.542831  1
  Be  Be7  1  0.201898  0.750000  0.451898  1
  Pd  Pd8  1  0.169610  0.402575  0.352320  1
  Pd  Pd9  1  0.829697  0.184666  0.233136  1
  Pd  Pd10  1  0.449745  0.097425  0.767036  1
  Pd  Pd11  1  0.548471  0.315334  0.645031  1
  Pd  Pd12  1  0.000630  0.497705  0.998336  1
  Pd  Pd13  1  0.000630  0.002295  0.502925  1
  Pd  Pd14  1  0.449745  0.682709  0.352320  1
  Pd  Pd15  1  0.548471  0.903440  0.233136  1
  Pd  Pd16  1  0.169610  0.817291  0.767036  1
  Pd  Pd17  1  0.829697  0.596560  0.645031  1
