# generated using pymatgen
data_Lu10PdRhPb6
_symmetry_space_group_name_H-M   'P 1'
_cell_length_a   9.03219500
_cell_length_b   9.03219534
_cell_length_c   6.67392600
_cell_angle_alpha   90.00000000
_cell_angle_beta   90.00000000
_cell_angle_gamma   119.99999510
_symmetry_Int_Tables_number   1
_chemical_formula_structural   Lu10PdRhPb6
_chemical_formula_sum   'Lu10 Pd1 Rh1 Pb6'
_cell_volume   471.51842370
_cell_formula_units_Z   1
loop_
 _symmetry_equiv_pos_site_id
 _symmetry_equiv_pos_as_xyz
  1  'x, y, z'
loop_
 _atom_site_type_symbol
 _atom_site_label
 _atom_site_symmetry_multiplicity
 _atom_site_fract_x
 _atom_site_fract_y
 _atom_site_fract_z
 _atom_site_occupancy
  Lu  Lu0  1  0.243285  0.000000  0.240709  1
  Lu  Lu1  1  0.756715  0.000000  0.759291  1
  Lu  Lu2  1  0.000000  0.243285  0.240709  1
  Lu  Lu3  1  0.000000  0.756715  0.759291  1
  Lu  Lu4  1  0.756715  0.756715  0.240709  1
  Lu  Lu5  1  0.243285  0.243285  0.759291  1
  Lu  Lu6  1  0.333333  0.666667  0.000000  1
  Lu  Lu7  1  0.666667  0.333333  0.000000  1
  Lu  Lu8  1  0.666667  0.333333  0.500000  1
  Lu  Lu9  1  0.333333  0.666667  0.500000  1
  Pd  Pd10  1  0.000000  0.000000  0.500000  1
  Rh  Rh11  1  0.000000  0.000000  0.000000  1
  Pb  Pb12  1  0.600879  0.000000  0.252084  1
  Pb  Pb13  1  0.399121  0.000000  0.747916  1
  Pb  Pb14  1  0.000000  0.600879  0.252084  1
  Pb  Pb15  1  0.000000  0.399121  0.747916  1
  Pb  Pb16  1  0.399121  0.399121  0.252084  1
  Pb  Pb17  1  0.600879  0.600879  0.747916  1
