# generated using pymatgen
data_TmLu3(Ga2Ag)4
_symmetry_space_group_name_H-M   'P 1'
_cell_length_a   4.34254600
_cell_length_b   6.87352093
_cell_length_c   10.18573693
_cell_angle_alpha   89.99870263
_cell_angle_beta   90.00000000
_cell_angle_gamma   90.00000000
_symmetry_Int_Tables_number   1
_chemical_formula_structural   TmLu3(Ga2Ag)4
_chemical_formula_sum   'Tm1 Lu3 Ga8 Ag4'
_cell_volume   304.02979167
_cell_formula_units_Z   1
loop_
 _symmetry_equiv_pos_site_id
 _symmetry_equiv_pos_as_xyz
  1  'x, y, z'
loop_
 _atom_site_type_symbol
 _atom_site_label
 _atom_site_symmetry_multiplicity
 _atom_site_fract_x
 _atom_site_fract_y
 _atom_site_fract_z
 _atom_site_occupancy
  Tm  Tm0  1  0.250000  0.777949  0.825170  1
  Lu  Lu1  1  0.750000  0.222898  0.175261  1
  Lu  Lu2  1  0.750000  0.722699  0.324730  1
  Lu  Lu3  1  0.250000  0.277228  0.674913  1
  Ga  Ga4  1  0.250000  0.701493  0.536441  1
  Ga  Ga5  1  0.750000  0.299329  0.463634  1
  Ga  Ga6  1  0.750000  0.798014  0.036757  1
  Ga  Ga7  1  0.250000  0.201431  0.963429  1
  Ga  Ga8  1  0.250000  0.930160  0.153818  1
  Ga  Ga9  1  0.750000  0.070560  0.845411  1
  Ga  Ga10  1  0.750000  0.569623  0.654591  1
  Ga  Ga11  1  0.250000  0.430526  0.346018  1
  Ag  Ag12  1  0.250000  0.542730  0.097484  1
  Ag  Ag13  1  0.750000  0.455333  0.903281  1
  Ag  Ag14  1  0.750000  0.956330  0.596426  1
  Ag  Ag15  1  0.250000  0.043695  0.402633  1
