# generated using pymatgen
data_ZrPa(AlPt)2
_symmetry_space_group_name_H-M   'P 1'
_cell_length_a   6.97171400
_cell_length_b   6.97171463
_cell_length_c   8.12471000
_cell_angle_alpha   90.00000000
_cell_angle_beta   90.00000000
_cell_angle_gamma   120.00000779
_symmetry_Int_Tables_number   1
_chemical_formula_structural   ZrPa(AlPt)2
_chemical_formula_sum   'Zr3 Pa3 Al6 Pt6'
_cell_volume   341.99332574
_cell_formula_units_Z   3
loop_
 _symmetry_equiv_pos_site_id
 _symmetry_equiv_pos_as_xyz
  1  'x, y, z'
loop_
 _atom_site_type_symbol
 _atom_site_label
 _atom_site_symmetry_multiplicity
 _atom_site_fract_x
 _atom_site_fract_y
 _atom_site_fract_z
 _atom_site_occupancy
  Zr  Zr0  1  0.000360  0.587934  0.250000  1
  Zr  Zr1  1  0.587574  0.999640  0.250000  1
  Zr  Zr2  1  0.412066  0.412426  0.250000  1
  Pa  Pa3  1  0.999652  0.575846  0.750000  1
  Pa  Pa4  1  0.576194  0.000348  0.750000  1
  Pa  Pa5  1  0.424154  0.423806  0.750000  1
  Al  Al6  1  0.000382  0.243480  0.489773  1
  Al  Al7  1  0.756520  0.756902  0.010227  1
  Al  Al8  1  0.000382  0.243480  0.010227  1
  Al  Al9  1  0.243098  0.999618  0.489773  1
  Al  Al10  1  0.243098  0.999618  0.010227  1
  Al  Al11  1  0.756520  0.756902  0.489773  1
  Pt  Pt12  1  0.333333  0.666667  0.491599  1
  Pt  Pt13  1  0.666667  0.333333  0.490764  1
  Pt  Pt14  1  0.666667  0.333333  0.009236  1
  Pt  Pt15  1  0.000000  0.000000  0.250000  1
  Pt  Pt16  1  0.000000  0.000000  0.750000  1
  Pt  Pt17  1  0.333333  0.666667  0.008401  1
