# generated using pymatgen
data_Ba4Sc(PdO4)3
_symmetry_space_group_name_H-M   'P 1'
_cell_length_a   5.95463801
_cell_length_b   5.95464000
_cell_length_c   10.36155900
_cell_angle_alpha   73.30106932
_cell_angle_beta   73.30106359
_cell_angle_gamma   60.00000793
_symmetry_Int_Tables_number   1
_chemical_formula_structural   Ba4Sc(PdO4)3
_chemical_formula_sum   'Ba4 Sc1 Pd3 O12'
_cell_volume   300.15130333
_cell_formula_units_Z   1
loop_
 _symmetry_equiv_pos_site_id
 _symmetry_equiv_pos_as_xyz
  1  'x, y, z'
loop_
 _atom_site_type_symbol
 _atom_site_label
 _atom_site_symmetry_multiplicity
 _atom_site_fract_x
 _atom_site_fract_y
 _atom_site_fract_z
 _atom_site_occupancy
  Ba  Ba0  1  0.290073  0.290073  0.129783  1
  Ba  Ba1  1  0.123360  0.123360  0.629920  1
  Ba  Ba2  1  0.709927  0.709927  0.870217  1
  Ba  Ba3  1  0.876640  0.876640  0.370080  1
  Sc  Sc4  1  0.000000  0.000000  0.000000  1
  Pd  Pd5  1  0.409289  0.409289  0.772134  1
  Pd  Pd6  1  0.590711  0.590711  0.227866  1
  Pd  Pd7  1  0.500000  0.500000  0.500000  1
  O  O8  1  0.791845  0.791845  0.120230  1
  O  O9  1  0.208155  0.208155  0.879770  1
  O  O10  1  0.791845  0.296079  0.120230  1
  O  O11  1  0.846904  0.393720  0.365655  1
  O  O12  1  0.208155  0.703921  0.879770  1
  O  O13  1  0.393720  0.846904  0.365655  1
  O  O14  1  0.393720  0.393720  0.365655  1
  O  O15  1  0.606280  0.153096  0.634345  1
  O  O16  1  0.606280  0.606280  0.634345  1
  O  O17  1  0.296079  0.791845  0.120230  1
  O  O18  1  0.153096  0.606280  0.634345  1
  O  O19  1  0.703921  0.208155  0.879770  1
