# generated using pymatgen
data_TbY2ScO6
_symmetry_space_group_name_H-M   'P 1'
_cell_length_a   6.62610361
_cell_length_b   6.62284377
_cell_length_c   6.62425103
_cell_angle_alpha   91.98987784
_cell_angle_beta   91.99818397
_cell_angle_gamma   91.99766984
_symmetry_Int_Tables_number   1
_chemical_formula_structural   TbY2ScO6
_chemical_formula_sum   'Tb2 Y4 Sc2 O12'
_cell_volume   290.15496341
_cell_formula_units_Z   2
loop_
 _symmetry_equiv_pos_site_id
 _symmetry_equiv_pos_as_xyz
  1  'x, y, z'
loop_
 _atom_site_type_symbol
 _atom_site_label
 _atom_site_symmetry_multiplicity
 _atom_site_fract_x
 _atom_site_fract_y
 _atom_site_fract_z
 _atom_site_occupancy
  Tb  Tb0  1  0.747109  0.931860  0.439256  1
  Tb  Tb1  1  0.931919  0.439340  0.747152  1
  Y  Y2  1  0.439203  0.747171  0.931837  1
  Y  Y3  1  0.252955  0.068200  0.560695  1
  Y  Y4  1  0.068378  0.560695  0.252899  1
  Y  Y5  1  0.560590  0.252930  0.068217  1
  Sc  Sc6  1  0.499830  0.499810  0.499919  1
  Sc  Sc7  1  0.000104  0.000025  0.000090  1
  O  O8  1  0.592335  0.462990  0.805850  1
  O  O9  1  0.462642  0.805679  0.593030  1
  O  O10  1  0.805639  0.592511  0.462670  1
  O  O11  1  0.407212  0.537117  0.194108  1
  O  O12  1  0.536587  0.194465  0.407122  1
  O  O13  1  0.194429  0.407088  0.536537  1
  O  O14  1  0.069603  0.914338  0.305678  1
  O  O15  1  0.914299  0.305611  0.069673  1
  O  O16  1  0.694316  0.930912  0.085208  1
  O  O17  1  0.085789  0.694448  0.931119  1
  O  O18  1  0.931286  0.085520  0.694529  1
  O  O19  1  0.305774  0.069290  0.914411  1
