# generated using pymatgen
data_Er2Tm3Pt4
_symmetry_space_group_name_H-M   'P 1'
_cell_length_a   7.40660900
_cell_length_b   7.50432800
_cell_length_c   14.58945700
_cell_angle_alpha   90.00000000
_cell_angle_beta   90.00000000
_cell_angle_gamma   90.00000000
_symmetry_Int_Tables_number   1
_chemical_formula_structural   Er2Tm3Pt4
_chemical_formula_sum   'Er8 Tm12 Pt16'
_cell_volume   810.90570318
_cell_formula_units_Z   4
loop_
 _symmetry_equiv_pos_site_id
 _symmetry_equiv_pos_as_xyz
  1  'x, y, z'
loop_
 _atom_site_type_symbol
 _atom_site_label
 _atom_site_symmetry_multiplicity
 _atom_site_fract_x
 _atom_site_fract_y
 _atom_site_fract_z
 _atom_site_occupancy
  Er  Er0  1  0.501106  0.680069  0.592507  1
  Er  Er1  1  0.001106  0.819931  0.907493  1
  Er  Er2  1  0.498894  0.319931  0.092507  1
  Er  Er3  1  0.998894  0.180069  0.407493  1
  Er  Er4  1  0.498894  0.319931  0.407493  1
  Er  Er5  1  0.998894  0.180069  0.092507  1
  Er  Er6  1  0.501106  0.680069  0.907493  1
  Er  Er7  1  0.001106  0.819931  0.592507  1
  Tm  Tm8  1  0.657076  0.167682  0.622586  1
  Tm  Tm9  1  0.157076  0.332318  0.877414  1
  Tm  Tm10  1  0.342924  0.832318  0.122586  1
  Tm  Tm11  1  0.842924  0.667682  0.377414  1
  Tm  Tm12  1  0.342924  0.832318  0.377414  1
  Tm  Tm13  1  0.842924  0.667682  0.122586  1
  Tm  Tm14  1  0.657076  0.167682  0.877414  1
  Tm  Tm15  1  0.157076  0.332318  0.622586  1
  Tm  Tm16  1  0.818910  0.511568  0.750000  1
  Tm  Tm17  1  0.318910  0.988432  0.750000  1
  Tm  Tm18  1  0.181090  0.488432  0.250000  1
  Tm  Tm19  1  0.681090  0.011568  0.250000  1
  Pt  Pt20  1  0.683153  0.967065  0.458376  1
  Pt  Pt21  1  0.183153  0.532935  0.041624  1
  Pt  Pt22  1  0.316847  0.032935  0.958376  1
  Pt  Pt23  1  0.816847  0.467065  0.541624  1
  Pt  Pt24  1  0.316847  0.032935  0.541624  1
  Pt  Pt25  1  0.816847  0.467065  0.958376  1
  Pt  Pt26  1  0.683153  0.967065  0.041624  1
  Pt  Pt27  1  0.183153  0.532935  0.458376  1
  Pt  Pt28  1  0.454415  0.387362  0.750000  1
  Pt  Pt29  1  0.954415  0.112638  0.750000  1
  Pt  Pt30  1  0.545585  0.612638  0.250000  1
  Pt  Pt31  1  0.045585  0.887362  0.250000  1
  Pt  Pt32  1  0.683274  0.856585  0.750000  1
  Pt  Pt33  1  0.183274  0.643415  0.750000  1
  Pt  Pt34  1  0.316726  0.143415  0.250000  1
  Pt  Pt35  1  0.816726  0.356585  0.250000  1
