# generated using pymatgen
data_Ho9TmGaBi5
_symmetry_space_group_name_H-M   'P 1'
_cell_length_a   8.14847900
_cell_length_b   9.41024293
_cell_length_c   11.96637300
_cell_angle_alpha   90.02543234
_cell_angle_beta   90.00000000
_cell_angle_gamma   90.00000000
_symmetry_Int_Tables_number   1
_chemical_formula_structural   Ho9TmGaBi5
_chemical_formula_sum   'Ho18 Tm2 Ga2 Bi10'
_cell_volume   917.57142177
_cell_formula_units_Z   2
loop_
 _symmetry_equiv_pos_site_id
 _symmetry_equiv_pos_as_xyz
  1  'x, y, z'
loop_
 _atom_site_type_symbol
 _atom_site_label
 _atom_site_symmetry_multiplicity
 _atom_site_fract_x
 _atom_site_fract_y
 _atom_site_fract_z
 _atom_site_occupancy
  Ho  Ho0  1  0.354458  0.749773  0.206426  1
  Ho  Ho1  1  0.854458  0.750227  0.293574  1
  Ho  Ho2  1  0.651420  0.250063  0.784463  1
  Ho  Ho3  1  0.151420  0.249937  0.715537  1
  Ho  Ho4  1  0.309041  0.049003  0.940603  1
  Ho  Ho5  1  0.809041  0.450997  0.559397  1
  Ho  Ho6  1  0.308777  0.451243  0.940743  1
  Ho  Ho7  1  0.808777  0.048757  0.559257  1
  Ho  Ho8  1  0.684489  0.929822  0.055258  1
  Ho  Ho9  1  0.184489  0.570178  0.444742  1
  Ho  Ho10  1  0.478887  0.250060  0.489969  1
  Ho  Ho11  1  0.978887  0.249940  0.010031  1
  Ho  Ho12  1  0.535700  0.749764  0.509821  1
  Ho  Ho13  1  0.035700  0.750236  0.990179  1
  Ho  Ho14  1  0.312865  0.249977  0.219230  1
  Ho  Ho15  1  0.812865  0.250023  0.280770  1
  Ho  Ho16  1  0.676828  0.749831  0.785862  1
  Ho  Ho17  1  0.176828  0.750169  0.714138  1
  Tm  Tm18  1  0.684749  0.570849  0.055341  1
  Tm  Tm19  1  0.184749  0.929151  0.444659  1
  Ga  Ga20  1  0.410398  0.749693  0.960154  1
  Ga  Ga21  1  0.910398  0.750307  0.539846  1
  Bi  Bi22  1  0.592940  0.250938  0.042479  1
  Bi  Bi23  1  0.092940  0.249062  0.457521  1
  Bi  Bi24  1  0.562781  0.996416  0.324417  1
  Bi  Bi25  1  0.062781  0.503584  0.175583  1
  Bi  Bi26  1  0.436971  0.498050  0.676353  1
  Bi  Bi27  1  0.936971  0.001950  0.823647  1
  Bi  Bi28  1  0.436812  0.001905  0.676130  1
  Bi  Bi29  1  0.936812  0.498095  0.823870  1
  Bi  Bi30  1  0.562887  0.503327  0.324272  1
  Bi  Bi31  1  0.062887  0.996673  0.175728  1
