# generated using pymatgen
data_LuZnInNi3
_symmetry_space_group_name_H-M   'P 1'
_cell_length_a   4.96668601
_cell_length_b   4.96668643
_cell_length_c   4.96668512
_cell_angle_alpha   61.54471631
_cell_angle_beta   61.54471537
_cell_angle_gamma   61.54470889
_symmetry_Int_Tables_number   1
_chemical_formula_structural   LuZnInNi3
_chemical_formula_sum   'Lu1 Zn1 In1 Ni3'
_cell_volume   89.63639984
_cell_formula_units_Z   1
loop_
 _symmetry_equiv_pos_site_id
 _symmetry_equiv_pos_as_xyz
  1  'x, y, z'
loop_
 _atom_site_type_symbol
 _atom_site_label
 _atom_site_symmetry_multiplicity
 _atom_site_fract_x
 _atom_site_fract_y
 _atom_site_fract_z
 _atom_site_occupancy
  Lu  Lu0  1  0.246751  0.246751  0.246751  1
  Zn  Zn1  1  0.625855  0.625855  0.625855  1
  In  In2  1  0.999059  0.999059  0.999059  1
  Ni  Ni3  1  0.626882  0.626882  0.124571  1
  Ni  Ni4  1  0.626882  0.124571  0.626882  1
  Ni  Ni5  1  0.124571  0.626882  0.626882  1
