# generated using pymatgen
data_Yb2NpRh3
_symmetry_space_group_name_H-M   'P 1'
_cell_length_a   5.24207267
_cell_length_b   5.24209111
_cell_length_c   5.24205458
_cell_angle_alpha   67.55529427
_cell_angle_beta   67.55523033
_cell_angle_gamma   67.55516658
_symmetry_Int_Tables_number   1
_chemical_formula_structural   Yb2NpRh3
_chemical_formula_sum   'Yb2 Np1 Rh3'
_cell_volume   118.26099446
_cell_formula_units_Z   1
loop_
 _symmetry_equiv_pos_site_id
 _symmetry_equiv_pos_as_xyz
  1  'x, y, z'
loop_
 _atom_site_type_symbol
 _atom_site_label
 _atom_site_symmetry_multiplicity
 _atom_site_fract_x
 _atom_site_fract_y
 _atom_site_fract_z
 _atom_site_occupancy
  Yb  Yb0  1  0.375830  0.375830  0.375830  1
  Yb  Yb1  1  0.624170  0.624170  0.624170  1
  Np  Np2  1  0.000000  0.000000  0.000000  1
  Rh  Rh3  1  0.500000  0.000000  0.000000  1
  Rh  Rh4  1  0.000000  0.500000  0.000000  1
  Rh  Rh5  1  0.000000  0.000000  0.500001  1
