# generated using pymatgen
data_Sr2LiSiI
_symmetry_space_group_name_H-M   'P 1'
_cell_length_a   4.52841300
_cell_length_b   4.52841574
_cell_length_c   17.57446400
_cell_angle_alpha   90.00000000
_cell_angle_beta   90.00000000
_cell_angle_gamma   120.00000187
_symmetry_Int_Tables_number   1
_chemical_formula_structural   Sr2LiSiI
_chemical_formula_sum   'Sr4 Li2 Si2 I2'
_cell_volume   312.10809446
_cell_formula_units_Z   2
loop_
 _symmetry_equiv_pos_site_id
 _symmetry_equiv_pos_as_xyz
  1  'x, y, z'
loop_
 _atom_site_type_symbol
 _atom_site_label
 _atom_site_symmetry_multiplicity
 _atom_site_fract_x
 _atom_site_fract_y
 _atom_site_fract_z
 _atom_site_occupancy
  Sr  Sr0  1  0.000000  0.000000  0.391610  1
  Sr  Sr1  1  0.000000  0.000000  0.891610  1
  Sr  Sr2  1  0.000000  0.000000  0.607612  1
  Sr  Sr3  1  0.000000  0.000000  0.107612  1
  Li  Li4  1  0.333333  0.666667  0.499838  1
  Li  Li5  1  0.666667  0.333333  0.999838  1
  Si  Si6  1  0.666667  0.333333  0.499385  1
  Si  Si7  1  0.333333  0.666667  0.999385  1
  I  I8  1  0.333333  0.666667  0.251554  1
  I  I9  1  0.666667  0.333333  0.751554  1
