# generated using pymatgen
data_KNd6OsI12
_symmetry_space_group_name_H-M   'P 1'
_cell_length_a   10.09224055
_cell_length_b   10.09224048
_cell_length_c   10.09223977
_cell_angle_alpha   105.60750935
_cell_angle_beta   105.60750578
_cell_angle_gamma   105.60750481
_symmetry_Int_Tables_number   1
_chemical_formula_structural   KNd6OsI12
_chemical_formula_sum   'K1 Nd6 Os1 I12'
_cell_volume   886.57982834
_cell_formula_units_Z   1
loop_
 _symmetry_equiv_pos_site_id
 _symmetry_equiv_pos_as_xyz
  1  'x, y, z'
loop_
 _atom_site_type_symbol
 _atom_site_label
 _atom_site_symmetry_multiplicity
 _atom_site_fract_x
 _atom_site_fract_y
 _atom_site_fract_z
 _atom_site_occupancy
  K  K0  1  0.500000  0.500000  0.500000  1
  Nd  Nd1  1  0.020602  0.095250  0.299096  1
  Nd  Nd2  1  0.299097  0.020601  0.095249  1
  Nd  Nd3  1  0.095249  0.299097  0.020601  1
  Nd  Nd4  1  0.979398  0.904750  0.700904  1
  Nd  Nd5  1  0.700903  0.979399  0.904751  1
  Nd  Nd6  1  0.904751  0.700903  0.979399  1
  Os  Os7  1  0.000000  0.000000  0.000000  1
  I  I8  1  0.563480  0.644297  0.876874  1
  I  I9  1  0.876875  0.563480  0.644296  1
  I  I10  1  0.644295  0.876875  0.563481  1
  I  I11  1  0.436520  0.355703  0.123126  1
  I  I12  1  0.123125  0.436520  0.355704  1
  I  I13  1  0.355705  0.123125  0.436519  1
  I  I14  1  0.076228  0.223946  0.680091  1
  I  I15  1  0.680092  0.076228  0.223946  1
  I  I16  1  0.223947  0.680091  0.076228  1
  I  I17  1  0.923772  0.776054  0.319909  1
  I  I18  1  0.319908  0.923772  0.776054  1
  I  I19  1  0.776053  0.319909  0.923772  1
