# generated using pymatgen
data_Lu4ScZn2Bi
_symmetry_space_group_name_H-M   'P 1'
_cell_length_a   8.40883433
_cell_length_b   8.40883438
_cell_length_c   8.40883517
_cell_angle_alpha   124.03093872
_cell_angle_beta   124.03093349
_cell_angle_gamma   83.14939267
_symmetry_Int_Tables_number   1
_chemical_formula_structural   Lu4ScZn2Bi
_chemical_formula_sum   'Lu8 Sc2 Zn4 Bi2'
_cell_volume   391.74134717
_cell_formula_units_Z   2
loop_
 _symmetry_equiv_pos_site_id
 _symmetry_equiv_pos_as_xyz
  1  'x, y, z'
loop_
 _atom_site_type_symbol
 _atom_site_label
 _atom_site_symmetry_multiplicity
 _atom_site_fract_x
 _atom_site_fract_y
 _atom_site_fract_z
 _atom_site_occupancy
  Lu  Lu0  1  0.795247  0.295247  0.807298  1
  Lu  Lu1  1  0.204753  0.704753  0.192702  1
  Lu  Lu2  1  0.487951  0.987951  0.192702  1
  Lu  Lu3  1  0.295247  0.487951  0.500000  1
  Lu  Lu4  1  0.012049  0.204753  0.500000  1
  Lu  Lu5  1  0.512049  0.012049  0.807298  1
  Lu  Lu6  1  0.704753  0.512049  0.500000  1
  Lu  Lu7  1  0.987951  0.795247  0.500000  1
  Sc  Sc8  1  0.000000  0.000000  0.000000  1
  Sc  Sc9  1  0.500000  0.500000  0.000000  1
  Zn  Zn10  1  0.138469  0.638469  0.776938  1
  Zn  Zn11  1  0.861531  0.361531  0.223062  1
  Zn  Zn12  1  0.638469  0.861531  0.500000  1
  Zn  Zn13  1  0.361531  0.138469  0.500000  1
  Bi  Bi14  1  0.250000  0.250000  0.000000  1
  Bi  Bi15  1  0.750000  0.750000  0.000000  1
