# generated using pymatgen
data_Sc3B2OsRh4
_symmetry_space_group_name_H-M   'P 1'
_cell_length_a   9.58335900
_cell_length_b   9.58335900
_cell_length_c   3.07936300
_cell_angle_alpha   90.00000000
_cell_angle_beta   90.00000000
_cell_angle_gamma   90.00000000
_symmetry_Int_Tables_number   1
_chemical_formula_structural   Sc3B2OsRh4
_chemical_formula_sum   'Sc6 B4 Os2 Rh8'
_cell_volume   282.81106818
_cell_formula_units_Z   2
loop_
 _symmetry_equiv_pos_site_id
 _symmetry_equiv_pos_as_xyz
  1  'x, y, z'
loop_
 _atom_site_type_symbol
 _atom_site_label
 _atom_site_symmetry_multiplicity
 _atom_site_fract_x
 _atom_site_fract_y
 _atom_site_fract_z
 _atom_site_occupancy
  Sc  Sc0  1  0.825718  0.325718  0.000000  1
  Sc  Sc1  1  0.325718  0.174282  0.000000  1
  Sc  Sc2  1  0.674282  0.825718  0.000000  1
  Sc  Sc3  1  0.174282  0.674282  0.000000  1
  Sc  Sc4  1  0.000000  0.000000  0.000000  1
  Sc  Sc5  1  0.500000  0.500000  0.000000  1
  B  B6  1  0.619605  0.119605  0.000000  1
  B  B7  1  0.119605  0.380395  0.000000  1
  B  B8  1  0.880395  0.619605  0.000000  1
  B  B9  1  0.380395  0.880395  0.000000  1
  Os  Os10  1  0.500000  0.000000  0.500000  1
  Os  Os11  1  0.000000  0.500000  0.500000  1
  Rh  Rh12  1  0.074043  0.220636  0.500000  1
  Rh  Rh13  1  0.220636  0.925957  0.500000  1
  Rh  Rh14  1  0.779364  0.074043  0.500000  1
  Rh  Rh15  1  0.925957  0.779364  0.500000  1
  Rh  Rh16  1  0.425957  0.720636  0.500000  1
  Rh  Rh17  1  0.574043  0.279364  0.500000  1
  Rh  Rh18  1  0.720636  0.574043  0.500000  1
  Rh  Rh19  1  0.279364  0.425957  0.500000  1
