# generated using pymatgen
data_Nb4Si2Ir3Ru7
_symmetry_space_group_name_H-M   'P 1'
_cell_length_a   4.03744200
_cell_length_b   5.44932378
_cell_length_c   10.75671250
_cell_angle_alpha   89.67711368
_cell_angle_beta   90.00000000
_cell_angle_gamma   90.00000000
_symmetry_Int_Tables_number   1
_chemical_formula_structural   Nb4Si2Ir3Ru7
_chemical_formula_sum   'Nb4 Si2 Ir3 Ru7'
_cell_volume   236.65820939
_cell_formula_units_Z   1
loop_
 _symmetry_equiv_pos_site_id
 _symmetry_equiv_pos_as_xyz
  1  'x, y, z'
loop_
 _atom_site_type_symbol
 _atom_site_label
 _atom_site_symmetry_multiplicity
 _atom_site_fract_x
 _atom_site_fract_y
 _atom_site_fract_z
 _atom_site_occupancy
  Nb  Nb0  1  0.500000  0.824270  0.363906  1
  Nb  Nb1  1  0.500000  0.168388  0.639921  1
  Nb  Nb2  1  0.500000  0.327390  0.136412  1
  Nb  Nb3  1  0.500000  0.680549  0.859998  1
  Si  Si4  1  0.000000  0.497950  0.501753  1
  Si  Si5  1  0.000000  0.002742  0.999169  1
  Ir  Ir6  1  0.000000  0.572866  0.248366  1
  Ir  Ir7  1  0.000000  0.424876  0.751391  1
  Ir  Ir8  1  0.000000  0.073122  0.250795  1
  Ru  Ru9  1  0.000000  0.506318  0.998898  1
  Ru  Ru10  1  0.000000  0.997293  0.499918  1
  Ru  Ru11  1  0.000000  0.924668  0.749378  1
  Ru  Ru12  1  0.500000  0.822729  0.106477  1
  Ru  Ru13  1  0.500000  0.182003  0.894443  1
  Ru  Ru14  1  0.500000  0.319420  0.393387  1
  Ru  Ru15  1  0.500000  0.675415  0.605787  1
