# generated using pymatgen
data_Cs2LiRh3F12
_symmetry_space_group_name_H-M   'P 1'
_cell_length_a   7.54483299
_cell_length_b   7.54483329
_cell_length_c   7.54483347
_cell_angle_alpha   58.81973053
_cell_angle_beta   58.81972952
_cell_angle_gamma   58.81973445
_symmetry_Int_Tables_number   1
_chemical_formula_structural   Cs2LiRh3F12
_chemical_formula_sum   'Cs2 Li1 Rh3 F12'
_cell_volume   295.50770946
_cell_formula_units_Z   1
loop_
 _symmetry_equiv_pos_site_id
 _symmetry_equiv_pos_as_xyz
  1  'x, y, z'
loop_
 _atom_site_type_symbol
 _atom_site_label
 _atom_site_symmetry_multiplicity
 _atom_site_fract_x
 _atom_site_fract_y
 _atom_site_fract_z
 _atom_site_occupancy
  Cs  Cs0  1  0.367660  0.367660  0.367660  1
  Cs  Cs1  1  0.632340  0.632340  0.632340  1
  Li  Li2  1  0.000000  0.000000  0.000000  1
  Rh  Rh3  1  0.500000  0.000000  0.000000  1
  Rh  Rh4  1  0.000000  0.000000  0.500000  1
  Rh  Rh5  1  0.000000  0.500000  0.000000  1
  F  F6  1  0.916952  0.325653  0.325653  1
  F  F7  1  0.333858  0.925693  0.925693  1
  F  F8  1  0.325653  0.325653  0.916952  1
  F  F9  1  0.925693  0.925693  0.333858  1
  F  F10  1  0.925693  0.333858  0.925693  1
  F  F11  1  0.325653  0.916952  0.325653  1
  F  F12  1  0.083048  0.674347  0.674347  1
  F  F13  1  0.666142  0.074307  0.074307  1
  F  F14  1  0.674347  0.674347  0.083048  1
  F  F15  1  0.074307  0.074307  0.666142  1
  F  F16  1  0.074307  0.666142  0.074307  1
  F  F17  1  0.674347  0.083048  0.674347  1
