# generated using pymatgen
data_Zr2TiTcGe2
_symmetry_space_group_name_H-M   'P 1'
_cell_length_a   3.60668200
_cell_length_b   6.99670500
_cell_length_c   8.36402400
_cell_angle_alpha   90.00000000
_cell_angle_beta   90.00000000
_cell_angle_gamma   90.00000000
_symmetry_Int_Tables_number   1
_chemical_formula_structural   Zr2TiTcGe2
_chemical_formula_sum   'Zr4 Ti2 Tc2 Ge4'
_cell_volume   211.06522545
_cell_formula_units_Z   2
loop_
 _symmetry_equiv_pos_site_id
 _symmetry_equiv_pos_as_xyz
  1  'x, y, z'
loop_
 _atom_site_type_symbol
 _atom_site_label
 _atom_site_symmetry_multiplicity
 _atom_site_fract_x
 _atom_site_fract_y
 _atom_site_fract_z
 _atom_site_occupancy
  Zr  Zr0  1  0.250000  0.551884  0.835721  1
  Zr  Zr1  1  0.250000  0.051884  0.664279  1
  Zr  Zr2  1  0.750000  0.457168  0.166498  1
  Zr  Zr3  1  0.750000  0.957168  0.333502  1
  Ti  Ti4  1  0.250000  0.618173  0.443944  1
  Ti  Ti5  1  0.250000  0.118173  0.056056  1
  Tc  Tc6  1  0.750000  0.371308  0.558533  1
  Tc  Tc7  1  0.750000  0.871308  0.941467  1
  Ge  Ge8  1  0.250000  0.751971  0.142819  1
  Ge  Ge9  1  0.250000  0.251971  0.357181  1
  Ge  Ge10  1  0.750000  0.249497  0.859814  1
  Ge  Ge11  1  0.750000  0.749497  0.640186  1
