# generated using pymatgen
data_NdEuNi2(As2Pd)2
_symmetry_space_group_name_H-M   'P 1'
_cell_length_a   4.33111000
_cell_length_b   4.33111000
_cell_length_c   9.76649600
_cell_angle_alpha   90.00000000
_cell_angle_beta   90.00000000
_cell_angle_gamma   90.00000000
_symmetry_Int_Tables_number   1
_chemical_formula_structural   NdEuNi2(As2Pd)2
_chemical_formula_sum   'Nd1 Eu1 Ni2 As4 Pd2'
_cell_volume   183.20495031
_cell_formula_units_Z   1
loop_
 _symmetry_equiv_pos_site_id
 _symmetry_equiv_pos_as_xyz
  1  'x, y, z'
loop_
 _atom_site_type_symbol
 _atom_site_label
 _atom_site_symmetry_multiplicity
 _atom_site_fract_x
 _atom_site_fract_y
 _atom_site_fract_z
 _atom_site_occupancy
  Nd  Nd0  1  0.000000  0.500000  0.259689  1
  Eu  Eu1  1  0.500000  0.000000  0.741792  1
  Ni  Ni2  1  0.500000  0.000000  0.387030  1
  Ni  Ni3  1  0.000000  0.500000  0.609726  1
  As  As4  1  0.500000  0.000000  0.146551  1
  As  As5  1  0.000000  0.500000  0.851668  1
  As  As6  1  0.500000  0.500000  0.500116  1
  As  As7  1  0.000000  0.000000  0.500116  1
  Pd  Pd8  1  0.500000  0.500000  0.001656  1
  Pd  Pd9  1  0.000000  0.000000  0.001656  1
