# generated using pymatgen
data_Dy2Ga2Fe2C
_symmetry_space_group_name_H-M   'P 1'
_cell_length_a   5.75523771
_cell_length_b   5.75523680
_cell_length_c   6.96669777
_cell_angle_alpha   53.79443854
_cell_angle_beta   53.79443427
_cell_angle_gamma   40.34744319
_symmetry_Int_Tables_number   1
_chemical_formula_structural   Dy2Ga2Fe2C
_chemical_formula_sum   'Dy2 Ga2 Fe2 C1'
_cell_volume   116.10650228
_cell_formula_units_Z   1
loop_
 _symmetry_equiv_pos_site_id
 _symmetry_equiv_pos_as_xyz
  1  'x, y, z'
loop_
 _atom_site_type_symbol
 _atom_site_label
 _atom_site_symmetry_multiplicity
 _atom_site_fract_x
 _atom_site_fract_y
 _atom_site_fract_z
 _atom_site_occupancy
  Dy  Dy0  1  0.443201  0.443201  0.285437  1
  Dy  Dy1  1  0.556799  0.556799  0.714563  1
  Ga  Ga2  1  0.839398  0.839398  0.710240  1
  Ga  Ga3  1  0.160602  0.160602  0.289760  1
  Fe  Fe4  1  0.806321  0.806321  0.088115  1
  Fe  Fe5  1  0.193679  0.193679  0.911885  1
  C  C6  1  0.000000  0.000000  0.000000  1
