# generated using pymatgen
data_HfZrP2
_symmetry_space_group_name_H-M   'P 1'
_cell_length_a   3.68619100
_cell_length_b   3.68618984
_cell_length_c   12.52182600
_cell_angle_alpha   90.00000000
_cell_angle_beta   90.00000000
_cell_angle_gamma   120.00000142
_symmetry_Int_Tables_number   1
_chemical_formula_structural   HfZrP2
_chemical_formula_sum   'Hf2 Zr2 P4'
_cell_volume   147.35124936
_cell_formula_units_Z   2
loop_
 _symmetry_equiv_pos_site_id
 _symmetry_equiv_pos_as_xyz
  1  'x, y, z'
loop_
 _atom_site_type_symbol
 _atom_site_label
 _atom_site_symmetry_multiplicity
 _atom_site_fract_x
 _atom_site_fract_y
 _atom_site_fract_z
 _atom_site_occupancy
  Hf  Hf0  1  0.333333  0.666667  0.383955  1
  Hf  Hf1  1  0.666667  0.333333  0.883955  1
  Zr  Zr2  1  0.666667  0.333333  0.615931  1
  Zr  Zr3  1  0.333333  0.666667  0.115931  1
  P  P4  1  0.666667  0.333333  0.252333  1
  P  P5  1  0.333333  0.666667  0.752333  1
  P  P6  1  0.000000  0.000000  0.497781  1
  P  P7  1  0.000000  0.000000  0.997781  1
