# generated using pymatgen
data_Tb3ScGa2Pt3
_symmetry_space_group_name_H-M   'P 1'
_cell_length_a   7.25275800
_cell_length_b   7.28622890
_cell_length_c   4.10757800
_cell_angle_alpha   90.00000000
_cell_angle_beta   90.00000000
_cell_angle_gamma   119.84815692
_symmetry_Int_Tables_number   1
_chemical_formula_structural   Tb3ScGa2Pt3
_chemical_formula_sum   'Tb3 Sc1 Ga2 Pt3'
_cell_volume   188.27164563
_cell_formula_units_Z   1
loop_
 _symmetry_equiv_pos_site_id
 _symmetry_equiv_pos_as_xyz
  1  'x, y, z'
loop_
 _atom_site_type_symbol
 _atom_site_label
 _atom_site_symmetry_multiplicity
 _atom_site_fract_x
 _atom_site_fract_y
 _atom_site_fract_z
 _atom_site_occupancy
  Tb  Tb0  1  0.611464  0.000000  0.500000  1
  Tb  Tb1  1  0.413582  0.426239  0.500000  1
  Tb  Tb2  1  0.987343  0.573761  0.500000  1
  Sc  Sc3  1  0.238278  0.000000  0.000000  1
  Ga  Ga4  1  0.001671  0.249921  0.000000  1
  Ga  Ga5  1  0.751749  0.750080  0.000000  1
  Pt  Pt6  1  0.660119  0.328192  0.000000  1
  Pt  Pt7  1  0.331928  0.671808  0.000000  1
  Pt  Pt8  1  0.003867  0.000000  0.500000  1
