# generated using pymatgen
data_Mg(TaPd4)3
_symmetry_space_group_name_H-M   'P 1'
_cell_length_a   5.60152200
_cell_length_b   5.60152170
_cell_length_c   9.18899700
_cell_angle_alpha   90.00000000
_cell_angle_beta   90.00000000
_cell_angle_gamma   120.00000180
_symmetry_Int_Tables_number   1
_chemical_formula_structural   Mg(TaPd4)3
_chemical_formula_sum   'Mg1 Ta3 Pd12'
_cell_volume   249.69554965
_cell_formula_units_Z   1
loop_
 _symmetry_equiv_pos_site_id
 _symmetry_equiv_pos_as_xyz
  1  'x, y, z'
loop_
 _atom_site_type_symbol
 _atom_site_label
 _atom_site_symmetry_multiplicity
 _atom_site_fract_x
 _atom_site_fract_y
 _atom_site_fract_z
 _atom_site_occupancy
  Mg  Mg0  1  0.333333  0.666667  0.250000  1
  Ta  Ta1  1  0.000000  0.000000  0.493989  1
  Ta  Ta2  1  0.000000  0.000000  0.006011  1
  Ta  Ta3  1  0.666667  0.333333  0.750000  1
  Pd  Pd4  1  0.501774  0.498226  0.503467  1
  Pd  Pd5  1  0.501774  0.003547  0.503467  1
  Pd  Pd6  1  0.996453  0.498226  0.503467  1
  Pd  Pd7  1  0.501774  0.498226  0.996533  1
  Pd  Pd8  1  0.501774  0.003547  0.996533  1
  Pd  Pd9  1  0.996453  0.498226  0.996533  1
  Pd  Pd10  1  0.833178  0.666357  0.250000  1
  Pd  Pd11  1  0.333643  0.166822  0.250000  1
  Pd  Pd12  1  0.833178  0.166822  0.250000  1
  Pd  Pd13  1  0.165362  0.330723  0.750000  1
  Pd  Pd14  1  0.669277  0.834638  0.750000  1
  Pd  Pd15  1  0.165362  0.834638  0.750000  1
