# generated using pymatgen
data_Y2Er4ScCo17P12
_symmetry_space_group_name_H-M   'P 1'
_cell_length_a   3.71063200
_cell_length_b   10.58889800
_cell_length_c   12.27649500
_cell_angle_alpha   90.00000000
_cell_angle_beta   90.00000000
_cell_angle_gamma   90.00000000
_symmetry_Int_Tables_number   1
_chemical_formula_structural   Y2Er4ScCo17P12
_chemical_formula_sum   'Y2 Er4 Sc1 Co17 P12'
_cell_volume   482.36194950
_cell_formula_units_Z   1
loop_
 _symmetry_equiv_pos_site_id
 _symmetry_equiv_pos_as_xyz
  1  'x, y, z'
loop_
 _atom_site_type_symbol
 _atom_site_label
 _atom_site_symmetry_multiplicity
 _atom_site_fract_x
 _atom_site_fract_y
 _atom_site_fract_z
 _atom_site_occupancy
  Y  Y0  1  0.000000  0.500000  0.527752  1
  Y  Y1  1  0.500000  0.000000  0.477590  1
  Er  Er2  1  0.500000  0.821742  0.207422  1
  Er  Er3  1  0.500000  0.178258  0.207422  1
  Er  Er4  1  0.000000  0.682414  0.795773  1
  Er  Er5  1  0.000000  0.317586  0.795773  1
  Sc  Sc6  1  0.500000  0.500000  0.152490  1
  Co  Co7  1  0.000000  0.000000  0.837208  1
  Co  Co8  1  0.500000  0.500000  0.704392  1
  Co  Co9  1  0.000000  0.000000  0.295021  1
  Co  Co10  1  0.000000  0.500000  0.984266  1
  Co  Co11  1  0.500000  0.000000  0.013469  1
  Co  Co12  1  0.500000  0.326609  0.989527  1
  Co  Co13  1  0.500000  0.673391  0.989527  1
  Co  Co14  1  0.000000  0.162181  0.001489  1
  Co  Co15  1  0.000000  0.837819  0.001489  1
  Co  Co16  1  0.500000  0.294540  0.434032  1
  Co  Co17  1  0.500000  0.705460  0.434032  1
  Co  Co18  1  0.000000  0.202085  0.570887  1
  Co  Co19  1  0.000000  0.797915  0.570887  1
  Co  Co20  1  0.500000  0.880061  0.708276  1
  Co  Co21  1  0.500000  0.119939  0.708276  1
  Co  Co22  1  0.000000  0.622958  0.295836  1
  Co  Co23  1  0.000000  0.377042  0.295836  1
  P  P24  1  0.500000  0.500000  0.882742  1
  P  P25  1  0.000000  0.000000  0.116417  1
  P  P26  1  0.500000  0.500000  0.357677  1
  P  P27  1  0.000000  0.000000  0.655226  1
  P  P28  1  0.500000  0.309234  0.618604  1
  P  P29  1  0.500000  0.690766  0.618604  1
  P  P30  1  0.000000  0.188786  0.385473  1
  P  P31  1  0.000000  0.811214  0.385473  1
  P  P32  1  0.500000  0.851379  0.888683  1
  P  P33  1  0.500000  0.148621  0.888683  1
  P  P34  1  0.000000  0.663870  0.101872  1
  P  P35  1  0.000000  0.336130  0.101872  1
