# generated using pymatgen
data_Sr3Ca9Al2(GaAs6)2
_symmetry_space_group_name_H-M   'P 1'
_cell_length_a   4.27786100
_cell_length_b   12.36562207
_cell_length_c   13.69297128
_cell_angle_alpha   90.01596942
_cell_angle_beta   90.00000000
_cell_angle_gamma   90.00000000
_symmetry_Int_Tables_number   1
_chemical_formula_structural   Sr3Ca9Al2(GaAs6)2
_chemical_formula_sum   'Sr3 Ca9 Al2 Ga2 As12'
_cell_volume   724.33641361
_cell_formula_units_Z   1
loop_
 _symmetry_equiv_pos_site_id
 _symmetry_equiv_pos_as_xyz
  1  'x, y, z'
loop_
 _atom_site_type_symbol
 _atom_site_label
 _atom_site_symmetry_multiplicity
 _atom_site_fract_x
 _atom_site_fract_y
 _atom_site_fract_z
 _atom_site_occupancy
  Sr  Sr0  1  0.250000  0.850330  0.497271  1
  Sr  Sr1  1  0.250000  0.352107  0.002886  1
  Sr  Sr2  1  0.750000  0.149123  0.503183  1
  Ca  Ca3  1  0.750000  0.225635  0.213769  1
  Ca  Ca4  1  0.750000  0.435643  0.392379  1
  Ca  Ca5  1  0.250000  0.565559  0.609001  1
  Ca  Ca6  1  0.750000  0.934393  0.106651  1
  Ca  Ca7  1  0.250000  0.064632  0.891637  1
  Ca  Ca8  1  0.250000  0.274803  0.715120  1
  Ca  Ca9  1  0.750000  0.724999  0.282726  1
  Ca  Ca10  1  0.250000  0.773477  0.788442  1
  Ca  Ca11  1  0.750000  0.648601  0.001393  1
  Al  Al12  1  0.250000  0.561231  0.203985  1
  Al  Al13  1  0.750000  0.440025  0.796847  1
  Ga  Ga14  1  0.750000  0.936483  0.705558  1
  Ga  Ga15  1  0.250000  0.062527  0.294437  1
  As  As16  1  0.750000  0.461831  0.152964  1
  As  As17  1  0.250000  0.542302  0.847885  1
  As  As18  1  0.750000  0.957096  0.343914  1
  As  As19  1  0.250000  0.042113  0.655710  1
  As  As20  1  0.750000  0.398657  0.615714  1
  As  As21  1  0.250000  0.603129  0.384181  1
  As  As22  1  0.750000  0.895741  0.888249  1
  As  As23  1  0.250000  0.103089  0.112574  1
  As  As24  1  0.750000  0.250694  0.869036  1
  As  As25  1  0.250000  0.745830  0.124258  1
  As  As26  1  0.750000  0.747505  0.630920  1
  As  As27  1  0.250000  0.252447  0.369308  1
