# generated using pymatgen
data_Tb7Y10Er3Pb16
_symmetry_space_group_name_H-M   'P 1'
_cell_length_a   8.21985605
_cell_length_b   8.30120370
_cell_length_c   15.69215712
_cell_angle_alpha   90.00748098
_cell_angle_beta   90.01220778
_cell_angle_gamma   90.02095932
_symmetry_Int_Tables_number   1
_chemical_formula_structural   Tb7Y10Er3Pb16
_chemical_formula_sum   'Tb7 Y10 Er3 Pb16'
_cell_volume   1070.74952075
_cell_formula_units_Z   1
loop_
 _symmetry_equiv_pos_site_id
 _symmetry_equiv_pos_as_xyz
  1  'x, y, z'
loop_
 _atom_site_type_symbol
 _atom_site_label
 _atom_site_symmetry_multiplicity
 _atom_site_fract_x
 _atom_site_fract_y
 _atom_site_fract_z
 _atom_site_occupancy
  Tb  Tb0  1  0.034442  0.176432  0.600096  1
  Tb  Tb1  1  0.465372  0.676679  0.399783  1
  Tb  Tb2  1  0.965350  0.823372  0.100138  1
  Tb  Tb3  1  0.465366  0.676665  0.100183  1
  Tb  Tb4  1  0.965389  0.823325  0.399859  1
  Tb  Tb5  1  0.534771  0.323171  0.600054  1
  Tb  Tb6  1  0.034438  0.176445  0.899926  1
  Y  Y7  1  0.377589  0.840983  0.879436  1
  Y  Y8  1  0.877019  0.659417  0.620543  1
  Y  Y9  1  0.622665  0.159158  0.379344  1
  Y  Y10  1  0.122604  0.340749  0.120753  1
  Y  Y11  1  0.622679  0.159156  0.120668  1
  Y  Y12  1  0.122626  0.340807  0.379232  1
  Y  Y13  1  0.377586  0.840996  0.620584  1
  Y  Y14  1  0.877036  0.659405  0.879462  1
  Y  Y15  1  0.534913  0.323255  0.899893  1
  Y  Y16  1  0.208971  0.503560  0.750033  1
  Er  Er17  1  0.709126  0.996069  0.750001  1
  Er  Er18  1  0.790907  0.496126  0.250015  1
  Er  Er19  1  0.290942  0.003787  0.249971  1
  Pb  Pb20  1  0.280948  0.032674  0.043125  1
  Pb  Pb21  1  0.781012  0.467362  0.456891  1
  Pb  Pb22  1  0.718972  0.967340  0.543013  1
  Pb  Pb23  1  0.219028  0.532845  0.957398  1
  Pb  Pb24  1  0.718941  0.967369  0.957005  1
  Pb  Pb25  1  0.219035  0.532886  0.542585  1
  Pb  Pb26  1  0.280971  0.032732  0.456915  1
  Pb  Pb27  1  0.780973  0.467309  0.043096  1
  Pb  Pb28  1  0.573157  0.626548  0.749965  1
  Pb  Pb29  1  0.072058  0.874534  0.750015  1
  Pb  Pb30  1  0.427751  0.373818  0.249987  1
  Pb  Pb31  1  0.927742  0.126096  0.250008  1
  Pb  Pb32  1  0.346691  0.151824  0.750069  1
  Pb  Pb33  1  0.845695  0.346928  0.750031  1
  Pb  Pb34  1  0.653653  0.847162  0.249956  1
  Pb  Pb35  1  0.153581  0.653015  0.249968  1
