# generated using pymatgen
data_Dy9Y3InCo4Ru
_symmetry_space_group_name_H-M   'P 1'
_cell_length_a   8.32927105
_cell_length_b   8.32206691
_cell_length_c   8.32247753
_cell_angle_alpha   106.80847330
_cell_angle_beta   110.46756761
_cell_angle_gamma   111.13748035
_symmetry_Int_Tables_number   1
_chemical_formula_structural   Dy9Y3InCo4Ru
_chemical_formula_sum   'Dy9 Y3 In1 Co4 Ru1'
_cell_volume   443.54328711
_cell_formula_units_Z   1
loop_
 _symmetry_equiv_pos_site_id
 _symmetry_equiv_pos_as_xyz
  1  'x, y, z'
loop_
 _atom_site_type_symbol
 _atom_site_label
 _atom_site_symmetry_multiplicity
 _atom_site_fract_x
 _atom_site_fract_y
 _atom_site_fract_z
 _atom_site_occupancy
  Dy  Dy0  1  0.526334  0.711141  0.815182  1
  Dy  Dy1  1  0.306736  0.619570  0.313384  1
  Dy  Dy2  1  0.306732  0.993403  0.687168  1
  Dy  Dy3  1  0.693484  0.380711  0.687134  1
  Dy  Dy4  1  0.693539  0.006442  0.312859  1
  Dy  Dy5  1  0.193161  0.213572  0.406372  1
  Dy  Dy6  1  0.807155  0.786764  0.594362  1
  Dy  Dy7  1  0.193147  0.786795  0.979577  1
  Dy  Dy8  1  0.807172  0.212810  0.020429  1
  Y  Y9  1  0.474757  0.288899  0.185886  1
  Y  Y10  1  0.102429  0.288575  0.813849  1
  Y  Y11  1  0.897867  0.711615  0.186257  1
  In  In12  1  0.999626  0.499927  0.499719  1
  Co  Co13  1  0.499501  0.611797  0.110256  1
  Co  Co14  1  0.499537  0.389123  0.887603  1
  Co  Co15  1  0.379025  0.999665  0.379315  1
  Co  Co16  1  0.620577  0.000042  0.620558  1
  Ru  Ru17  1  0.999219  0.999148  0.000085  1
