# generated using pymatgen
data_Ca12Cu13Si11
_symmetry_space_group_name_H-M   'P 1'
_cell_length_a   4.27905900
_cell_length_b   7.36103700
_cell_length_c   21.18826641
_cell_angle_alpha   89.97816707
_cell_angle_beta   90.00000000
_cell_angle_gamma   90.00000000
_symmetry_Int_Tables_number   1
_chemical_formula_structural   Ca12Cu13Si11
_chemical_formula_sum   'Ca12 Cu13 Si11'
_cell_volume   667.39456965
_cell_formula_units_Z   1
loop_
 _symmetry_equiv_pos_site_id
 _symmetry_equiv_pos_as_xyz
  1  'x, y, z'
loop_
 _atom_site_type_symbol
 _atom_site_label
 _atom_site_symmetry_multiplicity
 _atom_site_fract_x
 _atom_site_fract_y
 _atom_site_fract_z
 _atom_site_occupancy
  Ca  Ca0  1  0.250000  0.694465  0.002293  1
  Ca  Ca1  1  0.750000  0.297379  0.997757  1
  Ca  Ca2  1  0.750000  0.205457  0.497821  1
  Ca  Ca3  1  0.250000  0.793836  0.501756  1
  Ca  Ca4  1  0.250000  0.799090  0.166412  1
  Ca  Ca5  1  0.750000  0.205855  0.835020  1
  Ca  Ca6  1  0.750000  0.298943  0.333874  1
  Ca  Ca7  1  0.250000  0.696445  0.665890  1
  Ca  Ca8  1  0.250000  0.699956  0.333094  1
  Ca  Ca9  1  0.750000  0.303979  0.665991  1
  Ca  Ca10  1  0.750000  0.199951  0.167167  1
  Ca  Ca11  1  0.250000  0.799882  0.831895  1
  Cu  Cu12  1  0.250000  0.413008  0.099849  1
  Cu  Cu13  1  0.750000  0.601558  0.900843  1
  Cu  Cu14  1  0.750000  0.913673  0.401532  1
  Cu  Cu15  1  0.250000  0.085257  0.598529  1
  Cu  Cu16  1  0.250000  0.412974  0.234794  1
  Cu  Cu17  1  0.750000  0.583530  0.767380  1
  Cu  Cu18  1  0.750000  0.912850  0.265624  1
  Cu  Cu19  1  0.250000  0.089722  0.734415  1
  Cu  Cu20  1  0.250000  0.420350  0.438978  1
  Cu  Cu21  1  0.750000  0.579837  0.560269  1
  Cu  Cu22  1  0.750000  0.920119  0.060614  1
  Cu  Cu23  1  0.250000  0.066222  0.945754  1
  Cu  Cu24  1  0.250000  0.420462  0.889694  1
  Si  Si25  1  0.250000  0.090911  0.067600  1
  Si  Si26  1  0.750000  0.914415  0.935855  1
  Si  Si27  1  0.750000  0.591209  0.432944  1
  Si  Si28  1  0.250000  0.409813  0.563219  1
  Si  Si29  1  0.250000  0.080850  0.273615  1
  Si  Si30  1  0.750000  0.918940  0.726259  1
  Si  Si31  1  0.750000  0.580661  0.226739  1
  Si  Si32  1  0.250000  0.414780  0.769953  1
  Si  Si33  1  0.250000  0.083920  0.394567  1
  Si  Si34  1  0.750000  0.917048  0.606027  1
  Si  Si35  1  0.750000  0.582651  0.105974  1
