# generated using pymatgen
data_SrPr6SI12
_symmetry_space_group_name_H-M   'P 1'
_cell_length_a   9.95179602
_cell_length_b   9.95179504
_cell_length_c   9.95179603
_cell_angle_alpha   106.57935130
_cell_angle_beta   106.57935004
_cell_angle_gamma   106.57935059
_symmetry_Int_Tables_number   1
_chemical_formula_structural   SrPr6SI12
_chemical_formula_sum   'Sr1 Pr6 S1 I12'
_cell_volume   830.06277404
_cell_formula_units_Z   1
loop_
 _symmetry_equiv_pos_site_id
 _symmetry_equiv_pos_as_xyz
  1  'x, y, z'
loop_
 _atom_site_type_symbol
 _atom_site_label
 _atom_site_symmetry_multiplicity
 _atom_site_fract_x
 _atom_site_fract_y
 _atom_site_fract_z
 _atom_site_occupancy
  Sr  Sr0  1  0.000000  0.000000  0.000000  1
  Pr  Pr1  1  0.800009  0.521553  0.594610  1
  Pr  Pr2  1  0.521553  0.594610  0.800009  1
  Pr  Pr3  1  0.199991  0.478447  0.405390  1
  Pr  Pr4  1  0.478447  0.405390  0.199991  1
  Pr  Pr5  1  0.594610  0.800009  0.521553  1
  Pr  Pr6  1  0.405390  0.199991  0.478447  1
  S  S7  1  0.500000  0.500000  0.500000  1
  I  I8  1  0.731228  0.180828  0.577160  1
  I  I9  1  0.952380  0.871084  0.639582  1
  I  I10  1  0.577160  0.731228  0.180828  1
  I  I11  1  0.128916  0.360418  0.047620  1
  I  I12  1  0.639582  0.952380  0.871084  1
  I  I13  1  0.871084  0.639582  0.952380  1
  I  I14  1  0.047620  0.128916  0.360418  1
  I  I15  1  0.819172  0.422840  0.268772  1
  I  I16  1  0.360418  0.047620  0.128916  1
  I  I17  1  0.268772  0.819172  0.422840  1
  I  I18  1  0.180828  0.577160  0.731228  1
  I  I19  1  0.422840  0.268772  0.819172  1
