# generated using pymatgen
data_PrNd7Si13Ge
_symmetry_space_group_name_H-M   'P 1'
_cell_length_a   7.54643727
_cell_length_b   7.54623561
_cell_length_c   11.76035491
_cell_angle_alpha   89.96763579
_cell_angle_beta   90.01577666
_cell_angle_gamma   134.39453775
_symmetry_Int_Tables_number   1
_chemical_formula_structural   PrNd7Si13Ge
_chemical_formula_sum   'Pr1 Nd7 Si13 Ge1'
_cell_volume   478.54066340
_cell_formula_units_Z   1
loop_
 _symmetry_equiv_pos_site_id
 _symmetry_equiv_pos_as_xyz
  1  'x, y, z'
loop_
 _atom_site_type_symbol
 _atom_site_label
 _atom_site_symmetry_multiplicity
 _atom_site_fract_x
 _atom_site_fract_y
 _atom_site_fract_z
 _atom_site_occupancy
  Pr  Pr0  1  0.991694  0.991351  0.002571  1
  Nd  Nd1  1  0.502092  0.996846  0.123722  1
  Nd  Nd2  1  0.997862  0.501322  0.876641  1
  Nd  Nd3  1  0.498931  0.002091  0.623025  1
  Nd  Nd4  1  0.003059  0.498171  0.376620  1
  Nd  Nd5  1  0.496582  0.503594  0.250133  1
  Nd  Nd6  1  0.502652  0.497479  0.749882  1
  Nd  Nd7  1  0.008795  0.008593  0.497365  1
  Si  Si8  1  0.596919  0.425590  0.495787  1
  Si  Si9  1  0.423839  0.595343  0.504285  1
  Si  Si10  1  0.404453  0.576411  0.995782  1
  Si  Si11  1  0.574890  0.403029  0.004152  1
  Si  Si12  1  0.593425  0.929488  0.371960  1
  Si  Si13  1  0.929428  0.589881  0.626788  1
  Si  Si14  1  0.410502  0.071067  0.872720  1
  Si  Si15  1  0.070964  0.406841  0.128660  1
  Si  Si16  1  0.396099  0.072897  0.367589  1
  Si  Si17  1  0.070980  0.390459  0.633634  1
  Si  Si18  1  0.608203  0.928502  0.865928  1
  Si  Si19  1  0.926642  0.602580  0.132907  1
  Si  Si20  1  0.928781  0.071546  0.250810  1
  Ge  Ge21  1  0.063210  0.936920  0.749038  1
