# generated using pymatgen
data_LiLaPr2In3Pt2
_symmetry_space_group_name_H-M   'P 1'
_cell_length_a   7.92817300
_cell_length_b   7.88699826
_cell_length_c   4.04034400
_cell_angle_alpha   90.00000000
_cell_angle_beta   90.00000000
_cell_angle_gamma   120.17285052
_symmetry_Int_Tables_number   1
_chemical_formula_structural   LiLaPr2In3Pt2
_chemical_formula_sum   'Li1 La1 Pr2 In3 Pt2'
_cell_volume   218.41112951
_cell_formula_units_Z   1
loop_
 _symmetry_equiv_pos_site_id
 _symmetry_equiv_pos_as_xyz
  1  'x, y, z'
loop_
 _atom_site_type_symbol
 _atom_site_label
 _atom_site_symmetry_multiplicity
 _atom_site_fract_x
 _atom_site_fract_y
 _atom_site_fract_z
 _atom_site_occupancy
  Li  Li0  1  0.000103  0.000000  0.000000  1
  La  La1  1  0.579122  0.000000  0.000000  1
  Pr  Pr2  1  0.999988  0.580073  0.000000  1
  Pr  Pr3  1  0.419914  0.419927  0.000000  1
  In  In4  1  0.245544  0.000000  0.500000  1
  In  In5  1  0.000942  0.247689  0.500000  1
  In  In6  1  0.753253  0.752311  0.500000  1
  Pt  Pt7  1  0.334689  0.668245  0.500000  1
  Pt  Pt8  1  0.666445  0.331755  0.500000  1
