# generated using pymatgen
data_Cs(MnS2)4
_symmetry_space_group_name_H-M   'P 1'
_cell_length_a   6.72116935
_cell_length_b   6.72127176
_cell_length_c   9.40372315
_cell_angle_alpha   69.10706239
_cell_angle_beta   69.10707899
_cell_angle_gamma   59.89390408
_symmetry_Int_Tables_number   1
_chemical_formula_structural   Cs(MnS2)4
_chemical_formula_sum   'Cs1 Mn4 S8'
_cell_volume   334.93421714
_cell_formula_units_Z   1
loop_
 _symmetry_equiv_pos_site_id
 _symmetry_equiv_pos_as_xyz
  1  'x, y, z'
loop_
 _atom_site_type_symbol
 _atom_site_label
 _atom_site_symmetry_multiplicity
 _atom_site_fract_x
 _atom_site_fract_y
 _atom_site_fract_z
 _atom_site_occupancy
  Cs  Cs0  1  0.000000  0.000000  0.000000  1
  Mn  Mn1  1  0.000000  0.500000  0.500000  1
  Mn  Mn2  1  0.500000  0.000000  0.500000  1
  Mn  Mn3  1  0.000000  0.000000  0.500000  1
  Mn  Mn4  1  0.500000  0.500000  0.500000  1
  S  S5  1  0.217198  0.217203  0.346334  1
  S  S6  1  0.716985  0.716983  0.347448  1
  S  S7  1  0.716315  0.218484  0.347409  1
  S  S8  1  0.218482  0.716315  0.347410  1
  S  S9  1  0.283685  0.781516  0.652591  1
  S  S10  1  0.781518  0.283685  0.652590  1
  S  S11  1  0.782802  0.782797  0.653666  1
  S  S12  1  0.283015  0.283017  0.652552  1
