# generated using pymatgen
data_DyY3Si4(NiRu)2
_symmetry_space_group_name_H-M   'P 1'
_cell_length_a   4.24527500
_cell_length_b   6.93605529
_cell_length_c   7.17972950
_cell_angle_alpha   91.42136926
_cell_angle_beta   90.00000000
_cell_angle_gamma   90.00000000
_symmetry_Int_Tables_number   1
_chemical_formula_structural   DyY3Si4(NiRu)2
_chemical_formula_sum   'Dy1 Y3 Si4 Ni2 Ru2'
_cell_volume   211.34540377
_cell_formula_units_Z   1
loop_
 _symmetry_equiv_pos_site_id
 _symmetry_equiv_pos_as_xyz
  1  'x, y, z'
loop_
 _atom_site_type_symbol
 _atom_site_label
 _atom_site_symmetry_multiplicity
 _atom_site_fract_x
 _atom_site_fract_y
 _atom_site_fract_z
 _atom_site_occupancy
  Dy  Dy0  1  0.750000  0.511770  0.317138  1
  Y  Y1  1  0.250000  0.990029  0.800006  1
  Y  Y2  1  0.750000  0.010088  0.200076  1
  Y  Y3  1  0.250000  0.489021  0.681718  1
  Si  Si4  1  0.250000  0.301085  0.098083  1
  Si  Si5  1  0.750000  0.698660  0.902127  1
  Si  Si6  1  0.250000  0.804906  0.397253  1
  Si  Si7  1  0.750000  0.195303  0.602749  1
  Ni  Ni8  1  0.750000  0.836625  0.574711  1
  Ni  Ni9  1  0.250000  0.162907  0.424992  1
  Ru  Ru10  1  0.750000  0.345191  0.931079  1
  Ru  Ru11  1  0.250000  0.654414  0.070068  1
