# generated using pymatgen
data_LuU7B24Mo3W
_symmetry_space_group_name_H-M   'P 1'
_cell_length_a   3.68425900
_cell_length_b   9.26910731
_cell_length_c   11.35839296
_cell_angle_alpha   89.98307663
_cell_angle_beta   90.00000000
_cell_angle_gamma   90.00000000
_symmetry_Int_Tables_number   1
_chemical_formula_structural   LuU7B24Mo3W
_chemical_formula_sum   'Lu1 U7 B24 Mo3 W1'
_cell_volume   387.88674013
_cell_formula_units_Z   1
loop_
 _symmetry_equiv_pos_site_id
 _symmetry_equiv_pos_as_xyz
  1  'x, y, z'
loop_
 _atom_site_type_symbol
 _atom_site_label
 _atom_site_symmetry_multiplicity
 _atom_site_fract_x
 _atom_site_fract_y
 _atom_site_fract_z
 _atom_site_occupancy
  Lu  Lu0  1  0.000000  0.335137  0.408030  1
  U  U1  1  0.000000  0.664179  0.592224  1
  U  U2  1  0.000000  0.834594  0.092816  1
  U  U3  1  0.000000  0.165447  0.907507  1
  U  U4  1  0.000000  0.956744  0.394612  1
  U  U5  1  0.000000  0.045096  0.604587  1
  U  U6  1  0.000000  0.456062  0.105535  1
  U  U7  1  0.000000  0.543311  0.894850  1
  B  B8  1  0.500000  0.551314  0.433438  1
  B  B9  1  0.500000  0.450851  0.568272  1
  B  B10  1  0.500000  0.049777  0.066769  1
  B  B11  1  0.500000  0.950202  0.933134  1
  B  B12  1  0.500000  0.742511  0.424733  1
  B  B13  1  0.500000  0.256628  0.575926  1
  B  B14  1  0.500000  0.243761  0.076019  1
  B  B15  1  0.500000  0.756305  0.924433  1
  B  B16  1  0.500000  0.803414  0.273031  1
  B  B17  1  0.500000  0.196537  0.727128  1
  B  B18  1  0.500000  0.303041  0.225839  1
  B  B19  1  0.500000  0.696147  0.772317  1
  B  B20  1  0.500000  0.643710  0.187965  1
  B  B21  1  0.500000  0.355238  0.812523  1
  B  B22  1  0.500000  0.144006  0.312043  1
  B  B23  1  0.500000  0.855357  0.687289  1
  B  B24  1  0.500000  0.985812  0.218423  1
  B  B25  1  0.500000  0.014608  0.781248  1
  B  B26  1  0.500000  0.486327  0.281107  1
  B  B27  1  0.500000  0.514976  0.717938  1
  B  B28  1  0.500000  0.641881  0.039564  1
  B  B29  1  0.500000  0.358062  0.960787  1
  B  B30  1  0.500000  0.140487  0.460861  1
  B  B31  1  0.500000  0.857742  0.539449  1
  Mo  Mo32  1  0.000000  0.646851  0.319564  1
  Mo  Mo33  1  0.000000  0.355275  0.681863  1
  Mo  Mo34  1  0.000000  0.143629  0.177941  1
  W  W35  1  0.000000  0.854980  0.820237  1
