# generated using pymatgen
data_Lu4ReRu7
_symmetry_space_group_name_H-M   'P 1'
_cell_length_a   5.16632265
_cell_length_b   5.38314296
_cell_length_c   8.86613300
_cell_angle_alpha   90.00000000
_cell_angle_beta   90.00000000
_cell_angle_gamma   121.21145610
_symmetry_Int_Tables_number   1
_chemical_formula_structural   Lu4ReRu7
_chemical_formula_sum   'Lu4 Re1 Ru7'
_cell_volume   210.88718000
_cell_formula_units_Z   1
loop_
 _symmetry_equiv_pos_site_id
 _symmetry_equiv_pos_as_xyz
  1  'x, y, z'
loop_
 _atom_site_type_symbol
 _atom_site_label
 _atom_site_symmetry_multiplicity
 _atom_site_fract_x
 _atom_site_fract_y
 _atom_site_fract_z
 _atom_site_occupancy
  Lu  Lu0  1  0.669484  0.334068  0.566696  1
  Lu  Lu1  1  0.343054  0.671631  0.434405  1
  Lu  Lu2  1  0.343054  0.671631  0.065595  1
  Lu  Lu3  1  0.669484  0.334068  0.933304  1
  Re  Re4  1  0.320039  0.159474  0.250000  1
  Ru  Ru5  1  0.021040  0.010889  0.500889  1
  Ru  Ru6  1  0.021040  0.010889  0.999111  1
  Ru  Ru7  1  0.167040  0.336853  0.750000  1
  Ru  Ru8  1  0.163324  0.831245  0.750000  1
  Ru  Ru9  1  0.646568  0.823237  0.750000  1
  Ru  Ru10  1  0.817358  0.646624  0.250000  1
  Ru  Ru11  1  0.818515  0.169392  0.250000  1
