# generated using pymatgen
data_Zr6Ga7Ni16
_symmetry_space_group_name_H-M   'P 1'
_cell_length_a   8.25624396
_cell_length_b   8.25624390
_cell_length_c   8.25624400
_cell_angle_alpha   59.99999961
_cell_angle_beta   59.99999985
_cell_angle_gamma   60.00000197
_symmetry_Int_Tables_number   1
_chemical_formula_structural   Zr6Ga7Ni16
_chemical_formula_sum   'Zr6 Ga7 Ni16'
_cell_volume   397.95370988
_cell_formula_units_Z   1
loop_
 _symmetry_equiv_pos_site_id
 _symmetry_equiv_pos_as_xyz
  1  'x, y, z'
loop_
 _atom_site_type_symbol
 _atom_site_label
 _atom_site_symmetry_multiplicity
 _atom_site_fract_x
 _atom_site_fract_y
 _atom_site_fract_z
 _atom_site_occupancy
  Zr  Zr0  1  0.207272  0.792728  0.792728  1
  Zr  Zr1  1  0.207272  0.792728  0.207272  1
  Zr  Zr2  1  0.792728  0.207272  0.207272  1
  Zr  Zr3  1  0.792728  0.207272  0.792728  1
  Zr  Zr4  1  0.792728  0.792728  0.207272  1
  Zr  Zr5  1  0.207272  0.207272  0.792728  1
  Ga  Ga6  1  0.000000  0.000000  0.500000  1
  Ga  Ga7  1  0.500000  0.000000  0.500000  1
  Ga  Ga8  1  0.500000  0.500000  0.500000  1
  Ga  Ga9  1  0.000000  0.500000  0.000000  1
  Ga  Ga10  1  0.500000  0.500000  0.000000  1
  Ga  Ga11  1  0.500000  0.000000  0.000000  1
  Ga  Ga12  1  0.000000  0.500000  0.500000  1
  Ni  Ni13  1  0.379730  0.379730  0.379730  1
  Ni  Ni14  1  0.507143  0.830952  0.830952  1
  Ni  Ni15  1  0.620270  0.620270  0.139191  1
  Ni  Ni16  1  0.169048  0.169048  0.492857  1
  Ni  Ni17  1  0.830952  0.830952  0.507143  1
  Ni  Ni18  1  0.169048  0.169048  0.169048  1
  Ni  Ni19  1  0.830952  0.830952  0.830952  1
  Ni  Ni20  1  0.379730  0.379730  0.860809  1
  Ni  Ni21  1  0.830952  0.507143  0.830952  1
  Ni  Ni22  1  0.620270  0.620270  0.620270  1
  Ni  Ni23  1  0.379730  0.860809  0.379730  1
  Ni  Ni24  1  0.139191  0.620270  0.620270  1
  Ni  Ni25  1  0.620270  0.139191  0.620270  1
  Ni  Ni26  1  0.169048  0.492857  0.169048  1
  Ni  Ni27  1  0.860809  0.379730  0.379730  1
  Ni  Ni28  1  0.492857  0.169048  0.169048  1
