# generated using pymatgen
data_TbSm7(BeSi3)4
_symmetry_space_group_name_H-M   'P 1'
_cell_length_a   7.90312300
_cell_length_b   7.90312164
_cell_length_c   8.36674800
_cell_angle_alpha   90.00000000
_cell_angle_beta   90.00000000
_cell_angle_gamma   120.00000153
_symmetry_Int_Tables_number   1
_chemical_formula_structural   TbSm7(BeSi3)4
_chemical_formula_sum   'Tb1 Sm7 Be4 Si12'
_cell_volume   452.56891499
_cell_formula_units_Z   1
loop_
 _symmetry_equiv_pos_site_id
 _symmetry_equiv_pos_as_xyz
  1  'x, y, z'
loop_
 _atom_site_type_symbol
 _atom_site_label
 _atom_site_symmetry_multiplicity
 _atom_site_fract_x
 _atom_site_fract_y
 _atom_site_fract_z
 _atom_site_occupancy
  Tb  Tb0  1  0.000000  0.000000  0.750000  1
  Sm  Sm1  1  0.499937  0.999874  0.250000  1
  Sm  Sm2  1  0.500063  0.000126  0.750000  1
  Sm  Sm3  1  0.000126  0.500063  0.250000  1
  Sm  Sm4  1  0.999874  0.499937  0.750000  1
  Sm  Sm5  1  0.499937  0.500063  0.250000  1
  Sm  Sm6  1  0.500063  0.499937  0.750000  1
  Sm  Sm7  1  0.000000  0.000000  0.250000  1
  Be  Be8  1  0.333333  0.666667  0.000179  1
  Be  Be9  1  0.666667  0.333333  0.999967  1
  Be  Be10  1  0.666667  0.333333  0.500033  1
  Be  Be11  1  0.333333  0.666667  0.499821  1
  Si  Si12  1  0.172340  0.344680  0.998842  1
  Si  Si13  1  0.827658  0.655316  0.999185  1
  Si  Si14  1  0.655320  0.827660  0.998842  1
  Si  Si15  1  0.827658  0.655316  0.500815  1
  Si  Si16  1  0.344684  0.172342  0.999185  1
  Si  Si17  1  0.172340  0.344680  0.501158  1
  Si  Si18  1  0.172340  0.827660  0.998842  1
  Si  Si19  1  0.344684  0.172342  0.500815  1
  Si  Si20  1  0.827658  0.172342  0.999185  1
  Si  Si21  1  0.655320  0.827660  0.501158  1
  Si  Si22  1  0.827658  0.172342  0.500815  1
  Si  Si23  1  0.172340  0.827660  0.501158  1
