# generated using pymatgen
data_Pa2PtS6
_symmetry_space_group_name_H-M   'P 1'
_cell_length_a   7.15768712
_cell_length_b   7.15768676
_cell_length_c   10.88094308
_cell_angle_alpha   120.60497822
_cell_angle_beta   120.60497776
_cell_angle_gamma   30.80668295
_symmetry_Int_Tables_number   1
_chemical_formula_structural   Pa2PtS6
_chemical_formula_sum   'Pa2 Pt1 S6'
_cell_volume   242.44255400
_cell_formula_units_Z   1
loop_
 _symmetry_equiv_pos_site_id
 _symmetry_equiv_pos_as_xyz
  1  'x, y, z'
loop_
 _atom_site_type_symbol
 _atom_site_label
 _atom_site_symmetry_multiplicity
 _atom_site_fract_x
 _atom_site_fract_y
 _atom_site_fract_z
 _atom_site_occupancy
  Pa  Pa0  1  0.680826  0.680826  0.293473  1
  Pa  Pa1  1  0.319174  0.319174  0.706526  1
  Pt  Pt2  1  0.000000  0.000000  0.000000  1
  S  S3  1  0.199689  0.199689  0.125652  1
  S  S4  1  0.018885  0.018885  0.228412  1
  S  S5  1  0.334811  0.334811  0.466329  1
  S  S6  1  0.665189  0.665189  0.533672  1
  S  S7  1  0.981115  0.981115  0.771588  1
  S  S8  1  0.800310  0.800310  0.874348  1
