# generated using pymatgen
data_Er8Lu2Si5Pb
_symmetry_space_group_name_H-M   'P 1'
_cell_length_a   8.45357768
_cell_length_b   8.42925675
_cell_length_c   6.30126908
_cell_angle_alpha   89.98195392
_cell_angle_beta   90.00900191
_cell_angle_gamma   119.90487384
_symmetry_Int_Tables_number   1
_chemical_formula_structural   Er8Lu2Si5Pb
_chemical_formula_sum   'Er8 Lu2 Si5 Pb1'
_cell_volume   389.22789980
_cell_formula_units_Z   1
loop_
 _symmetry_equiv_pos_site_id
 _symmetry_equiv_pos_as_xyz
  1  'x, y, z'
loop_
 _atom_site_type_symbol
 _atom_site_label
 _atom_site_symmetry_multiplicity
 _atom_site_fract_x
 _atom_site_fract_y
 _atom_site_fract_z
 _atom_site_occupancy
  Er  Er0  1  0.343663  0.675000  0.503833  1
  Er  Er1  1  0.656337  0.331336  0.503833  1
  Er  Er2  1  0.757730  0.756395  0.751152  1
  Er  Er3  1  0.242270  0.998665  0.751152  1
  Er  Er4  1  0.000000  0.239725  0.750475  1
  Er  Er5  1  0.252025  0.239546  0.248832  1
  Er  Er6  1  0.747975  0.987521  0.248832  1
  Er  Er7  1  0.000000  0.767003  0.248957  1
  Lu  Lu8  1  0.656439  0.331460  0.996160  1
  Lu  Lu9  1  0.343561  0.675022  0.996160  1
  Si  Si10  1  0.392955  0.394468  0.753274  1
  Si  Si11  1  0.607045  0.001512  0.753274  1
  Si  Si12  1  0.000000  0.605494  0.752795  1
  Si  Si13  1  0.604798  0.603330  0.246614  1
  Si  Si14  1  0.395202  0.998532  0.246614  1
  Pb  Pb15  1  0.000000  0.394992  0.248043  1
