# generated using pymatgen
data_Er3Tm9GaNi4Ru
_symmetry_space_group_name_H-M   'P 1'
_cell_length_a   8.15625896
_cell_length_b   8.15479722
_cell_length_c   8.15479843
_cell_angle_alpha   107.29933591
_cell_angle_beta   109.72273545
_cell_angle_gamma   111.41013926
_symmetry_Int_Tables_number   1
_chemical_formula_structural   Er3Tm9GaNi4Ru
_chemical_formula_sum   'Er3 Tm9 Ga1 Ni4 Ru1'
_cell_volume   417.03592794
_cell_formula_units_Z   1
loop_
 _symmetry_equiv_pos_site_id
 _symmetry_equiv_pos_as_xyz
  1  'x, y, z'
loop_
 _atom_site_type_symbol
 _atom_site_label
 _atom_site_symmetry_multiplicity
 _atom_site_fract_x
 _atom_site_fract_y
 _atom_site_fract_z
 _atom_site_occupancy
  Er  Er0  1  0.962848  0.782531  0.180319  1
  Er  Er1  1  0.036738  0.217563  0.819174  1
  Er  Er2  1  0.398847  0.217847  0.181000  1
  Tm  Tm3  1  0.688765  0.273752  0.962651  1
  Tm  Tm4  1  0.311950  0.726266  0.037861  1
  Tm  Tm5  1  0.688765  0.726113  0.415015  1
  Tm  Tm6  1  0.311950  0.274088  0.585682  1
  Tm  Tm7  1  0.803930  0.127737  0.323925  1
  Tm  Tm8  1  0.803930  0.480006  0.676193  1
  Tm  Tm9  1  0.196622  0.872266  0.676408  1
  Tm  Tm10  1  0.196622  0.520213  0.324354  1
  Tm  Tm11  1  0.600477  0.781489  0.818988  1
  Ga  Ga12  1  0.500008  0.000220  0.499789  1
  Ni  Ni13  1  0.855896  0.499699  0.356198  1
  Ni  Ni14  1  0.147293  0.500988  0.646305  1
  Ni  Ni15  1  0.997451  0.121441  0.120150  1
  Ni  Ni16  1  0.997451  0.877302  0.876011  1
  Ru  Ru17  1  0.500456  0.500481  0.999975  1
