# generated using pymatgen
data_Tb2DyBCl3
_symmetry_space_group_name_H-M   'P 1'
_cell_length_a   9.48694140
_cell_length_b   9.48903316
_cell_length_c   9.48617309
_cell_angle_alpha   109.45002605
_cell_angle_beta   109.47446385
_cell_angle_gamma   109.48656923
_symmetry_Int_Tables_number   1
_chemical_formula_structural   Tb2DyBCl3
_chemical_formula_sum   'Tb8 Dy4 B4 Cl12'
_cell_volume   657.40234853
_cell_formula_units_Z   4
loop_
 _symmetry_equiv_pos_site_id
 _symmetry_equiv_pos_as_xyz
  1  'x, y, z'
loop_
 _atom_site_type_symbol
 _atom_site_label
 _atom_site_symmetry_multiplicity
 _atom_site_fract_x
 _atom_site_fract_y
 _atom_site_fract_z
 _atom_site_occupancy
  Tb  Tb0  1  0.265023  0.750066  0.235134  1
  Tb  Tb1  1  0.029868  0.264923  0.014952  1
  Tb  Tb2  1  0.015057  0.030143  0.265100  1
  Tb  Tb3  1  0.485160  0.750021  0.014912  1
  Tb  Tb4  1  0.485235  0.235271  0.470374  1
  Tb  Tb5  1  0.014893  0.484890  0.749837  1
  Tb  Tb6  1  0.265056  0.015178  0.029996  1
  Tb  Tb7  1  0.234984  0.264888  0.749818  1
  Dy  Dy8  1  0.469347  0.484570  0.234704  1
  Dy  Dy9  1  0.750112  0.234662  0.265522  1
  Dy  Dy10  1  0.750270  0.015769  0.484676  1
  Dy  Dy11  1  0.234539  0.469170  0.484669  1
  B  B12  1  0.250357  0.250729  0.250375  1
  B  B13  1  0.500711  0.000266  0.250318  1
  B  B14  1  0.999659  0.250019  0.499703  1
  B  B15  1  0.250369  0.500088  0.000339  1
  Cl  Cl16  1  0.250004  0.755111  0.744202  1
  Cl  Cl17  1  0.510531  0.505488  0.755095  1
  Cl  Cl18  1  0.989150  0.744583  0.994563  1
  Cl  Cl19  1  0.744600  0.249618  0.755146  1
  Cl  Cl20  1  0.994231  0.989136  0.744236  1
  Cl  Cl21  1  0.250010  0.994583  0.505435  1
  Cl  Cl22  1  0.755107  0.510589  0.504673  1
  Cl  Cl23  1  0.505866  0.250435  0.995289  1
  Cl  Cl24  1  0.755087  0.744544  0.250449  1
  Cl  Cl25  1  0.744614  0.995024  0.989506  1
  Cl  Cl26  1  0.994633  0.505134  0.250384  1
  Cl  Cl27  1  0.505527  0.755105  0.510593  1
