# generated using pymatgen
data_TbEuDy4Ta2O14
_symmetry_space_group_name_H-M   'P 1'
_cell_length_a   6.48824171
_cell_length_b   6.48824074
_cell_length_c   7.54385242
_cell_angle_alpha   90.20589344
_cell_angle_beta   89.79410428
_cell_angle_gamma   108.90469793
_symmetry_Int_Tables_number   1
_chemical_formula_structural   TbEuDy4Ta2O14
_chemical_formula_sum   'Tb1 Eu1 Dy4 Ta2 O14'
_cell_volume   300.44228192
_cell_formula_units_Z   1
loop_
 _symmetry_equiv_pos_site_id
 _symmetry_equiv_pos_as_xyz
  1  'x, y, z'
loop_
 _atom_site_type_symbol
 _atom_site_label
 _atom_site_symmetry_multiplicity
 _atom_site_fract_x
 _atom_site_fract_y
 _atom_site_fract_z
 _atom_site_occupancy
  Tb  Tb0  1  0.531606  0.531606  0.500000  1
  Eu  Eu1  1  0.495141  0.495141  0.000000  1
  Dy  Dy2  1  0.001017  0.464928  0.746055  1
  Dy  Dy3  1  0.001179  0.533952  0.246971  1
  Dy  Dy4  1  0.533952  0.001179  0.753029  1
  Dy  Dy5  1  0.464928  0.001017  0.253945  1
  Ta  Ta6  1  0.002883  0.002883  0.500000  1
  Ta  Ta7  1  0.999366  0.999366  0.000000  1
  O  O8  1  0.639572  0.360796  0.745573  1
  O  O9  1  0.360796  0.639572  0.254427  1
  O  O10  1  0.932944  0.066119  0.750205  1
  O  O11  1  0.066119  0.932944  0.249795  1
  O  O12  1  0.920325  0.674066  0.528697  1
  O  O13  1  0.069781  0.321223  0.030373  1
  O  O14  1  0.321223  0.069781  0.969627  1
  O  O15  1  0.674066  0.920325  0.471303  1
  O  O16  1  0.368453  0.632348  0.744413  1
  O  O17  1  0.632348  0.368453  0.255587  1
  O  O18  1  0.935532  0.682319  0.963217  1
  O  O19  1  0.054629  0.311821  0.461894  1
  O  O20  1  0.311821  0.054629  0.538106  1
  O  O21  1  0.682319  0.935532  0.036783  1
