# generated using pymatgen
data_Ca3Pr(GePd2)4
_symmetry_space_group_name_H-M   'P 1'
_cell_length_a   5.66310591
_cell_length_b   7.13671900
_cell_length_c   7.59328306
_cell_angle_alpha   90.00000000
_cell_angle_beta   90.30205503
_cell_angle_gamma   90.00000000
_symmetry_Int_Tables_number   1
_chemical_formula_structural   Ca3Pr(GePd2)4
_chemical_formula_sum   'Ca3 Pr1 Ge4 Pd8'
_cell_volume   306.88582993
_cell_formula_units_Z   1
loop_
 _symmetry_equiv_pos_site_id
 _symmetry_equiv_pos_as_xyz
  1  'x, y, z'
loop_
 _atom_site_type_symbol
 _atom_site_label
 _atom_site_symmetry_multiplicity
 _atom_site_fract_x
 _atom_site_fract_y
 _atom_site_fract_z
 _atom_site_occupancy
  Ca  Ca0  1  0.365816  0.750000  0.026900  1
  Ca  Ca1  1  0.138165  0.750000  0.525947  1
  Ca  Ca2  1  0.636711  0.250000  0.975047  1
  Pr  Pr3  1  0.862083  0.250000  0.471917  1
  Ge  Ge4  1  0.635071  0.750000  0.375517  1
  Ge  Ge5  1  0.865750  0.750000  0.875521  1
  Ge  Ge6  1  0.363671  0.250000  0.628970  1
  Ge  Ge7  1  0.137360  0.250000  0.119649  1
  Pd  Pd8  1  0.904048  0.553778  0.173182  1
  Pd  Pd9  1  0.598399  0.945436  0.672250  1
  Pd  Pd10  1  0.093733  0.053092  0.828101  1
  Pd  Pd11  1  0.401506  0.446049  0.326733  1
  Pd  Pd12  1  0.093733  0.446908  0.828101  1
  Pd  Pd13  1  0.401506  0.053951  0.326733  1
  Pd  Pd14  1  0.904048  0.946222  0.173182  1
  Pd  Pd15  1  0.598399  0.554564  0.672250  1
