# generated using pymatgen
data_Tb2ErTi(Co4P3)2
_symmetry_space_group_name_H-M   'P 1'
_cell_length_a   3.69392500
_cell_length_b   10.59592600
_cell_length_c   12.27644100
_cell_angle_alpha   90.00000000
_cell_angle_beta   90.00000000
_cell_angle_gamma   90.00000000
_symmetry_Int_Tables_number   1
_chemical_formula_structural   Tb2ErTi(Co4P3)2
_chemical_formula_sum   'Tb4 Er2 Ti2 Co16 P12'
_cell_volume   480.50672582
_cell_formula_units_Z   2
loop_
 _symmetry_equiv_pos_site_id
 _symmetry_equiv_pos_as_xyz
  1  'x, y, z'
loop_
 _atom_site_type_symbol
 _atom_site_label
 _atom_site_symmetry_multiplicity
 _atom_site_fract_x
 _atom_site_fract_y
 _atom_site_fract_z
 _atom_site_occupancy
  Tb  Tb0  1  0.000000  0.500000  0.525158  1
  Tb  Tb1  1  0.500000  0.000000  0.474272  1
  Tb  Tb2  1  0.000000  0.680015  0.795647  1
  Tb  Tb3  1  0.000000  0.319985  0.795647  1
  Er  Er4  1  0.500000  0.820494  0.204176  1
  Er  Er5  1  0.500000  0.179506  0.204176  1
  Ti  Ti6  1  0.500000  0.500000  0.153748  1
  Ti  Ti7  1  0.000000  0.000000  0.846569  1
  Co  Co8  1  0.500000  0.500000  0.703099  1
  Co  Co9  1  0.000000  0.000000  0.296060  1
  Co  Co10  1  0.000000  0.500000  0.988314  1
  Co  Co11  1  0.500000  0.000000  0.013529  1
  Co  Co12  1  0.500000  0.331800  0.995134  1
  Co  Co13  1  0.500000  0.668200  0.995134  1
  Co  Co14  1  0.000000  0.167518  0.006764  1
  Co  Co15  1  0.000000  0.832482  0.006764  1
  Co  Co16  1  0.500000  0.295576  0.430919  1
  Co  Co17  1  0.500000  0.704424  0.430919  1
  Co  Co18  1  0.000000  0.203927  0.567445  1
  Co  Co19  1  0.000000  0.796073  0.567445  1
  Co  Co20  1  0.500000  0.878775  0.705983  1
  Co  Co21  1  0.500000  0.121225  0.705983  1
  Co  Co22  1  0.000000  0.621922  0.293292  1
  Co  Co23  1  0.000000  0.378078  0.293292  1
  P  P24  1  0.500000  0.500000  0.884438  1
  P  P25  1  0.000000  0.000000  0.117373  1
  P  P26  1  0.500000  0.500000  0.352639  1
  P  P27  1  0.000000  0.000000  0.647113  1
  P  P28  1  0.500000  0.309745  0.615134  1
  P  P29  1  0.500000  0.690255  0.615134  1
  P  P30  1  0.000000  0.189504  0.383014  1
  P  P31  1  0.000000  0.810496  0.383014  1
  P  P32  1  0.500000  0.843251  0.892694  1
  P  P33  1  0.500000  0.156749  0.892694  1
  P  P34  1  0.000000  0.657840  0.108643  1
  P  P35  1  0.000000  0.342160  0.108643  1
