# generated using pymatgen
data_Er2Al2CoNi
_symmetry_space_group_name_H-M   'P 1'
_cell_length_a   4.12469100
_cell_length_b   6.61726787
_cell_length_c   7.75087388
_cell_angle_alpha   90.16870251
_cell_angle_beta   90.00000000
_cell_angle_gamma   90.00000000
_symmetry_Int_Tables_number   1
_chemical_formula_structural   Er2Al2CoNi
_chemical_formula_sum   'Er4 Al4 Co2 Ni2'
_cell_volume   211.55287030
_cell_formula_units_Z   2
loop_
 _symmetry_equiv_pos_site_id
 _symmetry_equiv_pos_as_xyz
  1  'x, y, z'
loop_
 _atom_site_type_symbol
 _atom_site_label
 _atom_site_symmetry_multiplicity
 _atom_site_fract_x
 _atom_site_fract_y
 _atom_site_fract_z
 _atom_site_occupancy
  Er  Er0  1  0.250000  0.538434  0.678643  1
  Er  Er1  1  0.250000  0.032396  0.826768  1
  Er  Er2  1  0.750000  0.967604  0.173232  1
  Er  Er3  1  0.750000  0.461566  0.321357  1
  Al  Al4  1  0.750000  0.366414  0.944220  1
  Al  Al5  1  0.250000  0.135204  0.441308  1
  Al  Al6  1  0.250000  0.633586  0.055780  1
  Al  Al7  1  0.750000  0.864796  0.558692  1
  Co  Co8  1  0.750000  0.733841  0.869933  1
  Co  Co9  1  0.250000  0.266159  0.130067  1
  Ni  Ni10  1  0.750000  0.232543  0.628297  1
  Ni  Ni11  1  0.250000  0.767457  0.371703  1
