# generated using pymatgen
data_PmPr(CuSi)2
_symmetry_space_group_name_H-M   'P 1'
_cell_length_a   5.88884192
_cell_length_b   5.88884354
_cell_length_c   5.88884220
_cell_angle_alpha   138.85571450
_cell_angle_beta   104.82104059
_cell_angle_gamma   89.49258783
_symmetry_Int_Tables_number   1
_chemical_formula_structural   PmPr(CuSi)2
_chemical_formula_sum   'Pm1 Pr1 Cu2 Si2'
_cell_volume   124.35523178
_cell_formula_units_Z   1
loop_
 _symmetry_equiv_pos_site_id
 _symmetry_equiv_pos_as_xyz
  1  'x, y, z'
loop_
 _atom_site_type_symbol
 _atom_site_label
 _atom_site_symmetry_multiplicity
 _atom_site_fract_x
 _atom_site_fract_y
 _atom_site_fract_z
 _atom_site_occupancy
  Pm  Pm0  1  0.499848  0.500000  0.999848  1
  Pr  Pr1  1  0.999675  0.000000  0.999675  1
  Cu  Cu2  1  0.914958  0.248745  0.666213  1
  Cu  Cu3  1  0.417468  0.751256  0.666212  1
  Si  Si4  1  0.581885  0.247860  0.334026  1
  Si  Si5  1  0.086167  0.752141  0.334027  1
