# generated using pymatgen
data_Pr4Co18Si3P9Ru2
_symmetry_space_group_name_H-M   'P 1'
_cell_length_a   3.73532100
_cell_length_b   10.51983661
_cell_length_c   11.94910069
_cell_angle_alpha   89.96109420
_cell_angle_beta   90.00000000
_cell_angle_gamma   90.00000000
_symmetry_Int_Tables_number   1
_chemical_formula_structural   Pr4Co18Si3P9Ru2
_chemical_formula_sum   'Pr4 Co18 Si3 P9 Ru2'
_cell_volume   469.53940412
_cell_formula_units_Z   1
loop_
 _symmetry_equiv_pos_site_id
 _symmetry_equiv_pos_as_xyz
  1  'x, y, z'
loop_
 _atom_site_type_symbol
 _atom_site_label
 _atom_site_symmetry_multiplicity
 _atom_site_fract_x
 _atom_site_fract_y
 _atom_site_fract_z
 _atom_site_occupancy
  Pr  Pr0  1  0.250000  0.583010  0.699737  1
  Pr  Pr1  1  0.250000  0.919467  0.200477  1
  Pr  Pr2  1  0.750000  0.414314  0.297877  1
  Pr  Pr3  1  0.750000  0.086511  0.796938  1
  Co  Co4  1  0.750000  0.288407  0.009068  1
  Co  Co5  1  0.750000  0.211424  0.509986  1
  Co  Co6  1  0.250000  0.404925  0.489890  1
  Co  Co7  1  0.250000  0.096426  0.988867  1
  Co  Co8  1  0.750000  0.592314  0.509328  1
  Co  Co9  1  0.750000  0.910422  0.006101  1
  Co  Co10  1  0.250000  0.220343  0.173986  1
  Co  Co11  1  0.250000  0.279734  0.674221  1
  Co  Co12  1  0.750000  0.786002  0.823000  1
  Co  Co13  1  0.750000  0.713503  0.326406  1
  Co  Co14  1  0.250000  0.886513  0.700443  1
  Co  Co15  1  0.250000  0.611471  0.201476  1
  Co  Co16  1  0.750000  0.119907  0.301593  1
  Co  Co17  1  0.750000  0.380242  0.801040  1
  Co  Co18  1  0.250000  0.461639  0.934790  1
  Co  Co19  1  0.250000  0.038011  0.435878  1
  Co  Co20  1  0.750000  0.524434  0.069689  1
  Co  Co21  1  0.750000  0.970275  0.571310  1
  Si  Si22  1  0.750000  0.582074  0.891304  1
  Si  Si23  1  0.750000  0.917557  0.391055  1
  Si  Si24  1  0.750000  0.722170  0.131243  1
  P  P25  1  0.250000  0.417815  0.110959  1
  P  P26  1  0.250000  0.082645  0.610699  1
  P  P27  1  0.250000  0.275925  0.866196  1
  P  P28  1  0.250000  0.224016  0.366897  1
  P  P29  1  0.750000  0.778853  0.634010  1
  P  P30  1  0.250000  0.600998  0.392626  1
  P  P31  1  0.250000  0.899458  0.892845  1
  P  P32  1  0.750000  0.392222  0.606412  1
  P  P33  1  0.750000  0.108193  0.105954  1
  Ru  Ru34  1  0.250000  0.708072  0.987925  1
  Ru  Ru35  1  0.250000  0.790708  0.489773  1
