# generated using pymatgen
data_BaPr6TcI12
_symmetry_space_group_name_H-M   'P 1'
_cell_length_a   10.18091070
_cell_length_b   10.18091100
_cell_length_c   10.18091191
_cell_angle_alpha   105.71143169
_cell_angle_beta   105.71141636
_cell_angle_gamma   105.71142175
_symmetry_Int_Tables_number   1
_chemical_formula_structural   BaPr6TcI12
_chemical_formula_sum   'Ba1 Pr6 Tc1 I12'
_cell_volume   907.95448140
_cell_formula_units_Z   1
loop_
 _symmetry_equiv_pos_site_id
 _symmetry_equiv_pos_as_xyz
  1  'x, y, z'
loop_
 _atom_site_type_symbol
 _atom_site_label
 _atom_site_symmetry_multiplicity
 _atom_site_fract_x
 _atom_site_fract_y
 _atom_site_fract_z
 _atom_site_occupancy
  Ba  Ba0  1  0.000000  0.000000  0.000000  1
  Pr  Pr1  1  0.795569  0.517125  0.591779  1
  Pr  Pr2  1  0.517125  0.591779  0.795569  1
  Pr  Pr3  1  0.204431  0.482875  0.408221  1
  Pr  Pr4  1  0.482875  0.408221  0.204431  1
  Pr  Pr5  1  0.591779  0.795569  0.517125  1
  Pr  Pr6  1  0.408221  0.204431  0.482875  1
  Tc  Tc7  1  0.500000  0.500000  0.500000  1
  I  I8  1  0.725654  0.180089  0.575762  1
  I  I9  1  0.940701  0.859776  0.629819  1
  I  I10  1  0.575762  0.725654  0.180089  1
  I  I11  1  0.140224  0.370181  0.059299  1
  I  I12  1  0.629819  0.940701  0.859776  1
  I  I13  1  0.859776  0.629819  0.940701  1
  I  I14  1  0.059299  0.140224  0.370181  1
  I  I15  1  0.819911  0.424238  0.274346  1
  I  I16  1  0.370181  0.059299  0.140224  1
  I  I17  1  0.274346  0.819911  0.424238  1
  I  I18  1  0.180089  0.575762  0.725654  1
  I  I19  1  0.424238  0.274346  0.819911  1
