# generated using pymatgen
data_Li11Pd2
_symmetry_space_group_name_H-M   'P 1'
_cell_length_a   8.27013950
_cell_length_b   8.27014083
_cell_length_c   8.27014000
_cell_angle_alpha   109.47122350
_cell_angle_beta   109.47122676
_cell_angle_gamma   109.47121125
_symmetry_Int_Tables_number   1
_chemical_formula_structural   Li11Pd2
_chemical_formula_sum   'Li22 Pd4'
_cell_volume   435.42836143
_cell_formula_units_Z   2
loop_
 _symmetry_equiv_pos_site_id
 _symmetry_equiv_pos_as_xyz
  1  'x, y, z'
loop_
 _atom_site_type_symbol
 _atom_site_label
 _atom_site_symmetry_multiplicity
 _atom_site_fract_x
 _atom_site_fract_y
 _atom_site_fract_z
 _atom_site_occupancy
  Li  Li0  1  0.394744  0.648401  0.648401  1
  Li  Li1  1  0.605256  0.253657  0.253657  1
  Li  Li2  1  0.000000  0.351599  0.746343  1
  Li  Li3  1  0.648401  0.648401  0.394744  1
  Li  Li4  1  0.000000  0.746343  0.351599  1
  Li  Li5  1  0.253657  0.253657  0.605256  1
  Li  Li6  1  0.351599  0.746343  0.000000  1
  Li  Li7  1  0.746343  0.351599  0.000000  1
  Li  Li8  1  0.648401  0.394744  0.648401  1
  Li  Li9  1  0.746343  0.000000  0.351599  1
  Li  Li10  1  0.351599  0.000000  0.746343  1
  Li  Li11  1  0.253657  0.605256  0.253657  1
  Li  Li12  1  0.797581  0.797581  0.797581  1
  Li  Li13  1  0.202419  0.000000  0.000000  1
  Li  Li14  1  0.000000  0.202419  0.000000  1
  Li  Li15  1  0.000000  0.000000  0.202419  1
  Li  Li16  1  0.655255  0.655255  0.000000  1
  Li  Li17  1  0.344745  0.344745  0.000000  1
  Li  Li18  1  0.655255  0.000000  0.655255  1
  Li  Li19  1  0.344745  0.000000  0.344745  1
  Li  Li20  1  0.000000  0.655255  0.655255  1
  Li  Li21  1  0.000000  0.344745  0.344745  1
  Pd  Pd22  1  0.341089  0.341089  0.341089  1
  Pd  Pd23  1  0.658911  0.000000  0.000000  1
  Pd  Pd24  1  0.000000  0.658911  0.000000  1
  Pd  Pd25  1  0.000000  0.000000  0.658911  1
