# generated using pymatgen
data_Y2MnNiIr2
_symmetry_space_group_name_H-M   'P 1'
_cell_length_a   5.34379637
_cell_length_b   5.10193275
_cell_length_c   5.34379601
_cell_angle_alpha   59.88318209
_cell_angle_beta   62.00372693
_cell_angle_gamma   59.88316681
_symmetry_Int_Tables_number   1
_chemical_formula_structural   Y2MnNiIr2
_chemical_formula_sum   'Y2 Mn1 Ni1 Ir2'
_cell_volume   104.29741812
_cell_formula_units_Z   1
loop_
 _symmetry_equiv_pos_site_id
 _symmetry_equiv_pos_as_xyz
  1  'x, y, z'
loop_
 _atom_site_type_symbol
 _atom_site_label
 _atom_site_symmetry_multiplicity
 _atom_site_fract_x
 _atom_site_fract_y
 _atom_site_fract_z
 _atom_site_occupancy
  Y  Y0  1  0.627079  0.621447  0.627079  1
  Y  Y1  1  0.372921  0.378553  0.372921  1
  Mn  Mn2  1  0.000000  0.500000  0.000000  1
  Ni  Ni3  1  0.000000  0.000000  0.000000  1
  Ir  Ir4  1  0.500000  0.000000  0.000000  1
  Ir  Ir5  1  0.000000  0.000000  0.500000  1
