# generated using pymatgen
data_ErAs3PRu6
_symmetry_space_group_name_H-M   'P 1'
_cell_length_a   7.10781300
_cell_length_b   7.10781221
_cell_length_c   3.82945700
_cell_angle_alpha   90.00000000
_cell_angle_beta   90.00000000
_cell_angle_gamma   119.99999902
_symmetry_Int_Tables_number   1
_chemical_formula_structural   ErAs3PRu6
_chemical_formula_sum   'Er1 As3 P1 Ru6'
_cell_volume   167.54820205
_cell_formula_units_Z   1
loop_
 _symmetry_equiv_pos_site_id
 _symmetry_equiv_pos_as_xyz
  1  'x, y, z'
loop_
 _atom_site_type_symbol
 _atom_site_label
 _atom_site_symmetry_multiplicity
 _atom_site_fract_x
 _atom_site_fract_y
 _atom_site_fract_z
 _atom_site_occupancy
  Er  Er0  1  0.000000  0.000000  0.000000  1
  As  As1  1  0.189517  0.379035  0.500000  1
  As  As2  1  0.620965  0.810483  0.500000  1
  As  As3  1  0.189517  0.810483  0.500000  1
  P  P4  1  0.666667  0.333333  0.000000  1
  Ru  Ru5  1  0.796068  0.592135  0.500000  1
  Ru  Ru6  1  0.407865  0.203932  0.500000  1
  Ru  Ru7  1  0.796068  0.203932  0.500000  1
  Ru  Ru8  1  0.468247  0.936492  0.000000  1
  Ru  Ru9  1  0.063508  0.531753  0.000000  1
  Ru  Ru10  1  0.468247  0.531753  0.000000  1
