# generated using pymatgen
data_YHo3MoOsC4
_symmetry_space_group_name_H-M   'P 1'
_cell_length_a   5.08829800
_cell_length_b   6.58431932
_cell_length_c   9.88295797
_cell_angle_alpha   89.13233568
_cell_angle_beta   90.00000000
_cell_angle_gamma   90.00000000
_symmetry_Int_Tables_number   1
_chemical_formula_structural   YHo3MoOsC4
_chemical_formula_sum   'Y2 Ho6 Mo2 Os2 C8'
_cell_volume   331.07056608
_cell_formula_units_Z   2
loop_
 _symmetry_equiv_pos_site_id
 _symmetry_equiv_pos_as_xyz
  1  'x, y, z'
loop_
 _atom_site_type_symbol
 _atom_site_label
 _atom_site_symmetry_multiplicity
 _atom_site_fract_x
 _atom_site_fract_y
 _atom_site_fract_z
 _atom_site_occupancy
  Y  Y0  1  0.750000  0.968696  0.716173  1
  Y  Y1  1  0.250000  0.031304  0.283827  1
  Ho  Ho2  1  0.250000  0.677774  0.557862  1
  Ho  Ho3  1  0.750000  0.322226  0.442138  1
  Ho  Ho4  1  0.750000  0.824670  0.058131  1
  Ho  Ho5  1  0.250000  0.175330  0.941869  1
  Ho  Ho6  1  0.250000  0.537876  0.218332  1
  Ho  Ho7  1  0.750000  0.462124  0.781668  1
  Mo  Mo8  1  0.250000  0.716015  0.867513  1
  Mo  Mo9  1  0.750000  0.283985  0.132487  1
  Os  Os10  1  0.750000  0.779607  0.366608  1
  Os  Os11  1  0.250000  0.220393  0.633392  1
  C  C12  1  0.250000  0.449269  0.757240  1
  C  C13  1  0.750000  0.550731  0.242760  1
  C  C14  1  0.750000  0.046229  0.260319  1
  C  C15  1  0.250000  0.953771  0.739681  1
  C  C16  1  0.250000  0.823409  0.052026  1
  C  C17  1  0.750000  0.176591  0.947974  1
  C  C18  1  0.750000  0.675853  0.548933  1
  C  C19  1  0.250000  0.324147  0.451067  1
