# generated using pymatgen
data_Yb2Pr8GaSi4Ge
_symmetry_space_group_name_H-M   'P 1'
_cell_length_a   7.85074300
_cell_length_b   8.99409342
_cell_length_c   7.85074300
_cell_angle_alpha   115.87688702
_cell_angle_beta   90.00000000
_cell_angle_gamma   115.87688702
_symmetry_Int_Tables_number   1
_chemical_formula_structural   Yb2Pr8GaSi4Ge
_chemical_formula_sum   'Yb2 Pr8 Ga1 Si4 Ge1'
_cell_volume   436.15318709
_cell_formula_units_Z   1
loop_
 _symmetry_equiv_pos_site_id
 _symmetry_equiv_pos_as_xyz
  1  'x, y, z'
loop_
 _atom_site_type_symbol
 _atom_site_label
 _atom_site_symmetry_multiplicity
 _atom_site_fract_x
 _atom_site_fract_y
 _atom_site_fract_z
 _atom_site_occupancy
  Yb  Yb0  1  0.996932  0.993865  0.996932  1
  Yb  Yb1  1  0.503068  0.006135  0.503068  1
  Pr  Pr2  1  0.533542  0.712259  0.675693  1
  Pr  Pr3  1  0.178717  0.712259  0.036567  1
  Pr  Pr4  1  0.675693  0.712259  0.178717  1
  Pr  Pr5  1  0.036567  0.712259  0.533542  1
  Pr  Pr6  1  0.463433  0.287741  0.321283  1
  Pr  Pr7  1  0.824307  0.287741  0.966458  1
  Pr  Pr8  1  0.321283  0.287741  0.824307  1
  Pr  Pr9  1  0.966458  0.287741  0.463433  1
  Ga  Ga10  1  0.750000  0.500000  0.750000  1
  Si  Si11  1  0.887164  0.000000  0.612836  1
  Si  Si12  1  0.112836  0.000000  0.387164  1
  Si  Si13  1  0.612836  0.000000  0.112836  1
  Si  Si14  1  0.387164  0.000000  0.887164  1
  Ge  Ge15  1  0.250000  0.500000  0.250000  1
