# generated using pymatgen
data_NpSc3(ReB6)2
_symmetry_space_group_name_H-M   'P 1'
_cell_length_a   3.55784800
_cell_length_b   8.95602757
_cell_length_c   11.27800776
_cell_angle_alpha   90.15840182
_cell_angle_beta   90.00000000
_cell_angle_gamma   90.00000000
_symmetry_Int_Tables_number   1
_chemical_formula_structural   NpSc3(ReB6)2
_chemical_formula_sum   'Np2 Sc6 Re4 B24'
_cell_volume   359.36314979
_cell_formula_units_Z   2
loop_
 _symmetry_equiv_pos_site_id
 _symmetry_equiv_pos_as_xyz
  1  'x, y, z'
loop_
 _atom_site_type_symbol
 _atom_site_label
 _atom_site_symmetry_multiplicity
 _atom_site_fract_x
 _atom_site_fract_y
 _atom_site_fract_z
 _atom_site_occupancy
  Np  Np0  1  0.000000  0.319610  0.413428  1
  Np  Np1  1  0.000000  0.680390  0.586572  1
  Sc  Sc2  1  0.000000  0.821684  0.085187  1
  Sc  Sc3  1  0.000000  0.178316  0.914813  1
  Sc  Sc4  1  0.000000  0.945658  0.371521  1
  Sc  Sc5  1  0.000000  0.054342  0.628479  1
  Sc  Sc6  1  0.000000  0.444262  0.126313  1
  Sc  Sc7  1  0.000000  0.555738  0.873687  1
  Re  Re8  1  0.000000  0.639132  0.320836  1
  Re  Re9  1  0.000000  0.360868  0.679164  1
  Re  Re10  1  0.000000  0.140679  0.180316  1
  Re  Re11  1  0.000000  0.859321  0.819684  1
  B  B12  1  0.500000  0.553433  0.433363  1
  B  B13  1  0.500000  0.446567  0.566637  1
  B  B14  1  0.500000  0.053343  0.064666  1
  B  B15  1  0.500000  0.946657  0.935334  1
  B  B16  1  0.500000  0.753951  0.419348  1
  B  B17  1  0.500000  0.246049  0.580652  1
  B  B18  1  0.500000  0.252514  0.077413  1
  B  B19  1  0.500000  0.747486  0.922587  1
  B  B20  1  0.500000  0.795482  0.262864  1
  B  B21  1  0.500000  0.204518  0.737136  1
  B  B22  1  0.500000  0.295025  0.233661  1
  B  B23  1  0.500000  0.704975  0.766339  1
  B  B24  1  0.500000  0.630605  0.181354  1
  B  B25  1  0.500000  0.369395  0.818646  1
  B  B26  1  0.500000  0.130046  0.316273  1
  B  B27  1  0.500000  0.869954  0.683727  1
  B  B28  1  0.500000  0.979470  0.211295  1
  B  B29  1  0.500000  0.020530  0.788705  1
  B  B30  1  0.500000  0.480661  0.284885  1
  B  B31  1  0.500000  0.519339  0.715115  1
  B  B32  1  0.500000  0.599266  0.027465  1
  B  B33  1  0.500000  0.400734  0.972535  1
  B  B34  1  0.500000  0.099610  0.472382  1
  B  B35  1  0.500000  0.900390  0.527618  1
