# generated using pymatgen
data_K3FeH7
_symmetry_space_group_name_H-M   'P 1'
_cell_length_a   5.76689231
_cell_length_b   5.74457206
_cell_length_c   5.97997199
_cell_angle_alpha   60.73779181
_cell_angle_beta   119.29634089
_cell_angle_gamma   90.92407710
_symmetry_Int_Tables_number   1
_chemical_formula_structural   K3FeH7
_chemical_formula_sum   'K3 Fe1 H7'
_cell_volume   144.09870223
_cell_formula_units_Z   1
loop_
 _symmetry_equiv_pos_site_id
 _symmetry_equiv_pos_as_xyz
  1  'x, y, z'
loop_
 _atom_site_type_symbol
 _atom_site_label
 _atom_site_symmetry_multiplicity
 _atom_site_fract_x
 _atom_site_fract_y
 _atom_site_fract_z
 _atom_site_occupancy
  K  K0  1  0.542222  0.401043  0.640949  1
  K  K1  1  0.781945  0.640830  0.142319  1
  K  K2  1  0.042383  0.896913  0.644281  1
  Fe  Fe3  1  0.301414  0.153345  0.145369  1
  H  H4  1  0.099701  0.349617  0.771186  1
  H  H5  1  0.410264  0.927192  0.119904  1
  H  H6  1  0.087385  0.280524  0.173289  1
  H  H7  1  0.561932  0.195564  0.139770  1
  H  H8  1  0.103525  0.962775  0.150168  1
  H  H9  1  0.500089  0.954585  0.519270  1
  H  H10  1  0.365283  0.413707  0.145274  1
