# generated using pymatgen
data_La2Pr(ZnPt)4
_symmetry_space_group_name_H-M   'P 1'
_cell_length_a   8.44089795
_cell_length_b   8.44089799
_cell_length_c   8.44089798
_cell_angle_alpha   151.39697613
_cell_angle_beta   126.82526327
_cell_angle_gamma   61.48855717
_symmetry_Int_Tables_number   1
_chemical_formula_structural   La2Pr(ZnPt)4
_chemical_formula_sum   'La2 Pr1 Zn4 Pt4'
_cell_volume   228.58286029
_cell_formula_units_Z   1
loop_
 _symmetry_equiv_pos_site_id
 _symmetry_equiv_pos_as_xyz
  1  'x, y, z'
loop_
 _atom_site_type_symbol
 _atom_site_label
 _atom_site_symmetry_multiplicity
 _atom_site_fract_x
 _atom_site_fract_y
 _atom_site_fract_z
 _atom_site_occupancy
  La  La0  1  0.500204  0.000204  0.500000  1
  La  La1  1  0.127515  0.127515  0.000000  1
  Pr  Pr2  1  0.871147  0.871147  0.000000  1
  Zn  Zn3  1  0.480367  0.673816  0.806552  1
  Zn  Zn4  1  0.867264  0.673816  0.193448  1
  Zn  Zn5  1  0.131641  0.326489  0.805152  1
  Zn  Zn6  1  0.521337  0.326489  0.194848  1
  Pt  Pt7  1  0.282336  0.782336  0.500000  1
  Pt  Pt8  1  0.717692  0.217692  0.500000  1
  Pt  Pt9  1  0.800539  0.500248  0.300291  1
  Pt  Pt10  1  0.199957  0.500248  0.699709  1
