# generated using pymatgen
data_Yb3Pr(W2C3)2
_symmetry_space_group_name_H-M   'P 1'
_cell_length_a   6.60876600
_cell_length_b   5.94197940
_cell_length_c   11.90827922
_cell_angle_alpha   67.23898310
_cell_angle_beta   90.00000000
_cell_angle_gamma   90.00000000
_symmetry_Int_Tables_number   1
_chemical_formula_structural   Yb3Pr(W2C3)2
_chemical_formula_sum   'Yb6 Pr2 W8 C12'
_cell_volume   431.21223512
_cell_formula_units_Z   2
loop_
 _symmetry_equiv_pos_site_id
 _symmetry_equiv_pos_as_xyz
  1  'x, y, z'
loop_
 _atom_site_type_symbol
 _atom_site_label
 _atom_site_symmetry_multiplicity
 _atom_site_fract_x
 _atom_site_fract_y
 _atom_site_fract_z
 _atom_site_occupancy
  Yb  Yb0  1  0.793455  0.670030  0.902014  1
  Yb  Yb1  1  0.293455  0.329970  0.597986  1
  Yb  Yb2  1  0.205439  0.310702  0.087778  1
  Yb  Yb3  1  0.705439  0.689298  0.412222  1
  Yb  Yb4  1  0.992713  0.730652  0.635523  1
  Yb  Yb5  1  0.492713  0.269348  0.864477  1
  Pr  Pr6  1  0.000025  0.276050  0.365038  1
  Pr  Pr7  1  0.500025  0.723950  0.134962  1
  W  W8  1  0.991738  0.827288  0.118969  1
  W  W9  1  0.491738  0.172712  0.381031  1
  W  W10  1  0.008193  0.179348  0.873601  1
  W  W11  1  0.508193  0.820652  0.626399  1
  W  W12  1  0.763178  0.183365  0.659141  1
  W  W13  1  0.235732  0.815287  0.342351  1
  W  W14  1  0.735732  0.184713  0.157649  1
  W  W15  1  0.263178  0.816635  0.840859  1
  C  C16  1  0.639751  0.506776  0.652389  1
  C  C17  1  0.139751  0.493224  0.847611  1
  C  C18  1  0.366816  0.489260  0.360890  1
  C  C19  1  0.866816  0.510740  0.139110  1
  C  C20  1  0.216325  0.930265  0.985584  1
  C  C21  1  0.716325  0.069735  0.514416  1
  C  C22  1  0.789922  0.100184  0.006531  1
  C  C23  1  0.289922  0.899816  0.493469  1
  C  C24  1  0.471353  0.033169  0.243824  1
  C  C25  1  0.025361  0.026197  0.741943  1
  C  C26  1  0.971353  0.966831  0.256176  1
  C  C27  1  0.525361  0.973803  0.758057  1
