# generated using pymatgen
data_Lu4V2CoOs5
_symmetry_space_group_name_H-M   'P 1'
_cell_length_a   5.32851700
_cell_length_b   5.39762600
_cell_length_c   8.20181300
_cell_angle_alpha   90.00000000
_cell_angle_beta   90.00000000
_cell_angle_gamma   119.57735065
_symmetry_Int_Tables_number   1
_chemical_formula_structural   Lu4V2CoOs5
_chemical_formula_sum   'Lu4 V2 Co1 Os5'
_cell_volume   205.15567932
_cell_formula_units_Z   1
loop_
 _symmetry_equiv_pos_site_id
 _symmetry_equiv_pos_as_xyz
  1  'x, y, z'
loop_
 _atom_site_type_symbol
 _atom_site_label
 _atom_site_symmetry_multiplicity
 _atom_site_fract_x
 _atom_site_fract_y
 _atom_site_fract_z
 _atom_site_occupancy
  Lu  Lu0  1  0.332690  0.665380  0.440354  1
  Lu  Lu1  1  0.667036  0.334071  0.564895  1
  Lu  Lu2  1  0.667036  0.334071  0.935105  1
  Lu  Lu3  1  0.332690  0.665380  0.059646  1
  V  V4  1  0.999715  0.999430  0.996907  1
  V  V5  1  0.999715  0.999430  0.503093  1
  Co  Co6  1  0.165446  0.330892  0.750000  1
  Os  Os7  1  0.174279  0.831259  0.750000  1
  Os  Os8  1  0.343262  0.171823  0.250000  1
  Os  Os9  1  0.832591  0.665180  0.250000  1
  Os  Os10  1  0.656979  0.831259  0.750000  1
  Os  Os11  1  0.828562  0.171823  0.250000  1
