# generated using pymatgen
data_Nd4PCl6
_symmetry_space_group_name_H-M   'P 1'
_cell_length_a   4.00326000
_cell_length_b   12.95342380
_cell_length_c   13.74907500
_cell_angle_alpha   90.06679056
_cell_angle_beta   90.00000000
_cell_angle_gamma   90.00000000
_symmetry_Int_Tables_number   1
_chemical_formula_structural   Nd4PCl6
_chemical_formula_sum   'Nd8 P2 Cl12'
_cell_volume   712.97049513
_cell_formula_units_Z   2
loop_
 _symmetry_equiv_pos_site_id
 _symmetry_equiv_pos_as_xyz
  1  'x, y, z'
loop_
 _atom_site_type_symbol
 _atom_site_label
 _atom_site_symmetry_multiplicity
 _atom_site_fract_x
 _atom_site_fract_y
 _atom_site_fract_z
 _atom_site_occupancy
  Nd  Nd0  1  0.500000  0.121571  0.336928  1
  Nd  Nd1  1  0.500000  0.878429  0.663072  1
  Nd  Nd2  1  0.500000  0.621626  0.162876  1
  Nd  Nd3  1  0.500000  0.378374  0.837124  1
  Nd  Nd4  1  0.000000  0.122254  0.580929  1
  Nd  Nd5  1  0.000000  0.877746  0.419071  1
  Nd  Nd6  1  0.000000  0.622008  0.919162  1
  Nd  Nd7  1  0.000000  0.377992  0.080838  1
  P  P8  1  0.500000  0.500000  0.000000  1
  P  P9  1  0.500000  0.000000  0.500000  1
  Cl  Cl10  1  0.500000  0.240710  0.162796  1
  Cl  Cl11  1  0.500000  0.759290  0.837204  1
  Cl  Cl12  1  0.500000  0.741014  0.336866  1
  Cl  Cl13  1  0.500000  0.258986  0.663134  1
  Cl  Cl14  1  0.000000  0.255110  0.411320  1
  Cl  Cl15  1  0.000000  0.744890  0.588680  1
  Cl  Cl16  1  0.000000  0.755194  0.088979  1
  Cl  Cl17  1  0.000000  0.244806  0.911021  1
  Cl  Cl18  1  0.000000  0.001279  0.244193  1
  Cl  Cl19  1  0.000000  0.998721  0.755807  1
  Cl  Cl20  1  0.000000  0.501960  0.256007  1
  Cl  Cl21  1  0.000000  0.498040  0.743993  1
