# generated using pymatgen
data_Tb3YSc4(CrB6)4
_symmetry_space_group_name_H-M   'P 1'
_cell_length_a   3.47456700
_cell_length_b   9.01719700
_cell_length_c   11.38133500
_cell_angle_alpha   90.00031995
_cell_angle_beta   90.00000000
_cell_angle_gamma   90.00000000
_symmetry_Int_Tables_number   1
_chemical_formula_structural   Tb3YSc4(CrB6)4
_chemical_formula_sum   'Tb3 Y1 Sc4 Cr4 B24'
_cell_volume   356.58695805
_cell_formula_units_Z   1
loop_
 _symmetry_equiv_pos_site_id
 _symmetry_equiv_pos_as_xyz
  1  'x, y, z'
loop_
 _atom_site_type_symbol
 _atom_site_label
 _atom_site_symmetry_multiplicity
 _atom_site_fract_x
 _atom_site_fract_y
 _atom_site_fract_z
 _atom_site_occupancy
  Tb  Tb0  1  0.000000  0.822903  0.085223  1
  Tb  Tb1  1  0.000000  0.177038  0.914842  1
  Tb  Tb2  1  0.000000  0.322783  0.414636  1
  Y  Y3  1  0.000000  0.677411  0.585270  1
  Sc  Sc4  1  0.000000  0.443172  0.130927  1
  Sc  Sc5  1  0.000000  0.556976  0.869141  1
  Sc  Sc6  1  0.000000  0.943287  0.369166  1
  Sc  Sc7  1  0.000000  0.056462  0.630826  1
  Cr  Cr8  1  0.000000  0.141745  0.182216  1
  Cr  Cr9  1  0.000000  0.858225  0.817614  1
  Cr  Cr10  1  0.000000  0.641690  0.317893  1
  Cr  Cr11  1  0.000000  0.358357  0.682495  1
  B  B12  1  0.500000  0.055062  0.068152  1
  B  B13  1  0.500000  0.944918  0.931781  1
  B  B14  1  0.500000  0.555046  0.431997  1
  B  B15  1  0.500000  0.445135  0.568042  1
  B  B16  1  0.500000  0.253235  0.083074  1
  B  B17  1  0.500000  0.746756  0.916832  1
  B  B18  1  0.500000  0.753281  0.417104  1
  B  B19  1  0.500000  0.246665  0.582987  1
  B  B20  1  0.500000  0.294573  0.235388  1
  B  B21  1  0.500000  0.705389  0.764457  1
  B  B22  1  0.500000  0.794595  0.264656  1
  B  B23  1  0.500000  0.205265  0.735436  1
  B  B24  1  0.500000  0.129402  0.316449  1
  B  B25  1  0.500000  0.870488  0.683466  1
  B  B26  1  0.500000  0.629433  0.183515  1
  B  B27  1  0.500000  0.370658  0.816537  1
  B  B28  1  0.500000  0.482828  0.286277  1
  B  B29  1  0.500000  0.517428  0.713703  1
  B  B30  1  0.500000  0.982819  0.213747  1
  B  B31  1  0.500000  0.017116  0.786191  1
  B  B32  1  0.500000  0.095743  0.474050  1
  B  B33  1  0.500000  0.904104  0.525979  1
  B  B34  1  0.500000  0.595712  0.025908  1
  B  B35  1  0.500000  0.404299  0.974024  1
