# generated using pymatgen
data_CeHf2F12
_symmetry_space_group_name_H-M   'P 1'
_cell_length_a   8.13923911
_cell_length_b   8.13924017
_cell_length_c   7.83939957
_cell_angle_alpha   61.65782510
_cell_angle_beta   61.65782004
_cell_angle_gamma   79.33097546
_symmetry_Int_Tables_number   1
_chemical_formula_structural   CeHf2F12
_chemical_formula_sum   'Ce2 Hf4 F24'
_cell_volume   401.74965827
_cell_formula_units_Z   2
loop_
 _symmetry_equiv_pos_site_id
 _symmetry_equiv_pos_as_xyz
  1  'x, y, z'
loop_
 _atom_site_type_symbol
 _atom_site_label
 _atom_site_symmetry_multiplicity
 _atom_site_fract_x
 _atom_site_fract_y
 _atom_site_fract_z
 _atom_site_occupancy
  Ce  Ce0  1  0.778526  0.221474  0.000000  1
  Ce  Ce1  1  0.221474  0.778526  0.000000  1
  Hf  Hf2  1  0.350071  0.350071  0.775939  1
  Hf  Hf3  1  0.649929  0.649929  0.224061  1
  Hf  Hf4  1  0.189350  0.189350  0.430771  1
  Hf  Hf5  1  0.810650  0.810650  0.569229  1
  F  F6  1  0.437357  0.695944  0.132534  1
  F  F7  1  0.304056  0.562643  0.867466  1
  F  F8  1  0.562643  0.304056  0.867466  1
  F  F9  1  0.695944  0.437357  0.132534  1
  F  F10  1  0.222218  0.222218  0.139156  1
  F  F11  1  0.777782  0.777782  0.860844  1
  F  F12  1  0.000000  0.000000  0.000000  1
  F  F13  1  0.000000  0.000000  0.500000  1
  F  F14  1  0.387014  0.612986  0.500000  1
  F  F15  1  0.612986  0.387014  0.500000  1
  F  F16  1  0.831385  0.533345  0.720884  1
  F  F17  1  0.466655  0.168615  0.279116  1
  F  F18  1  0.168615  0.466655  0.279116  1
  F  F19  1  0.533345  0.831385  0.720884  1
  F  F20  1  0.711320  0.711320  0.428756  1
  F  F21  1  0.288680  0.288680  0.571244  1
  F  F22  1  0.935753  0.645464  0.110457  1
  F  F23  1  0.354536  0.064247  0.889543  1
  F  F24  1  0.064247  0.354536  0.889543  1
  F  F25  1  0.645464  0.935753  0.110457  1
  F  F26  1  0.780105  0.061667  0.332872  1
  F  F27  1  0.938333  0.219895  0.667128  1
  F  F28  1  0.219895  0.938333  0.667128  1
  F  F29  1  0.061667  0.780105  0.332872  1
