# generated using pymatgen
data_Dy4Al18ZnCo5
_symmetry_space_group_name_H-M   'P 1'
_cell_length_a   7.43435991
_cell_length_b   7.43435024
_cell_length_c   9.31738511
_cell_angle_alpha   90.01648129
_cell_angle_beta   90.01651184
_cell_angle_gamma   119.55773203
_symmetry_Int_Tables_number   1
_chemical_formula_structural   Dy4Al18ZnCo5
_chemical_formula_sum   'Dy4 Al18 Zn1 Co5'
_cell_volume   447.94993380
_cell_formula_units_Z   1
loop_
 _symmetry_equiv_pos_site_id
 _symmetry_equiv_pos_as_xyz
  1  'x, y, z'
loop_
 _atom_site_type_symbol
 _atom_site_label
 _atom_site_symmetry_multiplicity
 _atom_site_fract_x
 _atom_site_fract_y
 _atom_site_fract_z
 _atom_site_occupancy
  Dy  Dy0  1  0.988682  0.663818  0.749882  1
  Dy  Dy1  1  0.000294  0.328411  0.250609  1
  Dy  Dy2  1  0.671589  0.999706  0.749391  1
  Dy  Dy3  1  0.336182  0.011318  0.250118  1
  Al  Al4  1  0.120967  0.118003  0.752728  1
  Al  Al5  1  0.881997  0.879033  0.247272  1
  Al  Al6  1  0.016112  0.335270  0.575090  1
  Al  Al7  1  0.012960  0.678360  0.425060  1
  Al  Al8  1  0.006333  0.666907  0.068785  1
  Al  Al9  1  0.333093  0.993667  0.931215  1
  Al  Al10  1  0.997642  0.334141  0.930497  1
  Al  Al11  1  0.665860  0.002357  0.069503  1
  Al  Al12  1  0.664730  0.983888  0.424910  1
  Al  Al13  1  0.321640  0.987040  0.574940  1
  Al  Al14  1  0.329043  0.330260  0.041653  1
  Al  Al15  1  0.669740  0.670958  0.958347  1
  Al  Al16  1  0.665582  0.673845  0.555014  1
  Al  Al17  1  0.326155  0.334418  0.444986  1
  Al  Al18  1  0.340595  0.558036  0.753124  1
  Al  Al19  1  0.661014  0.457849  0.234892  1
  Al  Al20  1  0.542151  0.338986  0.765108  1
  Al  Al21  1  0.441964  0.659405  0.246876  1
  Zn  Zn22  1  0.673959  0.326041  0.500000  1
  Co  Co23  1  0.330111  0.669889  0.500000  1
  Co  Co24  1  0.329248  0.670752  0.000000  1
  Co  Co25  1  0.671912  0.328088  0.000000  1
  Co  Co26  1  0.000037  0.999964  0.500001  1
  Co  Co27  1  0.000406  0.999594  0.000000  1
