# generated using pymatgen
data_Dy3Ho4Lu13Sn16
_symmetry_space_group_name_H-M   'P 1'
_cell_length_a   7.93331281
_cell_length_b   8.05949607
_cell_length_c   15.22615500
_cell_angle_alpha   90.01293006
_cell_angle_beta   90.21380280
_cell_angle_gamma   89.90696942
_symmetry_Int_Tables_number   1
_chemical_formula_structural   Dy3Ho4Lu13Sn16
_chemical_formula_sum   'Dy3 Ho4 Lu13 Sn16'
_cell_volume   973.52947956
_cell_formula_units_Z   1
loop_
 _symmetry_equiv_pos_site_id
 _symmetry_equiv_pos_as_xyz
  1  'x, y, z'
loop_
 _atom_site_type_symbol
 _atom_site_label
 _atom_site_symmetry_multiplicity
 _atom_site_fract_x
 _atom_site_fract_y
 _atom_site_fract_z
 _atom_site_occupancy
  Dy  Dy0  1  0.980552  0.821303  0.404443  1
  Dy  Dy1  1  0.518534  0.321788  0.595411  1
  Dy  Dy2  1  0.020381  0.179136  0.903799  1
  Ho  Ho3  1  0.019510  0.179186  0.596480  1
  Ho  Ho4  1  0.480679  0.678906  0.404453  1
  Ho  Ho5  1  0.979404  0.820853  0.095960  1
  Ho  Ho6  1  0.479322  0.678062  0.095836  1
  Lu  Lu7  1  0.364956  0.838280  0.876434  1
  Lu  Lu8  1  0.863455  0.662229  0.624016  1
  Lu  Lu9  1  0.635750  0.162178  0.376048  1
  Lu  Lu10  1  0.134063  0.338265  0.123200  1
  Lu  Lu11  1  0.634206  0.161819  0.123177  1
  Lu  Lu12  1  0.135926  0.337999  0.376304  1
  Lu  Lu13  1  0.364277  0.838460  0.624480  1
  Lu  Lu14  1  0.865998  0.661345  0.876660  1
  Lu  Lu15  1  0.522824  0.321257  0.903160  1
  Lu  Lu16  1  0.195813  0.504835  0.750487  1
  Lu  Lu17  1  0.695323  0.995195  0.750514  1
  Lu  Lu18  1  0.804294  0.494821  0.249733  1
  Lu  Lu19  1  0.304420  0.005050  0.249778  1
  Sn  Sn20  1  0.295936  0.039187  0.041640  1
  Sn  Sn21  1  0.797465  0.459492  0.458684  1
  Sn  Sn22  1  0.701739  0.960594  0.541359  1
  Sn  Sn23  1  0.207262  0.537347  0.957825  1
  Sn  Sn24  1  0.703005  0.960843  0.958232  1
  Sn  Sn25  1  0.201790  0.541095  0.541432  1
  Sn  Sn26  1  0.297889  0.040243  0.458707  1
  Sn  Sn27  1  0.794861  0.459074  0.040442  1
  Sn  Sn28  1  0.561382  0.619711  0.750450  1
  Sn  Sn29  1  0.061117  0.879596  0.750268  1
  Sn  Sn30  1  0.438733  0.380139  0.249609  1
  Sn  Sn31  1  0.938692  0.120062  0.249814  1
  Sn  Sn32  1  0.331512  0.151436  0.750894  1
  Sn  Sn33  1  0.829220  0.350183  0.750073  1
  Sn  Sn34  1  0.669765  0.850040  0.250109  1
  Sn  Sn35  1  0.169945  0.649994  0.250086  1
