# generated using pymatgen
data_Tm2LuMg(ReB6)2
_symmetry_space_group_name_H-M   'P 1'
_cell_length_a   3.59681700
_cell_length_b   9.00854119
_cell_length_c   11.35067800
_cell_angle_alpha   90.09630644
_cell_angle_beta   90.00000000
_cell_angle_gamma   90.00000000
_symmetry_Int_Tables_number   1
_chemical_formula_structural   Tm2LuMg(ReB6)2
_chemical_formula_sum   'Tm4 Lu2 Mg2 Re4 B24'
_cell_volume   367.78498999
_cell_formula_units_Z   2
loop_
 _symmetry_equiv_pos_site_id
 _symmetry_equiv_pos_as_xyz
  1  'x, y, z'
loop_
 _atom_site_type_symbol
 _atom_site_label
 _atom_site_symmetry_multiplicity
 _atom_site_fract_x
 _atom_site_fract_y
 _atom_site_fract_z
 _atom_site_occupancy
  Tm  Tm0  1  0.000000  0.324566  0.413447  1
  Tm  Tm1  1  0.000000  0.675434  0.586553  1
  Tm  Tm2  1  0.000000  0.823543  0.086503  1
  Tm  Tm3  1  0.000000  0.176457  0.913497  1
  Lu  Lu4  1  0.000000  0.443299  0.130665  1
  Lu  Lu5  1  0.000000  0.556701  0.869335  1
  Mg  Mg6  1  0.000000  0.944739  0.373289  1
  Mg  Mg7  1  0.000000  0.055261  0.626711  1
  Re  Re8  1  0.000000  0.643693  0.322864  1
  Re  Re9  1  0.000000  0.356307  0.677136  1
  Re  Re10  1  0.000000  0.137754  0.184180  1
  Re  Re11  1  0.000000  0.862246  0.815820  1
  B  B12  1  0.500000  0.555260  0.434014  1
  B  B13  1  0.500000  0.444740  0.565986  1
  B  B14  1  0.500000  0.052694  0.067369  1
  B  B15  1  0.500000  0.947306  0.932631  1
  B  B16  1  0.500000  0.756640  0.419843  1
  B  B17  1  0.500000  0.243360  0.580157  1
  B  B18  1  0.500000  0.250179  0.081675  1
  B  B19  1  0.500000  0.749821  0.918325  1
  B  B20  1  0.500000  0.795925  0.264242  1
  B  B21  1  0.500000  0.204075  0.735758  1
  B  B22  1  0.500000  0.292323  0.237713  1
  B  B23  1  0.500000  0.707677  0.762287  1
  B  B24  1  0.500000  0.631767  0.184861  1
  B  B25  1  0.500000  0.368233  0.815139  1
  B  B26  1  0.500000  0.126603  0.318955  1
  B  B27  1  0.500000  0.873397  0.681045  1
  B  B28  1  0.500000  0.979050  0.212534  1
  B  B29  1  0.500000  0.020950  0.787466  1
  B  B30  1  0.500000  0.482197  0.288665  1
  B  B31  1  0.500000  0.517803  0.711335  1
  B  B32  1  0.500000  0.599148  0.027012  1
  B  B33  1  0.500000  0.400852  0.972988  1
  B  B34  1  0.500000  0.092247  0.474186  1
  B  B35  1  0.500000  0.907753  0.525814  1
