# generated using pymatgen
data_Y2AsPdPt7
_symmetry_space_group_name_H-M   'P 1'
_cell_length_a   4.14756000
_cell_length_b   4.09017000
_cell_length_c   11.38645700
_cell_angle_alpha   90.00000000
_cell_angle_beta   90.00000000
_cell_angle_gamma   90.00000000
_symmetry_Int_Tables_number   1
_chemical_formula_structural   Y2AsPdPt7
_chemical_formula_sum   'Y2 As1 Pd1 Pt7'
_cell_volume   193.16242403
_cell_formula_units_Z   1
loop_
 _symmetry_equiv_pos_site_id
 _symmetry_equiv_pos_as_xyz
  1  'x, y, z'
loop_
 _atom_site_type_symbol
 _atom_site_label
 _atom_site_symmetry_multiplicity
 _atom_site_fract_x
 _atom_site_fract_y
 _atom_site_fract_z
 _atom_site_occupancy
  Y  Y0  1  0.500000  0.500000  0.819059  1
  Y  Y1  1  0.500000  0.500000  0.181221  1
  As  As2  1  0.000000  0.000000  0.499857  1
  Pd  Pd3  1  0.500000  0.000000  0.631632  1
  Pt  Pt4  1  0.500000  0.000000  0.999907  1
  Pt  Pt5  1  0.000000  0.500000  0.999562  1
  Pt  Pt6  1  0.000000  0.500000  0.634698  1
  Pt  Pt7  1  0.500000  0.000000  0.367883  1
  Pt  Pt8  1  0.000000  0.500000  0.366179  1
  Pt  Pt9  1  0.000000  0.000000  0.817770  1
  Pt  Pt10  1  0.000000  0.000000  0.182234  1
