# generated using pymatgen
data_Hf3Zr3InNiTe
_symmetry_space_group_name_H-M   'P 1'
_cell_length_a   3.55576400
_cell_length_b   7.87221547
_cell_length_c   7.87221700
_cell_angle_alpha   119.99999384
_cell_angle_beta   90.00000000
_cell_angle_gamma   90.00000000
_symmetry_Int_Tables_number   1
_chemical_formula_structural   Hf3Zr3InNiTe
_chemical_formula_sum   'Hf3 Zr3 In1 Ni1 Te1'
_cell_volume   190.83481873
_cell_formula_units_Z   1
loop_
 _symmetry_equiv_pos_site_id
 _symmetry_equiv_pos_as_xyz
  1  'x, y, z'
loop_
 _atom_site_type_symbol
 _atom_site_label
 _atom_site_symmetry_multiplicity
 _atom_site_fract_x
 _atom_site_fract_y
 _atom_site_fract_z
 _atom_site_occupancy
  Hf  Hf0  1  0.500000  0.757973  0.762775  1
  Hf  Hf1  1  0.500000  0.004802  0.242027  1
  Hf  Hf2  1  0.500000  0.237225  0.995198  1
  Zr  Zr3  1  0.000000  0.401999  0.394383  1
  Zr  Zr4  1  0.000000  0.992385  0.598001  1
  Zr  Zr5  1  0.000000  0.605617  0.007615  1
  In  In6  1  0.500000  0.333333  0.666667  1
  Ni  Ni7  1  0.000000  0.000000  0.000000  1
  Te  Te8  1  0.500000  0.666667  0.333333  1
