# generated using pymatgen
data_TbInFeCo
_symmetry_space_group_name_H-M   'P 1'
_cell_length_a   3.99617900
_cell_length_b   5.08024100
_cell_length_c   7.27413200
_cell_angle_alpha   90.00000000
_cell_angle_beta   90.00000000
_cell_angle_gamma   90.00000000
_symmetry_Int_Tables_number   1
_chemical_formula_structural   TbInFeCo
_chemical_formula_sum   'Tb2 In2 Fe2 Co2'
_cell_volume   147.67617196
_cell_formula_units_Z   2
loop_
 _symmetry_equiv_pos_site_id
 _symmetry_equiv_pos_as_xyz
  1  'x, y, z'
loop_
 _atom_site_type_symbol
 _atom_site_label
 _atom_site_symmetry_multiplicity
 _atom_site_fract_x
 _atom_site_fract_y
 _atom_site_fract_z
 _atom_site_occupancy
  Tb  Tb0  1  0.500000  0.750000  0.286755  1
  Tb  Tb1  1  0.500000  0.250000  0.713245  1
  In  In2  1  0.000000  0.750000  0.651548  1
  In  In3  1  0.000000  0.250000  0.348452  1
  Fe  Fe4  1  0.000000  0.500000  0.000000  1
  Fe  Fe5  1  0.000000  0.000000  0.000000  1
  Co  Co6  1  0.500000  0.250000  0.085936  1
  Co  Co7  1  0.500000  0.750000  0.914064  1
