# generated using pymatgen
data_Cs2NaAg2Br5
_symmetry_space_group_name_H-M   'P 1'
_cell_length_a   8.36173811
_cell_length_b   8.36173616
_cell_length_c   10.79789178
_cell_angle_alpha   65.79218017
_cell_angle_beta   65.79218512
_cell_angle_gamma   32.41860471
_symmetry_Int_Tables_number   1
_chemical_formula_structural   Cs2NaAg2Br5
_chemical_formula_sum   'Cs2 Na1 Ag2 Br5'
_cell_volume   365.98458323
_cell_formula_units_Z   1
loop_
 _symmetry_equiv_pos_site_id
 _symmetry_equiv_pos_as_xyz
  1  'x, y, z'
loop_
 _atom_site_type_symbol
 _atom_site_label
 _atom_site_symmetry_multiplicity
 _atom_site_fract_x
 _atom_site_fract_y
 _atom_site_fract_z
 _atom_site_occupancy
  Cs  Cs0  1  0.180941  0.180941  0.274924  1
  Cs  Cs1  1  0.819059  0.819059  0.725076  1
  Na  Na2  1  0.000000  0.000000  0.000000  1
  Ag  Ag3  1  0.446736  0.446736  0.290181  1
  Ag  Ag4  1  0.553264  0.553264  0.709819  1
  Br  Br5  1  0.606967  0.606967  0.059665  1
  Br  Br6  1  0.393033  0.393033  0.940335  1
  Br  Br7  1  0.145162  0.145162  0.696150  1
  Br  Br8  1  0.500000  0.500000  0.500000  1
  Br  Br9  1  0.854838  0.854838  0.303850  1
