# generated using pymatgen
data_Tb3Dy8YCo5Sn
_symmetry_space_group_name_H-M   'P 1'
_cell_length_a   8.29466396
_cell_length_b   8.30395540
_cell_length_c   8.30395585
_cell_angle_alpha   107.15549591
_cell_angle_beta   110.66147113
_cell_angle_gamma   110.66958265
_symmetry_Int_Tables_number   1
_chemical_formula_structural   Tb3Dy8YCo5Sn
_chemical_formula_sum   'Tb3 Dy8 Y1 Co5 Sn1'
_cell_volume   439.49306373
_cell_formula_units_Z   1
loop_
 _symmetry_equiv_pos_site_id
 _symmetry_equiv_pos_as_xyz
  1  'x, y, z'
loop_
 _atom_site_type_symbol
 _atom_site_label
 _atom_site_symmetry_multiplicity
 _atom_site_fract_x
 _atom_site_fract_y
 _atom_site_fract_z
 _atom_site_occupancy
  Tb  Tb0  1  0.106957  0.292862  0.814095  1
  Tb  Tb1  1  0.893217  0.707108  0.186109  1
  Tb  Tb2  1  0.521004  0.707488  0.813516  1
  Dy  Dy3  1  0.307103  0.621099  0.314169  1
  Dy  Dy4  1  0.307103  0.992935  0.686004  1
  Dy  Dy5  1  0.693024  0.378961  0.685959  1
  Dy  Dy6  1  0.693024  0.007065  0.314063  1
  Dy  Dy7  1  0.192124  0.207253  0.399541  1
  Dy  Dy8  1  0.808008  0.792720  0.600631  1
  Dy  Dy9  1  0.192124  0.792583  0.984870  1
  Dy  Dy10  1  0.808008  0.207378  0.015289  1
  Y  Y11  1  0.479203  0.292132  0.187071  1
  Co  Co12  1  0.499714  0.612405  0.111681  1
  Co  Co13  1  0.499714  0.388033  0.887309  1
  Co  Co14  1  0.377621  0.000245  0.377376  1
  Co  Co15  1  0.622456  0.999985  0.622471  1
  Co  Co16  1  0.999914  0.999889  0.000025  1
  Sn  Sn17  1  0.999681  0.499861  0.499820  1
