# generated using pymatgen
data_Tm4As6Ir2Rh5
_symmetry_space_group_name_H-M   'P 1'
_cell_length_a   7.25085371
_cell_length_b   7.25530719
_cell_length_c   7.25101136
_cell_angle_alpha   109.43863203
_cell_angle_beta   109.50790297
_cell_angle_gamma   109.44123460
_symmetry_Int_Tables_number   1
_chemical_formula_structural   Tm4As6Ir2Rh5
_chemical_formula_sum   'Tm4 As6 Ir2 Rh5'
_cell_volume   293.73803818
_cell_formula_units_Z   1
loop_
 _symmetry_equiv_pos_site_id
 _symmetry_equiv_pos_as_xyz
  1  'x, y, z'
loop_
 _atom_site_type_symbol
 _atom_site_label
 _atom_site_symmetry_multiplicity
 _atom_site_fract_x
 _atom_site_fract_y
 _atom_site_fract_z
 _atom_site_occupancy
  Tm  Tm0  1  0.500013  0.500003  0.499984  1
  Tm  Tm1  1  0.000015  0.500002  0.999990  1
  Tm  Tm2  1  0.499979  0.000001  0.000127  1
  Tm  Tm3  1  0.999872  0.999996  0.500020  1
  As  As4  1  0.682218  0.999995  0.683270  1
  As  As5  1  0.682494  0.682007  0.999507  1
  As  As6  1  0.317641  0.317056  0.999425  1
  As  As7  1  0.000570  0.682951  0.682356  1
  As  As8  1  0.000503  0.317985  0.317503  1
  As  As9  1  0.316725  0.000000  0.317778  1
  Ir  Ir10  1  0.500295  0.749811  0.249537  1
  Ir  Ir11  1  0.750482  0.250204  0.499729  1
  Rh  Rh12  1  0.249661  0.749228  0.499589  1
  Rh  Rh13  1  0.249596  0.499978  0.750389  1
  Rh  Rh14  1  0.999948  0.999998  0.000040  1
  Rh  Rh15  1  0.500412  0.250777  0.750330  1
  Rh  Rh16  1  0.749577  0.500009  0.250429  1
