# generated using pymatgen
data_Y20Ir7Ru4Au
_symmetry_space_group_name_H-M   'P 1'
_cell_length_a   10.91060526
_cell_length_b   10.91060526
_cell_length_c   6.48811076
_cell_angle_alpha   90.07477404
_cell_angle_beta   90.07477404
_cell_angle_gamma   89.72263943
_symmetry_Int_Tables_number   1
_chemical_formula_structural   Y20Ir7Ru4Au
_chemical_formula_sum   'Y20 Ir7 Ru4 Au1'
_cell_volume   772.34282817
_cell_formula_units_Z   1
loop_
 _symmetry_equiv_pos_site_id
 _symmetry_equiv_pos_as_xyz
  1  'x, y, z'
loop_
 _atom_site_type_symbol
 _atom_site_label
 _atom_site_symmetry_multiplicity
 _atom_site_fract_x
 _atom_site_fract_y
 _atom_site_fract_z
 _atom_site_occupancy
  Y  Y0  1  0.291937  0.085769  0.378265  1
  Y  Y1  1  0.294993  0.912804  0.878468  1
  Y  Y2  1  0.701626  0.083290  0.864975  1
  Y  Y3  1  0.703561  0.906158  0.382143  1
  Y  Y4  1  0.586477  0.792716  0.880017  1
  Y  Y5  1  0.577928  0.207219  0.379102  1
  Y  Y6  1  0.411736  0.792741  0.379251  1
  Y  Y7  1  0.412144  0.206505  0.880292  1
  Y  Y8  1  0.207284  0.413523  0.619983  1
  Y  Y9  1  0.207259  0.588264  0.120749  1
  Y  Y10  1  0.792781  0.422072  0.120898  1
  Y  Y11  1  0.793495  0.587856  0.619708  1
  Y  Y12  1  0.914231  0.708063  0.121735  1
  Y  Y13  1  0.916710  0.298374  0.635025  1
  Y  Y14  1  0.087196  0.705007  0.621532  1
  Y  Y15  1  0.093842  0.296439  0.117857  1
  Y  Y16  1  0.003409  0.995681  0.503457  1
  Y  Y17  1  0.004319  0.996591  0.996543  1
  Y  Y18  1  0.499347  0.500266  0.999109  1
  Y  Y19  1  0.499734  0.500653  0.500891  1
  Ir  Ir20  1  0.848404  0.848986  0.750316  1
  Ir  Ir21  1  0.151014  0.151596  0.749684  1
  Ir  Ir22  1  0.153310  0.846690  0.250000  1
  Ir  Ir23  1  0.653589  0.346411  0.750000  1
  Ir  Ir24  1  0.652181  0.651887  0.249736  1
  Ir  Ir25  1  0.348113  0.347819  0.250264  1
  Ir  Ir26  1  0.347334  0.652666  0.750000  1
  Ru  Ru27  1  0.500552  0.999622  0.126810  1
  Ru  Ru28  1  0.499748  0.999360  0.623969  1
  Ru  Ru29  1  0.000640  0.500252  0.876031  1
  Ru  Ru30  1  0.000378  0.499448  0.373190  1
  Au  Au31  1  0.844727  0.155273  0.250000  1
