# generated using pymatgen
data_Y12Fe2Ni3Bi
_symmetry_space_group_name_H-M   'P 1'
_cell_length_a   8.40137936
_cell_length_b   8.40181253
_cell_length_c   8.40137800
_cell_angle_alpha   109.47476363
_cell_angle_beta   110.52192385
_cell_angle_gamma   108.42175544
_symmetry_Int_Tables_number   1
_chemical_formula_structural   Y12Fe2Ni3Bi
_chemical_formula_sum   'Y12 Fe2 Ni3 Bi1'
_cell_volume   456.37008653
_cell_formula_units_Z   1
loop_
 _symmetry_equiv_pos_site_id
 _symmetry_equiv_pos_as_xyz
  1  'x, y, z'
loop_
 _atom_site_type_symbol
 _atom_site_label
 _atom_site_symmetry_multiplicity
 _atom_site_fract_x
 _atom_site_fract_y
 _atom_site_fract_z
 _atom_site_occupancy
  Y  Y0  1  0.288610  0.180315  0.468931  1
  Y  Y1  1  0.711390  0.819685  0.531069  1
  Y  Y2  1  0.288616  0.819685  0.108295  1
  Y  Y3  1  0.711384  0.180315  0.891705  1
  Y  Y4  1  0.623735  0.315795  0.307953  1
  Y  Y5  1  0.376265  0.684205  0.692047  1
  Y  Y6  1  0.007842  0.315795  0.692061  1
  Y  Y7  1  0.992158  0.684205  0.307939  1
  Y  Y8  1  0.210819  0.406947  0.196130  1
  Y  Y9  1  0.789181  0.593053  0.803870  1
  Y  Y10  1  0.210808  0.014665  0.803855  1
  Y  Y11  1  0.789192  0.985335  0.196145  1
  Fe  Fe12  1  0.391613  0.891627  0.500014  1
  Fe  Fe13  1  0.608387  0.108373  0.499986  1
  Ni  Ni14  1  0.000003  0.368669  0.368668  1
  Ni  Ni15  1  0.999997  0.631331  0.631332  1
  Ni  Ni16  1  0.000000  0.000000  0.000000  1
  Bi  Bi17  1  0.500000  0.500000  0.000000  1
