# generated using pymatgen
data_Zr6Ti6Si5Ge
_symmetry_space_group_name_H-M   'P 1'
_cell_length_a   7.97639618
_cell_length_b   7.97688242
_cell_length_c   7.97585888
_cell_angle_alpha   127.38195725
_cell_angle_beta   124.65452685
_cell_angle_gamma   79.87714314
_symmetry_Int_Tables_number   1
_chemical_formula_structural   Zr6Ti6Si5Ge
_chemical_formula_sum   'Zr6 Ti6 Si5 Ge1'
_cell_volume   320.36495732
_cell_formula_units_Z   1
loop_
 _symmetry_equiv_pos_site_id
 _symmetry_equiv_pos_as_xyz
  1  'x, y, z'
loop_
 _atom_site_type_symbol
 _atom_site_label
 _atom_site_symmetry_multiplicity
 _atom_site_fract_x
 _atom_site_fract_y
 _atom_site_fract_z
 _atom_site_occupancy
  Zr  Zr0  1  0.545800  0.505292  0.456277  1
  Zr  Zr1  1  0.049822  0.505529  0.958673  1
  Zr  Zr2  1  0.247818  0.097970  0.346406  1
  Zr  Zr3  1  0.750297  0.096785  0.850071  1
  Zr  Zr4  1  0.954344  0.906941  0.456181  1
  Zr  Zr5  1  0.451662  0.908441  0.953075  1
  Ti  Ti6  1  0.626048  0.505371  0.883595  1
  Ti  Ti7  1  0.000176  0.752399  0.752371  1
  Ti  Ti8  1  0.878871  0.254551  0.380131  1
  Ti  Ti9  1  0.122177  0.502415  0.375944  1
  Ti  Ti10  1  0.499517  0.749112  0.249892  1
  Ti  Ti11  1  0.373530  0.255430  0.877464  1
  Si  Si12  1  0.333386  0.837476  0.503178  1
  Si  Si13  1  0.749022  0.501468  0.253856  1
  Si  Si14  1  0.833223  0.835874  0.003538  1
  Si  Si15  1  0.251029  0.504852  0.752601  1
  Si  Si16  1  0.166319  0.170002  0.002918  1
  Ge  Ge17  1  0.666958  0.170088  0.503829  1
