# generated using pymatgen
data_Lu8TlHg3
_symmetry_space_group_name_H-M   'P 1'
_cell_length_a   5.07385600
_cell_length_b   6.80078804
_cell_length_c   9.13020112
_cell_angle_alpha   89.60356642
_cell_angle_beta   90.00000000
_cell_angle_gamma   90.00000000
_symmetry_Int_Tables_number   1
_chemical_formula_structural   Lu8TlHg3
_chemical_formula_sum   'Lu8 Tl1 Hg3'
_cell_volume   315.04117974
_cell_formula_units_Z   1
loop_
 _symmetry_equiv_pos_site_id
 _symmetry_equiv_pos_as_xyz
  1  'x, y, z'
loop_
 _atom_site_type_symbol
 _atom_site_label
 _atom_site_symmetry_multiplicity
 _atom_site_fract_x
 _atom_site_fract_y
 _atom_site_fract_z
 _atom_site_occupancy
  Lu  Lu0  1  0.250000  0.822431  0.925925  1
  Lu  Lu1  1  0.250000  0.331852  0.579311  1
  Lu  Lu2  1  0.750000  0.170542  0.065592  1
  Lu  Lu3  1  0.750000  0.685352  0.427460  1
  Lu  Lu4  1  0.250000  0.978596  0.294098  1
  Lu  Lu5  1  0.250000  0.480567  0.201063  1
  Lu  Lu6  1  0.750000  0.016790  0.706081  1
  Lu  Lu7  1  0.750000  0.519069  0.802103  1
  Tl  Tl8  1  0.750000  0.229029  0.395970  1
  Hg  Hg9  1  0.250000  0.264934  0.900975  1
  Hg  Hg10  1  0.250000  0.771472  0.600105  1
  Hg  Hg11  1  0.750000  0.729368  0.101315  1
