# generated using pymatgen
data_LiLa4Lu5Si8
_symmetry_space_group_name_H-M   'P 1'
_cell_length_a   7.35555400
_cell_length_b   7.78647900
_cell_length_c   14.74976600
_cell_angle_alpha   90.00000000
_cell_angle_beta   90.00000000
_cell_angle_gamma   90.00000000
_symmetry_Int_Tables_number   1
_chemical_formula_structural   LiLa4Lu5Si8
_chemical_formula_sum   'Li2 La8 Lu10 Si16'
_cell_volume   844.77613254
_cell_formula_units_Z   2
loop_
 _symmetry_equiv_pos_site_id
 _symmetry_equiv_pos_as_xyz
  1  'x, y, z'
loop_
 _atom_site_type_symbol
 _atom_site_label
 _atom_site_symmetry_multiplicity
 _atom_site_fract_x
 _atom_site_fract_y
 _atom_site_fract_z
 _atom_site_occupancy
  Li  Li0  1  0.652693  0.001316  0.750000  1
  Li  Li1  1  0.847307  0.501316  0.250000  1
  La  La2  1  0.010580  0.184359  0.399625  1
  La  La3  1  0.522246  0.327353  0.397495  1
  La  La4  1  0.489420  0.684359  0.899625  1
  La  La5  1  0.489420  0.684359  0.600375  1
  La  La6  1  0.977754  0.827353  0.602505  1
  La  La7  1  0.977754  0.827353  0.897495  1
  La  La8  1  0.522246  0.327353  0.102505  1
  La  La9  1  0.010580  0.184359  0.100375  1
  Lu  Lu10  1  0.333933  0.172502  0.624258  1
  Lu  Lu11  1  0.677092  0.812268  0.374570  1
  Lu  Lu12  1  0.166067  0.672502  0.375742  1
  Lu  Lu13  1  0.822908  0.312268  0.874570  1
  Lu  Lu14  1  0.822908  0.312268  0.625430  1
  Lu  Lu15  1  0.342184  0.001757  0.250000  1
  Lu  Lu16  1  0.333933  0.172502  0.875742  1
  Lu  Lu17  1  0.166067  0.672502  0.124258  1
  Lu  Lu18  1  0.677092  0.812268  0.125430  1
  Lu  Lu19  1  0.157816  0.501757  0.750000  1
  Si  Si20  1  0.277021  0.885310  0.750000  1
  Si  Si21  1  0.461925  0.616282  0.250000  1
  Si  Si22  1  0.038075  0.116282  0.750000  1
  Si  Si23  1  0.529221  0.389858  0.750000  1
  Si  Si24  1  0.150539  0.468193  0.541096  1
  Si  Si25  1  0.970779  0.889858  0.250000  1
  Si  Si26  1  0.715658  0.101746  0.250000  1
  Si  Si27  1  0.850019  0.537189  0.029518  1
  Si  Si28  1  0.349461  0.968193  0.041096  1
  Si  Si29  1  0.150539  0.468193  0.958904  1
  Si  Si30  1  0.649981  0.037189  0.529518  1
  Si  Si31  1  0.349461  0.968193  0.458904  1
  Si  Si32  1  0.850019  0.537189  0.470482  1
  Si  Si33  1  0.784342  0.601746  0.750000  1
  Si  Si34  1  0.222979  0.385310  0.250000  1
  Si  Si35  1  0.649981  0.037189  0.970482  1
