# generated using pymatgen
data_YEr2Co8MoP6
_symmetry_space_group_name_H-M   'P 1'
_cell_length_a   3.70866000
_cell_length_b   10.53231800
_cell_length_c   12.22150600
_cell_angle_alpha   90.00000000
_cell_angle_beta   90.00000000
_cell_angle_gamma   90.00000000
_symmetry_Int_Tables_number   1
_chemical_formula_structural   YEr2Co8MoP6
_chemical_formula_sum   'Y2 Er4 Co16 Mo2 P12'
_cell_volume   477.38163626
_cell_formula_units_Z   2
loop_
 _symmetry_equiv_pos_site_id
 _symmetry_equiv_pos_as_xyz
  1  'x, y, z'
loop_
 _atom_site_type_symbol
 _atom_site_label
 _atom_site_symmetry_multiplicity
 _atom_site_fract_x
 _atom_site_fract_y
 _atom_site_fract_z
 _atom_site_occupancy
  Y  Y0  1  0.750000  0.250000  0.475602  1
  Y  Y1  1  0.250000  0.750000  0.524398  1
  Er  Er2  1  0.250000  0.930824  0.795010  1
  Er  Er3  1  0.250000  0.569176  0.795010  1
  Er  Er4  1  0.750000  0.069176  0.204990  1
  Er  Er5  1  0.750000  0.430824  0.204990  1
  Co  Co6  1  0.250000  0.250000  0.297963  1
  Co  Co7  1  0.750000  0.750000  0.702037  1
  Co  Co8  1  0.750000  0.250000  0.013849  1
  Co  Co9  1  0.250000  0.750000  0.986151  1
  Co  Co10  1  0.250000  0.417535  0.009974  1
  Co  Co11  1  0.250000  0.082465  0.009974  1
  Co  Co12  1  0.750000  0.582465  0.990026  1
  Co  Co13  1  0.750000  0.917535  0.990026  1
  Co  Co14  1  0.250000  0.454151  0.568747  1
  Co  Co15  1  0.250000  0.045849  0.568747  1
  Co  Co16  1  0.750000  0.545849  0.431253  1
  Co  Co17  1  0.750000  0.954151  0.431253  1
  Co  Co18  1  0.250000  0.872389  0.292948  1
  Co  Co19  1  0.250000  0.627611  0.292948  1
  Co  Co20  1  0.750000  0.127611  0.707052  1
  Co  Co21  1  0.750000  0.372389  0.707052  1
  Mo  Mo22  1  0.250000  0.250000  0.843725  1
  Mo  Mo23  1  0.750000  0.750000  0.156275  1
  P  P24  1  0.250000  0.250000  0.119595  1
  P  P25  1  0.750000  0.750000  0.880405  1
  P  P26  1  0.250000  0.250000  0.650775  1
  P  P27  1  0.750000  0.750000  0.349225  1
  P  P28  1  0.250000  0.438539  0.383543  1
  P  P29  1  0.250000  0.061461  0.383543  1
  P  P30  1  0.750000  0.561461  0.616457  1
  P  P31  1  0.750000  0.938539  0.616457  1
  P  P32  1  0.250000  0.905698  0.107331  1
  P  P33  1  0.250000  0.594302  0.107331  1
  P  P34  1  0.750000  0.094302  0.892669  1
  P  P35  1  0.750000  0.405698  0.892669  1
