# generated using pymatgen
data_CaEuCuN2
_symmetry_space_group_name_H-M   'P 1'
_cell_length_a   3.58791779
_cell_length_b   3.58798343
_cell_length_c   6.69311939
_cell_angle_alpha   105.54670150
_cell_angle_beta   105.54642201
_cell_angle_gamma   89.98567547
_symmetry_Int_Tables_number   1
_chemical_formula_structural   CaEuCuN2
_chemical_formula_sum   'Ca1 Eu1 Cu1 N2'
_cell_volume   79.73535287
_cell_formula_units_Z   1
loop_
 _symmetry_equiv_pos_site_id
 _symmetry_equiv_pos_as_xyz
  1  'x, y, z'
loop_
 _atom_site_type_symbol
 _atom_site_label
 _atom_site_symmetry_multiplicity
 _atom_site_fract_x
 _atom_site_fract_y
 _atom_site_fract_z
 _atom_site_occupancy
  Ca  Ca0  1  0.151976  0.151954  0.803934  1
  Eu  Eu1  1  0.841499  0.841458  0.183107  1
  Cu  Cu2  1  0.502725  0.502822  0.505348  1
  N  N3  1  0.651727  0.651730  0.803388  1
  N  N4  1  0.352073  0.352035  0.204223  1
