# generated using pymatgen
data_HfSc3Al7Tc
_symmetry_space_group_name_H-M   'P 1'
_cell_length_a   5.33457300
_cell_length_b   5.33457471
_cell_length_c   8.64052000
_cell_angle_alpha   90.00000000
_cell_angle_beta   90.00000000
_cell_angle_gamma   119.99998319
_symmetry_Int_Tables_number   1
_chemical_formula_structural   HfSc3Al7Tc
_chemical_formula_sum   'Hf1 Sc3 Al7 Tc1'
_cell_volume   212.94627590
_cell_formula_units_Z   1
loop_
 _symmetry_equiv_pos_site_id
 _symmetry_equiv_pos_as_xyz
  1  'x, y, z'
loop_
 _atom_site_type_symbol
 _atom_site_label
 _atom_site_symmetry_multiplicity
 _atom_site_fract_x
 _atom_site_fract_y
 _atom_site_fract_z
 _atom_site_occupancy
  Hf  Hf0  1  0.333333  0.666667  0.062192  1
  Sc  Sc1  1  0.333333  0.666667  0.444960  1
  Sc  Sc2  1  0.666667  0.333333  0.554147  1
  Sc  Sc3  1  0.666667  0.333333  0.935573  1
  Al  Al4  1  0.000000  0.000000  0.500209  1
  Al  Al5  1  0.830909  0.169091  0.242353  1
  Al  Al6  1  0.830909  0.661819  0.242353  1
  Al  Al7  1  0.338181  0.169091  0.242353  1
  Al  Al8  1  0.169305  0.830695  0.758435  1
  Al  Al9  1  0.169305  0.338611  0.758435  1
  Al  Al10  1  0.661389  0.830695  0.758435  1
  Tc  Tc11  1  0.000000  0.000000  0.000555  1
