# generated using pymatgen
data_Ce3Sm2Y5(Al2Ru3)2
_symmetry_space_group_name_H-M   'P 1'
_cell_length_a   8.47022631
_cell_length_b   8.48576303
_cell_length_c   8.48339916
_cell_angle_alpha   110.31474340
_cell_angle_beta   110.15432218
_cell_angle_gamma   110.09451149
_symmetry_Int_Tables_number   1
_chemical_formula_structural   Ce3Sm2Y5(Al2Ru3)2
_chemical_formula_sum   'Ce3 Sm2 Y5 Al4 Ru6'
_cell_volume   456.51026525
_cell_formula_units_Z   1
loop_
 _symmetry_equiv_pos_site_id
 _symmetry_equiv_pos_as_xyz
  1  'x, y, z'
loop_
 _atom_site_type_symbol
 _atom_site_label
 _atom_site_symmetry_multiplicity
 _atom_site_fract_x
 _atom_site_fract_y
 _atom_site_fract_z
 _atom_site_occupancy
  Ce  Ce0  1  0.252471  0.200398  0.943441  1
  Ce  Ce1  1  0.942808  0.252033  0.199728  1
  Ce  Ce2  1  0.200780  0.943824  0.252516  1
  Sm  Sm3  1  0.992390  0.721762  0.505449  1
  Sm  Sm4  1  0.506871  0.993833  0.722442  1
  Y  Y5  1  0.779741  0.779683  0.780136  1
  Y  Y6  1  0.313199  0.564848  0.753402  1
  Y  Y7  1  0.752560  0.312033  0.565240  1
  Y  Y8  1  0.565236  0.752133  0.311159  1
  Y  Y9  1  0.721787  0.507275  0.993035  1
  Al  Al10  1  0.411511  0.410800  0.411177  1
  Al  Al11  1  0.093646  0.497231  0.004215  1
  Al  Al12  1  0.004475  0.095394  0.497414  1
  Al  Al13  1  0.497230  0.004462  0.095603  1
  Ru  Ru14  1  0.909128  0.121784  0.754284  1
  Ru  Ru15  1  0.754710  0.908796  0.121800  1
  Ru  Ru16  1  0.121306  0.754066  0.909651  1
  Ru  Ru17  1  0.222277  0.590816  0.365614  1
  Ru  Ru18  1  0.366326  0.223052  0.592062  1
  Ru  Ru19  1  0.591547  0.365777  0.221630  1
