# generated using pymatgen
data_Tb2MnIr2Ru
_symmetry_space_group_name_H-M   'P 1'
_cell_length_a   5.19308004
_cell_length_b   5.45867397
_cell_length_c   5.45867555
_cell_angle_alpha   60.58291723
_cell_angle_beta   58.71108190
_cell_angle_gamma   58.71104783
_symmetry_Int_Tables_number   1
_chemical_formula_structural   Tb2MnIr2Ru
_chemical_formula_sum   'Tb2 Mn1 Ir2 Ru1'
_cell_volume   107.68123444
_cell_formula_units_Z   1
loop_
 _symmetry_equiv_pos_site_id
 _symmetry_equiv_pos_as_xyz
  1  'x, y, z'
loop_
 _atom_site_type_symbol
 _atom_site_label
 _atom_site_symmetry_multiplicity
 _atom_site_fract_x
 _atom_site_fract_y
 _atom_site_fract_z
 _atom_site_occupancy
  Tb  Tb0  1  0.622968  0.626817  0.626817  1
  Tb  Tb1  1  0.377032  0.373183  0.373183  1
  Mn  Mn2  1  0.500000  0.000000  0.000000  1
  Ir  Ir3  1  0.000000  0.500000  0.000000  1
  Ir  Ir4  1  0.000000  0.000000  0.500000  1
  Ru  Ru5  1  0.000000  0.000000  0.000000  1
