# generated using pymatgen
data_Yb3YIrRh3O14
_symmetry_space_group_name_H-M   'P 1'
_cell_length_a   7.22284427
_cell_length_b   7.22284459
_cell_length_c   7.22284525
_cell_angle_alpha   59.78187345
_cell_angle_beta   59.78187455
_cell_angle_gamma   59.78187287
_symmetry_Int_Tables_number   1
_chemical_formula_structural   Yb3YIrRh3O14
_chemical_formula_sum   'Yb3 Y1 Ir1 Rh3 O14'
_cell_volume   265.12688675
_cell_formula_units_Z   1
loop_
 _symmetry_equiv_pos_site_id
 _symmetry_equiv_pos_as_xyz
  1  'x, y, z'
loop_
 _atom_site_type_symbol
 _atom_site_label
 _atom_site_symmetry_multiplicity
 _atom_site_fract_x
 _atom_site_fract_y
 _atom_site_fract_z
 _atom_site_occupancy
  Yb  Yb0  1  0.625000  0.125000  0.125000  1
  Yb  Yb1  1  0.125000  0.625000  0.125000  1
  Yb  Yb2  1  0.125000  0.125000  0.625000  1
  Y  Y3  1  0.125000  0.125000  0.125000  1
  Ir  Ir4  1  0.625000  0.625000  0.625000  1
  Rh  Rh5  1  0.125000  0.625000  0.625000  1
  Rh  Rh6  1  0.625000  0.125000  0.625000  1
  Rh  Rh7  1  0.625000  0.625000  0.125000  1
  O  O8  1  0.701681  0.701681  0.300962  1
  O  O9  1  0.293962  0.293962  0.705823  1
  O  O10  1  0.701681  0.300962  0.701681  1
  O  O11  1  0.293962  0.705823  0.293962  1
  O  O12  1  0.300962  0.701681  0.701681  1
  O  O13  1  0.705823  0.293962  0.293962  1
  O  O14  1  0.548319  0.548319  0.949038  1
  O  O15  1  0.956038  0.956038  0.544177  1
  O  O16  1  0.548319  0.949038  0.548319  1
  O  O17  1  0.956038  0.544177  0.956038  1
  O  O18  1  0.949038  0.548319  0.548319  1
  O  O19  1  0.544177  0.956038  0.956038  1
  O  O20  1  0.247607  0.247607  0.247607  1
  O  O21  1  0.002393  0.002393  0.002393  1
