# generated using pymatgen
data_Er2TaMoO8
_symmetry_space_group_name_H-M   'P 1'
_cell_length_a   5.48315600
_cell_length_b   5.13103803
_cell_length_c   5.30227291
_cell_angle_alpha   83.58098048
_cell_angle_beta   90.00000000
_cell_angle_gamma   90.00000000
_symmetry_Int_Tables_number   1
_chemical_formula_structural   Er2TaMoO8
_chemical_formula_sum   'Er2 Ta1 Mo1 O8'
_cell_volume   148.24043832
_cell_formula_units_Z   1
loop_
 _symmetry_equiv_pos_site_id
 _symmetry_equiv_pos_as_xyz
  1  'x, y, z'
loop_
 _atom_site_type_symbol
 _atom_site_label
 _atom_site_symmetry_multiplicity
 _atom_site_fract_x
 _atom_site_fract_y
 _atom_site_fract_z
 _atom_site_occupancy
  Er  Er0  1  0.765910  0.000000  0.750000  1
  Er  Er1  1  0.236083  0.000000  0.250000  1
  Ta  Ta2  1  0.305936  0.500000  0.750000  1
  Mo  Mo3  1  0.697407  0.500000  0.250000  1
  O  O4  1  0.565150  0.264668  0.008526  1
  O  O5  1  0.565150  0.735332  0.491474  1
  O  O6  1  0.434308  0.733281  0.994058  1
  O  O7  1  0.434308  0.266719  0.505942  1
  O  O8  1  0.084106  0.751951  0.599254  1
  O  O9  1  0.084106  0.248049  0.900746  1
  O  O10  1  0.913767  0.242221  0.399022  1
  O  O11  1  0.913767  0.757779  0.100978  1
