# generated using pymatgen
data_NaLiCo2Ni10P7
_symmetry_space_group_name_H-M   'P 1'
_cell_length_a   9.07011489
_cell_length_b   9.03504841
_cell_length_c   3.55156000
_cell_angle_alpha   90.00000000
_cell_angle_beta   90.00000000
_cell_angle_gamma   120.26083778
_symmetry_Int_Tables_number   1
_chemical_formula_structural   NaLiCo2Ni10P7
_chemical_formula_sum   'Na1 Li1 Co2 Ni10 P7'
_cell_volume   251.38858898
_cell_formula_units_Z   1
loop_
 _symmetry_equiv_pos_site_id
 _symmetry_equiv_pos_as_xyz
  1  'x, y, z'
loop_
 _atom_site_type_symbol
 _atom_site_label
 _atom_site_symmetry_multiplicity
 _atom_site_fract_x
 _atom_site_fract_y
 _atom_site_fract_z
 _atom_site_occupancy
  Na  Na0  1  0.000789  0.000124  0.000000  1
  Li  Li1  1  0.331750  0.665579  0.500000  1
  Co  Co2  1  0.393003  0.216668  0.000000  1
  Co  Co3  1  0.824695  0.608383  0.000000  1
  Ni  Ni4  1  0.292442  0.895321  0.000000  1
  Ni  Ni5  1  0.603132  0.706009  0.000000  1
  Ni  Ni6  1  0.102605  0.394614  0.000000  1
  Ni  Ni7  1  0.782851  0.176531  0.000000  1
  Ni  Ni8  1  0.714296  0.947562  0.500000  1
  Ni  Ni9  1  0.233697  0.285510  0.500000  1
  Ni  Ni10  1  0.053155  0.767920  0.500000  1
  Ni  Ni11  1  0.541359  0.113519  0.500000  1
  Ni  Ni12  1  0.571090  0.462220  0.500000  1
  Ni  Ni13  1  0.887975  0.427127  0.500000  1
  P  P14  1  0.543595  0.915742  0.000000  1
  P  P15  1  0.372640  0.453395  0.000000  1
  P  P16  1  0.079482  0.625724  0.000000  1
  P  P17  1  0.958355  0.218320  0.500000  1
  P  P18  1  0.265124  0.045944  0.500000  1
  P  P19  1  0.783223  0.737471  0.500000  1
  P  P20  1  0.664742  0.336315  0.000000  1
