# generated using pymatgen
data_Tc2HgO8
_symmetry_space_group_name_H-M   'P 1'
_cell_length_a   6.18233600
_cell_length_b   6.18233771
_cell_length_c   6.31878300
_cell_angle_alpha   90.00000000
_cell_angle_beta   90.00000000
_cell_angle_gamma   120.00000014
_symmetry_Int_Tables_number   1
_chemical_formula_structural   Tc2HgO8
_chemical_formula_sum   'Tc2 Hg1 O8'
_cell_volume   209.15555380
_cell_formula_units_Z   1
loop_
 _symmetry_equiv_pos_site_id
 _symmetry_equiv_pos_as_xyz
  1  'x, y, z'
loop_
 _atom_site_type_symbol
 _atom_site_label
 _atom_site_symmetry_multiplicity
 _atom_site_fract_x
 _atom_site_fract_y
 _atom_site_fract_z
 _atom_site_occupancy
  Tc  Tc0  1  0.333333  0.666667  0.796695  1
  Tc  Tc1  1  0.666667  0.333333  0.203305  1
  Hg  Hg2  1  0.000000  0.000000  0.500000  1
  O  O3  1  0.214547  0.854555  0.707725  1
  O  O4  1  0.145445  0.359992  0.707725  1
  O  O5  1  0.333333  0.666667  0.068338  1
  O  O6  1  0.359992  0.214547  0.292275  1
  O  O7  1  0.640008  0.785453  0.707725  1
  O  O8  1  0.666667  0.333333  0.931662  1
  O  O9  1  0.854555  0.640008  0.292275  1
  O  O10  1  0.785453  0.145445  0.292275  1
