# generated using pymatgen
data_Ba8Na3Tl(ReN4)4
_symmetry_space_group_name_H-M   'P 1'
_cell_length_a   10.86993027
_cell_length_b   10.49578762
_cell_length_c   8.32711205
_cell_angle_alpha   69.45414248
_cell_angle_beta   64.71053163
_cell_angle_gamma   45.13605350
_symmetry_Int_Tables_number   1
_chemical_formula_structural   Ba8Na3Tl(ReN4)4
_chemical_formula_sum   'Ba8 Na3 Tl1 Re4 N16'
_cell_volume   607.00308888
_cell_formula_units_Z   1
loop_
 _symmetry_equiv_pos_site_id
 _symmetry_equiv_pos_as_xyz
  1  'x, y, z'
loop_
 _atom_site_type_symbol
 _atom_site_label
 _atom_site_symmetry_multiplicity
 _atom_site_fract_x
 _atom_site_fract_y
 _atom_site_fract_z
 _atom_site_occupancy
  Ba  Ba0  1  0.580274  0.926293  0.927311  1
  Ba  Ba1  1  0.926293  0.580274  0.566123  1
  Ba  Ba2  1  0.335314  0.688535  0.677092  1
  Ba  Ba3  1  0.114014  0.114014  0.885986  1
  Ba  Ba4  1  0.136415  0.136415  0.363585  1
  Ba  Ba5  1  0.362911  0.362911  0.137089  1
  Ba  Ba6  1  0.688535  0.335314  0.299058  1
  Ba  Ba7  1  0.882437  0.882437  0.117563  1
  Na  Na8  1  0.912071  0.912071  0.587929  1
  Na  Na9  1  0.658156  0.658156  0.341844  1
  Na  Na10  1  0.589808  0.589808  0.910192  1
  Tl  Tl11  1  0.350481  0.350481  0.649519  1
  Re  Re12  1  0.494653  0.003576  0.484569  1
  Re  Re13  1  0.003576  0.494653  0.017201  1
  Re  Re14  1  0.775679  0.219328  0.765711  1
  Re  Re15  1  0.219328  0.775679  0.239283  1
  N  N16  1  0.986539  0.674393  0.853953  1
  N  N17  1  0.723176  0.283939  0.980100  1
  N  N18  1  0.674393  0.986539  0.485116  1
  N  N19  1  0.503418  0.826678  0.646220  1
  N  N20  1  0.146249  0.651705  0.386003  1
  N  N21  1  0.722220  0.398176  0.581530  1
  N  N22  1  0.020344  0.028909  0.698940  1
  N  N23  1  0.534978  0.976172  0.255001  1
  N  N24  1  0.398176  0.722220  0.298074  1
  N  N25  1  0.976172  0.534978  0.233848  1
  N  N26  1  0.283939  0.723176  0.012785  1
  N  N27  1  0.826678  0.503418  0.023684  1
  N  N28  1  0.228391  0.264766  0.963268  1
  N  N29  1  0.651705  0.146249  0.816043  1
  N  N30  1  0.264766  0.228391  0.543574  1
  N  N31  1  0.028909  0.020344  0.251806  1
