# generated using pymatgen
data_Lu2Zn(Co3B2)3
_symmetry_space_group_name_H-M   'P 1'
_cell_length_a   5.72305250
_cell_length_b   5.72305275
_cell_length_c   5.72305169
_cell_angle_alpha   96.04274898
_cell_angle_beta   96.04276408
_cell_angle_gamma   96.04276941
_symmetry_Int_Tables_number   1
_chemical_formula_structural   Lu2Zn(Co3B2)3
_chemical_formula_sum   'Lu2 Zn1 Co9 B6'
_cell_volume   184.08418986
_cell_formula_units_Z   1
loop_
 _symmetry_equiv_pos_site_id
 _symmetry_equiv_pos_as_xyz
  1  'x, y, z'
loop_
 _atom_site_type_symbol
 _atom_site_label
 _atom_site_symmetry_multiplicity
 _atom_site_fract_x
 _atom_site_fract_y
 _atom_site_fract_z
 _atom_site_occupancy
  Lu  Lu0  1  0.678936  0.678936  0.678936  1
  Lu  Lu1  1  0.321064  0.321064  0.321064  1
  Zn  Zn2  1  0.000000  0.000000  0.000000  1
  Co  Co3  1  0.000000  0.000000  0.500000  1
  Co  Co4  1  0.500000  0.000000  0.000000  1
  Co  Co5  1  0.000000  0.500000  0.000000  1
  Co  Co6  1  0.705944  0.197857  0.705944  1
  Co  Co7  1  0.705944  0.705944  0.197857  1
  Co  Co8  1  0.197857  0.705944  0.705944  1
  Co  Co9  1  0.294056  0.802143  0.294056  1
  Co  Co10  1  0.294056  0.294056  0.802143  1
  Co  Co11  1  0.802143  0.294056  0.294056  1
  B  B12  1  0.615124  0.384876  0.000000  1
  B  B13  1  0.000000  0.615124  0.384876  1
  B  B14  1  0.384876  0.000000  0.615124  1
  B  B15  1  0.000000  0.384876  0.615124  1
  B  B16  1  0.615124  0.000000  0.384876  1
  B  B17  1  0.384876  0.615124  0.000000  1
