# generated using pymatgen
data_Sr2NdSi4(AsPd10)2
_symmetry_space_group_name_H-M   'P 1'
_cell_length_a   8.79734546
_cell_length_b   8.90717546
_cell_length_c   8.90717443
_cell_angle_alpha   59.18589011
_cell_angle_beta   60.40706113
_cell_angle_gamma   60.40705982
_symmetry_Int_Tables_number   1
_chemical_formula_structural   Sr2NdSi4(AsPd10)2
_chemical_formula_sum   'Sr2 Nd1 Si4 As2 Pd20'
_cell_volume   493.38526299
_cell_formula_units_Z   1
loop_
 _symmetry_equiv_pos_site_id
 _symmetry_equiv_pos_as_xyz
  1  'x, y, z'
loop_
 _atom_site_type_symbol
 _atom_site_label
 _atom_site_symmetry_multiplicity
 _atom_site_fract_x
 _atom_site_fract_y
 _atom_site_fract_z
 _atom_site_occupancy
  Sr  Sr0  1  0.250000  0.250000  0.250000  1
  Sr  Sr1  1  0.750000  0.750000  0.750000  1
  Nd  Nd2  1  0.000000  0.000000  0.000000  1
  Si  Si3  1  0.268265  0.731735  0.268265  1
  Si  Si4  1  0.731735  0.268265  0.731735  1
  Si  Si5  1  0.268265  0.268265  0.731735  1
  Si  Si6  1  0.731735  0.731735  0.268265  1
  As  As7  1  0.735998  0.264002  0.264002  1
  As  As8  1  0.264002  0.735998  0.735998  1
  Pd  Pd9  1  0.345675  0.000000  0.000000  1
  Pd  Pd10  1  0.654325  0.000000  0.000000  1
  Pd  Pd11  1  0.000000  0.345675  0.654325  1
  Pd  Pd12  1  0.000000  0.654325  0.345675  1
  Pd  Pd13  1  0.009555  0.346397  0.990445  1
  Pd  Pd14  1  0.653603  0.990445  0.346397  1
  Pd  Pd15  1  0.990445  0.653603  0.009555  1
  Pd  Pd16  1  0.346397  0.009555  0.653603  1
  Pd  Pd17  1  0.009555  0.990445  0.346397  1
  Pd  Pd18  1  0.990445  0.009555  0.653603  1
  Pd  Pd19  1  0.653603  0.346397  0.990445  1
  Pd  Pd20  1  0.346397  0.653603  0.009555  1
  Pd  Pd21  1  0.382595  0.389512  0.389512  1
  Pd  Pd22  1  0.617405  0.610488  0.610488  1
  Pd  Pd23  1  0.389512  0.382595  0.838381  1
  Pd  Pd24  1  0.389512  0.838381  0.382595  1
  Pd  Pd25  1  0.610488  0.617405  0.161619  1
  Pd  Pd26  1  0.610488  0.161619  0.617405  1
  Pd  Pd27  1  0.838381  0.389512  0.389512  1
  Pd  Pd28  1  0.161619  0.610488  0.610488  1
