# generated using pymatgen
data_Pr6Er2Sc12Si15Ag
_symmetry_space_group_name_H-M   'P 1'
_cell_length_a   7.23771712
_cell_length_b   7.47744094
_cell_length_c   14.28804628
_cell_angle_alpha   89.90726931
_cell_angle_beta   89.70459573
_cell_angle_gamma   90.15035326
_symmetry_Int_Tables_number   1
_chemical_formula_structural   Pr6Er2Sc12Si15Ag
_chemical_formula_sum   'Pr6 Er2 Sc12 Si15 Ag1'
_cell_volume   773.24941251
_cell_formula_units_Z   1
loop_
 _symmetry_equiv_pos_site_id
 _symmetry_equiv_pos_as_xyz
  1  'x, y, z'
loop_
 _atom_site_type_symbol
 _atom_site_label
 _atom_site_symmetry_multiplicity
 _atom_site_fract_x
 _atom_site_fract_y
 _atom_site_fract_z
 _atom_site_occupancy
  Pr  Pr0  1  0.488062  0.673492  0.903409  1
  Pr  Pr1  1  0.491303  0.676676  0.597391  1
  Pr  Pr2  1  0.988555  0.833532  0.594585  1
  Pr  Pr3  1  0.989157  0.829219  0.903555  1
  Pr  Pr4  1  0.512190  0.327612  0.098763  1
  Pr  Pr5  1  0.011518  0.172324  0.099687  1
  Er  Er6  1  0.006942  0.173482  0.395689  1
  Er  Er7  1  0.511629  0.322292  0.397441  1
  Sc  Sc8  1  0.345704  0.173144  0.625430  1
  Sc  Sc9  1  0.664826  0.822964  0.374372  1
  Sc  Sc10  1  0.667162  0.000207  0.752190  1
  Sc  Sc11  1  0.166548  0.674945  0.372689  1
  Sc  Sc12  1  0.832324  0.323317  0.876025  1
  Sc  Sc13  1  0.824558  0.325050  0.623251  1
  Sc  Sc14  1  0.837566  0.500157  0.253699  1
  Sc  Sc15  1  0.337544  0.998323  0.251091  1
  Sc  Sc16  1  0.328749  0.173848  0.876506  1
  Sc  Sc17  1  0.168682  0.675321  0.127926  1
  Sc  Sc18  1  0.670643  0.825133  0.127730  1
  Sc  Sc19  1  0.163512  0.497957  0.752359  1
  Si  Si20  1  0.287535  0.884155  0.749826  1
  Si  Si21  1  0.465299  0.620098  0.251200  1
  Si  Si22  1  0.039280  0.129342  0.748579  1
  Si  Si23  1  0.537244  0.377577  0.751685  1
  Si  Si24  1  0.964070  0.878227  0.252059  1
  Si  Si25  1  0.710060  0.122207  0.253023  1
  Si  Si26  1  0.849255  0.538321  0.040172  1
  Si  Si27  1  0.347730  0.961803  0.041561  1
  Si  Si28  1  0.150387  0.462628  0.962550  1
  Si  Si29  1  0.655921  0.044468  0.532840  1
  Si  Si30  1  0.339167  0.969594  0.456909  1
  Si  Si31  1  0.834462  0.530833  0.455159  1
  Si  Si32  1  0.790507  0.618071  0.750622  1
  Si  Si33  1  0.212416  0.376066  0.253170  1
  Si  Si34  1  0.652063  0.037640  0.961288  1
  Ag  Ag35  1  0.157429  0.449978  0.535571  1
