# generated using pymatgen
data_Ba12IrRh
_symmetry_space_group_name_H-M   'P 1'
_cell_length_a   7.84293088
_cell_length_b   7.83931818
_cell_length_c   15.00239282
_cell_angle_alpha   90.00319046
_cell_angle_beta   89.99633435
_cell_angle_gamma   119.99546272
_symmetry_Int_Tables_number   1
_chemical_formula_structural   Ba12IrRh
_chemical_formula_sum   'Ba12 Ir1 Rh1'
_cell_volume   798.85452121
_cell_formula_units_Z   1
loop_
 _symmetry_equiv_pos_site_id
 _symmetry_equiv_pos_as_xyz
  1  'x, y, z'
loop_
 _atom_site_type_symbol
 _atom_site_label
 _atom_site_symmetry_multiplicity
 _atom_site_fract_x
 _atom_site_fract_y
 _atom_site_fract_z
 _atom_site_occupancy
  Ba  Ba0  1  0.667250  0.012683  0.117019  1
  Ba  Ba1  1  0.987610  0.654794  0.117184  1
  Ba  Ba2  1  0.345301  0.332721  0.117152  1
  Ba  Ba3  1  0.012137  0.344816  0.381794  1
  Ba  Ba4  1  0.655130  0.667456  0.381764  1
  Ba  Ba5  1  0.332422  0.987568  0.381957  1
  Ba  Ba6  1  0.012043  0.667431  0.618305  1
  Ba  Ba7  1  0.655027  0.987709  0.618238  1
  Ba  Ba8  1  0.332422  0.345074  0.618134  1
  Ba  Ba9  1  0.345281  0.012372  0.882877  1
  Ba  Ba10  1  0.667298  0.654566  0.882991  1
  Ba  Ba11  1  0.987907  0.332690  0.882764  1
  Ir  Ir12  1  0.666923  0.333357  0.999906  1
  Rh  Rh13  1  0.333230  0.666745  0.499971  1
