# generated using pymatgen
data_DyY3Al15(SiRh2)3
_symmetry_space_group_name_H-M   'P 1'
_cell_length_a   7.52983656
_cell_length_b   7.49215227
_cell_length_c   9.40941900
_cell_angle_alpha   90.00530932
_cell_angle_beta   89.91999452
_cell_angle_gamma   119.75192532
_symmetry_Int_Tables_number   1
_chemical_formula_structural   DyY3Al15(SiRh2)3
_chemical_formula_sum   'Dy1 Y3 Al15 Si3 Rh6'
_cell_volume   460.85602890
_cell_formula_units_Z   1
loop_
 _symmetry_equiv_pos_site_id
 _symmetry_equiv_pos_as_xyz
  1  'x, y, z'
loop_
 _atom_site_type_symbol
 _atom_site_label
 _atom_site_symmetry_multiplicity
 _atom_site_fract_x
 _atom_site_fract_y
 _atom_site_fract_z
 _atom_site_occupancy
  Dy  Dy0  1  0.994426  0.664473  0.247460  1
  Y  Y1  1  0.006093  0.340692  0.753467  1
  Y  Y2  1  0.674732  0.000300  0.247976  1
  Y  Y3  1  0.320635  0.993185  0.749855  1
  Al  Al4  1  0.128870  0.126411  0.250050  1
  Al  Al5  1  0.871665  0.871267  0.749383  1
  Al  Al6  1  0.338627  0.002866  0.424054  1
  Al  Al7  1  0.001335  0.330444  0.429781  1
  Al  Al8  1  0.665868  0.001739  0.575214  1
  Al  Al9  1  0.662191  0.997999  0.922681  1
  Al  Al10  1  0.338398  0.003024  0.076290  1
  Al  Al11  1  0.333243  0.331689  0.554688  1
  Al  Al12  1  0.664392  0.667794  0.446464  1
  Al  Al13  1  0.663882  0.667459  0.054912  1
  Al  Al14  1  0.335474  0.332162  0.945741  1
  Al  Al15  1  0.338082  0.549826  0.250232  1
  Al  Al16  1  0.661381  0.450552  0.750373  1
  Al  Al17  1  0.548340  0.342917  0.250216  1
  Al  Al18  1  0.454748  0.658107  0.749693  1
  Si  Si19  1  0.002269  0.328864  0.074904  1
  Si  Si20  1  0.997165  0.671506  0.930794  1
  Si  Si21  1  0.997891  0.665691  0.564738  1
  Rh  Rh22  1  0.689080  0.337631  0.001392  1
  Rh  Rh23  1  0.311043  0.662910  0.997789  1
  Rh  Rh24  1  0.319341  0.670468  0.502422  1
  Rh  Rh25  1  0.679872  0.336317  0.499841  1
  Rh  Rh26  1  0.000036  0.000456  0.999361  1
  Rh  Rh27  1  0.000920  0.993253  0.500230  1
