# generated using pymatgen
data_Rb3(TlBi)4
_symmetry_space_group_name_H-M   'P 1'
_cell_length_a   10.43848789
_cell_length_b   10.43848755
_cell_length_c   10.43848721
_cell_angle_alpha   149.46575157
_cell_angle_beta   130.68524118
_cell_angle_gamma   59.12086915
_symmetry_Int_Tables_number   1
_chemical_formula_structural   Rb3(TlBi)4
_chemical_formula_sum   'Rb3 Tl4 Bi4'
_cell_volume   434.73859762
_cell_formula_units_Z   1
loop_
 _symmetry_equiv_pos_site_id
 _symmetry_equiv_pos_as_xyz
  1  'x, y, z'
loop_
 _atom_site_type_symbol
 _atom_site_label
 _atom_site_symmetry_multiplicity
 _atom_site_fract_x
 _atom_site_fract_y
 _atom_site_fract_z
 _atom_site_occupancy
  Rb  Rb0  1  0.627120  0.127120  0.500000  1
  Rb  Rb1  1  0.372880  0.872880  0.500000  1
  Rb  Rb2  1  0.000000  0.000000  0.000000  1
  Tl  Tl3  1  0.966772  0.671530  0.295242  1
  Tl  Tl4  1  0.033228  0.328470  0.704758  1
  Tl  Tl5  1  0.623712  0.328470  0.295242  1
  Tl  Tl6  1  0.376288  0.671530  0.704758  1
  Bi  Bi7  1  0.784616  0.784616  0.000000  1
  Bi  Bi8  1  0.215384  0.215384  0.000000  1
  Bi  Bi9  1  0.672712  0.500000  0.172712  1
  Bi  Bi10  1  0.327288  0.500000  0.827288  1
