# generated using pymatgen
data_SiB12Te
_symmetry_space_group_name_H-M   'P 1'
_cell_length_a   5.40004155
_cell_length_b   5.40004262
_cell_length_c   5.40004200
_cell_angle_alpha   71.08378103
_cell_angle_beta   71.08377567
_cell_angle_gamma   71.08380113
_symmetry_Int_Tables_number   1
_chemical_formula_structural   SiB12Te
_chemical_formula_sum   'Si1 B12 Te1'
_cell_volume   136.63015212
_cell_formula_units_Z   1
loop_
 _symmetry_equiv_pos_site_id
 _symmetry_equiv_pos_as_xyz
  1  'x, y, z'
loop_
 _atom_site_type_symbol
 _atom_site_label
 _atom_site_symmetry_multiplicity
 _atom_site_fract_x
 _atom_site_fract_y
 _atom_site_fract_z
 _atom_site_occupancy
  Si  Si0  1  0.616326  0.616326  0.616326  1
  B  B1  1  0.015549  0.015549  0.322621  1
  B  B2  1  0.322621  0.015549  0.015549  1
  B  B3  1  0.273027  0.818670  0.818670  1
  B  B4  1  0.818670  0.818670  0.273027  1
  B  B5  1  0.818670  0.273027  0.818670  1
  B  B6  1  0.166785  0.741587  0.166785  1
  B  B7  1  0.741587  0.166785  0.166785  1
  B  B8  1  0.166785  0.166785  0.741587  1
  B  B9  1  0.674705  0.982199  0.982199  1
  B  B10  1  0.982199  0.982199  0.674705  1
  B  B11  1  0.982199  0.674705  0.982199  1
  B  B12  1  0.015549  0.322621  0.015549  1
  Te  Te13  1  0.405334  0.405334  0.405334  1
