# generated using pymatgen
data_Th4Zn7GaAg4
_symmetry_space_group_name_H-M   'P 1'
_cell_length_a   4.46458000
_cell_length_b   7.11757949
_cell_length_c   10.33911874
_cell_angle_alpha   90.20681342
_cell_angle_beta   90.00000000
_cell_angle_gamma   90.00000000
_symmetry_Int_Tables_number   1
_chemical_formula_structural   Th4Zn7GaAg4
_chemical_formula_sum   'Th4 Zn7 Ga1 Ag4'
_cell_volume   328.54406756
_cell_formula_units_Z   1
loop_
 _symmetry_equiv_pos_site_id
 _symmetry_equiv_pos_as_xyz
  1  'x, y, z'
loop_
 _atom_site_type_symbol
 _atom_site_label
 _atom_site_symmetry_multiplicity
 _atom_site_fract_x
 _atom_site_fract_y
 _atom_site_fract_z
 _atom_site_occupancy
  Th  Th0  1  0.250000  0.787484  0.828931  1
  Th  Th1  1  0.750000  0.212249  0.170963  1
  Th  Th2  1  0.750000  0.713329  0.329927  1
  Th  Th3  1  0.250000  0.288734  0.668913  1
  Zn  Zn4  1  0.250000  0.913235  0.147353  1
  Zn  Zn5  1  0.750000  0.082859  0.854184  1
  Zn  Zn6  1  0.750000  0.584309  0.644361  1
  Zn  Zn7  1  0.250000  0.415250  0.355033  1
  Zn  Zn8  1  0.250000  0.697277  0.537360  1
  Zn  Zn9  1  0.750000  0.302911  0.462278  1
  Zn  Zn10  1  0.750000  0.801225  0.037222  1
  Ga  Ga11  1  0.250000  0.197835  0.963402  1
  Ag  Ag12  1  0.250000  0.540979  0.099726  1
  Ag  Ag13  1  0.750000  0.462566  0.899566  1
  Ag  Ag14  1  0.750000  0.961083  0.599774  1
  Ag  Ag15  1  0.250000  0.038676  0.401006  1
