# generated using pymatgen
data_Gd3Cd5Pt
_symmetry_space_group_name_H-M   'P 1'
_cell_length_a   8.20637000
_cell_length_b   8.20637182
_cell_length_c   3.78067700
_cell_angle_alpha   90.00000000
_cell_angle_beta   90.00000000
_cell_angle_gamma   119.99999264
_symmetry_Int_Tables_number   1
_chemical_formula_structural   Gd3Cd5Pt
_chemical_formula_sum   'Gd3 Cd5 Pt1'
_cell_volume   220.49691819
_cell_formula_units_Z   1
loop_
 _symmetry_equiv_pos_site_id
 _symmetry_equiv_pos_as_xyz
  1  'x, y, z'
loop_
 _atom_site_type_symbol
 _atom_site_label
 _atom_site_symmetry_multiplicity
 _atom_site_fract_x
 _atom_site_fract_y
 _atom_site_fract_z
 _atom_site_occupancy
  Gd  Gd0  1  0.578402  0.965614  0.000000  1
  Gd  Gd1  1  0.034386  0.612788  0.000000  1
  Gd  Gd2  1  0.387212  0.421598  0.000000  1
  Cd  Cd3  1  0.279119  0.009951  0.500000  1
  Cd  Cd4  1  0.990049  0.269169  0.500000  1
  Cd  Cd5  1  0.730831  0.720881  0.500000  1
  Cd  Cd6  1  0.666667  0.333333  0.500000  1
  Cd  Cd7  1  0.000000  0.000000  0.000000  1
  Pt  Pt8  1  0.333333  0.666667  0.500000  1
