# generated using pymatgen
data_Ti8Al15Fe2Pd5
_symmetry_space_group_name_H-M   'P 1'
_cell_length_a   8.62505191
_cell_length_b   8.62505151
_cell_length_c   8.62505121
_cell_angle_alpha   120.13717369
_cell_angle_beta   119.86033444
_cell_angle_gamma   90.00232463
_symmetry_Int_Tables_number   1
_chemical_formula_structural   Ti8Al15Fe2Pd5
_chemical_formula_sum   'Ti8 Al15 Fe2 Pd5'
_cell_volume   453.70661556
_cell_formula_units_Z   1
loop_
 _symmetry_equiv_pos_site_id
 _symmetry_equiv_pos_as_xyz
  1  'x, y, z'
loop_
 _atom_site_type_symbol
 _atom_site_label
 _atom_site_symmetry_multiplicity
 _atom_site_fract_x
 _atom_site_fract_y
 _atom_site_fract_z
 _atom_site_occupancy
  Ti  Ti0  1  0.793779  0.283996  0.073508  1
  Ti  Ti1  1  0.210488  0.283996  0.490216  1
  Ti  Ti2  1  0.211084  0.711084  0.500000  1
  Ti  Ti3  1  0.210488  0.720272  0.926492  1
  Ti  Ti4  1  0.793779  0.720272  0.509784  1
  Ti  Ti5  1  0.783708  0.283708  0.500000  1
  Ti  Ti6  1  0.383175  0.115087  0.731912  1
  Ti  Ti7  1  0.383175  0.651264  0.268088  1
  Al  Al8  1  0.997078  0.497078  0.500000  1
  Al  Al9  1  0.155957  0.334002  0.178044  1
  Al  Al10  1  0.155957  0.977913  0.821956  1
  Al  Al11  1  0.155670  0.345488  0.810183  1
  Al  Al12  1  0.535305  0.345488  0.189817  1
  Al  Al13  1  0.846912  0.666065  0.819155  1
  Al  Al14  1  0.846912  0.027756  0.180845  1
  Al  Al15  1  0.844264  0.654910  0.189354  1
  Al  Al16  1  0.465556  0.654910  0.810646  1
  Al  Al17  1  0.373838  0.113912  0.259926  1
  Al  Al18  1  0.853987  0.113912  0.740074  1
  Al  Al19  1  0.617741  0.883085  0.265343  1
  Al  Al20  1  0.617741  0.352398  0.734657  1
  Al  Al21  1  0.627540  0.885109  0.742431  1
  Al  Al22  1  0.142677  0.885109  0.257569  1
  Fe  Fe23  1  0.001130  0.001130  0.000000  1
  Fe  Fe24  1  0.494541  0.994541  0.500000  1
  Pd  Pd25  1  0.997440  0.998950  0.498268  1
  Pd  Pd26  1  0.500681  0.998950  0.001510  1
  Pd  Pd27  1  0.501277  0.501277  0.000000  1
  Pd  Pd28  1  0.500681  0.499171  0.501732  1
  Pd  Pd29  1  0.997440  0.499171  0.998490  1
