# generated using pymatgen
data_Nd2Sc3Ga4
_symmetry_space_group_name_H-M   'P 1'
_cell_length_a   7.41548600
_cell_length_b   7.68499500
_cell_length_c   14.59780600
_cell_angle_alpha   90.00000000
_cell_angle_beta   90.00000000
_cell_angle_gamma   90.00000000
_symmetry_Int_Tables_number   1
_chemical_formula_structural   Nd2Sc3Ga4
_chemical_formula_sum   'Nd8 Sc12 Ga16'
_cell_volume   831.89937174
_cell_formula_units_Z   4
loop_
 _symmetry_equiv_pos_site_id
 _symmetry_equiv_pos_as_xyz
  1  'x, y, z'
loop_
 _atom_site_type_symbol
 _atom_site_label
 _atom_site_symmetry_multiplicity
 _atom_site_fract_x
 _atom_site_fract_y
 _atom_site_fract_z
 _atom_site_occupancy
  Nd  Nd0  1  0.988959  0.176114  0.094968  1
  Nd  Nd1  1  0.488959  0.323886  0.405032  1
  Nd  Nd2  1  0.511041  0.676114  0.905032  1
  Nd  Nd3  1  0.011041  0.823886  0.594968  1
  Nd  Nd4  1  0.011041  0.823886  0.905032  1
  Nd  Nd5  1  0.511041  0.676114  0.594968  1
  Nd  Nd6  1  0.488959  0.323886  0.094968  1
  Nd  Nd7  1  0.988959  0.176114  0.405032  1
  Sc  Sc8  1  0.662265  0.999460  0.250000  1
  Sc  Sc9  1  0.162265  0.500540  0.250000  1
  Sc  Sc10  1  0.837735  0.499460  0.750000  1
  Sc  Sc11  1  0.337735  0.000540  0.750000  1
  Sc  Sc12  1  0.830070  0.673191  0.124956  1
  Sc  Sc13  1  0.330070  0.826809  0.375044  1
  Sc  Sc14  1  0.669930  0.173191  0.875044  1
  Sc  Sc15  1  0.169930  0.326809  0.624956  1
  Sc  Sc16  1  0.169930  0.326809  0.875044  1
  Sc  Sc17  1  0.669930  0.173191  0.624956  1
  Sc  Sc18  1  0.330070  0.826809  0.124956  1
  Sc  Sc19  1  0.830070  0.673191  0.375044  1
  Ga  Ga20  1  0.787417  0.379170  0.250000  1
  Ga  Ga21  1  0.287417  0.120830  0.250000  1
  Ga  Ga22  1  0.712583  0.879170  0.750000  1
  Ga  Ga23  1  0.212583  0.620830  0.750000  1
  Ga  Ga24  1  0.032258  0.878205  0.250000  1
  Ga  Ga25  1  0.532258  0.621795  0.250000  1
  Ga  Ga26  1  0.467742  0.378205  0.750000  1
  Ga  Ga27  1  0.967742  0.121795  0.750000  1
  Ga  Ga28  1  0.842494  0.463038  0.959579  1
  Ga  Ga29  1  0.342494  0.036962  0.540421  1
  Ga  Ga30  1  0.657506  0.963038  0.040421  1
  Ga  Ga31  1  0.157506  0.536962  0.459579  1
  Ga  Ga32  1  0.157506  0.536962  0.040421  1
  Ga  Ga33  1  0.657506  0.963038  0.459579  1
  Ga  Ga34  1  0.342494  0.036962  0.959579  1
  Ga  Ga35  1  0.842494  0.463038  0.540421  1
