# generated using pymatgen
data_Dy17Tm3(IrPt2)4
_symmetry_space_group_name_H-M   'P 1'
_cell_length_a   11.03176500
_cell_length_b   11.03176500
_cell_length_c   6.31849000
_cell_angle_alpha   90.00000000
_cell_angle_beta   90.00000000
_cell_angle_gamma   90.00000000
_symmetry_Int_Tables_number   1
_chemical_formula_structural   Dy17Tm3(IrPt2)4
_chemical_formula_sum   'Dy17 Tm3 Ir4 Pt8'
_cell_volume   768.95921582
_cell_formula_units_Z   1
loop_
 _symmetry_equiv_pos_site_id
 _symmetry_equiv_pos_as_xyz
  1  'x, y, z'
loop_
 _atom_site_type_symbol
 _atom_site_label
 _atom_site_symmetry_multiplicity
 _atom_site_fract_x
 _atom_site_fract_y
 _atom_site_fract_z
 _atom_site_occupancy
  Dy  Dy0  1  0.293965  0.087472  0.375287  1
  Dy  Dy1  1  0.293970  0.912548  0.875163  1
  Dy  Dy2  1  0.706030  0.087452  0.875163  1
  Dy  Dy3  1  0.706035  0.912528  0.375287  1
  Dy  Dy4  1  0.587505  0.794187  0.875203  1
  Dy  Dy5  1  0.587559  0.205592  0.374983  1
  Dy  Dy6  1  0.412441  0.794408  0.374983  1
  Dy  Dy7  1  0.412495  0.205813  0.875203  1
  Dy  Dy8  1  0.205592  0.412441  0.625017  1
  Dy  Dy9  1  0.205813  0.587505  0.124797  1
  Dy  Dy10  1  0.794187  0.412495  0.124797  1
  Dy  Dy11  1  0.794408  0.587559  0.625017  1
  Dy  Dy12  1  0.912548  0.706030  0.124837  1
  Dy  Dy13  1  0.912528  0.293965  0.624713  1
  Dy  Dy14  1  0.087472  0.706035  0.624713  1
  Dy  Dy15  1  0.087452  0.293970  0.124837  1
  Dy  Dy16  1  0.500000  0.500000  0.500000  1
  Tm  Tm17  1  0.000000  0.000000  0.500000  1
  Tm  Tm18  1  0.000000  0.000000  0.000000  1
  Tm  Tm19  1  0.500000  0.500000  0.000000  1
  Ir  Ir20  1  0.500000  0.000000  0.121311  1
  Ir  Ir21  1  0.500000  0.000000  0.621469  1
  Ir  Ir22  1  0.000000  0.500000  0.878689  1
  Ir  Ir23  1  0.000000  0.500000  0.378531  1
  Pt  Pt24  1  0.848002  0.151971  0.249875  1
  Pt  Pt25  1  0.848029  0.848002  0.750125  1
  Pt  Pt26  1  0.151971  0.151998  0.750125  1
  Pt  Pt27  1  0.151998  0.848029  0.249875  1
  Pt  Pt28  1  0.652832  0.347271  0.751324  1
  Pt  Pt29  1  0.652729  0.652832  0.248676  1
  Pt  Pt30  1  0.347271  0.347168  0.248676  1
  Pt  Pt31  1  0.347168  0.652729  0.751324  1
