# generated using pymatgen
data_Ba2TiBr2O3
_symmetry_space_group_name_H-M   'P 1'
_cell_length_a   10.05434501
_cell_length_b   10.05434459
_cell_length_c   10.05434500
_cell_angle_alpha   105.05333424
_cell_angle_beta   105.05333360
_cell_angle_gamma   118.72222948
_symmetry_Int_Tables_number   1
_chemical_formula_structural   Ba2TiBr2O3
_chemical_formula_sum   'Ba8 Ti4 Br8 O12'
_cell_volume   766.90151829
_cell_formula_units_Z   4
loop_
 _symmetry_equiv_pos_site_id
 _symmetry_equiv_pos_as_xyz
  1  'x, y, z'
loop_
 _atom_site_type_symbol
 _atom_site_label
 _atom_site_symmetry_multiplicity
 _atom_site_fract_x
 _atom_site_fract_y
 _atom_site_fract_z
 _atom_site_occupancy
  Ba  Ba0  1  0.848609  0.513132  0.831998  1
  Ba  Ba1  1  0.681125  0.016614  0.168020  1
  Ba  Ba2  1  0.513159  0.681179  0.664535  1
  Ba  Ba3  1  0.016545  0.848549  0.335460  1
  Ba  Ba4  1  0.151392  0.486869  0.168002  1
  Ba  Ba5  1  0.318876  0.983387  0.831980  1
  Ba  Ba6  1  0.486842  0.318822  0.335465  1
  Ba  Ba7  1  0.983456  0.151452  0.664540  1
  Ti  Ti8  1  0.686167  0.403211  0.089380  1
  Ti  Ti9  1  0.313833  0.596790  0.910621  1
  Ti  Ti10  1  0.403212  0.313819  0.717009  1
  Ti  Ti11  1  0.596788  0.686181  0.282991  1
  Br  Br12  1  0.749988  0.249998  0.500011  1
  Br  Br13  1  0.250012  0.750002  0.499989  1
  Br  Br14  1  0.221811  0.221814  0.999995  1
  Br  Br15  1  0.778190  0.778187  0.000005  1
  Br  Br16  1  0.107084  0.246868  0.353968  1
  Br  Br17  1  0.892916  0.753132  0.646032  1
  Br  Br18  1  0.246843  0.892835  0.139767  1
  Br  Br19  1  0.753156  0.107165  0.860232  1
  O  O20  1  0.323124  0.444345  0.767323  1
  O  O21  1  0.676876  0.555654  0.232677  1
  O  O22  1  0.444283  0.676951  0.121207  1
  O  O23  1  0.555716  0.323049  0.878792  1
  O  O24  1  0.097432  0.478506  0.877255  1
  O  O25  1  0.601125  0.220037  0.122736  1
  O  O26  1  0.478360  0.601140  0.381120  1
  O  O27  1  0.220147  0.097395  0.618864  1
  O  O28  1  0.902567  0.521495  0.122745  1
  O  O29  1  0.398876  0.779965  0.877264  1
  O  O30  1  0.521640  0.398861  0.618879  1
  O  O31  1  0.779852  0.902604  0.381135  1
