# generated using pymatgen
data_K11SrMn4O16
_symmetry_space_group_name_H-M   'P 1'
_cell_length_a   8.40022986
_cell_length_b   8.39982476
_cell_length_c   10.50032500
_cell_angle_alpha   113.56197810
_cell_angle_beta   113.56127167
_cell_angle_gamma   89.98960114
_symmetry_Int_Tables_number   1
_chemical_formula_structural   K11SrMn4O16
_chemical_formula_sum   'K11 Sr1 Mn4 O16'
_cell_volume   611.18446525
_cell_formula_units_Z   1
loop_
 _symmetry_equiv_pos_site_id
 _symmetry_equiv_pos_as_xyz
  1  'x, y, z'
loop_
 _atom_site_type_symbol
 _atom_site_label
 _atom_site_symmetry_multiplicity
 _atom_site_fract_x
 _atom_site_fract_y
 _atom_site_fract_z
 _atom_site_occupancy
  K  K0  1  0.277782  0.296502  0.558673  1
  K  K1  1  0.500610  0.012173  0.003869  1
  K  K2  1  0.244992  0.775493  0.495869  1
  K  K3  1  0.909777  0.900868  0.282697  1
  K  K4  1  0.109156  0.667598  0.764446  1
  K  K5  1  0.718468  0.696868  0.436370  1
  K  K6  1  0.994833  0.498043  0.005771  1
  K  K7  1  0.626161  0.098727  0.715510  1
  K  K8  1  0.347184  0.333540  0.245118  1
  K  K9  1  0.747403  0.220866  0.490644  1
  K  K10  1  0.547639  0.499437  0.025369  1
  Sr  Sr11  1  0.960600  0.003360  0.000463  1
  Mn  Mn12  1  0.860621  0.347480  0.223381  1
  Mn  Mn13  1  0.132343  0.154782  0.759381  1
  Mn  Mn14  1  0.633282  0.649607  0.777681  1
  Mn  Mn15  1  0.377694  0.847976  0.239810  1
  O  O16  1  0.384857  0.011685  0.406721  1
  O  O17  1  0.747224  0.756076  0.977461  1
  O  O18  1  0.680446  0.346077  0.277919  1
  O  O19  1  0.346576  0.647845  0.245037  1
  O  O20  1  0.028810  0.213223  0.268142  1
  O  O21  1  0.578601  0.878253  0.238024  1
  O  O22  1  0.326923  0.114935  0.746010  1
  O  O23  1  0.211084  0.845740  0.073180  1
  O  O24  1  0.744085  0.764146  0.721905  1
  O  O25  1  0.147234  0.161478  0.932006  1
  O  O26  1  0.648375  0.430647  0.714659  1
  O  O27  1  0.961483  0.993286  0.602180  1
  O  O28  1  0.921214  0.581496  0.285481  1
  O  O29  1  0.775201  0.228571  0.013829  1
  O  O30  1  0.095326  0.353487  0.750874  1
  O  O31  1  0.414016  0.669735  0.721518  1
