# generated using pymatgen
data_Pa5Bi3Pt
_symmetry_space_group_name_H-M   'P 1'
_cell_length_a   9.40007400
_cell_length_b   9.40007447
_cell_length_c   6.25691700
_cell_angle_alpha   90.00000000
_cell_angle_beta   90.00000000
_cell_angle_gamma   119.99999131
_symmetry_Int_Tables_number   1
_chemical_formula_structural   Pa5Bi3Pt
_chemical_formula_sum   'Pa10 Bi6 Pt2'
_cell_volume   478.79943619
_cell_formula_units_Z   2
loop_
 _symmetry_equiv_pos_site_id
 _symmetry_equiv_pos_as_xyz
  1  'x, y, z'
loop_
 _atom_site_type_symbol
 _atom_site_label
 _atom_site_symmetry_multiplicity
 _atom_site_fract_x
 _atom_site_fract_y
 _atom_site_fract_z
 _atom_site_occupancy
  Pa  Pa0  1  0.740780  0.000000  0.250000  1
  Pa  Pa1  1  0.000000  0.740780  0.250000  1
  Pa  Pa2  1  0.259220  0.259220  0.250000  1
  Pa  Pa3  1  0.259220  0.000000  0.750000  1
  Pa  Pa4  1  0.000000  0.259220  0.750000  1
  Pa  Pa5  1  0.740780  0.740780  0.750000  1
  Pa  Pa6  1  0.333333  0.666667  0.500000  1
  Pa  Pa7  1  0.666667  0.333333  0.500000  1
  Pa  Pa8  1  0.666667  0.333333  0.000000  1
  Pa  Pa9  1  0.333333  0.666667  0.000000  1
  Bi  Bi10  1  0.387045  0.000000  0.250000  1
  Bi  Bi11  1  0.000000  0.387045  0.250000  1
  Bi  Bi12  1  0.612955  0.612955  0.250000  1
  Bi  Bi13  1  0.612955  0.000000  0.750000  1
  Bi  Bi14  1  0.000000  0.612955  0.750000  1
  Bi  Bi15  1  0.387045  0.387045  0.750000  1
  Pt  Pt16  1  0.000000  0.000000  0.500000  1
  Pt  Pt17  1  0.000000  0.000000  0.000000  1
