# generated using pymatgen
data_Dy4Y16Ir11Au
_symmetry_space_group_name_H-M   'P 1'
_cell_length_a   10.98296646
_cell_length_b   10.98296654
_cell_length_c   6.36869588
_cell_angle_alpha   89.96675103
_cell_angle_beta   89.96675078
_cell_angle_gamma   89.48528110
_symmetry_Int_Tables_number   1
_chemical_formula_structural   Dy4Y16Ir11Au
_chemical_formula_sum   'Dy4 Y16 Ir11 Au1'
_cell_volume   768.19620722
_cell_formula_units_Z   1
loop_
 _symmetry_equiv_pos_site_id
 _symmetry_equiv_pos_as_xyz
  1  'x, y, z'
loop_
 _atom_site_type_symbol
 _atom_site_label
 _atom_site_symmetry_multiplicity
 _atom_site_fract_x
 _atom_site_fract_y
 _atom_site_fract_z
 _atom_site_occupancy
  Dy  Dy0  1  0.003216  0.995566  0.501372  1
  Dy  Dy1  1  0.004434  0.996784  0.998628  1
  Dy  Dy2  1  0.498869  0.499063  0.998690  1
  Dy  Dy3  1  0.500937  0.501131  0.501310  1
  Y  Y4  1  0.289814  0.088002  0.377325  1
  Y  Y5  1  0.293009  0.910559  0.876611  1
  Y  Y6  1  0.703900  0.084433  0.865865  1
  Y  Y7  1  0.705052  0.904174  0.380958  1
  Y  Y8  1  0.588023  0.790784  0.879759  1
  Y  Y9  1  0.579097  0.210052  0.378458  1
  Y  Y10  1  0.410533  0.790925  0.378381  1
  Y  Y11  1  0.409542  0.207880  0.878378  1
  Y  Y12  1  0.209216  0.411977  0.620241  1
  Y  Y13  1  0.209075  0.589467  0.121619  1
  Y  Y14  1  0.789948  0.420903  0.121542  1
  Y  Y15  1  0.792120  0.590458  0.621622  1
  Y  Y16  1  0.911998  0.710186  0.122675  1
  Y  Y17  1  0.915567  0.296100  0.634135  1
  Y  Y18  1  0.089441  0.706991  0.623389  1
  Y  Y19  1  0.095826  0.294948  0.119042  1
  Ir  Ir20  1  0.847489  0.848978  0.749573  1
  Ir  Ir21  1  0.151022  0.152511  0.750427  1
  Ir  Ir22  1  0.154843  0.845157  0.250000  1
  Ir  Ir23  1  0.654857  0.345143  0.750000  1
  Ir  Ir24  1  0.653113  0.651357  0.248246  1
  Ir  Ir25  1  0.348643  0.346887  0.251754  1
  Ir  Ir26  1  0.347008  0.652992  0.750000  1
  Ir  Ir27  1  0.500304  0.999894  0.126735  1
  Ir  Ir28  1  0.499334  0.000231  0.622390  1
  Ir  Ir29  1  0.999769  0.500666  0.877610  1
  Ir  Ir30  1  0.000106  0.499696  0.373265  1
  Au  Au31  1  0.843897  0.156103  0.250000  1
