# generated using pymatgen
data_DyTa2SbPb4O13
_symmetry_space_group_name_H-M   'P 1'
_cell_length_a   7.70837657
_cell_length_b   7.68486551
_cell_length_c   7.70837542
_cell_angle_alpha   59.51181582
_cell_angle_beta   59.38443199
_cell_angle_gamma   59.51180728
_symmetry_Int_Tables_number   1
_chemical_formula_structural   DyTa2SbPb4O13
_chemical_formula_sum   'Dy1 Ta2 Sb1 Pb4 O13'
_cell_volume   318.98591549
_cell_formula_units_Z   1
loop_
 _symmetry_equiv_pos_site_id
 _symmetry_equiv_pos_as_xyz
  1  'x, y, z'
loop_
 _atom_site_type_symbol
 _atom_site_label
 _atom_site_symmetry_multiplicity
 _atom_site_fract_x
 _atom_site_fract_y
 _atom_site_fract_z
 _atom_site_occupancy
  Dy  Dy0  1  0.503717  0.499169  0.503717  1
  Ta  Ta1  1  0.003692  0.502371  0.501277  1
  Ta  Ta2  1  0.501277  0.502371  0.003692  1
  Sb  Sb3  1  0.499560  0.001951  0.499560  1
  Pb  Pb4  1  0.002828  0.996041  0.002828  1
  Pb  Pb5  1  0.498543  0.012031  0.002457  1
  Pb  Pb6  1  0.002457  0.012031  0.498543  1
  Pb  Pb7  1  0.014256  0.496770  0.014256  1
  O  O8  1  0.866017  0.405645  0.407141  1
  O  O9  1  0.420529  0.806504  0.807441  1
  O  O10  1  0.407141  0.405645  0.866017  1
  O  O11  1  0.807441  0.806504  0.420529  1
  O  O12  1  0.798047  0.429877  0.798047  1
  O  O13  1  0.412916  0.861117  0.412916  1
  O  O14  1  0.153687  0.579369  0.574163  1
  O  O15  1  0.577727  0.191653  0.189034  1
  O  O16  1  0.574163  0.579369  0.153687  1
  O  O17  1  0.189034  0.191653  0.577727  1
  O  O18  1  0.189067  0.578243  0.189067  1
  O  O19  1  0.581663  0.147094  0.581663  1
  O  O20  1  0.121235  0.119592  0.121235  1
