# generated using pymatgen
data_Ce2YTm(ReN3)4
_symmetry_space_group_name_H-M   'P 1'
_cell_length_a   5.44483601
_cell_length_b   5.64450301
_cell_length_c   7.74288800
_cell_angle_alpha   90.00000000
_cell_angle_beta   90.00000000
_cell_angle_gamma   89.99227065
_symmetry_Int_Tables_number   1
_chemical_formula_structural   Ce2YTm(ReN3)4
_chemical_formula_sum   'Ce2 Y1 Tm1 Re4 N12'
_cell_volume   237.96521983
_cell_formula_units_Z   1
loop_
 _symmetry_equiv_pos_site_id
 _symmetry_equiv_pos_as_xyz
  1  'x, y, z'
loop_
 _atom_site_type_symbol
 _atom_site_label
 _atom_site_symmetry_multiplicity
 _atom_site_fract_x
 _atom_site_fract_y
 _atom_site_fract_z
 _atom_site_occupancy
  Ce  Ce0  1  0.477739  0.451295  0.250000  1
  Ce  Ce1  1  0.022466  0.951179  0.250000  1
  Y  Y2  1  0.999901  0.063223  0.750000  1
  Tm  Tm3  1  0.499205  0.566646  0.750000  1
  Re  Re4  1  0.509567  0.004106  0.503357  1
  Re  Re5  1  0.989943  0.504180  0.996561  1
  Re  Re6  1  0.989943  0.504180  0.503439  1
  Re  Re7  1  0.509567  0.004106  0.996643  1
  N  N8  1  0.697492  0.296776  0.545589  1
  N  N9  1  0.301544  0.698495  0.042659  1
  N  N10  1  0.198010  0.198193  0.043749  1
  N  N11  1  0.417445  0.973925  0.750000  1
  N  N12  1  0.928928  0.512743  0.250000  1
  N  N13  1  0.301544  0.698495  0.457341  1
  N  N14  1  0.798037  0.792662  0.957075  1
  N  N15  1  0.697492  0.296776  0.954411  1
  N  N16  1  0.798037  0.792662  0.542925  1
  N  N17  1  0.092182  0.478942  0.750000  1
  N  N18  1  0.198010  0.198193  0.456251  1
  N  N19  1  0.572950  0.013222  0.250000  1
