# generated using pymatgen
data_Ho16Zn2CdAgRh4
_symmetry_space_group_name_H-M   'P 1'
_cell_length_a   9.50586596
_cell_length_b   9.48774502
_cell_length_c   9.50133431
_cell_angle_alpha   59.94639913
_cell_angle_beta   59.98422073
_cell_angle_gamma   59.93679021
_symmetry_Int_Tables_number   1
_chemical_formula_structural   Ho16Zn2CdAgRh4
_chemical_formula_sum   'Ho16 Zn2 Cd1 Ag1 Rh4'
_cell_volume   605.32498843
_cell_formula_units_Z   1
loop_
 _symmetry_equiv_pos_site_id
 _symmetry_equiv_pos_as_xyz
  1  'x, y, z'
loop_
 _atom_site_type_symbol
 _atom_site_label
 _atom_site_symmetry_multiplicity
 _atom_site_fract_x
 _atom_site_fract_y
 _atom_site_fract_z
 _atom_site_occupancy
  Ho  Ho0  1  0.935810  0.936472  0.564226  1
  Ho  Ho1  1  0.561763  0.567976  0.934990  1
  Ho  Ho2  1  0.688837  0.689831  0.310621  1
  Ho  Ho3  1  0.148477  0.557854  0.145190  1
  Ho  Ho4  1  0.688884  0.310119  0.690245  1
  Ho  Ho5  1  0.150266  0.147835  0.147722  1
  Ho  Ho6  1  0.554176  0.147835  0.147722  1
  Ho  Ho7  1  0.688395  0.311929  0.311280  1
  Ho  Ho8  1  0.148954  0.146027  0.556065  1
  Ho  Ho9  1  0.310711  0.689831  0.310621  1
  Ho  Ho10  1  0.309429  0.690195  0.690947  1
  Ho  Ho11  1  0.936411  0.566029  0.561148  1
  Ho  Ho12  1  0.935270  0.567976  0.934990  1
  Ho  Ho13  1  0.563493  0.936472  0.564226  1
  Ho  Ho14  1  0.565113  0.935302  0.934470  1
  Ho  Ho15  1  0.310751  0.310119  0.690245  1
  Zn  Zn16  1  0.241956  0.918227  0.919712  1
  Zn  Zn17  1  0.920104  0.918227  0.919712  1
  Cd  Cd18  1  0.921885  0.235455  0.920774  1
  Ag  Ag19  1  0.919415  0.916288  0.244884  1
  Rh  Rh20  1  0.356952  0.357127  0.928969  1
  Rh  Rh21  1  0.357064  0.928644  0.357228  1
  Rh  Rh22  1  0.928976  0.357114  0.357006  1
  Rh  Rh23  1  0.356905  0.357114  0.357006  1
