# generated using pymatgen
data_LaNd5Zn4Pd12Rh
_symmetry_space_group_name_H-M   'P 1'
_cell_length_a   8.39442877
_cell_length_b   8.39442796
_cell_length_c   8.39442884
_cell_angle_alpha   109.34996647
_cell_angle_beta   109.34995784
_cell_angle_gamma   109.71400948
_symmetry_Int_Tables_number   1
_chemical_formula_structural   LaNd5Zn4Pd12Rh
_chemical_formula_sum   'La1 Nd5 Zn4 Pd12 Rh1'
_cell_volume   455.35034617
_cell_formula_units_Z   1
loop_
 _symmetry_equiv_pos_site_id
 _symmetry_equiv_pos_as_xyz
  1  'x, y, z'
loop_
 _atom_site_type_symbol
 _atom_site_label
 _atom_site_symmetry_multiplicity
 _atom_site_fract_x
 _atom_site_fract_y
 _atom_site_fract_z
 _atom_site_occupancy
  La  La0  1  0.703718  0.703718  0.000000  1
  Nd  Nd1  1  0.299397  0.000431  0.298966  1
  Nd  Nd2  1  0.000431  0.299397  0.298966  1
  Nd  Nd3  1  0.296956  0.296956  0.000000  1
  Nd  Nd4  1  0.701464  0.000431  0.701034  1
  Nd  Nd5  1  0.000431  0.701464  0.701034  1
  Zn  Zn6  1  0.000559  0.000559  0.501355  1
  Zn  Zn7  1  0.000559  0.499204  0.000000  1
  Zn  Zn8  1  0.499204  0.000559  0.000000  1
  Zn  Zn9  1  0.499204  0.499204  0.498645  1
  Pd  Pd10  1  0.331658  0.331658  0.663551  1
  Pd  Pd11  1  0.667750  0.000342  0.332592  1
  Pd  Pd12  1  0.000342  0.667750  0.332592  1
  Pd  Pd13  1  0.668106  0.331658  0.000000  1
  Pd  Pd14  1  0.332129  0.664239  0.332111  1
  Pd  Pd15  1  0.000018  0.332129  0.667889  1
  Pd  Pd16  1  0.331658  0.668106  0.000000  1
  Pd  Pd17  1  0.332129  0.000018  0.667889  1
  Pd  Pd18  1  0.664239  0.332129  0.332111  1
  Pd  Pd19  1  0.668106  0.668106  0.336449  1
  Pd  Pd20  1  0.667750  0.335160  0.667408  1
  Pd  Pd21  1  0.335160  0.667750  0.667408  1
  Rh  Rh22  1  0.999032  0.999032  0.000000  1
