# generated using pymatgen
data_Ac2TiO5
_symmetry_space_group_name_H-M   'P 1'
_cell_length_a   4.06290300
_cell_length_b   11.39801000
_cell_length_c   11.78326700
_cell_angle_alpha   90.00000000
_cell_angle_beta   90.00000000
_cell_angle_gamma   90.00000000
_symmetry_Int_Tables_number   1
_chemical_formula_structural   Ac2TiO5
_chemical_formula_sum   'Ac8 Ti4 O20'
_cell_volume   545.67141782
_cell_formula_units_Z   4
loop_
 _symmetry_equiv_pos_site_id
 _symmetry_equiv_pos_as_xyz
  1  'x, y, z'
loop_
 _atom_site_type_symbol
 _atom_site_label
 _atom_site_symmetry_multiplicity
 _atom_site_fract_x
 _atom_site_fract_y
 _atom_site_fract_z
 _atom_site_occupancy
  Ac  Ac0  1  0.750000  0.094312  0.714428  1
  Ac  Ac1  1  0.250000  0.905688  0.285572  1
  Ac  Ac2  1  0.750000  0.594312  0.785572  1
  Ac  Ac3  1  0.250000  0.405688  0.214428  1
  Ac  Ac4  1  0.250000  0.361995  0.559164  1
  Ac  Ac5  1  0.750000  0.638005  0.440836  1
  Ac  Ac6  1  0.250000  0.861995  0.940836  1
  Ac  Ac7  1  0.750000  0.138005  0.059164  1
  Ti  Ti8  1  0.250000  0.306984  0.871410  1
  Ti  Ti9  1  0.750000  0.693016  0.128590  1
  Ti  Ti10  1  0.250000  0.806984  0.628590  1
  Ti  Ti11  1  0.750000  0.193016  0.371409  1
  O  O12  1  0.250000  0.459205  0.832325  1
  O  O13  1  0.750000  0.540795  0.167675  1
  O  O14  1  0.250000  0.959205  0.667675  1
  O  O15  1  0.750000  0.040795  0.332325  1
  O  O16  1  0.250000  0.219725  0.732730  1
  O  O17  1  0.750000  0.780275  0.267270  1
  O  O18  1  0.250000  0.719725  0.767270  1
  O  O19  1  0.750000  0.280275  0.232730  1
  O  O20  1  0.750000  0.264507  0.874850  1
  O  O21  1  0.250000  0.735493  0.125150  1
  O  O22  1  0.750000  0.764507  0.625150  1
  O  O23  1  0.250000  0.235493  0.374850  1
  O  O24  1  0.250000  0.008598  0.102094  1
  O  O25  1  0.750000  0.991402  0.897906  1
  O  O26  1  0.250000  0.508598  0.397906  1
  O  O27  1  0.750000  0.491402  0.602094  1
  O  O28  1  0.250000  0.275097  0.029556  1
  O  O29  1  0.750000  0.724903  0.970444  1
  O  O30  1  0.250000  0.775097  0.470444  1
  O  O31  1  0.750000  0.224903  0.529556  1
