# generated using pymatgen
data_SrVInP2O9
_symmetry_space_group_name_H-M   'P 1'
_cell_length_a   6.75739500
_cell_length_b   7.73801900
_cell_length_c   14.82585200
_cell_angle_alpha   90.00000000
_cell_angle_beta   90.00000000
_cell_angle_gamma   90.00000000
_symmetry_Int_Tables_number   1
_chemical_formula_structural   SrVInP2O9
_chemical_formula_sum   'Sr4 V4 In4 P8 O36'
_cell_volume   775.22676470
_cell_formula_units_Z   4
loop_
 _symmetry_equiv_pos_site_id
 _symmetry_equiv_pos_as_xyz
  1  'x, y, z'
loop_
 _atom_site_type_symbol
 _atom_site_label
 _atom_site_symmetry_multiplicity
 _atom_site_fract_x
 _atom_site_fract_y
 _atom_site_fract_z
 _atom_site_occupancy
  Sr  Sr0  1  0.250000  0.882257  0.725080  1
  Sr  Sr1  1  0.750000  0.117743  0.274920  1
  Sr  Sr2  1  0.750000  0.382257  0.774920  1
  Sr  Sr3  1  0.250000  0.617743  0.225080  1
  V  V4  1  0.750000  0.648210  0.383146  1
  V  V5  1  0.750000  0.851790  0.883146  1
  V  V6  1  0.250000  0.148210  0.116854  1
  V  V7  1  0.250000  0.351790  0.616854  1
  In  In8  1  0.000000  0.000000  0.500000  1
  In  In9  1  0.500000  0.000000  0.500000  1
  In  In10  1  0.500000  0.500000  0.000000  1
  In  In11  1  0.000000  0.500000  0.000000  1
  P  P12  1  0.250000  0.861926  0.938703  1
  P  P13  1  0.750000  0.138074  0.061297  1
  P  P14  1  0.750000  0.361926  0.561297  1
  P  P15  1  0.250000  0.638074  0.438703  1
  P  P16  1  0.750000  0.888335  0.696912  1
  P  P17  1  0.250000  0.111665  0.303088  1
  P  P18  1  0.250000  0.388335  0.803088  1
  P  P19  1  0.750000  0.611665  0.196912  1
  O  O20  1  0.062456  0.103065  0.363025  1
  O  O21  1  0.562456  0.896935  0.636975  1
  O  O22  1  0.937544  0.603065  0.136975  1
  O  O23  1  0.437544  0.396935  0.863025  1
  O  O24  1  0.937544  0.896935  0.636975  1
  O  O25  1  0.437544  0.103065  0.363025  1
  O  O26  1  0.062456  0.396935  0.863025  1
  O  O27  1  0.562456  0.603065  0.136975  1
  O  O28  1  0.250000  0.816944  0.490561  1
  O  O29  1  0.750000  0.183056  0.509439  1
  O  O30  1  0.750000  0.316944  0.009439  1
  O  O31  1  0.250000  0.683056  0.990561  1
  O  O32  1  0.750000  0.630049  0.941822  1
  O  O33  1  0.250000  0.369951  0.058178  1
  O  O34  1  0.250000  0.130049  0.558178  1
  O  O35  1  0.750000  0.869951  0.441822  1
  O  O36  1  0.750000  0.721121  0.755732  1
  O  O37  1  0.250000  0.278879  0.244268  1
  O  O38  1  0.250000  0.221121  0.744268  1
  O  O39  1  0.750000  0.778879  0.255732  1
  O  O40  1  0.433451  0.633818  0.376267  1
  O  O41  1  0.933451  0.366182  0.623733  1
  O  O42  1  0.566549  0.133818  0.123733  1
  O  O43  1  0.066549  0.866182  0.876267  1
  O  O44  1  0.566549  0.366182  0.623733  1
  O  O45  1  0.066549  0.633818  0.376267  1
  O  O46  1  0.433451  0.866182  0.876267  1
  O  O47  1  0.933451  0.133818  0.123733  1
  O  O48  1  0.750000  0.997882  0.989604  1
  O  O49  1  0.250000  0.532940  0.729195  1
  O  O50  1  0.250000  0.967060  0.229195  1
  O  O51  1  0.750000  0.032940  0.770805  1
  O  O52  1  0.750000  0.502118  0.489604  1
  O  O53  1  0.250000  0.497882  0.510396  1
  O  O54  1  0.250000  0.002118  0.010396  1
  O  O55  1  0.750000  0.467060  0.270805  1
