# generated using pymatgen
data_YLu4P12Ru18Pt
_symmetry_space_group_name_H-M   'P 1'
_cell_length_a   12.54238900
_cell_length_b   12.44049771
_cell_length_c   3.97066400
_cell_angle_alpha   90.00000000
_cell_angle_beta   90.00000000
_cell_angle_gamma   119.73169858
_symmetry_Int_Tables_number   1
_chemical_formula_structural   YLu4P12Ru18Pt
_chemical_formula_sum   'Y1 Lu4 P12 Ru18 Pt1'
_cell_volume   537.99669257
_cell_formula_units_Z   1
loop_
 _symmetry_equiv_pos_site_id
 _symmetry_equiv_pos_as_xyz
  1  'x, y, z'
loop_
 _atom_site_type_symbol
 _atom_site_label
 _atom_site_symmetry_multiplicity
 _atom_site_fract_x
 _atom_site_fract_y
 _atom_site_fract_z
 _atom_site_occupancy
  Y  Y0  1  0.183488  0.999006  0.500000  1
  Lu  Lu1  1  0.000049  0.182169  0.500000  1
  Lu  Lu2  1  0.816763  0.815948  0.500000  1
  Lu  Lu3  1  0.661119  0.329572  0.000000  1
  Lu  Lu4  1  0.339062  0.668526  0.000000  1
  P  P5  1  0.999427  0.812375  0.000000  1
  P  P6  1  0.181727  0.183658  0.000000  1
  P  P7  1  0.817752  0.001409  0.000000  1
  P  P8  1  0.692986  0.173579  0.500000  1
  P  P9  1  0.817393  0.517864  0.500000  1
  P  P10  1  0.475113  0.306186  0.500000  1
  P  P11  1  0.182456  0.700460  0.500000  1
  P  P12  1  0.525065  0.831123  0.500000  1
  P  P13  1  0.307182  0.481017  0.500000  1
  P  P14  1  0.999978  0.363198  0.000000  1
  P  P15  1  0.627592  0.628024  0.000000  1
  P  P16  1  0.372937  0.000519  0.000000  1
  Ru  Ru17  1  0.444322  0.446882  0.000000  1
  Ru  Ru18  1  0.555946  0.002437  0.000000  1
  Ru  Ru19  1  0.999386  0.710383  0.500000  1
  Ru  Ru20  1  0.280432  0.283414  0.500000  1
  Ru  Ru21  1  0.719920  0.002386  0.500000  1
  Ru  Ru22  1  0.808157  0.186703  0.000000  1
  Ru  Ru23  1  0.813965  0.620690  0.000000  1
  Ru  Ru24  1  0.375048  0.191863  0.000000  1
  Ru  Ru25  1  0.185625  0.805043  0.000000  1
  Ru  Ru26  1  0.626296  0.816517  0.000000  1
  Ru  Ru27  1  0.191713  0.378612  0.000000  1
  Ru  Ru28  1  0.871557  0.367144  0.500000  1
  Ru  Ru29  1  0.629992  0.507486  0.500000  1
  Ru  Ru30  1  0.493296  0.129065  0.500000  1
  Ru  Ru31  1  0.370307  0.877491  0.500000  1
  Ru  Ru32  1  0.507107  0.636219  0.500000  1
  Ru  Ru33  1  0.128447  0.495730  0.500000  1
  Ru  Ru34  1  0.998439  0.997450  0.000000  1
  Pt  Pt35  1  0.999955  0.549851  0.000000  1
