# generated using pymatgen
data_Ca2La2Al18CoPd5
_symmetry_space_group_name_H-M   'P 1'
_cell_length_a   7.66300293
_cell_length_b   7.67174557
_cell_length_c   9.58455369
_cell_angle_alpha   89.99191579
_cell_angle_beta   89.90907198
_cell_angle_gamma   119.35012645
_symmetry_Int_Tables_number   1
_chemical_formula_structural   Ca2La2Al18CoPd5
_chemical_formula_sum   'Ca2 La2 Al18 Co1 Pd5'
_cell_volume   491.13607579
_cell_formula_units_Z   1
loop_
 _symmetry_equiv_pos_site_id
 _symmetry_equiv_pos_as_xyz
  1  'x, y, z'
loop_
 _atom_site_type_symbol
 _atom_site_label
 _atom_site_symmetry_multiplicity
 _atom_site_fract_x
 _atom_site_fract_y
 _atom_site_fract_z
 _atom_site_occupancy
  Ca  Ca0  1  0.999720  0.322477  0.750484  1
  Ca  Ca1  1  0.328232  0.008526  0.749685  1
  La  La2  1  0.995977  0.670139  0.249784  1
  La  La3  1  0.672510  0.997973  0.249427  1
  Al  Al4  1  0.654105  0.991003  0.921848  1
  Al  Al5  1  0.999379  0.664274  0.581589  1
  Al  Al6  1  0.137925  0.136604  0.248085  1
  Al  Al7  1  0.659061  0.665881  0.038868  1
  Al  Al8  1  0.334162  0.335642  0.560975  1
  Al  Al9  1  0.332247  0.339159  0.946632  1
  Al  Al10  1  0.663427  0.663604  0.453373  1
  Al  Al11  1  0.334790  0.992269  0.066225  1
  Al  Al12  1  0.007457  0.336226  0.429119  1
  Al  Al13  1  0.342042  0.548783  0.240481  1
  Al  Al14  1  0.012835  0.344481  0.066933  1
  Al  Al15  1  0.542329  0.341262  0.248514  1
  Al  Al16  1  0.658026  0.455265  0.752020  1
  Al  Al17  1  0.864716  0.863727  0.752015  1
  Al  Al18  1  0.014750  0.665139  0.920683  1
  Al  Al19  1  0.662305  0.996011  0.581556  1
  Al  Al20  1  0.335277  0.005482  0.429569  1
  Al  Al21  1  0.442323  0.657575  0.759248  1
  Co  Co22  1  0.331297  0.669653  0.000021  1
  Pd  Pd23  1  0.671579  0.328603  0.501893  1
  Pd  Pd24  1  0.672720  0.328509  0.998880  1
  Pd  Pd25  1  0.329143  0.671178  0.501422  1
  Pd  Pd26  1  0.001058  0.999803  0.998366  1
  Pd  Pd27  1  0.000610  0.000754  0.502304  1
