# generated using pymatgen
data_Tb4Al18TcNi5
_symmetry_space_group_name_H-M   'P 1'
_cell_length_a   7.48267067
_cell_length_b   7.48267079
_cell_length_c   9.39179940
_cell_angle_alpha   89.70758041
_cell_angle_beta   89.70758519
_cell_angle_gamma   119.03942599
_symmetry_Int_Tables_number   1
_chemical_formula_structural   Tb4Al18TcNi5
_chemical_formula_sum   'Tb4 Al18 Tc1 Ni5'
_cell_volume   459.72017805
_cell_formula_units_Z   1
loop_
 _symmetry_equiv_pos_site_id
 _symmetry_equiv_pos_as_xyz
  1  'x, y, z'
loop_
 _atom_site_type_symbol
 _atom_site_label
 _atom_site_symmetry_multiplicity
 _atom_site_fract_x
 _atom_site_fract_y
 _atom_site_fract_z
 _atom_site_occupancy
  Tb  Tb0  1  0.995017  0.674789  0.249564  1
  Tb  Tb1  1  0.004983  0.325211  0.750436  1
  Tb  Tb2  1  0.674789  0.995017  0.249564  1
  Tb  Tb3  1  0.325211  0.004983  0.750436  1
  Al  Al4  1  0.130950  0.130950  0.251511  1
  Al  Al5  1  0.869050  0.869050  0.748489  1
  Al  Al6  1  0.998747  0.336113  0.071837  1
  Al  Al7  1  0.001253  0.663887  0.928163  1
  Al  Al8  1  0.001043  0.662780  0.573520  1
  Al  Al9  1  0.337220  0.998957  0.426480  1
  Al  Al10  1  0.998957  0.337220  0.426480  1
  Al  Al11  1  0.662780  0.001043  0.573520  1
  Al  Al12  1  0.663887  0.001253  0.928163  1
  Al  Al13  1  0.336113  0.998747  0.071837  1
  Al  Al14  1  0.333333  0.333333  0.547203  1
  Al  Al15  1  0.666667  0.666667  0.452797  1
  Al  Al16  1  0.665277  0.665277  0.046972  1
  Al  Al17  1  0.334723  0.334723  0.953028  1
  Al  Al18  1  0.341565  0.554553  0.249801  1
  Al  Al19  1  0.658435  0.445447  0.750199  1
  Al  Al20  1  0.554553  0.341565  0.249801  1
  Al  Al21  1  0.445447  0.658435  0.750199  1
  Tc  Tc22  1  0.000000  0.000000  0.000000  1
  Ni  Ni23  1  0.670418  0.329582  0.000000  1
  Ni  Ni24  1  0.329582  0.670418  0.000000  1
  Ni  Ni25  1  0.329179  0.670821  0.500000  1
  Ni  Ni26  1  0.670821  0.329179  0.500000  1
  Ni  Ni27  1  0.000000  0.000000  0.500000  1
