# generated using pymatgen
data_MnPd6Au
_symmetry_space_group_name_H-M   'P 1'
_cell_length_a   8.46692543
_cell_length_b   8.46692557
_cell_length_c   8.46692497
_cell_angle_alpha   152.95635931
_cell_angle_beta   152.95636535
_cell_angle_gamma   38.61831860
_symmetry_Int_Tables_number   1
_chemical_formula_structural   MnPd6Au
_chemical_formula_sum   'Mn1 Pd6 Au1'
_cell_volume   125.26806553
_cell_formula_units_Z   1
loop_
 _symmetry_equiv_pos_site_id
 _symmetry_equiv_pos_as_xyz
  1  'x, y, z'
loop_
 _atom_site_type_symbol
 _atom_site_label
 _atom_site_symmetry_multiplicity
 _atom_site_fract_x
 _atom_site_fract_y
 _atom_site_fract_z
 _atom_site_occupancy
  Mn  Mn0  1  0.875516  0.875516  0.000000  1
  Pd  Pd1  1  0.374786  0.374786  0.000000  1
  Pd  Pd2  1  0.623829  0.623829  0.000000  1
  Pd  Pd3  1  0.995823  0.495823  0.500000  1
  Pd  Pd4  1  0.495823  0.995823  0.500000  1
  Pd  Pd5  1  0.254188  0.754188  0.500000  1
  Pd  Pd6  1  0.754188  0.254188  0.500000  1
  Au  Au7  1  0.125848  0.125848  0.000000  1
