# generated using pymatgen
data_Ca3Ho(Al3Ni)6
_symmetry_space_group_name_H-M   'P 1'
_cell_length_a   7.43444229
_cell_length_b   7.42654323
_cell_length_c   9.27554800
_cell_angle_alpha   90.00000000
_cell_angle_beta   90.00000000
_cell_angle_gamma   119.35311895
_symmetry_Int_Tables_number   1
_chemical_formula_structural   Ca3Ho(Al3Ni)6
_chemical_formula_sum   'Ca3 Ho1 Al18 Ni6'
_cell_volume   446.37460244
_cell_formula_units_Z   1
loop_
 _symmetry_equiv_pos_site_id
 _symmetry_equiv_pos_as_xyz
  1  'x, y, z'
loop_
 _atom_site_type_symbol
 _atom_site_label
 _atom_site_symmetry_multiplicity
 _atom_site_fract_x
 _atom_site_fract_y
 _atom_site_fract_z
 _atom_site_occupancy
  Ca  Ca0  1  0.992260  0.671362  0.250000  1
  Ca  Ca1  1  0.005886  0.329144  0.750000  1
  Ca  Ca2  1  0.673742  0.994871  0.250000  1
  Ho  Ho3  1  0.329142  0.004308  0.750000  1
  Al  Al4  1  0.128210  0.128240  0.250000  1
  Al  Al5  1  0.876620  0.874441  0.750000  1
  Al  Al6  1  0.998212  0.335391  0.072169  1
  Al  Al7  1  0.002210  0.664746  0.926043  1
  Al  Al8  1  0.002210  0.664746  0.573957  1
  Al  Al9  1  0.335029  0.996898  0.427062  1
  Al  Al10  1  0.998212  0.335391  0.427831  1
  Al  Al11  1  0.665704  0.003086  0.573873  1
  Al  Al12  1  0.665704  0.003086  0.926127  1
  Al  Al13  1  0.335029  0.996898  0.072938  1
  Al  Al14  1  0.330900  0.330335  0.549374  1
  Al  Al15  1  0.667304  0.667546  0.455820  1
  Al  Al16  1  0.667304  0.667546  0.044180  1
  Al  Al17  1  0.330900  0.330335  0.950626  1
  Al  Al18  1  0.340773  0.554511  0.250000  1
  Al  Al19  1  0.656312  0.446120  0.750000  1
  Al  Al20  1  0.550875  0.341082  0.250000  1
  Al  Al21  1  0.449031  0.662641  0.750000  1
  Ni  Ni22  1  0.668709  0.328478  0.998709  1
  Ni  Ni23  1  0.329310  0.670412  0.998150  1
  Ni  Ni24  1  0.329310  0.670412  0.501850  1
  Ni  Ni25  1  0.668709  0.328478  0.501291  1
  Ni  Ni26  1  0.001199  0.999747  0.999617  1
  Ni  Ni27  1  0.001199  0.999747  0.500383  1
