# generated using pymatgen
data_LaPd3Se4
_symmetry_space_group_name_H-M   'P 1'
_cell_length_a   7.13316300
_cell_length_b   7.13316300
_cell_length_c   7.13316300
_cell_angle_alpha   90.00000000
_cell_angle_beta   90.00000000
_cell_angle_gamma   90.00000000
_symmetry_Int_Tables_number   1
_chemical_formula_structural   LaPd3Se4
_chemical_formula_sum   'La2 Pd6 Se8'
_cell_volume   362.94970237
_cell_formula_units_Z   2
loop_
 _symmetry_equiv_pos_site_id
 _symmetry_equiv_pos_as_xyz
  1  'x, y, z'
loop_
 _atom_site_type_symbol
 _atom_site_label
 _atom_site_symmetry_multiplicity
 _atom_site_fract_x
 _atom_site_fract_y
 _atom_site_fract_z
 _atom_site_occupancy
  La  La0  1  0.500000  0.500000  0.500000  1
  La  La1  1  0.000000  0.000000  0.000000  1
  Pd  Pd2  1  0.500000  0.000000  0.750000  1
  Pd  Pd3  1  0.000000  0.250000  0.500000  1
  Pd  Pd4  1  0.750000  0.500000  0.000000  1
  Pd  Pd5  1  0.500000  0.000000  0.250000  1
  Pd  Pd6  1  0.000000  0.750000  0.500000  1
  Pd  Pd7  1  0.250000  0.500000  0.000000  1
  Se  Se8  1  0.750000  0.250000  0.750000  1
  Se  Se9  1  0.250000  0.750000  0.250000  1
  Se  Se10  1  0.750000  0.750000  0.250000  1
  Se  Se11  1  0.250000  0.250000  0.750000  1
  Se  Se12  1  0.250000  0.750000  0.750000  1
  Se  Se13  1  0.750000  0.250000  0.250000  1
  Se  Se14  1  0.250000  0.250000  0.250000  1
  Se  Se15  1  0.750000  0.750000  0.750000  1
