# generated using pymatgen
data_Er4PRh7Au5
_symmetry_space_group_name_H-M   'P 1'
_cell_length_a   7.29579447
_cell_length_b   7.29579467
_cell_length_c   7.29579500
_cell_angle_alpha   108.59855303
_cell_angle_beta   109.90929402
_cell_angle_gamma   109.90930433
_symmetry_Int_Tables_number   1
_chemical_formula_structural   Er4PRh7Au5
_chemical_formula_sum   'Er4 P1 Rh7 Au5'
_cell_volume   298.89634209
_cell_formula_units_Z   1
loop_
 _symmetry_equiv_pos_site_id
 _symmetry_equiv_pos_as_xyz
  1  'x, y, z'
loop_
 _atom_site_type_symbol
 _atom_site_label
 _atom_site_symmetry_multiplicity
 _atom_site_fract_x
 _atom_site_fract_y
 _atom_site_fract_z
 _atom_site_occupancy
  Er  Er0  1  0.985756  0.992884  0.492885  1
  Er  Er1  1  0.014244  0.507115  0.007116  1
  Er  Er2  1  0.500000  0.992887  0.007113  1
  Er  Er3  1  0.500000  0.507121  0.492879  1
  P  P4  1  0.000000  0.999986  0.000014  1
  Rh  Rh5  1  0.500000  0.749989  0.250011  1
  Rh  Rh6  1  0.733957  0.731784  0.997823  1
  Rh  Rh7  1  0.266043  0.002177  0.268216  1
  Rh  Rh8  1  0.000042  0.264258  0.264236  1
  Rh  Rh9  1  0.266023  0.263937  0.997905  1
  Rh  Rh10  1  0.733977  0.002095  0.736063  1
  Rh  Rh11  1  0.999958  0.735764  0.735742  1
  Au  Au12  1  0.748406  0.248795  0.500398  1
  Au  Au13  1  0.748408  0.499612  0.248007  1
  Au  Au14  1  0.500000  0.250000  0.750000  1
  Au  Au15  1  0.251594  0.499602  0.751205  1
  Au  Au16  1  0.251592  0.751993  0.500388  1
