# generated using pymatgen
data_Ti8Co8Si13Ge
_symmetry_space_group_name_H-M   'P 1'
_cell_length_a   9.21472961
_cell_length_b   9.21476372
_cell_length_c   9.21276462
_cell_angle_alpha   94.15712787
_cell_angle_beta   94.15036365
_cell_angle_gamma   148.78171751
_symmetry_Int_Tables_number   1
_chemical_formula_structural   Ti8Co8Si13Ge
_chemical_formula_sum   'Ti8 Co8 Si13 Ge1'
_cell_volume   390.48372197
_cell_formula_units_Z   1
loop_
 _symmetry_equiv_pos_site_id
 _symmetry_equiv_pos_as_xyz
  1  'x, y, z'
loop_
 _atom_site_type_symbol
 _atom_site_label
 _atom_site_symmetry_multiplicity
 _atom_site_fract_x
 _atom_site_fract_y
 _atom_site_fract_z
 _atom_site_occupancy
  Ti  Ti0  1  0.135150  0.135143  0.270441  1
  Ti  Ti1  1  0.865625  0.865620  0.730869  1
  Ti  Ti2  1  0.864221  0.135385  0.999659  1
  Ti  Ti3  1  0.135408  0.864226  0.999662  1
  Ti  Ti4  1  0.499209  0.692064  0.191268  1
  Ti  Ti5  1  0.503234  0.307482  0.810805  1
  Ti  Ti6  1  0.307484  0.503275  0.810889  1
  Ti  Ti7  1  0.692066  0.499190  0.191278  1
  Co  Co8  1  0.399466  0.899490  0.799018  1
  Co  Co9  1  0.100649  0.600672  0.201337  1
  Co  Co10  1  0.098819  0.895605  0.497908  1
  Co  Co11  1  0.399045  0.602524  0.497818  1
  Co  Co12  1  0.602408  0.398992  0.497867  1
  Co  Co13  1  0.895475  0.098748  0.497858  1
  Co  Co14  1  0.899482  0.399435  0.799008  1
  Co  Co15  1  0.600693  0.100643  0.201310  1
  Si  Si16  1  0.704941  0.704903  0.410028  1
  Si  Si17  1  0.707133  0.293587  0.000730  1
  Si  Si18  1  0.293578  0.707098  0.000726  1
  Si  Si19  1  0.999560  0.292793  0.292385  1
  Si  Si20  1  0.999889  0.706534  0.706407  1
  Si  Si21  1  0.706495  0.999858  0.706428  1
  Si  Si22  1  0.292781  0.999558  0.292401  1
  Si  Si23  1  0.499608  0.905819  0.405406  1
  Si  Si24  1  0.500038  0.094016  0.594180  1
  Si  Si25  1  0.094061  0.500103  0.594187  1
  Si  Si26  1  0.905796  0.499612  0.405433  1
  Si  Si27  1  0.749293  0.749283  0.000093  1
  Si  Si28  1  0.250755  0.250737  0.000066  1
  Ge  Ge29  1  0.297639  0.297604  0.594534  1
