# generated using pymatgen
data_Nb9Mo5Rh2
_symmetry_space_group_name_H-M   'P 1'
_cell_length_a   6.48045300
_cell_length_b   6.48048100
_cell_length_c   6.47944500
_cell_angle_alpha   90.00000000
_cell_angle_beta   90.00000000
_cell_angle_gamma   90.00000000
_symmetry_Int_Tables_number   1
_chemical_formula_structural   Nb9Mo5Rh2
_chemical_formula_sum   'Nb9 Mo5 Rh2'
_cell_volume   272.11370441
_cell_formula_units_Z   1
loop_
 _symmetry_equiv_pos_site_id
 _symmetry_equiv_pos_as_xyz
  1  'x, y, z'
loop_
 _atom_site_type_symbol
 _atom_site_label
 _atom_site_symmetry_multiplicity
 _atom_site_fract_x
 _atom_site_fract_y
 _atom_site_fract_z
 _atom_site_occupancy
  Nb  Nb0  1  0.245601  0.248513  0.251492  1
  Nb  Nb1  1  0.754399  0.248513  0.251492  1
  Nb  Nb2  1  0.245601  0.751487  0.251492  1
  Nb  Nb3  1  0.754399  0.751487  0.251492  1
  Nb  Nb4  1  0.500000  0.500000  0.500000  1
  Nb  Nb5  1  0.245601  0.248513  0.748508  1
  Nb  Nb6  1  0.754399  0.248513  0.748508  1
  Nb  Nb7  1  0.245601  0.751487  0.748508  1
  Nb  Nb8  1  0.754399  0.751487  0.748508  1
  Mo  Mo9  1  0.000000  0.000000  0.000000  1
  Mo  Mo10  1  0.000000  0.500000  0.000000  1
  Mo  Mo11  1  0.000000  0.000000  0.500000  1
  Mo  Mo12  1  0.500000  0.000000  0.500000  1
  Mo  Mo13  1  0.000000  0.500000  0.500000  1
  Rh  Rh14  1  0.500000  0.000000  0.000000  1
  Rh  Rh15  1  0.500000  0.500000  0.000000  1
