# generated using pymatgen
data_ErCoNiO5
_symmetry_space_group_name_H-M   'P 1'
_cell_length_a   5.62672200
_cell_length_b   7.16168301
_cell_length_c   8.29626500
_cell_angle_alpha   90.00292012
_cell_angle_beta   90.00002037
_cell_angle_gamma   90.00001600
_symmetry_Int_Tables_number   1
_chemical_formula_structural   ErCoNiO5
_chemical_formula_sum   'Er4 Co4 Ni4 O20'
_cell_volume   334.31292559
_cell_formula_units_Z   4
loop_
 _symmetry_equiv_pos_site_id
 _symmetry_equiv_pos_as_xyz
  1  'x, y, z'
loop_
 _atom_site_type_symbol
 _atom_site_label
 _atom_site_symmetry_multiplicity
 _atom_site_fract_x
 _atom_site_fract_y
 _atom_site_fract_z
 _atom_site_occupancy
  Er  Er0  1  0.000000  0.637119  0.328111  1
  Er  Er1  1  0.000000  0.362881  0.671889  1
  Er  Er2  1  0.000000  0.137105  0.171888  1
  Er  Er3  1  0.000000  0.862895  0.828112  1
  Co  Co4  1  0.255202  0.500001  0.000000  1
  Co  Co5  1  0.744791  0.999999  0.499999  1
  Co  Co6  1  0.744799  0.499999  0.000000  1
  Co  Co7  1  0.255211  0.000001  0.500000  1
  Ni  Ni8  1  0.499999  0.914624  0.151571  1
  Ni  Ni9  1  0.500001  0.085376  0.848430  1
  Ni  Ni10  1  0.500000  0.414731  0.348412  1
  Ni  Ni11  1  0.500000  0.585270  0.651588  1
  O  O12  1  0.271212  0.500000  0.500000  1
  O  O13  1  0.728762  0.000000  0.000000  1
  O  O14  1  0.728788  0.500000  0.500000  1
  O  O15  1  0.271236  0.000000  0.000000  1
  O  O16  1  0.000000  0.664090  0.055331  1
  O  O17  1  0.000000  0.335910  0.944668  1
  O  O18  1  0.000000  0.164081  0.444660  1
  O  O19  1  0.000000  0.835919  0.555341  1
  O  O20  1  0.500000  0.649513  0.073244  1
  O  O21  1  0.500000  0.350488  0.926755  1
  O  O22  1  0.500000  0.149550  0.426781  1
  O  O23  1  0.500000  0.850450  0.573219  1
  O  O24  1  0.241014  0.894201  0.294220  1
  O  O25  1  0.241013  0.105800  0.705780  1
  O  O26  1  0.758963  0.394238  0.205780  1
  O  O27  1  0.758964  0.605761  0.794221  1
  O  O28  1  0.758986  0.105799  0.705780  1
  O  O29  1  0.758986  0.894200  0.294220  1
  O  O30  1  0.241037  0.605761  0.794221  1
  O  O31  1  0.241037  0.394239  0.205779  1
