# generated using pymatgen
data_CaYbAl20Os3Pd
_symmetry_space_group_name_H-M   'P 1'
_cell_length_a   6.89892403
_cell_length_b   6.90281597
_cell_length_c   9.18094116
_cell_angle_alpha   90.33188888
_cell_angle_beta   90.17198905
_cell_angle_gamma   96.55967462
_symmetry_Int_Tables_number   1
_chemical_formula_structural   CaYbAl20Os3Pd
_chemical_formula_sum   'Ca1 Yb1 Al20 Os3 Pd1'
_cell_volume   434.34230265
_cell_formula_units_Z   1
loop_
 _symmetry_equiv_pos_site_id
 _symmetry_equiv_pos_as_xyz
  1  'x, y, z'
loop_
 _atom_site_type_symbol
 _atom_site_label
 _atom_site_symmetry_multiplicity
 _atom_site_fract_x
 _atom_site_fract_y
 _atom_site_fract_z
 _atom_site_occupancy
  Ca  Ca0  1  0.628404  0.375303  0.748905  1
  Yb  Yb1  1  0.371333  0.624705  0.251175  1
  Al  Al2  1  0.276458  0.019825  0.743962  1
  Al  Al3  1  0.019814  0.282484  0.249534  1
  Al  Al4  1  0.723278  0.980023  0.256003  1
  Al  Al5  1  0.980358  0.717731  0.750458  1
  Al  Al6  1  0.882373  0.125096  0.951379  1
  Al  Al7  1  0.117839  0.874784  0.049122  1
  Al  Al8  1  0.877336  0.124263  0.544485  1
  Al  Al9  1  0.122782  0.875611  0.455097  1
  Al  Al10  1  0.647422  0.915521  0.747760  1
  Al  Al11  1  0.914874  0.644292  0.251044  1
  Al  Al12  1  0.352384  0.084314  0.252148  1
  Al  Al13  1  0.085289  0.355922  0.748921  1
  Al  Al14  1  0.340168  0.654357  0.896001  1
  Al  Al15  1  0.659658  0.345803  0.104392  1
  Al  Al16  1  0.344501  0.657180  0.598779  1
  Al  Al17  1  0.655320  0.343010  0.400876  1
  Al  Al18  1  0.725679  0.721667  0.997489  1
  Al  Al19  1  0.722114  0.721000  0.500761  1
  Al  Al20  1  0.274154  0.278467  0.002953  1
  Al  Al21  1  0.277744  0.279124  0.498845  1
  Os  Os22  1  0.000522  0.500203  0.000193  1
  Os  Os23  1  0.499777  0.999494  0.499806  1
  Os  Os24  1  0.000578  0.500245  0.499751  1
  Pd  Pd25  1  0.499840  0.999575  0.000159  1
