# generated using pymatgen
data_Ca2MnNb2Ni9As7
_symmetry_space_group_name_H-M   'P 1'
_cell_length_a   3.84053500
_cell_length_b   9.59384595
_cell_length_c   9.61888641
_cell_angle_alpha   120.21765850
_cell_angle_beta   90.00000000
_cell_angle_gamma   90.00000000
_symmetry_Int_Tables_number   1
_chemical_formula_structural   Ca2MnNb2Ni9As7
_chemical_formula_sum   'Ca2 Mn1 Nb2 Ni9 As7'
_cell_volume   306.25499860
_cell_formula_units_Z   1
loop_
 _symmetry_equiv_pos_site_id
 _symmetry_equiv_pos_as_xyz
  1  'x, y, z'
loop_
 _atom_site_type_symbol
 _atom_site_label
 _atom_site_symmetry_multiplicity
 _atom_site_fract_x
 _atom_site_fract_y
 _atom_site_fract_z
 _atom_site_occupancy
  Ca  Ca0  1  0.000000  0.667134  0.329032  1
  Ca  Ca1  1  0.500000  0.334569  0.668556  1
  Mn  Mn2  1  0.500000  0.777934  0.896875  1
  Nb  Nb3  1  0.500000  0.117986  0.220957  1
  Nb  Nb4  1  0.500000  0.101509  0.883082  1
  Ni  Ni5  1  0.000000  0.573107  0.937033  1
  Ni  Ni6  1  0.000000  0.367498  0.428432  1
  Ni  Ni7  1  0.000000  0.061253  0.636169  1
  Ni  Ni8  1  0.000000  0.873416  0.155527  1
  Ni  Ni9  1  0.000000  0.282390  0.128232  1
  Ni  Ni10  1  0.000000  0.840696  0.714482  1
  Ni  Ni11  1  0.500000  0.943329  0.377995  1
  Ni  Ni12  1  0.500000  0.436692  0.055348  1
  Ni  Ni13  1  0.500000  0.621015  0.570745  1
  As  As14  1  0.500000  0.707050  0.112178  1
  As  As15  1  0.500000  0.416087  0.296073  1
  As  As16  1  0.500000  0.880287  0.583792  1
  As  As17  1  0.000000  0.992895  0.996211  1
  As  As18  1  0.000000  0.586888  0.700005  1
  As  As19  1  0.000000  0.111572  0.418572  1
  As  As20  1  0.000000  0.306695  0.890703  1
