# generated using pymatgen
data_Li2Sn3P10PbO30
_symmetry_space_group_name_H-M   'P 1'
_cell_length_a   5.54830214
_cell_length_b   9.80203753
_cell_length_c   12.50403892
_cell_angle_alpha   90.47001315
_cell_angle_beta   91.32839091
_cell_angle_gamma   89.68132265
_symmetry_Int_Tables_number   1
_chemical_formula_structural   Li2Sn3P10PbO30
_chemical_formula_sum   'Li2 Sn3 P10 Pb1 O30'
_cell_volume   679.81252732
_cell_formula_units_Z   1
loop_
 _symmetry_equiv_pos_site_id
 _symmetry_equiv_pos_as_xyz
  1  'x, y, z'
loop_
 _atom_site_type_symbol
 _atom_site_label
 _atom_site_symmetry_multiplicity
 _atom_site_fract_x
 _atom_site_fract_y
 _atom_site_fract_z
 _atom_site_occupancy
  Li  Li0  1  0.560962  0.020614  0.469420  1
  Li  Li1  1  0.058984  0.979769  0.975459  1
  Sn  Sn2  1  0.120603  0.688330  0.087370  1
  Sn  Sn3  1  0.887877  0.302085  0.921227  1
  Sn  Sn4  1  0.383469  0.694194  0.420486  1
  P  P5  1  0.888819  0.460929  0.352706  1
  P  P6  1  0.103018  0.541894  0.649302  1
  P  P7  1  0.606675  0.460698  0.146562  1
  P  P8  1  0.388541  0.540776  0.850584  1
  P  P9  1  0.269075  0.000319  0.249893  1
  P  P10  1  0.764759  0.998864  0.753830  1
  P  P11  1  0.073108  0.186448  0.414563  1
  P  P12  1  0.910308  0.807807  0.581629  1
  P  P13  1  0.413011  0.193671  0.082164  1
  P  P14  1  0.582006  0.809700  0.916089  1
  Pb  Pb15  1  0.594727  0.316255  0.593092  1
  O  O16  1  0.740259  0.398458  0.250637  1
  O  O17  1  0.231073  0.609118  0.754103  1
  O  O18  1  0.303575  0.163184  0.477459  1
  O  O19  1  0.672741  0.838480  0.526374  1
  O  O20  1  0.173591  0.164196  0.027299  1
  O  O21  1  0.814264  0.832843  0.977341  1
  O  O22  1  0.423409  0.934387  0.335343  1
  O  O23  1  0.625516  0.085202  0.676145  1
  O  O24  1  0.134941  0.914762  0.168749  1
  O  O25  1  0.922149  0.062994  0.839718  1
  O  O26  1  0.833852  0.162013  0.465706  1
  O  O27  1  0.138245  0.824630  0.520100  1
  O  O28  1  0.638496  0.174473  0.018626  1
  O  O29  1  0.343828  0.831914  0.970995  1
  O  O30  1  0.085812  0.341091  0.370642  1
  O  O31  1  0.894647  0.653826  0.626648  1
  O  O32  1  0.398149  0.347607  0.128269  1
  O  O33  1  0.592787  0.655893  0.868789  1
  O  O34  1  0.719929  0.468387  0.445087  1
  O  O35  1  0.284553  0.540678  0.560512  1
  O  O36  1  0.781169  0.456836  0.055466  1
  O  O37  1  0.230523  0.534085  0.947030  1
  O  O38  1  0.021326  0.587742  0.323042  1
  O  O39  1  0.985738  0.409054  0.674519  1
  O  O40  1  0.486077  0.594746  0.170386  1
  O  O41  1  0.511167  0.412172  0.814242  1
  O  O42  1  0.444727  0.106314  0.189488  1
  O  O43  1  0.569971  0.898449  0.808251  1
  O  O44  1  0.071055  0.100242  0.303862  1
  O  O45  1  0.940491  0.893869  0.690792  1
