# generated using pymatgen
data_Ca2Si7(NiPd3)3
_symmetry_space_group_name_H-M   'P 1'
_cell_length_a   9.87145700
_cell_length_b   9.87145642
_cell_length_c   3.75883900
_cell_angle_alpha   90.00000000
_cell_angle_beta   90.00000000
_cell_angle_gamma   120.00001780
_symmetry_Int_Tables_number   1
_chemical_formula_structural   Ca2Si7(NiPd3)3
_chemical_formula_sum   'Ca2 Si7 Ni3 Pd9'
_cell_volume   317.20992609
_cell_formula_units_Z   1
loop_
 _symmetry_equiv_pos_site_id
 _symmetry_equiv_pos_as_xyz
  1  'x, y, z'
loop_
 _atom_site_type_symbol
 _atom_site_label
 _atom_site_symmetry_multiplicity
 _atom_site_fract_x
 _atom_site_fract_y
 _atom_site_fract_z
 _atom_site_occupancy
  Ca  Ca0  1  0.000000  0.000000  0.000000  1
  Ca  Ca1  1  0.666667  0.333333  0.500000  1
  Si  Si2  1  0.622132  0.555564  0.000000  1
  Si  Si3  1  0.933432  0.377868  0.000000  1
  Si  Si4  1  0.444436  0.066568  0.000000  1
  Si  Si5  1  0.730094  0.947634  0.500000  1
  Si  Si6  1  0.217540  0.269906  0.500000  1
  Si  Si7  1  0.052366  0.782460  0.500000  1
  Si  Si8  1  0.333333  0.666667  0.000000  1
  Ni  Ni9  1  0.604458  0.783233  0.000000  1
  Ni  Ni10  1  0.178775  0.395542  0.000000  1
  Ni  Ni11  1  0.216767  0.821225  0.000000  1
  Pd  Pd12  1  0.393262  0.295757  0.000000  1
  Pd  Pd13  1  0.902494  0.606738  0.000000  1
  Pd  Pd14  1  0.704243  0.097506  0.000000  1
  Pd  Pd15  1  0.771466  0.724144  0.500000  1
  Pd  Pd16  1  0.952679  0.228534  0.500000  1
  Pd  Pd17  1  0.275856  0.047321  0.500000  1
  Pd  Pd18  1  0.425114  0.545981  0.500000  1
  Pd  Pd19  1  0.120868  0.574886  0.500000  1
  Pd  Pd20  1  0.454019  0.879132  0.500000  1
