# generated using pymatgen
data_Zr6Nb2Al15Tc7
_symmetry_space_group_name_H-M   'P 1'
_cell_length_a   8.90222816
_cell_length_b   8.90222700
_cell_length_c   8.90222800
_cell_angle_alpha   120.22758882
_cell_angle_beta   119.88770167
_cell_angle_gamma   89.90043888
_symmetry_Int_Tables_number   1
_chemical_formula_structural   Zr6Nb2Al15Tc7
_chemical_formula_sum   'Zr6 Nb2 Al15 Tc7'
_cell_volume   498.42179805
_cell_formula_units_Z   1
loop_
 _symmetry_equiv_pos_site_id
 _symmetry_equiv_pos_as_xyz
  1  'x, y, z'
loop_
 _atom_site_type_symbol
 _atom_site_label
 _atom_site_symmetry_multiplicity
 _atom_site_fract_x
 _atom_site_fract_y
 _atom_site_fract_z
 _atom_site_occupancy
  Zr  Zr0  1  0.788462  0.279916  0.064112  1
  Zr  Zr1  1  0.215804  0.279916  0.491454  1
  Zr  Zr2  1  0.213125  0.713125  0.500000  1
  Zr  Zr3  1  0.215804  0.724350  0.935888  1
  Zr  Zr4  1  0.788462  0.724350  0.508546  1
  Zr  Zr5  1  0.776394  0.276394  0.500000  1
  Nb  Nb6  1  0.378584  0.119534  0.740950  1
  Nb  Nb7  1  0.378584  0.637633  0.259050  1
  Al  Al8  1  0.994584  0.494584  0.500000  1
  Al  Al9  1  0.162527  0.339646  0.177117  1
  Al  Al10  1  0.162527  0.985411  0.822883  1
  Al  Al11  1  0.159912  0.341306  0.818605  1
  Al  Al12  1  0.522700  0.341306  0.181395  1
  Al  Al13  1  0.839674  0.662517  0.822844  1
  Al  Al14  1  0.839674  0.016828  0.177156  1
  Al  Al15  1  0.841138  0.659908  0.181231  1
  Al  Al16  1  0.478677  0.659908  0.818769  1
  Al  Al17  1  0.373408  0.122868  0.250540  1
  Al  Al18  1  0.872328  0.122868  0.749460  1
  Al  Al19  1  0.620541  0.869338  0.248797  1
  Al  Al20  1  0.620541  0.371744  0.751203  1
  Al  Al21  1  0.618314  0.876730  0.741583  1
  Al  Al22  1  0.135145  0.876730  0.258417  1
  Tc  Tc23  1  0.998815  0.001930  0.501099  1
  Tc  Tc24  1  0.500831  0.001930  0.003115  1
  Tc  Tc25  1  0.498642  0.498642  0.000000  1
  Tc  Tc26  1  0.500831  0.497716  0.498901  1
  Tc  Tc27  1  0.998815  0.497716  0.996885  1
  Tc  Tc28  1  0.000896  0.000896  0.000000  1
  Tc  Tc29  1  0.504258  0.004258  0.500000  1
