# generated using pymatgen
data_Ac2P7(Rh3W)3
_symmetry_space_group_name_H-M   'P 1'
_cell_length_a   9.61319800
_cell_length_b   9.61319914
_cell_length_c   3.98757400
_cell_angle_alpha   90.00000000
_cell_angle_beta   90.00000000
_cell_angle_gamma   119.99999607
_symmetry_Int_Tables_number   1
_chemical_formula_structural   Ac2P7(Rh3W)3
_chemical_formula_sum   'Ac2 P7 Rh9 W3'
_cell_volume   319.13558386
_cell_formula_units_Z   1
loop_
 _symmetry_equiv_pos_site_id
 _symmetry_equiv_pos_as_xyz
  1  'x, y, z'
loop_
 _atom_site_type_symbol
 _atom_site_label
 _atom_site_symmetry_multiplicity
 _atom_site_fract_x
 _atom_site_fract_y
 _atom_site_fract_z
 _atom_site_occupancy
  Ac  Ac0  1  0.000000  0.000000  0.763762  1
  Ac  Ac1  1  0.333333  0.666667  0.263791  1
  P  P2  1  0.666667  0.333333  0.263933  1
  P  P3  1  0.065503  0.624486  0.763815  1
  P  P4  1  0.375514  0.441019  0.763815  1
  P  P5  1  0.558981  0.934497  0.763815  1
  P  P6  1  0.261246  0.038594  0.263795  1
  P  P7  1  0.961406  0.222652  0.263795  1
  P  P8  1  0.777348  0.738754  0.263795  1
  Rh  Rh9  1  0.510836  0.063565  0.263802  1
  Rh  Rh10  1  0.936435  0.447272  0.263802  1
  Rh  Rh11  1  0.552728  0.489164  0.263802  1
  Rh  Rh12  1  0.099669  0.381353  0.763783  1
  Rh  Rh13  1  0.618647  0.718317  0.763783  1
  Rh  Rh14  1  0.281683  0.900331  0.763783  1
  Rh  Rh15  1  0.234300  0.268940  0.263809  1
  Rh  Rh16  1  0.731060  0.965360  0.263809  1
  Rh  Rh17  1  0.034640  0.765700  0.263809  1
  W  W18  1  0.791065  0.548500  0.763814  1
  W  W19  1  0.451500  0.242566  0.763814  1
  W  W20  1  0.757434  0.208935  0.763814  1
