# generated using pymatgen
data_Nd3Sm(CdRh)4
_symmetry_space_group_name_H-M   'P 1'
_cell_length_a   4.19082700
_cell_length_b   7.33841095
_cell_length_c   8.85731500
_cell_angle_alpha   89.76267785
_cell_angle_beta   90.00000000
_cell_angle_gamma   90.00000000
_symmetry_Int_Tables_number   1
_chemical_formula_structural   Nd3Sm(CdRh)4
_chemical_formula_sum   'Nd3 Sm1 Cd4 Rh4'
_cell_volume   272.39562402
_cell_formula_units_Z   1
loop_
 _symmetry_equiv_pos_site_id
 _symmetry_equiv_pos_as_xyz
  1  'x, y, z'
loop_
 _atom_site_type_symbol
 _atom_site_label
 _atom_site_symmetry_multiplicity
 _atom_site_fract_x
 _atom_site_fract_y
 _atom_site_fract_z
 _atom_site_occupancy
  Nd  Nd0  1  0.250000  0.956487  0.679094  1
  Nd  Nd1  1  0.250000  0.454781  0.819816  1
  Nd  Nd2  1  0.750000  0.543858  0.179396  1
  Sm  Sm3  1  0.750000  0.044781  0.321177  1
  Cd  Cd4  1  0.750000  0.634952  0.558103  1
  Cd  Cd5  1  0.250000  0.365566  0.439672  1
  Cd  Cd6  1  0.250000  0.866970  0.060009  1
  Cd  Cd7  1  0.750000  0.133198  0.941403  1
  Rh  Rh8  1  0.750000  0.739184  0.867952  1
  Rh  Rh9  1  0.250000  0.256704  0.134127  1
  Rh  Rh10  1  0.250000  0.763132  0.367717  1
  Rh  Rh11  1  0.750000  0.240388  0.631532  1
