# generated using pymatgen
data_Li4La4Pd3Ru
_symmetry_space_group_name_H-M   'P 1'
_cell_length_a   7.35743668
_cell_length_b   4.11594200
_cell_length_c   8.78664230
_cell_angle_alpha   90.00000000
_cell_angle_beta   91.27202705
_cell_angle_gamma   90.00000000
_symmetry_Int_Tables_number   1
_chemical_formula_structural   Li4La4Pd3Ru
_chemical_formula_sum   'Li4 La4 Pd3 Ru1'
_cell_volume   266.01840695
_cell_formula_units_Z   1
loop_
 _symmetry_equiv_pos_site_id
 _symmetry_equiv_pos_as_xyz
  1  'x, y, z'
loop_
 _atom_site_type_symbol
 _atom_site_label
 _atom_site_symmetry_multiplicity
 _atom_site_fract_x
 _atom_site_fract_y
 _atom_site_fract_z
 _atom_site_occupancy
  Li  Li0  1  0.623253  0.250000  0.552134  1
  Li  Li1  1  0.126814  0.250000  0.947240  1
  Li  Li2  1  0.375336  0.750000  0.446521  1
  Li  Li3  1  0.876074  0.750000  0.058104  1
  La  La4  1  0.054923  0.250000  0.332920  1
  La  La5  1  0.546547  0.250000  0.180463  1
  La  La6  1  0.968716  0.750000  0.680755  1
  La  La7  1  0.446388  0.750000  0.799095  1
  Pd  Pd8  1  0.744226  0.250000  0.879039  1
  Pd  Pd9  1  0.748324  0.750000  0.373867  1
  Pd  Pd10  1  0.255593  0.750000  0.123298  1
  Ru  Ru11  1  0.233806  0.250000  0.626565  1
