# generated using pymatgen
data_Sc2B(Pd2Pt)2
_symmetry_space_group_name_H-M   'P 1'
_cell_length_a   5.80441114
_cell_length_b   5.80441122
_cell_length_c   5.85135300
_cell_angle_alpha   59.73210735
_cell_angle_beta   59.73210687
_cell_angle_gamma   58.59901893
_symmetry_Int_Tables_number   1
_chemical_formula_structural   Sc2B(Pd2Pt)2
_chemical_formula_sum   'Sc2 B1 Pd4 Pt2'
_cell_volume   137.31360484
_cell_formula_units_Z   1
loop_
 _symmetry_equiv_pos_site_id
 _symmetry_equiv_pos_as_xyz
  1  'x, y, z'
loop_
 _atom_site_type_symbol
 _atom_site_label
 _atom_site_symmetry_multiplicity
 _atom_site_fract_x
 _atom_site_fract_y
 _atom_site_fract_z
 _atom_site_occupancy
  Sc  Sc0  1  0.248307  0.248307  0.253800  1
  Sc  Sc1  1  0.751693  0.751693  0.750414  1
  B  B2  1  0.499999  0.499999  0.494294  1
  Pd  Pd3  1  0.758261  0.758261  0.243544  1
  Pd  Pd4  1  0.241738  0.241738  0.760066  1
  Pd  Pd5  1  0.752761  0.247238  0.757781  1
  Pd  Pd6  1  0.247238  0.752761  0.757781  1
  Pt  Pt7  1  0.756250  0.243749  0.241158  1
  Pt  Pt8  1  0.243749  0.756250  0.241158  1
