# generated using pymatgen
data_Ca7ErBi6
_symmetry_space_group_name_H-M   'P 1'
_cell_length_a   8.30190153
_cell_length_b   8.37333243
_cell_length_c   8.37333405
_cell_angle_alpha   109.64338708
_cell_angle_beta   109.29849452
_cell_angle_gamma   109.29850204
_symmetry_Int_Tables_number   1
_chemical_formula_structural   Ca7ErBi6
_chemical_formula_sum   'Ca7 Er1 Bi6'
_cell_volume   449.02835440
_cell_formula_units_Z   1
loop_
 _symmetry_equiv_pos_site_id
 _symmetry_equiv_pos_as_xyz
  1  'x, y, z'
loop_
 _atom_site_type_symbol
 _atom_site_label
 _atom_site_symmetry_multiplicity
 _atom_site_fract_x
 _atom_site_fract_y
 _atom_site_fract_z
 _atom_site_occupancy
  Ca  Ca0  1  0.648662  0.500000  0.000000  1
  Ca  Ca1  1  0.499777  0.001457  0.650029  1
  Ca  Ca2  1  0.355773  0.353373  0.355900  1
  Ca  Ca3  1  0.502399  0.002526  0.146627  1
  Ca  Ca4  1  0.998319  0.648572  0.498543  1
  Ca  Ca5  1  0.849748  0.849971  0.851428  1
  Ca  Ca6  1  0.999873  0.144100  0.497474  1
  Er  Er7  1  0.146900  0.500000  0.000000  1
  Bi  Bi8  1  0.370249  0.623475  0.755467  1
  Bi  Bi9  1  0.882518  0.255798  0.125011  1
  Bi  Bi10  1  0.614782  0.744533  0.368008  1
  Bi  Bi11  1  0.126720  0.869214  0.244202  1
  Bi  Bi12  1  0.246774  0.131992  0.876525  1
  Bi  Bi13  1  0.757507  0.374989  0.630786  1
