# generated using pymatgen
data_Ta3GeRu2C
_symmetry_space_group_name_H-M   'P 1'
_cell_length_a   8.29403830
_cell_length_b   8.29051434
_cell_length_c   8.29603300
_cell_angle_alpha   59.99218850
_cell_angle_beta   59.99737682
_cell_angle_gamma   60.00016334
_symmetry_Int_Tables_number   1
_chemical_formula_structural   Ta3GeRu2C
_chemical_formula_sum   'Ta12 Ge4 Ru8 C4'
_cell_volume   403.33811652
_cell_formula_units_Z   4
loop_
 _symmetry_equiv_pos_site_id
 _symmetry_equiv_pos_as_xyz
  1  'x, y, z'
loop_
 _atom_site_type_symbol
 _atom_site_label
 _atom_site_symmetry_multiplicity
 _atom_site_fract_x
 _atom_site_fract_y
 _atom_site_fract_z
 _atom_site_occupancy
  Ta  Ta0  1  0.442457  0.057560  0.057513  1
  Ta  Ta1  1  0.057624  0.442425  0.442400  1
  Ta  Ta2  1  0.057616  0.442479  0.057429  1
  Ta  Ta3  1  0.057677  0.057555  0.442389  1
  Ta  Ta4  1  0.442458  0.057547  0.442409  1
  Ta  Ta5  1  0.442454  0.442490  0.057529  1
  Ta  Ta6  1  0.192384  0.807521  0.192571  1
  Ta  Ta7  1  0.807542  0.192453  0.807591  1
  Ta  Ta8  1  0.807543  0.192440  0.192487  1
  Ta  Ta9  1  0.192323  0.192445  0.807611  1
  Ta  Ta10  1  0.192376  0.807575  0.807600  1
  Ta  Ta11  1  0.807546  0.807510  0.192471  1
  Ge  Ge12  1  0.625000  0.625000  0.625000  1
  Ge  Ge13  1  0.625000  0.625000  0.125000  1
  Ge  Ge14  1  0.125000  0.625000  0.625000  1
  Ge  Ge15  1  0.625000  0.125000  0.625000  1
  Ru  Ru16  1  0.835681  0.835602  0.835644  1
  Ru  Ru17  1  0.835628  0.835626  0.493167  1
  Ru  Ru18  1  0.492992  0.835638  0.835702  1
  Ru  Ru19  1  0.835588  0.493099  0.835686  1
  Ru  Ru20  1  0.414319  0.414398  0.414356  1
  Ru  Ru21  1  0.414372  0.414374  0.756833  1
  Ru  Ru22  1  0.414412  0.756901  0.414314  1
  Ru  Ru23  1  0.757008  0.414362  0.414298  1
  C  C24  1  0.125000  0.125000  0.125000  1
  C  C25  1  0.125000  0.125000  0.625000  1
  C  C26  1  0.625000  0.125000  0.125000  1
  C  C27  1  0.125000  0.625000  0.125000  1
