# generated using pymatgen
data_Lu16Mg4ZnSn15
_symmetry_space_group_name_H-M   'P 1'
_cell_length_a   7.50699949
_cell_length_b   8.09187481
_cell_length_c   15.01959200
_cell_angle_alpha   90.00000000
_cell_angle_beta   90.00000000
_cell_angle_gamma   89.86202925
_symmetry_Int_Tables_number   1
_chemical_formula_structural   Lu16Mg4ZnSn15
_chemical_formula_sum   'Lu16 Mg4 Zn1 Sn15'
_cell_volume   912.37298590
_cell_formula_units_Z   1
loop_
 _symmetry_equiv_pos_site_id
 _symmetry_equiv_pos_as_xyz
  1  'x, y, z'
loop_
 _atom_site_type_symbol
 _atom_site_label
 _atom_site_symmetry_multiplicity
 _atom_site_fract_x
 _atom_site_fract_y
 _atom_site_fract_z
 _atom_site_occupancy
  Lu  Lu0  1  0.320323  0.165583  0.629793  1
  Lu  Lu1  1  0.665861  0.832928  0.373060  1
  Lu  Lu2  1  0.163698  0.666894  0.371701  1
  Lu  Lu3  1  0.665861  0.832928  0.126940  1
  Lu  Lu4  1  0.847450  0.324991  0.632601  1
  Lu  Lu5  1  0.320323  0.165583  0.870207  1
  Lu  Lu6  1  0.847450  0.324991  0.867399  1
  Lu  Lu7  1  0.163698  0.666894  0.128299  1
  Lu  Lu8  1  0.996275  0.183797  0.087770  1
  Lu  Lu9  1  0.001901  0.818978  0.910658  1
  Lu  Lu10  1  0.503061  0.688080  0.906965  1
  Lu  Lu11  1  0.001901  0.818978  0.589342  1
  Lu  Lu12  1  0.497246  0.314073  0.089480  1
  Lu  Lu13  1  0.996275  0.183797  0.412230  1
  Lu  Lu14  1  0.497246  0.314073  0.410520  1
  Lu  Lu15  1  0.503061  0.688080  0.593035  1
  Mg  Mg16  1  0.163622  0.501384  0.750000  1
  Mg  Mg17  1  0.841959  0.500045  0.250000  1
  Mg  Mg18  1  0.342203  0.998309  0.250000  1
  Mg  Mg19  1  0.668328  0.002079  0.750000  1
  Zn  Zn20  1  0.021467  0.090384  0.750000  1
  Sn  Sn21  1  0.975971  0.904975  0.250000  1
  Sn  Sn22  1  0.478041  0.594953  0.250000  1
  Sn  Sn23  1  0.527281  0.400091  0.750000  1
  Sn  Sn24  1  0.186840  0.466525  0.539122  1
  Sn  Sn25  1  0.815560  0.536187  0.463743  1
  Sn  Sn26  1  0.317255  0.962077  0.460436  1
  Sn  Sn27  1  0.815560  0.536187  0.036257  1
  Sn  Sn28  1  0.681140  0.038970  0.541376  1
  Sn  Sn29  1  0.186840  0.466525  0.960878  1
  Sn  Sn30  1  0.681140  0.038970  0.958624  1
  Sn  Sn31  1  0.317255  0.962077  0.039564  1
  Sn  Sn32  1  0.290412  0.855721  0.750000  1
  Sn  Sn33  1  0.695886  0.156599  0.250000  1
  Sn  Sn34  1  0.195465  0.342170  0.250000  1
  Sn  Sn35  1  0.806146  0.655127  0.750000  1
