# generated using pymatgen
data_Tb3Tm2Ru3
_symmetry_space_group_name_H-M   'P 1'
_cell_length_a   8.16298000
_cell_length_b   8.16298082
_cell_length_c   6.34838400
_cell_angle_alpha   90.00000000
_cell_angle_beta   90.00000000
_cell_angle_gamma   119.99999667
_symmetry_Int_Tables_number   1
_chemical_formula_structural   Tb3Tm2Ru3
_chemical_formula_sum   'Tb6 Tm4 Ru6'
_cell_volume   366.34590664
_cell_formula_units_Z   2
loop_
 _symmetry_equiv_pos_site_id
 _symmetry_equiv_pos_as_xyz
  1  'x, y, z'
loop_
 _atom_site_type_symbol
 _atom_site_label
 _atom_site_symmetry_multiplicity
 _atom_site_fract_x
 _atom_site_fract_y
 _atom_site_fract_z
 _atom_site_occupancy
  Tb  Tb0  1  0.743085  0.743085  0.250000  1
  Tb  Tb1  1  0.256915  0.000000  0.250000  1
  Tb  Tb2  1  0.000000  0.256915  0.250000  1
  Tb  Tb3  1  0.256915  0.256915  0.750000  1
  Tb  Tb4  1  0.743085  0.000000  0.750000  1
  Tb  Tb5  1  0.000000  0.743085  0.750000  1
  Tm  Tm6  1  0.666667  0.333333  0.500000  1
  Tm  Tm7  1  0.333333  0.666667  0.500000  1
  Tm  Tm8  1  0.333333  0.666667  0.000000  1
  Tm  Tm9  1  0.666667  0.333333  0.000000  1
  Ru  Ru10  1  0.398513  0.398513  0.250000  1
  Ru  Ru11  1  0.601487  0.000000  0.250000  1
  Ru  Ru12  1  0.000000  0.601487  0.250000  1
  Ru  Ru13  1  0.601487  0.601487  0.750000  1
  Ru  Ru14  1  0.398513  0.000000  0.750000  1
  Ru  Ru15  1  0.000000  0.398513  0.750000  1
