# generated using pymatgen
data_Tb3ThGaNi13
_symmetry_space_group_name_H-M   'P 1'
_cell_length_a   12.54292558
_cell_length_b   12.54292522
_cell_length_c   12.53643080
_cell_angle_alpha   22.67987981
_cell_angle_beta   22.67988267
_cell_angle_gamma   22.99451493
_symmetry_Int_Tables_number   1
_chemical_formula_structural   Tb3ThGaNi13
_chemical_formula_sum   'Tb3 Th1 Ga1 Ni13'
_cell_volume   259.51214733
_cell_formula_units_Z   1
loop_
 _symmetry_equiv_pos_site_id
 _symmetry_equiv_pos_as_xyz
  1  'x, y, z'
loop_
 _atom_site_type_symbol
 _atom_site_label
 _atom_site_symmetry_multiplicity
 _atom_site_fract_x
 _atom_site_fract_y
 _atom_site_fract_z
 _atom_site_occupancy
  Tb  Tb0  1  0.052306  0.052306  0.052579  1
  Tb  Tb1  1  0.850811  0.850811  0.851965  1
  Tb  Tb2  1  0.146853  0.146853  0.146226  1
  Th  Th3  1  0.948244  0.948244  0.948052  1
  Ga  Ga4  1  0.501601  0.501601  0.001097  1
  Ni  Ni5  1  0.389723  0.889532  0.389872  1
  Ni  Ni6  1  0.388386  0.388386  0.891371  1
  Ni  Ni7  1  0.889532  0.389723  0.389872  1
  Ni  Ni8  1  0.609692  0.110299  0.609406  1
  Ni  Ni9  1  0.610305  0.610305  0.108974  1
  Ni  Ni10  1  0.110299  0.609692  0.609406  1
  Ni  Ni11  1  0.000402  0.500931  0.500051  1
  Ni  Ni12  1  0.500931  0.000402  0.500051  1
  Ni  Ni13  1  0.725451  0.725451  0.717844  1
  Ni  Ni14  1  0.277160  0.277160  0.278839  1
  Ni  Ni15  1  0.611606  0.611606  0.610296  1
  Ni  Ni16  1  0.386898  0.386898  0.394390  1
  Ni  Ni17  1  0.499799  0.499799  0.499708  1
