# generated using pymatgen
data_Tb3Er5Cd2NiOs
_symmetry_space_group_name_H-M   'P 1'
_cell_length_a   9.55589104
_cell_length_b   9.55589046
_cell_length_c   9.64490300
_cell_angle_alpha   59.69137946
_cell_angle_beta   59.69138149
_cell_angle_gamma   59.52697049
_symmetry_Int_Tables_number   1
_chemical_formula_structural   Tb3Er5Cd2NiOs
_chemical_formula_sum   'Tb6 Er10 Cd4 Ni2 Os2'
_cell_volume   617.62003032
_cell_formula_units_Z   2
loop_
 _symmetry_equiv_pos_site_id
 _symmetry_equiv_pos_as_xyz
  1  'x, y, z'
loop_
 _atom_site_type_symbol
 _atom_site_label
 _atom_site_symmetry_multiplicity
 _atom_site_fract_x
 _atom_site_fract_y
 _atom_site_fract_z
 _atom_site_occupancy
  Tb  Tb0  1  0.940419  0.554649  0.565200  1
  Tb  Tb1  1  0.554649  0.940419  0.939731  1
  Tb  Tb2  1  0.554649  0.940419  0.565200  1
  Tb  Tb3  1  0.940419  0.554649  0.939731  1
  Tb  Tb4  1  0.564712  0.564712  0.935288  1
  Tb  Tb5  1  0.943002  0.943002  0.556998  1
  Er  Er6  1  0.350042  0.350042  0.341508  1
  Er  Er7  1  0.350042  0.350042  0.958409  1
  Er  Er8  1  0.351634  0.956901  0.345733  1
  Er  Er9  1  0.956901  0.351634  0.345733  1
  Er  Er10  1  0.812344  0.184777  0.189327  1
  Er  Er11  1  0.184777  0.812344  0.813552  1
  Er  Er12  1  0.184777  0.812344  0.189327  1
  Er  Er13  1  0.812344  0.184777  0.813552  1
  Er  Er14  1  0.187234  0.187234  0.812766  1
  Er  Er15  1  0.811132  0.811132  0.188868  1
  Cd  Cd16  1  0.578491  0.578491  0.582985  1
  Cd  Cd17  1  0.578491  0.578491  0.260031  1
  Cd  Cd18  1  0.579764  0.257212  0.581511  1
  Cd  Cd19  1  0.257212  0.579764  0.581511  1
  Ni  Ni20  1  0.141966  0.577310  0.140362  1
  Ni  Ni21  1  0.577310  0.141966  0.140362  1
  Os  Os22  1  0.143844  0.143844  0.138471  1
  Os  Os23  1  0.143844  0.143844  0.573841  1
