# generated using pymatgen
data_Sn7IrRu2
_symmetry_space_group_name_H-M   'P 1'
_cell_length_a   8.21813104
_cell_length_b   8.21813153
_cell_length_c   8.22172846
_cell_angle_alpha   109.42040083
_cell_angle_beta   109.42039980
_cell_angle_gamma   109.55522048
_symmetry_Int_Tables_number   1
_chemical_formula_structural   Sn7IrRu2
_chemical_formula_sum   'Sn14 Ir2 Ru4'
_cell_volume   427.54447791
_cell_formula_units_Z   2
loop_
 _symmetry_equiv_pos_site_id
 _symmetry_equiv_pos_as_xyz
  1  'x, y, z'
loop_
 _atom_site_type_symbol
 _atom_site_label
 _atom_site_symmetry_multiplicity
 _atom_site_fract_x
 _atom_site_fract_y
 _atom_site_fract_z
 _atom_site_occupancy
  Sn  Sn0  1  0.252210  0.752210  0.504419  1
  Sn  Sn1  1  0.752210  0.252210  0.504419  1
  Sn  Sn2  1  0.749096  0.502298  0.251394  1
  Sn  Sn3  1  0.251272  0.502270  0.753542  1
  Sn  Sn4  1  0.502298  0.749096  0.251394  1
  Sn  Sn5  1  0.502270  0.251272  0.753542  1
  Sn  Sn6  1  0.997077  0.997077  0.324437  1
  Sn  Sn7  1  0.673053  0.997339  0.997235  1
  Sn  Sn8  1  0.997339  0.673053  0.997235  1
  Sn  Sn9  1  0.327360  0.327360  0.324437  1
  Sn  Sn10  1  0.999897  0.324182  0.997235  1
  Sn  Sn11  1  0.676184  0.676184  0.676009  1
  Sn  Sn12  1  0.324182  0.999897  0.997235  1
  Sn  Sn13  1  0.999825  0.999825  0.676009  1
  Ir  Ir14  1  0.342118  0.000135  0.342254  1
  Ir  Ir15  1  0.000135  0.342118  0.342254  1
  Ru  Ru16  1  0.000099  0.653330  0.653429  1
  Ru  Ru17  1  0.344283  0.344283  0.000045  1
  Ru  Ru18  1  0.655762  0.655762  0.000045  1
  Ru  Ru19  1  0.653330  0.000099  0.653429  1
