# generated using pymatgen
data_Sc2Pa(GaNi)3
_symmetry_space_group_name_H-M   'P 1'
_cell_length_a   6.94964300
_cell_length_b   6.90868359
_cell_length_c   3.58627100
_cell_angle_alpha   90.00000000
_cell_angle_beta   90.00000000
_cell_angle_gamma   120.19630907
_symmetry_Int_Tables_number   1
_chemical_formula_structural   Sc2Pa(GaNi)3
_chemical_formula_sum   'Sc2 Pa1 Ga3 Ni3'
_cell_volume   148.82265086
_cell_formula_units_Z   1
loop_
 _symmetry_equiv_pos_site_id
 _symmetry_equiv_pos_as_xyz
  1  'x, y, z'
loop_
 _atom_site_type_symbol
 _atom_site_label
 _atom_site_symmetry_multiplicity
 _atom_site_fract_x
 _atom_site_fract_y
 _atom_site_fract_z
 _atom_site_occupancy
  Sc  Sc0  1  0.998257  0.404955  0.500000  1
  Sc  Sc1  1  0.593301  0.595045  0.500000  1
  Pa  Pa2  1  0.415302  0.000000  0.500000  1
  Ga  Ga3  1  0.764459  0.000000  0.000000  1
  Ga  Ga4  1  0.981753  0.727973  0.000000  1
  Ga  Ga5  1  0.253782  0.272027  0.000000  1
  Ni  Ni6  1  0.331627  0.680538  0.000000  1
  Ni  Ni7  1  0.651089  0.319462  0.000000  1
  Ni  Ni8  1  0.010431  0.000000  0.500000  1
