# generated using pymatgen
data_Pr2CdAgPd
_symmetry_space_group_name_H-M   'P 1'
_cell_length_a   8.02271400
_cell_length_b   8.12415200
_cell_length_c   3.95637000
_cell_angle_alpha   90.00000000
_cell_angle_beta   90.00000000
_cell_angle_gamma   90.00000000
_symmetry_Int_Tables_number   1
_chemical_formula_structural   Pr2CdAgPd
_chemical_formula_sum   'Pr4 Cd2 Ag2 Pd2'
_cell_volume   257.86728681
_cell_formula_units_Z   2
loop_
 _symmetry_equiv_pos_site_id
 _symmetry_equiv_pos_as_xyz
  1  'x, y, z'
loop_
 _atom_site_type_symbol
 _atom_site_label
 _atom_site_symmetry_multiplicity
 _atom_site_fract_x
 _atom_site_fract_y
 _atom_site_fract_z
 _atom_site_occupancy
  Pr  Pr0  1  0.327365  0.809948  0.500000  1
  Pr  Pr1  1  0.827365  0.690052  0.500000  1
  Pr  Pr2  1  0.178356  0.343592  0.500000  1
  Pr  Pr3  1  0.678356  0.156408  0.500000  1
  Cd  Cd4  1  0.002055  0.999377  0.000000  1
  Cd  Cd5  1  0.502055  0.500623  0.000000  1
  Ag  Ag6  1  0.370941  0.120198  0.000000  1
  Ag  Ag7  1  0.870941  0.379802  0.000000  1
  Pd  Pd8  1  0.121282  0.625430  0.000000  1
  Pd  Pd9  1  0.621282  0.874570  0.000000  1
