# generated using pymatgen
data_K2HfSc(CuTe3)2
_symmetry_space_group_name_H-M   'P 1'
_cell_length_a   9.06576034
_cell_length_b   4.09459600
_cell_length_c   10.95263193
_cell_angle_alpha   90.00000000
_cell_angle_beta   113.77634313
_cell_angle_gamma   90.00000000
_symmetry_Int_Tables_number   1
_chemical_formula_structural   K2HfSc(CuTe3)2
_chemical_formula_sum   'K2 Hf1 Sc1 Cu2 Te6'
_cell_volume   372.06153975
_cell_formula_units_Z   1
loop_
 _symmetry_equiv_pos_site_id
 _symmetry_equiv_pos_as_xyz
  1  'x, y, z'
loop_
 _atom_site_type_symbol
 _atom_site_label
 _atom_site_symmetry_multiplicity
 _atom_site_fract_x
 _atom_site_fract_y
 _atom_site_fract_z
 _atom_site_occupancy
  K  K0  1  0.245420  0.750001  0.212546  1
  K  K1  1  0.758808  0.249999  0.793436  1
  Hf  Hf2  1  0.185619  0.249999  0.662191  1
  Sc  Sc3  1  0.813946  0.750001  0.338938  1
  Cu  Cu4  1  0.578128  0.249999  0.092768  1
  Cu  Cu5  1  0.420523  0.750001  0.903446  1
  Te  Te6  1  0.737347  0.750001  0.052494  1
  Te  Te7  1  0.587982  0.249999  0.335232  1
  Te  Te8  1  0.060259  0.249999  0.370212  1
  Te  Te9  1  0.943639  0.750001  0.635075  1
  Te  Te10  1  0.408209  0.750001  0.659993  1
  Te  Te11  1  0.260122  0.249999  0.943667  1
