# generated using pymatgen
data_Tm6ZrP12Rh17
_symmetry_space_group_name_H-M   'P 1'
_cell_length_a   3.92612500
_cell_length_b   11.18841800
_cell_length_c   12.78582400
_cell_angle_alpha   90.00000000
_cell_angle_beta   90.00000000
_cell_angle_gamma   90.00000000
_symmetry_Int_Tables_number   1
_chemical_formula_structural   Tm6ZrP12Rh17
_chemical_formula_sum   'Tm6 Zr1 P12 Rh17'
_cell_volume   561.64452258
_cell_formula_units_Z   1
loop_
 _symmetry_equiv_pos_site_id
 _symmetry_equiv_pos_as_xyz
  1  'x, y, z'
loop_
 _atom_site_type_symbol
 _atom_site_label
 _atom_site_symmetry_multiplicity
 _atom_site_fract_x
 _atom_site_fract_y
 _atom_site_fract_z
 _atom_site_occupancy
  Tm  Tm0  1  0.000000  0.500000  0.523776  1
  Tm  Tm1  1  0.500000  0.000000  0.476536  1
  Tm  Tm2  1  0.500000  0.817332  0.206611  1
  Tm  Tm3  1  0.500000  0.182668  0.206611  1
  Tm  Tm4  1  0.000000  0.681660  0.797020  1
  Tm  Tm5  1  0.000000  0.318340  0.797020  1
  Zr  Zr6  1  0.500000  0.500000  0.157523  1
  P  P7  1  0.500000  0.500000  0.876010  1
  P  P8  1  0.000000  0.000000  0.122360  1
  P  P9  1  0.500000  0.500000  0.361925  1
  P  P10  1  0.000000  0.000000  0.646342  1
  P  P11  1  0.500000  0.315678  0.620246  1
  P  P12  1  0.500000  0.684322  0.620246  1
  P  P13  1  0.000000  0.184451  0.383646  1
  P  P14  1  0.000000  0.815549  0.383646  1
  P  P15  1  0.500000  0.849911  0.887898  1
  P  P16  1  0.500000  0.150089  0.887898  1
  P  P17  1  0.000000  0.661093  0.107297  1
  P  P18  1  0.000000  0.338907  0.107297  1
  Rh  Rh19  1  0.000000  0.000000  0.828983  1
  Rh  Rh20  1  0.500000  0.500000  0.699686  1
  Rh  Rh21  1  0.000000  0.000000  0.299684  1
  Rh  Rh22  1  0.000000  0.500000  0.982811  1
  Rh  Rh23  1  0.500000  0.000000  0.021530  1
  Rh  Rh24  1  0.500000  0.329172  0.985694  1
  Rh  Rh25  1  0.500000  0.670828  0.985694  1
  Rh  Rh26  1  0.000000  0.163957  0.006941  1
  Rh  Rh27  1  0.000000  0.836043  0.006941  1
  Rh  Rh28  1  0.500000  0.291263  0.434977  1
  Rh  Rh29  1  0.500000  0.708737  0.434977  1
  Rh  Rh30  1  0.000000  0.201077  0.570148  1
  Rh  Rh31  1  0.000000  0.798923  0.570148  1
  Rh  Rh32  1  0.500000  0.873636  0.708657  1
  Rh  Rh33  1  0.500000  0.126364  0.708657  1
  Rh  Rh34  1  0.000000  0.629302  0.292281  1
  Rh  Rh35  1  0.000000  0.370698  0.292281  1
