# generated using pymatgen
data_Dy5Si12Tc2Ir17
_symmetry_space_group_name_H-M   'P 1'
_cell_length_a   12.79682900
_cell_length_b   12.83389254
_cell_length_c   4.00682300
_cell_angle_alpha   90.00000000
_cell_angle_beta   90.00000000
_cell_angle_gamma   119.90451096
_symmetry_Int_Tables_number   1
_chemical_formula_structural   Dy5Si12Tc2Ir17
_chemical_formula_sum   'Dy5 Si12 Tc2 Ir17'
_cell_volume   570.43824384
_cell_formula_units_Z   1
loop_
 _symmetry_equiv_pos_site_id
 _symmetry_equiv_pos_as_xyz
  1  'x, y, z'
loop_
 _atom_site_type_symbol
 _atom_site_label
 _atom_site_symmetry_multiplicity
 _atom_site_fract_x
 _atom_site_fract_y
 _atom_site_fract_z
 _atom_site_occupancy
  Dy  Dy0  1  0.332084  0.663437  0.500000  1
  Dy  Dy1  1  0.668648  0.336563  0.500000  1
  Dy  Dy2  1  0.999997  0.813071  0.000000  1
  Dy  Dy3  1  0.186927  0.186929  0.000000  1
  Dy  Dy4  1  0.814919  0.000000  0.000000  1
  Si  Si5  1  0.000256  0.627710  0.500000  1
  Si  Si6  1  0.372546  0.372290  0.500000  1
  Si  Si7  1  0.630576  0.000000  0.500000  1
  Si  Si8  1  0.519150  0.685516  0.000000  1
  Si  Si9  1  0.311016  0.830745  0.000000  1
  Si  Si10  1  0.164477  0.477615  0.000000  1
  Si  Si11  1  0.480271  0.169255  0.000000  1
  Si  Si12  1  0.686861  0.522385  0.000000  1
  Si  Si13  1  0.833634  0.314484  0.000000  1
  Si  Si14  1  0.998834  0.180765  0.500000  1
  Si  Si15  1  0.818070  0.819235  0.500000  1
  Si  Si16  1  0.182549  0.000000  0.500000  1
  Tc  Tc17  1  0.999677  0.441379  0.500000  1
  Tc  Tc18  1  0.558298  0.558621  0.500000  1
  Ir  Ir19  1  0.511547  0.873334  0.000000  1
  Ir  Ir20  1  0.126439  0.638386  0.000000  1
  Ir  Ir21  1  0.359546  0.486936  0.000000  1
  Ir  Ir22  1  0.488053  0.361614  0.000000  1
  Ir  Ir23  1  0.872609  0.513064  0.000000  1
  Ir  Ir24  1  0.638213  0.126666  0.000000  1
  Ir  Ir25  1  0.446034  0.000000  0.500000  1
  Ir  Ir26  1  0.998326  0.278672  0.000000  1
  Ir  Ir27  1  0.719654  0.721328  0.000000  1
  Ir  Ir28  1  0.282167  0.000000  0.000000  1
  Ir  Ir29  1  0.622265  0.806151  0.500000  1
  Ir  Ir30  1  0.194103  0.817470  0.500000  1
  Ir  Ir31  1  0.181512  0.374033  0.500000  1
  Ir  Ir32  1  0.376631  0.182530  0.500000  1
  Ir  Ir33  1  0.807478  0.625967  0.500000  1
  Ir  Ir34  1  0.816113  0.193849  0.500000  1
  Ir  Ir35  1  0.000519  0.000000  0.500000  1
