# generated using pymatgen
data_Y2Tm14In6CoRh
_symmetry_space_group_name_H-M   'P 1'
_cell_length_a   10.27381600
_cell_length_b   10.27381680
_cell_length_c   6.98738300
_cell_angle_alpha   90.00000000
_cell_angle_beta   90.00000000
_cell_angle_gamma   120.00000385
_symmetry_Int_Tables_number   1
_chemical_formula_structural   Y2Tm14In6CoRh
_chemical_formula_sum   'Y2 Tm14 In6 Co1 Rh1'
_cell_volume   638.71742520
_cell_formula_units_Z   1
loop_
 _symmetry_equiv_pos_site_id
 _symmetry_equiv_pos_as_xyz
  1  'x, y, z'
loop_
 _atom_site_type_symbol
 _atom_site_label
 _atom_site_symmetry_multiplicity
 _atom_site_fract_x
 _atom_site_fract_y
 _atom_site_fract_z
 _atom_site_occupancy
  Y  Y0  1  0.000000  0.000000  0.494126  1
  Y  Y1  1  0.000000  0.000000  0.997439  1
  Tm  Tm2  1  0.467021  0.532979  0.480522  1
  Tm  Tm3  1  0.065957  0.532979  0.480522  1
  Tm  Tm4  1  0.467021  0.934043  0.480522  1
  Tm  Tm5  1  0.535988  0.464012  0.981881  1
  Tm  Tm6  1  0.928025  0.464012  0.981881  1
  Tm  Tm7  1  0.535988  0.071975  0.981881  1
  Tm  Tm8  1  0.820760  0.179240  0.275087  1
  Tm  Tm9  1  0.358482  0.179240  0.275087  1
  Tm  Tm10  1  0.820760  0.641518  0.275087  1
  Tm  Tm11  1  0.177066  0.822934  0.776948  1
  Tm  Tm12  1  0.645868  0.822934  0.776948  1
  Tm  Tm13  1  0.177066  0.354132  0.776948  1
  Tm  Tm14  1  0.333333  0.666667  0.100479  1
  Tm  Tm15  1  0.666667  0.333333  0.589914  1
  In  In16  1  0.162665  0.837335  0.235418  1
  In  In17  1  0.674670  0.837335  0.235418  1
  In  In18  1  0.162665  0.325330  0.235418  1
  In  In19  1  0.836128  0.163872  0.732765  1
  In  In20  1  0.327746  0.163872  0.732765  1
  In  In21  1  0.836128  0.672254  0.732765  1
  Co  Co22  1  0.666667  0.333333  0.206695  1
  Rh  Rh23  1  0.333333  0.666667  0.708026  1
