# generated using pymatgen
data_SnB2PbO6
_symmetry_space_group_name_H-M   'P 1'
_cell_length_a   6.42206812
_cell_length_b   6.42206862
_cell_length_c   6.42206938
_cell_angle_alpha   46.18998792
_cell_angle_beta   46.18998424
_cell_angle_gamma   46.18998605
_symmetry_Int_Tables_number   1
_chemical_formula_structural   SnB2PbO6
_chemical_formula_sum   'Sn1 B2 Pb1 O6'
_cell_volume   125.86292904
_cell_formula_units_Z   1
loop_
 _symmetry_equiv_pos_site_id
 _symmetry_equiv_pos_as_xyz
  1  'x, y, z'
loop_
 _atom_site_type_symbol
 _atom_site_label
 _atom_site_symmetry_multiplicity
 _atom_site_fract_x
 _atom_site_fract_y
 _atom_site_fract_z
 _atom_site_occupancy
  Sn  Sn0  1  0.500000  0.500000  0.500000  1
  B  B1  1  0.234513  0.234513  0.234513  1
  B  B2  1  0.765487  0.765487  0.765487  1
  Pb  Pb3  1  0.000000  0.000000  0.000000  1
  O  O4  1  0.515053  0.712881  0.058576  1
  O  O5  1  0.941425  0.484946  0.287119  1
  O  O6  1  0.287118  0.941426  0.484947  1
  O  O7  1  0.712882  0.058574  0.515053  1
  O  O8  1  0.058575  0.515054  0.712881  1
  O  O9  1  0.484948  0.287119  0.941424  1
