# generated using pymatgen
data_Nd4Dy3ThSe12
_symmetry_space_group_name_H-M   'P 1'
_cell_length_a   4.15391900
_cell_length_b   11.03290580
_cell_length_c   11.35998149
_cell_angle_alpha   90.34123266
_cell_angle_beta   90.00000000
_cell_angle_gamma   90.00000000
_symmetry_Int_Tables_number   1
_chemical_formula_structural   Nd4Dy3ThSe12
_chemical_formula_sum   'Nd4 Dy3 Th1 Se12'
_cell_volume   520.61641262
_cell_formula_units_Z   1
loop_
 _symmetry_equiv_pos_site_id
 _symmetry_equiv_pos_as_xyz
  1  'x, y, z'
loop_
 _atom_site_type_symbol
 _atom_site_label
 _atom_site_symmetry_multiplicity
 _atom_site_fract_x
 _atom_site_fract_y
 _atom_site_fract_z
 _atom_site_occupancy
  Nd  Nd0  1  0.750000  0.503558  0.696871  1
  Nd  Nd1  1  0.750000  0.998252  0.195097  1
  Nd  Nd2  1  0.250000  0.504183  0.302049  1
  Nd  Nd3  1  0.250000  0.996498  0.808018  1
  Dy  Dy4  1  0.250000  0.312394  0.989953  1
  Dy  Dy5  1  0.750000  0.809995  0.510154  1
  Dy  Dy6  1  0.750000  0.688038  0.010349  1
  Th  Th7  1  0.250000  0.188389  0.488851  1
  Se  Se8  1  0.250000  0.297649  0.730290  1
  Se  Se9  1  0.250000  0.202771  0.229662  1
  Se  Se10  1  0.750000  0.703801  0.268979  1
  Se  Se11  1  0.750000  0.796040  0.768874  1
  Se  Se12  1  0.750000  0.051796  0.619283  1
  Se  Se13  1  0.750000  0.445949  0.114324  1
  Se  Se14  1  0.250000  0.941913  0.384131  1
  Se  Se15  1  0.250000  0.553257  0.885661  1
  Se  Se16  1  0.250000  0.630482  0.542649  1
  Se  Se17  1  0.250000  0.868575  0.042793  1
  Se  Se18  1  0.750000  0.375342  0.454440  1
  Se  Se19  1  0.750000  0.131120  0.957572  1
