# generated using pymatgen
data_LiHo16Cd(InIr2)2
_symmetry_space_group_name_H-M   'P 1'
_cell_length_a   9.63070512
_cell_length_b   9.63527332
_cell_length_c   9.63527332
_cell_angle_alpha   59.66482722
_cell_angle_beta   59.68096840
_cell_angle_gamma   59.68097025
_symmetry_Int_Tables_number   1
_chemical_formula_structural   LiHo16Cd(InIr2)2
_chemical_formula_sum   'Li1 Ho16 Cd1 In2 Ir4'
_cell_volume   627.56469622
_cell_formula_units_Z   1
loop_
 _symmetry_equiv_pos_site_id
 _symmetry_equiv_pos_as_xyz
  1  'x, y, z'
loop_
 _atom_site_type_symbol
 _atom_site_label
 _atom_site_symmetry_multiplicity
 _atom_site_fract_x
 _atom_site_fract_y
 _atom_site_fract_z
 _atom_site_occupancy
  Li  Li0  1  0.821378  0.822298  0.822298  1
  Ho  Ho1  1  0.600309  0.600073  0.600073  1
  Ho  Ho2  1  0.598603  0.598779  0.204796  1
  Ho  Ho3  1  0.598603  0.204796  0.598779  1
  Ho  Ho4  1  0.203246  0.598786  0.598786  1
  Ho  Ho5  1  0.056929  0.442601  0.442601  1
  Ho  Ho6  1  0.435389  0.062722  0.062722  1
  Ho  Ho7  1  0.441795  0.058353  0.441132  1
  Ho  Ho8  1  0.060824  0.437097  0.061412  1
  Ho  Ho9  1  0.441795  0.441132  0.058353  1
  Ho  Ho10  1  0.060824  0.061412  0.437097  1
  Ho  Ho11  1  0.191021  0.810370  0.810370  1
  Ho  Ho12  1  0.812756  0.188307  0.188307  1
  Ho  Ho13  1  0.812359  0.189617  0.810787  1
  Ho  Ho14  1  0.191227  0.811015  0.186303  1
  Ho  Ho15  1  0.812359  0.810787  0.189617  1
  Ho  Ho16  1  0.191227  0.186303  0.811015  1
  Cd  Cd17  1  0.504534  0.833120  0.833120  1
  In  In18  1  0.831506  0.833684  0.504500  1
  In  In19  1  0.831506  0.504500  0.833684  1
  Ir  Ir20  1  0.391567  0.392219  0.392219  1
  Ir  Ir21  1  0.392260  0.393783  0.825373  1
  Ir  Ir22  1  0.392260  0.825373  0.393783  1
  Ir  Ir23  1  0.825724  0.392874  0.392874  1
