# generated using pymatgen
data_Sr6ZnCd32
_symmetry_space_group_name_H-M   'P 1'
_cell_length_a   9.93258700
_cell_length_b   9.93258700
_cell_length_c   9.93258700
_cell_angle_alpha   90.00000000
_cell_angle_beta   90.00000000
_cell_angle_gamma   90.00000000
_symmetry_Int_Tables_number   1
_chemical_formula_structural   Sr6ZnCd32
_chemical_formula_sum   'Sr6 Zn1 Cd32'
_cell_volume   979.91212902
_cell_formula_units_Z   1
loop_
 _symmetry_equiv_pos_site_id
 _symmetry_equiv_pos_as_xyz
  1  'x, y, z'
loop_
 _atom_site_type_symbol
 _atom_site_label
 _atom_site_symmetry_multiplicity
 _atom_site_fract_x
 _atom_site_fract_y
 _atom_site_fract_z
 _atom_site_occupancy
  Sr  Sr0  1  0.204616  0.000000  0.500000  1
  Sr  Sr1  1  0.795384  0.000000  0.500000  1
  Sr  Sr2  1  0.500000  0.204616  0.000000  1
  Sr  Sr3  1  0.500000  0.795384  0.000000  1
  Sr  Sr4  1  0.000000  0.500000  0.204616  1
  Sr  Sr5  1  0.000000  0.500000  0.795384  1
  Zn  Zn6  1  0.000000  0.000000  0.000000  1
  Cd  Cd7  1  0.321255  0.500000  0.000000  1
  Cd  Cd8  1  0.678745  0.500000  0.000000  1
  Cd  Cd9  1  0.000000  0.321255  0.500000  1
  Cd  Cd10  1  0.000000  0.678745  0.500000  1
  Cd  Cd11  1  0.500000  0.000000  0.321255  1
  Cd  Cd12  1  0.500000  0.000000  0.678745  1
  Cd  Cd13  1  0.280997  0.280997  0.280997  1
  Cd  Cd14  1  0.719003  0.719003  0.719003  1
  Cd  Cd15  1  0.719003  0.719003  0.280997  1
  Cd  Cd16  1  0.719003  0.280997  0.719003  1
  Cd  Cd17  1  0.280997  0.280997  0.719003  1
  Cd  Cd18  1  0.280997  0.719003  0.280997  1
  Cd  Cd19  1  0.280997  0.719003  0.719003  1
  Cd  Cd20  1  0.719003  0.280997  0.280997  1
  Cd  Cd21  1  0.258566  0.500000  0.500000  1
  Cd  Cd22  1  0.741434  0.500000  0.500000  1
  Cd  Cd23  1  0.500000  0.258566  0.500000  1
  Cd  Cd24  1  0.500000  0.741434  0.500000  1
  Cd  Cd25  1  0.500000  0.500000  0.258566  1
  Cd  Cd26  1  0.500000  0.500000  0.741434  1
  Cd  Cd27  1  0.000000  0.150052  0.258870  1
  Cd  Cd28  1  0.000000  0.849948  0.741130  1
  Cd  Cd29  1  0.000000  0.849948  0.258870  1
  Cd  Cd30  1  0.000000  0.150052  0.741130  1
  Cd  Cd31  1  0.258870  0.000000  0.150052  1
  Cd  Cd32  1  0.741130  0.000000  0.849948  1
  Cd  Cd33  1  0.258870  0.000000  0.849948  1
  Cd  Cd34  1  0.741130  0.000000  0.150052  1
  Cd  Cd35  1  0.150052  0.258870  0.000000  1
  Cd  Cd36  1  0.849948  0.741130  0.000000  1
  Cd  Cd37  1  0.150052  0.741130  0.000000  1
  Cd  Cd38  1  0.849948  0.258870  0.000000  1
