# generated using pymatgen
data_Tl3In5Cl16
_symmetry_space_group_name_H-M   'P 1'
_cell_length_a   7.83374700
_cell_length_b   10.32544770
_cell_length_c   10.64129100
_cell_angle_alpha   89.58054274
_cell_angle_beta   90.00000000
_cell_angle_gamma   90.00000000
_symmetry_Int_Tables_number   1
_chemical_formula_structural   Tl3In5Cl16
_chemical_formula_sum   'Tl3 In5 Cl16'
_cell_volume   860.71845321
_cell_formula_units_Z   1
loop_
 _symmetry_equiv_pos_site_id
 _symmetry_equiv_pos_as_xyz
  1  'x, y, z'
loop_
 _atom_site_type_symbol
 _atom_site_label
 _atom_site_symmetry_multiplicity
 _atom_site_fract_x
 _atom_site_fract_y
 _atom_site_fract_z
 _atom_site_occupancy
  Tl  Tl0  1  0.183667  0.750000  0.750000  1
  Tl  Tl1  1  0.816083  0.250000  0.250000  1
  Tl  Tl2  1  0.316244  0.750000  0.250000  1
  In  In3  1  0.749692  0.684373  0.500242  1
  In  In4  1  0.250075  0.314343  0.501398  1
  In  In5  1  0.749692  0.815627  0.999758  1
  In  In6  1  0.250075  0.185657  0.998602  1
  In  In7  1  0.681048  0.250000  0.750000  1
  Cl  Cl8  1  0.501426  0.814588  0.538484  1
  Cl  Cl9  1  0.499801  0.185204  0.464192  1
  Cl  Cl10  1  0.998349  0.814652  0.461436  1
  Cl  Cl11  1  0.998349  0.685348  0.038564  1
  Cl  Cl12  1  0.999864  0.186126  0.540841  1
  Cl  Cl13  1  0.999864  0.313874  0.959159  1
  Cl  Cl14  1  0.501426  0.685412  0.961516  1
  Cl  Cl15  1  0.499801  0.314796  0.035808  1
  Cl  Cl16  1  0.830857  0.554602  0.678600  1
  Cl  Cl17  1  0.168343  0.442782  0.322079  1
  Cl  Cl18  1  0.668004  0.557238  0.321890  1
  Cl  Cl19  1  0.668004  0.942762  0.178110  1
  Cl  Cl20  1  0.335070  0.441629  0.678922  1
  Cl  Cl21  1  0.335070  0.058371  0.821078  1
  Cl  Cl22  1  0.830857  0.945398  0.821400  1
  Cl  Cl23  1  0.168343  0.057218  0.177921  1
