# generated using pymatgen
data_Cr5Ga6MoRu12
_symmetry_space_group_name_H-M   'P 1'
_cell_length_a   4.27192800
_cell_length_b   6.04789000
_cell_length_c   12.76708800
_cell_angle_alpha   90.00000000
_cell_angle_beta   89.99954312
_cell_angle_gamma   90.00000000
_symmetry_Int_Tables_number   1
_chemical_formula_structural   Cr5Ga6MoRu12
_chemical_formula_sum   'Cr5 Ga6 Mo1 Ru12'
_cell_volume   329.85240869
_cell_formula_units_Z   1
loop_
 _symmetry_equiv_pos_site_id
 _symmetry_equiv_pos_as_xyz
  1  'x, y, z'
loop_
 _atom_site_type_symbol
 _atom_site_label
 _atom_site_symmetry_multiplicity
 _atom_site_fract_x
 _atom_site_fract_y
 _atom_site_fract_z
 _atom_site_occupancy
  Cr  Cr0  1  0.499673  0.000000  0.169606  1
  Cr  Cr1  1  0.999661  0.500000  0.335611  1
  Cr  Cr2  1  0.500000  0.000000  0.500000  1
  Cr  Cr3  1  0.000339  0.500000  0.664388  1
  Cr  Cr4  1  0.500326  0.000000  0.830395  1
  Ga  Ga5  1  0.000000  0.000000  0.000000  1
  Ga  Ga6  1  0.499660  0.500000  0.168835  1
  Ga  Ga7  1  0.999633  0.000000  0.334627  1
  Ga  Ga8  1  0.500000  0.500000  0.500000  1
  Ga  Ga9  1  0.000366  0.000000  0.665374  1
  Ga  Ga10  1  0.500339  0.500000  0.831165  1
  Mo  Mo11  1  0.000000  0.500000  0.000000  1
  Ru  Ru12  1  0.500000  0.246694  0.000000  1
  Ru  Ru13  1  0.500000  0.753306  0.000000  1
  Ru  Ru14  1  0.999709  0.248028  0.168367  1
  Ru  Ru15  1  0.999709  0.751972  0.168367  1
  Ru  Ru16  1  0.499671  0.250388  0.333964  1
  Ru  Ru17  1  0.499671  0.749612  0.333964  1
  Ru  Ru18  1  0.000000  0.249902  0.500000  1
  Ru  Ru19  1  0.000000  0.750098  0.500000  1
  Ru  Ru20  1  0.500329  0.250388  0.666037  1
  Ru  Ru21  1  0.500329  0.749612  0.666037  1
  Ru  Ru22  1  0.000293  0.248028  0.831633  1
  Ru  Ru23  1  0.000293  0.751972  0.831633  1
