# generated using pymatgen
data_Er9Tm(Si2Hg)2
_symmetry_space_group_name_H-M   'P 1'
_cell_length_a   7.51551321
_cell_length_b   7.51551316
_cell_length_c   8.90272400
_cell_angle_alpha   114.99221844
_cell_angle_beta   114.99222666
_cell_angle_gamma   90.22822282
_symmetry_Int_Tables_number   1
_chemical_formula_structural   Er9Tm(Si2Hg)2
_chemical_formula_sum   'Er9 Tm1 Si4 Hg2'
_cell_volume   402.77085666
_cell_formula_units_Z   1
loop_
 _symmetry_equiv_pos_site_id
 _symmetry_equiv_pos_as_xyz
  1  'x, y, z'
loop_
 _atom_site_type_symbol
 _atom_site_label
 _atom_site_symmetry_multiplicity
 _atom_site_fract_x
 _atom_site_fract_y
 _atom_site_fract_z
 _atom_site_occupancy
  Er  Er0  1  0.500647  0.499925  0.000772  1
  Er  Er1  1  0.999925  0.000647  0.000772  1
  Er  Er2  1  0.969021  0.811684  0.279728  1
  Er  Er3  1  0.311684  0.469021  0.279728  1
  Er  Er4  1  0.810902  0.310902  0.278746  1
  Er  Er5  1  0.468477  0.968477  0.279162  1
  Er  Er6  1  0.031324  0.189183  0.721075  1
  Er  Er7  1  0.689183  0.531324  0.721075  1
  Er  Er8  1  0.188679  0.688679  0.722223  1
  Tm  Tm9  1  0.531187  0.031187  0.720601  1
  Si  Si10  1  0.625505  0.874037  0.998922  1
  Si  Si11  1  0.374037  0.125505  0.998922  1
  Si  Si12  1  0.872966  0.372966  0.999083  1
  Si  Si13  1  0.126123  0.626123  0.000919  1
  Hg  Hg14  1  0.751431  0.748909  0.499137  1
  Hg  Hg15  1  0.248909  0.251431  0.499137  1
