# generated using pymatgen
data_Ca2Sc(RhO4)2
_symmetry_space_group_name_H-M   'P 1'
_cell_length_a   6.45992033
_cell_length_b   6.45991945
_cell_length_c   5.29168416
_cell_angle_alpha   71.63800127
_cell_angle_beta   71.63800054
_cell_angle_gamma   58.12657763
_symmetry_Int_Tables_number   1
_chemical_formula_structural   Ca2Sc(RhO4)2
_chemical_formula_sum   'Ca2 Sc1 Rh2 O8'
_cell_volume   174.92596557
_cell_formula_units_Z   1
loop_
 _symmetry_equiv_pos_site_id
 _symmetry_equiv_pos_as_xyz
  1  'x, y, z'
loop_
 _atom_site_type_symbol
 _atom_site_label
 _atom_site_symmetry_multiplicity
 _atom_site_fract_x
 _atom_site_fract_y
 _atom_site_fract_z
 _atom_site_occupancy
  Ca  Ca0  1  0.724630  0.724630  0.344621  1
  Ca  Ca1  1  0.275370  0.275370  0.655379  1
  Sc  Sc2  1  0.000000  0.000000  0.500000  1
  Rh  Rh3  1  0.743183  0.256817  0.000000  1
  Rh  Rh4  1  0.256817  0.743183  0.000000  1
  O  O5  1  0.405073  0.405073  0.935159  1
  O  O6  1  0.594927  0.594927  0.064841  1
  O  O7  1  0.898933  0.898933  0.924879  1
  O  O8  1  0.101067  0.101067  0.075121  1
  O  O9  1  0.336579  0.885232  0.610272  1
  O  O10  1  0.885232  0.336579  0.610272  1
  O  O11  1  0.114768  0.663421  0.389728  1
  O  O12  1  0.663421  0.114768  0.389728  1
