# generated using pymatgen
data_Y6Co17Si12W
_symmetry_space_group_name_H-M   'P 1'
_cell_length_a   3.78428300
_cell_length_b   10.71855900
_cell_length_c   12.41415700
_cell_angle_alpha   90.00000000
_cell_angle_beta   90.00000000
_cell_angle_gamma   90.00000000
_symmetry_Int_Tables_number   1
_chemical_formula_structural   Y6Co17Si12W
_chemical_formula_sum   'Y6 Co17 Si12 W1'
_cell_volume   503.54378863
_cell_formula_units_Z   1
loop_
 _symmetry_equiv_pos_site_id
 _symmetry_equiv_pos_as_xyz
  1  'x, y, z'
loop_
 _atom_site_type_symbol
 _atom_site_label
 _atom_site_symmetry_multiplicity
 _atom_site_fract_x
 _atom_site_fract_y
 _atom_site_fract_z
 _atom_site_occupancy
  Y  Y0  1  0.000000  0.500000  0.526654  1
  Y  Y1  1  0.500000  0.000000  0.474000  1
  Y  Y2  1  0.500000  0.819955  0.207186  1
  Y  Y3  1  0.500000  0.180045  0.207186  1
  Y  Y4  1  0.000000  0.682046  0.797117  1
  Y  Y5  1  0.000000  0.317954  0.797117  1
  Co  Co6  1  0.000000  0.000000  0.846575  1
  Co  Co7  1  0.500000  0.500000  0.696970  1
  Co  Co8  1  0.000000  0.000000  0.302993  1
  Co  Co9  1  0.000000  0.500000  0.984726  1
  Co  Co10  1  0.500000  0.000000  0.016781  1
  Co  Co11  1  0.500000  0.327350  0.992779  1
  Co  Co12  1  0.500000  0.672650  0.992779  1
  Co  Co13  1  0.000000  0.164796  0.002503  1
  Co  Co14  1  0.000000  0.835204  0.002503  1
  Co  Co15  1  0.500000  0.300645  0.432056  1
  Co  Co16  1  0.500000  0.699355  0.432056  1
  Co  Co17  1  0.000000  0.197842  0.571729  1
  Co  Co18  1  0.000000  0.802158  0.571729  1
  Co  Co19  1  0.500000  0.883840  0.707328  1
  Co  Co20  1  0.500000  0.116160  0.707328  1
  Co  Co21  1  0.000000  0.619025  0.291969  1
  Co  Co22  1  0.000000  0.380975  0.291969  1
  Si  Si23  1  0.500000  0.500000  0.884357  1
  Si  Si24  1  0.000000  0.000000  0.116215  1
  Si  Si25  1  0.500000  0.500000  0.345149  1
  Si  Si26  1  0.000000  0.000000  0.661394  1
  Si  Si27  1  0.500000  0.303157  0.615415  1
  Si  Si28  1  0.500000  0.696843  0.615415  1
  Si  Si29  1  0.000000  0.196910  0.387549  1
  Si  Si30  1  0.000000  0.803090  0.387549  1
  Si  Si31  1  0.500000  0.855227  0.891075  1
  Si  Si32  1  0.500000  0.144773  0.891075  1
  Si  Si33  1  0.000000  0.658290  0.103032  1
  Si  Si34  1  0.000000  0.341710  0.103032  1
  W  W35  1  0.500000  0.500000  0.144709  1
