# generated using pymatgen
data_SrCd(CoO2)6
_symmetry_space_group_name_H-M   'P 1'
_cell_length_a   4.92845736
_cell_length_b   5.89894490
_cell_length_c   8.49711100
_cell_angle_alpha   89.99996115
_cell_angle_beta   89.99998837
_cell_angle_gamma   73.21588321
_symmetry_Int_Tables_number   1
_chemical_formula_structural   SrCd(CoO2)6
_chemical_formula_sum   'Sr1 Cd1 Co6 O12'
_cell_volume   236.51019666
_cell_formula_units_Z   1
loop_
 _symmetry_equiv_pos_site_id
 _symmetry_equiv_pos_as_xyz
  1  'x, y, z'
loop_
 _atom_site_type_symbol
 _atom_site_label
 _atom_site_symmetry_multiplicity
 _atom_site_fract_x
 _atom_site_fract_y
 _atom_site_fract_z
 _atom_site_occupancy
  Sr  Sr0  1  0.500001  0.500000  0.668056  1
  Cd  Cd1  1  0.000000  0.499999  0.168902  1
  Co  Co2  1  0.000000  0.000000  0.666406  1
  Co  Co3  1  0.500000  0.000000  0.834221  1
  Co  Co4  1  0.500000  0.000000  0.498804  1
  Co  Co5  1  0.500000  0.000000  0.166341  1
  Co  Co6  1  0.000000  0.000000  0.333707  1
  Co  Co7  1  0.000000  0.000000  0.999319  1
  O  O8  1  0.778605  0.175766  0.166436  1
  O  O9  1  0.275503  0.173915  0.666410  1
  O  O10  1  0.221394  0.824234  0.166437  1
  O  O11  1  0.724497  0.826085  0.666410  1
  O  O12  1  0.263757  0.179748  0.005012  1
  O  O13  1  0.775595  0.171349  0.496418  1
  O  O14  1  0.263839  0.179627  0.327889  1
  O  O15  1  0.775967  0.170947  0.836623  1
  O  O16  1  0.736161  0.820373  0.327889  1
  O  O17  1  0.224033  0.829054  0.836623  1
  O  O18  1  0.736243  0.820251  0.005012  1
  O  O19  1  0.224405  0.828652  0.496418  1
