# generated using pymatgen
data_Er3Tm9GaCo4Rh
_symmetry_space_group_name_H-M   'P 1'
_cell_length_a   8.13040771
_cell_length_b   8.12686295
_cell_length_c   8.12686272
_cell_angle_alpha   110.88213876
_cell_angle_beta   110.93215071
_cell_angle_gamma   106.61926186
_symmetry_Int_Tables_number   1
_chemical_formula_structural   Er3Tm9GaCo4Rh
_chemical_formula_sum   'Er3 Tm9 Ga1 Co4 Rh1'
_cell_volume   412.69407626
_cell_formula_units_Z   1
loop_
 _symmetry_equiv_pos_site_id
 _symmetry_equiv_pos_as_xyz
  1  'x, y, z'
loop_
 _atom_site_type_symbol
 _atom_site_label
 _atom_site_symmetry_multiplicity
 _atom_site_fract_x
 _atom_site_fract_y
 _atom_site_fract_z
 _atom_site_occupancy
  Er  Er0  1  0.584687  0.278075  0.306612  1
  Er  Er1  1  0.185937  0.213708  0.399697  1
  Er  Er2  1  0.185937  0.786240  0.972230  1
  Tm  Tm3  1  0.683976  0.487808  0.804480  1
  Tm  Tm4  1  0.683976  0.879497  0.196168  1
  Tm  Tm5  1  0.971330  0.277493  0.693838  1
  Tm  Tm6  1  0.028517  0.721730  0.306787  1
  Tm  Tm7  1  0.316015  0.119979  0.803495  1
  Tm  Tm8  1  0.316015  0.512520  0.196037  1
  Tm  Tm9  1  0.813971  0.213634  0.027393  1
  Tm  Tm10  1  0.813971  0.786577  0.600337  1
  Tm  Tm11  1  0.415939  0.722455  0.693485  1
  Ga  Ga12  1  0.499980  0.999797  0.500183  1
  Co  Co13  1  0.885887  0.886368  0.999520  1
  Co  Co14  1  0.374497  0.499906  0.874591  1
  Co  Co15  1  0.625645  0.500221  0.125424  1
  Co  Co16  1  0.112713  0.113400  0.999313  1
  Rh  Rh17  1  0.001004  0.500593  0.500411  1
