# generated using pymatgen
data_Zr6GeAsN2
_symmetry_space_group_name_H-M   'P 1'
_cell_length_a   5.88597032
_cell_length_b   5.88596972
_cell_length_c   8.65606400
_cell_angle_alpha   90.00000000
_cell_angle_beta   90.00000000
_cell_angle_gamma   145.47148213
_symmetry_Int_Tables_number   1
_chemical_formula_structural   Zr6GeAsN2
_chemical_formula_sum   'Zr6 Ge1 As1 N2'
_cell_volume   169.98043118
_cell_formula_units_Z   1
loop_
 _symmetry_equiv_pos_site_id
 _symmetry_equiv_pos_as_xyz
  1  'x, y, z'
loop_
 _atom_site_type_symbol
 _atom_site_label
 _atom_site_symmetry_multiplicity
 _atom_site_fract_x
 _atom_site_fract_y
 _atom_site_fract_z
 _atom_site_occupancy
  Zr  Zr0  1  0.631039  0.368961  0.945590  1
  Zr  Zr1  1  0.370201  0.629799  0.447536  1
  Zr  Zr2  1  0.370201  0.629799  0.052464  1
  Zr  Zr3  1  0.631039  0.368961  0.554410  1
  Zr  Zr4  1  0.940821  0.059179  0.750000  1
  Zr  Zr5  1  0.056068  0.943932  0.250000  1
  Ge  Ge6  1  0.745825  0.254175  0.250000  1
  As  As7  1  0.253748  0.746252  0.750000  1
  N  N8  1  0.000529  0.999471  0.998823  1
  N  N9  1  0.000529  0.999471  0.501177  1
