# generated using pymatgen
data_Tm3Zr2Mn3(Co4P3)4
_symmetry_space_group_name_H-M   'P 1'
_cell_length_a   11.93939500
_cell_length_b   11.93939616
_cell_length_c   3.62262100
_cell_angle_alpha   90.00000000
_cell_angle_beta   90.00000000
_cell_angle_gamma   119.99999402
_symmetry_Int_Tables_number   1
_chemical_formula_structural   Tm3Zr2Mn3(Co4P3)4
_chemical_formula_sum   'Tm3 Zr2 Mn3 Co16 P12'
_cell_volume   447.21693549
_cell_formula_units_Z   1
loop_
 _symmetry_equiv_pos_site_id
 _symmetry_equiv_pos_as_xyz
  1  'x, y, z'
loop_
 _atom_site_type_symbol
 _atom_site_label
 _atom_site_symmetry_multiplicity
 _atom_site_fract_x
 _atom_site_fract_y
 _atom_site_fract_z
 _atom_site_occupancy
  Tm  Tm0  1  0.814035  0.814035  0.500000  1
  Tm  Tm1  1  0.185965  0.000000  0.500000  1
  Tm  Tm2  1  0.000000  0.185965  0.500000  1
  Zr  Zr3  1  0.666667  0.333333  0.000000  1
  Zr  Zr4  1  0.333333  0.666667  0.000000  1
  Mn  Mn5  1  0.444560  0.444560  0.000000  1
  Mn  Mn6  1  0.555440  0.000000  0.000000  1
  Mn  Mn7  1  0.000000  0.555440  0.000000  1
  Co  Co8  1  0.199886  0.379403  0.000000  1
  Co  Co9  1  0.179517  0.800114  0.000000  1
  Co  Co10  1  0.820483  0.620597  0.000000  1
  Co  Co11  1  0.800114  0.179517  0.000000  1
  Co  Co12  1  0.379403  0.199886  0.000000  1
  Co  Co13  1  0.127747  0.485063  0.500000  1
  Co  Co14  1  0.357316  0.872253  0.500000  1
  Co  Co15  1  0.514937  0.642684  0.500000  1
  Co  Co16  1  0.642684  0.514937  0.500000  1
  Co  Co17  1  0.872253  0.357316  0.500000  1
  Co  Co18  1  0.485063  0.127747  0.500000  1
  Co  Co19  1  0.000000  0.000000  0.000000  1
  Co  Co20  1  0.714400  0.000000  0.500000  1
  Co  Co21  1  0.000000  0.714400  0.500000  1
  Co  Co22  1  0.620597  0.820483  0.000000  1
  Co  Co23  1  0.285600  0.285600  0.500000  1
  P  P24  1  0.637416  0.637416  0.000000  1
  P  P25  1  0.362584  0.000000  0.000000  1
  P  P26  1  0.000000  0.362584  0.000000  1
  P  P27  1  0.483236  0.314985  0.500000  1
  P  P28  1  0.685015  0.168250  0.500000  1
  P  P29  1  0.831750  0.516764  0.500000  1
  P  P30  1  0.516764  0.831750  0.500000  1
  P  P31  1  0.168250  0.685015  0.500000  1
  P  P32  1  0.819268  0.000000  0.000000  1
  P  P33  1  0.000000  0.819268  0.000000  1
  P  P34  1  0.314985  0.483236  0.500000  1
  P  P35  1  0.180732  0.180732  0.000000  1
