# generated using pymatgen
data_La2Ga2Co2C
_symmetry_space_group_name_H-M   'P 1'
_cell_length_a   5.98381773
_cell_length_b   5.98381724
_cell_length_c   7.27890348
_cell_angle_alpha   126.03861648
_cell_angle_beta   126.03861469
_cell_angle_gamma   40.33635219
_symmetry_Int_Tables_number   1
_chemical_formula_structural   La2Ga2Co2C
_chemical_formula_sum   'La2 Ga2 Co2 C1'
_cell_volume   131.45168130
_cell_formula_units_Z   1
loop_
 _symmetry_equiv_pos_site_id
 _symmetry_equiv_pos_as_xyz
  1  'x, y, z'
loop_
 _atom_site_type_symbol
 _atom_site_label
 _atom_site_symmetry_multiplicity
 _atom_site_fract_x
 _atom_site_fract_y
 _atom_site_fract_z
 _atom_site_occupancy
  La  La0  1  0.552300  0.552300  0.290526  1
  La  La1  1  0.447701  0.447701  0.709473  1
  Ga  Ga2  1  0.821596  0.821596  0.260187  1
  Ga  Ga3  1  0.178404  0.178404  0.739814  1
  Co  Co4  1  0.185325  0.185325  0.079703  1
  Co  Co5  1  0.814675  0.814675  0.920296  1
  C  C6  1  0.000000  0.000000  0.000000  1
