# generated using pymatgen
data_Pr4HoIr2
_symmetry_space_group_name_H-M   'P 1'
_cell_length_a   6.70926626
_cell_length_b   7.28756435
_cell_length_c   8.97665338
_cell_angle_alpha   96.30387001
_cell_angle_beta   111.94438988
_cell_angle_gamma   89.99999913
_symmetry_Int_Tables_number   1
_chemical_formula_structural   Pr4HoIr2
_chemical_formula_sum   'Pr8 Ho2 Ir4'
_cell_volume   404.24375001
_cell_formula_units_Z   2
loop_
 _symmetry_equiv_pos_site_id
 _symmetry_equiv_pos_as_xyz
  1  'x, y, z'
loop_
 _atom_site_type_symbol
 _atom_site_label
 _atom_site_symmetry_multiplicity
 _atom_site_fract_x
 _atom_site_fract_y
 _atom_site_fract_z
 _atom_site_occupancy
  Pr  Pr0  1  0.976301  0.923898  0.181779  1
  Pr  Pr1  1  0.794523  0.576102  0.818221  1
  Pr  Pr2  1  0.023699  0.076102  0.818221  1
  Pr  Pr3  1  0.205477  0.423898  0.181779  1
  Pr  Pr4  1  0.646600  0.810692  0.430625  1
  Pr  Pr5  1  0.215975  0.689308  0.569375  1
  Pr  Pr6  1  0.353400  0.189308  0.569375  1
  Pr  Pr7  1  0.784025  0.310692  0.430625  1
  Ho  Ho8  1  0.439338  0.750000  0.000000  1
  Ho  Ho9  1  0.560662  0.250000  0.000000  1
  Ir  Ir10  1  0.808207  0.569470  0.208276  1
  Ir  Ir11  1  0.599932  0.930530  0.791724  1
  Ir  Ir12  1  0.191793  0.430530  0.791724  1
  Ir  Ir13  1  0.400068  0.069470  0.208276  1
