# generated using pymatgen
data_HoTh3(CrN3)4
_symmetry_space_group_name_H-M   'P 1'
_cell_length_a   7.03661775
_cell_length_b   7.03661844
_cell_length_c   5.94370560
_cell_angle_alpha   77.82857656
_cell_angle_beta   77.82857950
_cell_angle_gamma   87.49493116
_symmetry_Int_Tables_number   1
_chemical_formula_structural   HoTh3(CrN3)4
_chemical_formula_sum   'Ho1 Th3 Cr4 N12'
_cell_volume   281.21434394
_cell_formula_units_Z   1
loop_
 _symmetry_equiv_pos_site_id
 _symmetry_equiv_pos_as_xyz
  1  'x, y, z'
loop_
 _atom_site_type_symbol
 _atom_site_label
 _atom_site_symmetry_multiplicity
 _atom_site_fract_x
 _atom_site_fract_y
 _atom_site_fract_z
 _atom_site_occupancy
  Ho  Ho0  1  0.902193  0.097807  0.750000  1
  Th  Th1  1  0.330501  0.669499  0.750000  1
  Th  Th2  1  0.673724  0.326276  0.250000  1
  Th  Th3  1  0.089676  0.910324  0.250000  1
  Cr  Cr4  1  0.380461  0.199297  0.759234  1
  Cr  Cr5  1  0.620166  0.799238  0.235540  1
  Cr  Cr6  1  0.800703  0.619539  0.740766  1
  Cr  Cr7  1  0.200762  0.379834  0.264460  1
  N  N8  1  0.000056  0.777069  0.655865  1
  N  N9  1  0.866963  0.391721  0.855741  1
  N  N10  1  0.773619  0.002145  0.146996  1
  N  N11  1  0.136876  0.608427  0.139650  1
  N  N12  1  0.997855  0.226381  0.353004  1
  N  N13  1  0.222931  0.999944  0.844135  1
  N  N14  1  0.608279  0.133037  0.644259  1
  N  N15  1  0.620955  0.670490  0.993001  1
  N  N16  1  0.370308  0.317111  0.013862  1
  N  N17  1  0.391573  0.863124  0.360350  1
  N  N18  1  0.682889  0.629692  0.486138  1
  N  N19  1  0.329510  0.379045  0.506999  1
