# generated using pymatgen
data_Dy2Si(PRu2)6
_symmetry_space_group_name_H-M   'P 1'
_cell_length_a   9.42221300
_cell_length_b   9.42221241
_cell_length_c   3.95769700
_cell_angle_alpha   90.00000000
_cell_angle_beta   90.00000000
_cell_angle_gamma   119.99999155
_symmetry_Int_Tables_number   1
_chemical_formula_structural   Dy2Si(PRu2)6
_chemical_formula_sum   'Dy2 Si1 P6 Ru12'
_cell_volume   304.28393125
_cell_formula_units_Z   1
loop_
 _symmetry_equiv_pos_site_id
 _symmetry_equiv_pos_as_xyz
  1  'x, y, z'
loop_
 _atom_site_type_symbol
 _atom_site_label
 _atom_site_symmetry_multiplicity
 _atom_site_fract_x
 _atom_site_fract_y
 _atom_site_fract_z
 _atom_site_occupancy
  Dy  Dy0  1  0.666667  0.333333  0.500000  1
  Dy  Dy1  1  0.333333  0.666667  0.000000  1
  Si  Si2  1  0.000000  0.000000  0.000000  1
  P  P3  1  0.602470  0.719204  0.500000  1
  P  P4  1  0.280796  0.883266  0.500000  1
  P  P5  1  0.116734  0.397530  0.500000  1
  P  P6  1  0.886640  0.575260  0.000000  1
  P  P7  1  0.424740  0.311378  0.000000  1
  P  P8  1  0.688622  0.113360  0.000000  1
  Ru  Ru9  1  0.555456  0.950701  0.500000  1
  Ru  Ru10  1  0.395247  0.444544  0.500000  1
  Ru  Ru11  1  0.912516  0.120581  0.500000  1
  Ru  Ru12  1  0.208066  0.087484  0.500000  1
  Ru  Ru13  1  0.879419  0.791934  0.500000  1
  Ru  Ru14  1  0.720779  0.887116  0.000000  1
  Ru  Ru15  1  0.112884  0.833662  0.000000  1
  Ru  Ru16  1  0.166338  0.279221  0.000000  1
  Ru  Ru17  1  0.424140  0.067321  0.000000  1
  Ru  Ru18  1  0.932679  0.356820  0.000000  1
  Ru  Ru19  1  0.643180  0.575860  0.000000  1
  Ru  Ru20  1  0.049299  0.604753  0.500000  1
