# generated using pymatgen
data_TbHo7(Lu3Pb4)4
_symmetry_space_group_name_H-M   'P 1'
_cell_length_a   8.11814625
_cell_length_b   15.43080253
_cell_length_c   8.18771509
_cell_angle_alpha   89.98616286
_cell_angle_beta   90.00969652
_cell_angle_gamma   89.97340355
_symmetry_Int_Tables_number   1
_chemical_formula_structural   TbHo7(Lu3Pb4)4
_chemical_formula_sum   'Tb1 Ho7 Lu12 Pb16'
_cell_volume   1025.67091556
_cell_formula_units_Z   1
loop_
 _symmetry_equiv_pos_site_id
 _symmetry_equiv_pos_as_xyz
  1  'x, y, z'
loop_
 _atom_site_type_symbol
 _atom_site_label
 _atom_site_symmetry_multiplicity
 _atom_site_fract_x
 _atom_site_fract_y
 _atom_site_fract_z
 _atom_site_occupancy
  Tb  Tb0  1  0.464231  0.599526  0.677086  1
  Ho  Ho1  1  0.964080  0.900425  0.823016  1
  Ho  Ho2  1  0.535900  0.099607  0.322999  1
  Ho  Ho3  1  0.035878  0.400410  0.177062  1
  Ho  Ho4  1  0.535872  0.400370  0.322964  1
  Ho  Ho5  1  0.035889  0.099597  0.176994  1
  Ho  Ho6  1  0.464095  0.900364  0.677035  1
  Ho  Ho7  1  0.964136  0.599607  0.823039  1
  Lu  Lu8  1  0.623469  0.621272  0.158853  1
  Lu  Lu9  1  0.123394  0.878734  0.341173  1
  Lu  Lu10  1  0.376587  0.121268  0.841191  1
  Lu  Lu11  1  0.876511  0.378727  0.658750  1
  Lu  Lu12  1  0.376527  0.378644  0.841261  1
  Lu  Lu13  1  0.876563  0.121255  0.658785  1
  Lu  Lu14  1  0.623450  0.878753  0.158818  1
  Lu  Lu15  1  0.123391  0.621259  0.341090  1
  Lu  Lu16  1  0.792304  0.750068  0.495078  1
  Lu  Lu17  1  0.292114  0.750051  0.004889  1
  Lu  Lu18  1  0.207803  0.250000  0.504812  1
  Lu  Lu19  1  0.707813  0.249984  0.995189  1
  Pb  Pb20  1  0.717564  0.457326  0.965809  1
  Pb  Pb21  1  0.217552  0.042690  0.534159  1
  Pb  Pb22  1  0.282404  0.957326  0.034146  1
  Pb  Pb23  1  0.782756  0.542644  0.465566  1
  Pb  Pb24  1  0.282255  0.542666  0.034394  1
  Pb  Pb25  1  0.782427  0.957303  0.465887  1
  Pb  Pb26  1  0.717577  0.042700  0.965835  1
  Pb  Pb27  1  0.217323  0.457131  0.533948  1
  Pb  Pb28  1  0.429479  0.750032  0.371202  1
  Pb  Pb29  1  0.929500  0.749984  0.128662  1
  Pb  Pb30  1  0.570529  0.249981  0.628692  1
  Pb  Pb31  1  0.070475  0.249997  0.871331  1
  Pb  Pb32  1  0.653288  0.750237  0.847055  1
  Pb  Pb33  1  0.152817  0.750067  0.653228  1
  Pb  Pb34  1  0.347023  0.250002  0.153255  1
  Pb  Pb35  1  0.847029  0.249993  0.346749  1
