# generated using pymatgen
data_Pa3NF20
_symmetry_space_group_name_H-M   'P 1'
_cell_length_a   9.21139978
_cell_length_b   9.21139806
_cell_length_c   5.42456179
_cell_angle_alpha   83.78611792
_cell_angle_beta   83.78612156
_cell_angle_gamma   111.85020449
_symmetry_Int_Tables_number   1
_chemical_formula_structural   Pa3NF20
_chemical_formula_sum   'Pa3 N1 F20'
_cell_volume   419.15928541
_cell_formula_units_Z   1
loop_
 _symmetry_equiv_pos_site_id
 _symmetry_equiv_pos_as_xyz
  1  'x, y, z'
loop_
 _atom_site_type_symbol
 _atom_site_label
 _atom_site_symmetry_multiplicity
 _atom_site_fract_x
 _atom_site_fract_y
 _atom_site_fract_z
 _atom_site_occupancy
  Pa  Pa0  1  0.794654  0.211229  0.991388  1
  Pa  Pa1  1  0.211229  0.794654  0.991388  1
  Pa  Pa2  1  0.731992  0.731992  0.744631  1
  N  N3  1  0.314508  0.314508  0.336479  1
  F  F4  1  0.860083  0.860083  0.401327  1
  F  F5  1  0.186733  0.186733  0.442876  1
  F  F6  1  0.606873  0.606873  0.094230  1
  F  F7  1  0.329471  0.329471  0.087449  1
  F  F8  1  0.521006  0.708155  0.621941  1
  F  F9  1  0.299849  0.443653  0.410991  1
  F  F10  1  0.443653  0.299849  0.410991  1
  F  F11  1  0.708155  0.521006  0.621941  1
  F  F12  1  0.770955  0.965711  0.870761  1
  F  F13  1  0.009284  0.217973  0.093778  1
  F  F14  1  0.217973  0.009284  0.093778  1
  F  F15  1  0.965711  0.770955  0.870761  1
  F  F16  1  0.920149  0.302025  0.630195  1
  F  F17  1  0.680209  0.096874  0.350688  1
  F  F18  1  0.096874  0.680209  0.350688  1
  F  F19  1  0.302025  0.920149  0.630195  1
  F  F20  1  0.575760  0.191220  0.892470  1
  F  F21  1  0.827383  0.434254  0.084289  1
  F  F22  1  0.434254  0.827383  0.084289  1
  F  F23  1  0.191220  0.575760  0.892470  1
