# generated using pymatgen
data_SrAc5Cd23Ge
_symmetry_space_group_name_H-M   'P 1'
_cell_length_a   10.34473927
_cell_length_b   10.33783138
_cell_length_c   10.33783000
_cell_angle_alpha   60.04421681
_cell_angle_beta   59.97788605
_cell_angle_gamma   59.97789108
_symmetry_Int_Tables_number   1
_chemical_formula_structural   SrAc5Cd23Ge
_chemical_formula_sum   'Sr1 Ac5 Cd23 Ge1'
_cell_volume   781.74115047
_cell_formula_units_Z   1
loop_
 _symmetry_equiv_pos_site_id
 _symmetry_equiv_pos_as_xyz
  1  'x, y, z'
loop_
 _atom_site_type_symbol
 _atom_site_label
 _atom_site_symmetry_multiplicity
 _atom_site_fract_x
 _atom_site_fract_y
 _atom_site_fract_z
 _atom_site_occupancy
  Sr  Sr0  1  0.211351  0.788649  0.788649  1
  Ac  Ac1  1  0.788386  0.788417  0.211614  1
  Ac  Ac2  1  0.211583  0.788417  0.211614  1
  Ac  Ac3  1  0.788890  0.211110  0.211110  1
  Ac  Ac4  1  0.211583  0.211614  0.788417  1
  Ac  Ac5  1  0.788386  0.211614  0.788417  1
  Cd  Cd6  1  0.828900  0.827892  0.514310  1
  Cd  Cd7  1  0.828900  0.514310  0.827892  1
  Cd  Cd8  1  0.513072  0.828705  0.828705  1
  Cd  Cd9  1  0.829520  0.828705  0.828705  1
  Cd  Cd10  1  0.171295  0.170480  0.486928  1
  Cd  Cd11  1  0.171295  0.486928  0.170480  1
  Cd  Cd12  1  0.485690  0.171100  0.171100  1
  Cd  Cd13  1  0.172108  0.171100  0.171100  1
  Cd  Cd14  1  0.621477  0.621638  0.135409  1
  Cd  Cd15  1  0.621477  0.135409  0.621638  1
  Cd  Cd16  1  0.136135  0.622531  0.622531  1
  Cd  Cd17  1  0.618802  0.622531  0.622531  1
  Cd  Cd18  1  0.377469  0.381198  0.863865  1
  Cd  Cd19  1  0.377469  0.863865  0.381198  1
  Cd  Cd20  1  0.864591  0.378523  0.378523  1
  Cd  Cd21  1  0.378362  0.378523  0.378523  1
  Cd  Cd22  1  0.000789  0.999211  0.499698  1
  Cd  Cd23  1  0.500302  0.999211  0.499698  1
  Cd  Cd24  1  0.000461  0.499539  0.499539  1
  Cd  Cd25  1  0.500302  0.499698  0.999211  1
  Cd  Cd26  1  0.000789  0.499698  0.999211  1
  Cd  Cd27  1  0.500461  0.999539  0.999539  1
  Cd  Cd28  1  0.500105  0.499895  0.499895  1
  Ge  Ge29  1  0.000051  0.999949  0.999949  1
