# generated using pymatgen
data_Lu4Si2B4Ir3Rh7
_symmetry_space_group_name_H-M   'P 1'
_cell_length_a   9.29854651
_cell_length_b   9.28954751
_cell_length_c   3.21464400
_cell_angle_alpha   90.00000000
_cell_angle_beta   90.00000000
_cell_angle_gamma   90.06528508
_symmetry_Int_Tables_number   1
_chemical_formula_structural   Lu4Si2B4Ir3Rh7
_chemical_formula_sum   'Lu4 Si2 B4 Ir3 Rh7'
_cell_volume   277.67848461
_cell_formula_units_Z   1
loop_
 _symmetry_equiv_pos_site_id
 _symmetry_equiv_pos_as_xyz
  1  'x, y, z'
loop_
 _atom_site_type_symbol
 _atom_site_label
 _atom_site_symmetry_multiplicity
 _atom_site_fract_x
 _atom_site_fract_y
 _atom_site_fract_z
 _atom_site_occupancy
  Lu  Lu0  1  0.177403  0.676685  0.000000  1
  Lu  Lu1  1  0.677208  0.822894  0.000000  1
  Lu  Lu2  1  0.324251  0.176583  0.000000  1
  Lu  Lu3  1  0.821695  0.323657  0.000000  1
  Si  Si4  1  0.000335  0.999895  0.000000  1
  Si  Si5  1  0.499320  0.500033  0.000000  1
  B  B6  1  0.379952  0.879580  0.000000  1
  B  B7  1  0.880053  0.620747  0.000000  1
  B  B8  1  0.119231  0.376015  0.000000  1
  B  B9  1  0.620933  0.120357  0.000000  1
  Ir  Ir10  1  0.999364  0.500802  0.500000  1
  Ir  Ir11  1  0.500906  0.999664  0.500000  1
  Ir  Ir12  1  0.068458  0.214312  0.500000  1
  Rh  Rh13  1  0.286583  0.431295  0.500000  1
  Rh  Rh14  1  0.712980  0.569582  0.500000  1
  Rh  Rh15  1  0.569285  0.286498  0.500000  1
  Rh  Rh16  1  0.430498  0.713628  0.500000  1
  Rh  Rh17  1  0.930844  0.786655  0.500000  1
  Rh  Rh18  1  0.786732  0.069581  0.500000  1
  Rh  Rh19  1  0.213971  0.931538  0.500000  1
