# generated using pymatgen
data_HoTh2ScAl2Ir3
_symmetry_space_group_name_H-M   'P 1'
_cell_length_a   7.10577700
_cell_length_b   7.25384315
_cell_length_c   4.22496000
_cell_angle_alpha   90.00000000
_cell_angle_beta   90.00000000
_cell_angle_gamma   119.32703495
_symmetry_Int_Tables_number   1
_chemical_formula_structural   HoTh2ScAl2Ir3
_chemical_formula_sum   'Ho1 Th2 Sc1 Al2 Ir3'
_cell_volume   189.86209146
_cell_formula_units_Z   1
loop_
 _symmetry_equiv_pos_site_id
 _symmetry_equiv_pos_as_xyz
  1  'x, y, z'
loop_
 _atom_site_type_symbol
 _atom_site_label
 _atom_site_symmetry_multiplicity
 _atom_site_fract_x
 _atom_site_fract_y
 _atom_site_fract_z
 _atom_site_occupancy
  Ho  Ho0  1  0.398110  0.000000  0.500000  1
  Th  Th1  1  0.009564  0.431612  0.500000  1
  Th  Th2  1  0.577952  0.568388  0.500000  1
  Sc  Sc3  1  0.755624  0.000000  0.000000  1
  Al  Al4  1  0.009953  0.772716  0.000000  1
  Al  Al5  1  0.237236  0.227284  0.000000  1
  Ir  Ir6  1  0.331829  0.653261  0.000000  1
  Ir  Ir7  1  0.678569  0.346739  0.000000  1
  Ir  Ir8  1  0.001162  0.000000  0.500000  1
