# generated using pymatgen
data_LaIn2Br5
_symmetry_space_group_name_H-M   'P 1'
_cell_length_a   8.70633300
_cell_length_b   9.30709500
_cell_length_c   13.59893100
_cell_angle_alpha   90.00000000
_cell_angle_beta   90.00000000
_cell_angle_gamma   90.00000000
_symmetry_Int_Tables_number   1
_chemical_formula_structural   LaIn2Br5
_chemical_formula_sum   'La4 In8 Br20'
_cell_volume   1101.93046754
_cell_formula_units_Z   4
loop_
 _symmetry_equiv_pos_site_id
 _symmetry_equiv_pos_as_xyz
  1  'x, y, z'
loop_
 _atom_site_type_symbol
 _atom_site_label
 _atom_site_symmetry_multiplicity
 _atom_site_fract_x
 _atom_site_fract_y
 _atom_site_fract_z
 _atom_site_occupancy
  La  La0  1  0.924667  0.750000  0.506166  1
  La  La1  1  0.575333  0.750000  0.006166  1
  La  La2  1  0.075333  0.250000  0.493834  1
  La  La3  1  0.424667  0.250000  0.993834  1
  In  In4  1  0.942666  0.006883  0.829375  1
  In  In5  1  0.057334  0.993117  0.170625  1
  In  In6  1  0.557334  0.493117  0.329375  1
  In  In7  1  0.057334  0.506883  0.170625  1
  In  In8  1  0.942666  0.493117  0.829375  1
  In  In9  1  0.442666  0.506883  0.670625  1
  In  In10  1  0.557334  0.006883  0.329375  1
  In  In11  1  0.442666  0.993117  0.670625  1
  Br  Br12  1  0.574864  0.750000  0.505254  1
  Br  Br13  1  0.171201  0.954018  0.426620  1
  Br  Br14  1  0.828799  0.045982  0.573380  1
  Br  Br15  1  0.328799  0.545982  0.926620  1
  Br  Br16  1  0.171201  0.545982  0.426620  1
  Br  Br17  1  0.343631  0.250000  0.207145  1
  Br  Br18  1  0.328799  0.954018  0.926620  1
  Br  Br19  1  0.828799  0.454018  0.573380  1
  Br  Br20  1  0.388923  0.750000  0.189990  1
  Br  Br21  1  0.671201  0.045982  0.073380  1
  Br  Br22  1  0.156369  0.250000  0.707145  1
  Br  Br23  1  0.611077  0.250000  0.810010  1
  Br  Br24  1  0.425136  0.250000  0.494746  1
  Br  Br25  1  0.111077  0.750000  0.689990  1
  Br  Br26  1  0.671201  0.454018  0.073380  1
  Br  Br27  1  0.074864  0.250000  0.994746  1
  Br  Br28  1  0.925136  0.750000  0.005254  1
  Br  Br29  1  0.843631  0.750000  0.292855  1
  Br  Br30  1  0.656369  0.750000  0.792855  1
  Br  Br31  1  0.888923  0.250000  0.310010  1
