# generated using pymatgen
data_Dy(MoC)4
_symmetry_space_group_name_H-M   'P 1'
_cell_length_a   6.17124725
_cell_length_b   6.17124846
_cell_length_c   6.17124809
_cell_angle_alpha   93.92705707
_cell_angle_beta   93.92706219
_cell_angle_gamma   149.65818879
_symmetry_Int_Tables_number   1
_chemical_formula_structural   Dy(MoC)4
_chemical_formula_sum   'Dy1 Mo4 C4'
_cell_volume   114.58833360
_cell_formula_units_Z   1
loop_
 _symmetry_equiv_pos_site_id
 _symmetry_equiv_pos_as_xyz
  1  'x, y, z'
loop_
 _atom_site_type_symbol
 _atom_site_label
 _atom_site_symmetry_multiplicity
 _atom_site_fract_x
 _atom_site_fract_y
 _atom_site_fract_z
 _atom_site_occupancy
  Dy  Dy0  1  0.000000  0.000000  0.000000  1
  Mo  Mo1  1  0.629119  0.820133  0.449252  1
  Mo  Mo2  1  0.370881  0.179867  0.550748  1
  Mo  Mo3  1  0.820133  0.370881  0.191013  1
  Mo  Mo4  1  0.179867  0.629119  0.808987  1
  C  C5  1  0.270978  0.401388  0.672366  1
  C  C6  1  0.729022  0.598612  0.327634  1
  C  C7  1  0.401388  0.729022  0.130409  1
  C  C8  1  0.598612  0.270978  0.869591  1
