# generated using pymatgen
data_Hf3BeTc3As2
_symmetry_space_group_name_H-M   'P 1'
_cell_length_a   7.70142481
_cell_length_b   7.70142591
_cell_length_c   7.70142664
_cell_angle_alpha   126.95137146
_cell_angle_beta   126.79074869
_cell_angle_gamma   78.46121071
_symmetry_Int_Tables_number   1
_chemical_formula_structural   Hf3BeTc3As2
_chemical_formula_sum   'Hf6 Be2 Tc6 As4'
_cell_volume   283.05184555
_cell_formula_units_Z   2
loop_
 _symmetry_equiv_pos_site_id
 _symmetry_equiv_pos_as_xyz
  1  'x, y, z'
loop_
 _atom_site_type_symbol
 _atom_site_label
 _atom_site_symmetry_multiplicity
 _atom_site_fract_x
 _atom_site_fract_y
 _atom_site_fract_z
 _atom_site_occupancy
  Hf  Hf0  1  0.443476  0.640118  0.696642  1
  Hf  Hf1  1  0.556524  0.253166  0.196642  1
  Hf  Hf2  1  0.749904  0.867359  0.617454  1
  Hf  Hf3  1  0.250096  0.867550  0.117454  1
  Hf  Hf4  1  0.056761  0.253164  0.696403  1
  Hf  Hf5  1  0.943239  0.639641  0.196403  1
  Be  Be6  1  0.250255  0.253402  0.503148  1
  Be  Be7  1  0.749745  0.252893  0.003148  1
  Tc  Tc8  1  0.500000  0.497216  0.997216  1
  Tc  Tc9  1  0.000000  0.497216  0.497216  1
  Tc  Tc10  1  0.122160  0.253658  0.131060  1
  Tc  Tc11  1  0.877840  0.008900  0.131498  1
  Tc  Tc12  1  0.377402  0.008900  0.631060  1
  Tc  Tc13  1  0.622598  0.253658  0.631498  1
  As  As14  1  0.333500  0.586793  0.253087  1
  As  As15  1  0.666500  0.919587  0.253292  1
  As  As16  1  0.166295  0.919587  0.753087  1
  As  As17  1  0.833705  0.586793  0.753292  1
