# generated using pymatgen
data_PIr2RhS7
_symmetry_space_group_name_H-M   'P 1'
_cell_length_a   5.70045985
_cell_length_b   5.70718831
_cell_length_c   5.70770122
_cell_angle_alpha   90.32507386
_cell_angle_beta   90.25677756
_cell_angle_gamma   90.31657161
_symmetry_Int_Tables_number   1
_chemical_formula_structural   PIr2RhS7
_chemical_formula_sum   'P1 Ir2 Rh1 S7'
_cell_volume   185.68434205
_cell_formula_units_Z   1
loop_
 _symmetry_equiv_pos_site_id
 _symmetry_equiv_pos_as_xyz
  1  'x, y, z'
loop_
 _atom_site_type_symbol
 _atom_site_label
 _atom_site_symmetry_multiplicity
 _atom_site_fract_x
 _atom_site_fract_y
 _atom_site_fract_z
 _atom_site_occupancy
  P  P0  1  0.612014  0.613197  0.612877  1
  Ir  Ir1  1  0.501271  0.993889  0.501034  1
  Ir  Ir2  1  0.501409  0.501052  0.993931  1
  Rh  Rh3  1  0.993848  0.501413  0.501219  1
  S  S4  1  0.396051  0.889053  0.107824  1
  S  S5  1  0.107302  0.397130  0.890733  1
  S  S6  1  0.889591  0.105943  0.396658  1
  S  S7  1  0.605710  0.110243  0.890977  1
  S  S8  1  0.891276  0.604623  0.109030  1
  S  S9  1  0.109454  0.893216  0.605265  1
  S  S10  1  0.392074  0.390241  0.390451  1
