# generated using pymatgen
data_Ho3Mn5Co3NiP6
_symmetry_space_group_name_H-M   'P 1'
_cell_length_a   3.64862100
_cell_length_b   10.77763500
_cell_length_c   12.32743800
_cell_angle_alpha   90.00000000
_cell_angle_beta   90.00000000
_cell_angle_gamma   90.00000000
_symmetry_Int_Tables_number   1
_chemical_formula_structural   Ho3Mn5Co3NiP6
_chemical_formula_sum   'Ho6 Mn10 Co6 Ni2 P12'
_cell_volume   484.75807465
_cell_formula_units_Z   2
loop_
 _symmetry_equiv_pos_site_id
 _symmetry_equiv_pos_as_xyz
  1  'x, y, z'
loop_
 _atom_site_type_symbol
 _atom_site_label
 _atom_site_symmetry_multiplicity
 _atom_site_fract_x
 _atom_site_fract_y
 _atom_site_fract_z
 _atom_site_occupancy
  Ho  Ho0  1  0.000000  0.500000  0.530623  1
  Ho  Ho1  1  0.500000  0.000000  0.469377  1
  Ho  Ho2  1  0.500000  0.820266  0.199786  1
  Ho  Ho3  1  0.500000  0.179734  0.199786  1
  Ho  Ho4  1  0.000000  0.679734  0.800214  1
  Ho  Ho5  1  0.000000  0.320266  0.800214  1
  Mn  Mn6  1  0.500000  0.298355  0.430854  1
  Mn  Mn7  1  0.500000  0.701645  0.430854  1
  Mn  Mn8  1  0.000000  0.201645  0.569146  1
  Mn  Mn9  1  0.000000  0.798355  0.569146  1
  Mn  Mn10  1  0.500000  0.882044  0.707004  1
  Mn  Mn11  1  0.500000  0.117956  0.707004  1
  Mn  Mn12  1  0.000000  0.617956  0.292996  1
  Mn  Mn13  1  0.000000  0.382044  0.292996  1
  Mn  Mn14  1  0.500000  0.500000  0.160144  1
  Mn  Mn15  1  0.000000  0.000000  0.839856  1
  Co  Co16  1  0.000000  0.500000  0.989667  1
  Co  Co17  1  0.500000  0.000000  0.010333  1
  Co  Co18  1  0.500000  0.333686  0.996003  1
  Co  Co19  1  0.500000  0.666314  0.996003  1
  Co  Co20  1  0.000000  0.166314  0.003997  1
  Co  Co21  1  0.000000  0.833686  0.003997  1
  Ni  Ni22  1  0.500000  0.500000  0.709450  1
  Ni  Ni23  1  0.000000  0.000000  0.290550  1
  P  P24  1  0.500000  0.316770  0.620448  1
  P  P25  1  0.500000  0.683230  0.620448  1
  P  P26  1  0.000000  0.183230  0.379552  1
  P  P27  1  0.000000  0.816770  0.379552  1
  P  P28  1  0.500000  0.500000  0.888148  1
  P  P29  1  0.000000  0.000000  0.111852  1
  P  P30  1  0.500000  0.845106  0.893282  1
  P  P31  1  0.500000  0.154894  0.893282  1
  P  P32  1  0.000000  0.654894  0.106718  1
  P  P33  1  0.000000  0.345106  0.106718  1
  P  P34  1  0.500000  0.500000  0.355831  1
  P  P35  1  0.000000  0.000000  0.644169  1
