# generated using pymatgen
data_Ho3Er5(Si3Pd)4
_symmetry_space_group_name_H-M   'P 1'
_cell_length_a   8.18899803
_cell_length_b   8.18899744
_cell_length_c   7.80017900
_cell_angle_alpha   90.00000000
_cell_angle_beta   90.00000000
_cell_angle_gamma   120.00912079
_symmetry_Int_Tables_number   1
_chemical_formula_structural   Ho3Er5(Si3Pd)4
_chemical_formula_sum   'Ho3 Er5 Si12 Pd4'
_cell_volume   452.95679657
_cell_formula_units_Z   1
loop_
 _symmetry_equiv_pos_site_id
 _symmetry_equiv_pos_as_xyz
  1  'x, y, z'
loop_
 _atom_site_type_symbol
 _atom_site_label
 _atom_site_symmetry_multiplicity
 _atom_site_fract_x
 _atom_site_fract_y
 _atom_site_fract_z
 _atom_site_occupancy
  Ho  Ho0  1  0.487810  0.512190  0.750000  1
  Ho  Ho1  1  0.999996  0.000004  0.250000  1
  Ho  Ho2  1  0.999988  0.000012  0.750000  1
  Er  Er3  1  0.512169  0.024303  0.250000  1
  Er  Er4  1  0.487861  0.975787  0.750000  1
  Er  Er5  1  0.975697  0.487831  0.250000  1
  Er  Er6  1  0.024213  0.512139  0.750000  1
  Er  Er7  1  0.512127  0.487873  0.250000  1
  Si  Si8  1  0.165509  0.331168  0.003231  1
  Si  Si9  1  0.834439  0.668786  0.996940  1
  Si  Si10  1  0.668832  0.834491  0.003231  1
  Si  Si11  1  0.834439  0.668786  0.503060  1
  Si  Si12  1  0.331214  0.165561  0.996940  1
  Si  Si13  1  0.165509  0.331168  0.496769  1
  Si  Si14  1  0.165619  0.834381  0.003128  1
  Si  Si15  1  0.331214  0.165561  0.503060  1
  Si  Si16  1  0.834391  0.165609  0.996916  1
  Si  Si17  1  0.668832  0.834491  0.496769  1
  Si  Si18  1  0.834391  0.165609  0.503084  1
  Si  Si19  1  0.165619  0.834381  0.496872  1
  Pd  Pd20  1  0.333263  0.666737  0.043550  1
  Pd  Pd21  1  0.666803  0.333197  0.956782  1
  Pd  Pd22  1  0.666803  0.333197  0.543218  1
  Pd  Pd23  1  0.333263  0.666737  0.456450  1
