# generated using pymatgen
data_Dy7Ho(TmSi3)2
_symmetry_space_group_name_H-M   'P 1'
_cell_length_a   8.42447600
_cell_length_b   8.42447494
_cell_length_c   6.32395600
_cell_angle_alpha   90.00000000
_cell_angle_beta   90.00000000
_cell_angle_gamma   120.00000418
_symmetry_Int_Tables_number   1
_chemical_formula_structural   Dy7Ho(TmSi3)2
_chemical_formula_sum   'Dy7 Ho1 Tm2 Si6'
_cell_volume   388.69163371
_cell_formula_units_Z   1
loop_
 _symmetry_equiv_pos_site_id
 _symmetry_equiv_pos_as_xyz
  1  'x, y, z'
loop_
 _atom_site_type_symbol
 _atom_site_label
 _atom_site_symmetry_multiplicity
 _atom_site_fract_x
 _atom_site_fract_y
 _atom_site_fract_z
 _atom_site_occupancy
  Dy  Dy0  1  0.333333  0.666667  0.500000  1
  Dy  Dy1  1  0.756151  0.756121  0.248533  1
  Dy  Dy2  1  0.243879  0.000030  0.248533  1
  Dy  Dy3  1  0.999970  0.243849  0.248533  1
  Dy  Dy4  1  0.243879  0.243849  0.751467  1
  Dy  Dy5  1  0.756151  0.000030  0.751467  1
  Dy  Dy6  1  0.999970  0.756121  0.751467  1
  Ho  Ho7  1  0.666667  0.333333  0.500000  1
  Tm  Tm8  1  0.333333  0.666667  0.000000  1
  Tm  Tm9  1  0.666667  0.333333  0.000000  1
  Si  Si10  1  0.394843  0.394757  0.245194  1
  Si  Si11  1  0.605243  0.000085  0.245194  1
  Si  Si12  1  0.999915  0.605157  0.245194  1
  Si  Si13  1  0.605243  0.605157  0.754806  1
  Si  Si14  1  0.394843  0.000085  0.754806  1
  Si  Si15  1  0.999915  0.394757  0.754806  1
