# generated using pymatgen
data_Yb2ErCoSn6
_symmetry_space_group_name_H-M   'P 1'
_cell_length_a   8.30382260
_cell_length_b   8.30382262
_cell_length_c   13.31767200
_cell_angle_alpha   90.00000000
_cell_angle_beta   90.00000000
_cell_angle_gamma   147.36681931
_symmetry_Int_Tables_number   1
_chemical_formula_structural   Yb2ErCoSn6
_chemical_formula_sum   'Yb4 Er2 Co2 Sn12'
_cell_volume   495.20097971
_cell_formula_units_Z   2
loop_
 _symmetry_equiv_pos_site_id
 _symmetry_equiv_pos_as_xyz
  1  'x, y, z'
loop_
 _atom_site_type_symbol
 _atom_site_label
 _atom_site_symmetry_multiplicity
 _atom_site_fract_x
 _atom_site_fract_y
 _atom_site_fract_z
 _atom_site_occupancy
  Yb  Yb0  1  0.901248  0.098752  0.097510  1
  Yb  Yb1  1  0.098752  0.901248  0.597510  1
  Yb  Yb2  1  0.098752  0.901248  0.902490  1
  Yb  Yb3  1  0.901248  0.098752  0.402490  1
  Er  Er4  1  0.901298  0.098702  0.750000  1
  Er  Er5  1  0.098702  0.901298  0.250000  1
  Co  Co6  1  0.294244  0.705756  0.250000  1
  Co  Co7  1  0.705756  0.294244  0.750000  1
  Sn  Sn8  1  0.756679  0.243321  0.570925  1
  Sn  Sn9  1  0.425054  0.574946  0.578128  1
  Sn  Sn10  1  0.574946  0.425054  0.421872  1
  Sn  Sn11  1  0.730636  0.269364  0.250000  1
  Sn  Sn12  1  0.269364  0.730636  0.750000  1
  Sn  Sn13  1  0.243321  0.756679  0.070925  1
  Sn  Sn14  1  0.243321  0.756679  0.429075  1
  Sn  Sn15  1  0.574946  0.425054  0.078128  1
  Sn  Sn16  1  0.454053  0.545947  0.250000  1
  Sn  Sn17  1  0.545947  0.454053  0.750000  1
  Sn  Sn18  1  0.756679  0.243321  0.929075  1
  Sn  Sn19  1  0.425054  0.574946  0.921872  1
