# generated using pymatgen
data_Tb9Nd(SnBi)4
_symmetry_space_group_name_H-M   'P 1'
_cell_length_a   8.22004131
_cell_length_b   8.26051900
_cell_length_c   15.70885514
_cell_angle_alpha   90.00000000
_cell_angle_beta   89.45190891
_cell_angle_gamma   90.00000000
_symmetry_Int_Tables_number   1
_chemical_formula_structural   Tb9Nd(SnBi)4
_chemical_formula_sum   'Tb18 Nd2 Sn8 Bi8'
_cell_volume   1066.61085297
_cell_formula_units_Z   2
loop_
 _symmetry_equiv_pos_site_id
 _symmetry_equiv_pos_as_xyz
  1  'x, y, z'
loop_
 _atom_site_type_symbol
 _atom_site_label
 _atom_site_symmetry_multiplicity
 _atom_site_fract_x
 _atom_site_fract_y
 _atom_site_fract_z
 _atom_site_occupancy
  Tb  Tb0  1  0.045780  0.174013  0.390621  1
  Tb  Tb1  1  0.383741  0.837286  0.123215  1
  Tb  Tb2  1  0.118304  0.338206  0.624853  1
  Tb  Tb3  1  0.452861  0.672875  0.891337  1
  Tb  Tb4  1  0.884279  0.662759  0.123712  1
  Tb  Tb5  1  0.116259  0.337286  0.876785  1
  Tb  Tb6  1  0.212245  0.497669  0.249774  1
  Tb  Tb7  1  0.712252  0.002061  0.249212  1
  Tb  Tb8  1  0.454220  0.674013  0.609379  1
  Tb  Tb9  1  0.287755  0.997669  0.750226  1
  Tb  Tb10  1  0.619645  0.161429  0.624899  1
  Tb  Tb11  1  0.787748  0.502061  0.750788  1
  Tb  Tb12  1  0.880355  0.661429  0.375101  1
  Tb  Tb13  1  0.047139  0.172875  0.108663  1
  Tb  Tb14  1  0.952108  0.826673  0.890242  1
  Tb  Tb15  1  0.615721  0.162759  0.876288  1
  Tb  Tb16  1  0.547892  0.326673  0.109758  1
  Tb  Tb17  1  0.381696  0.838206  0.375147  1
  Nd  Nd18  1  0.959575  0.822658  0.605889  1
  Nd  Nd19  1  0.540425  0.322658  0.394111  1
  Sn  Sn20  1  0.648877  0.856323  0.750869  1
  Sn  Sn21  1  0.851123  0.356323  0.249131  1
  Sn  Sn22  1  0.578747  0.625703  0.248962  1
  Sn  Sn23  1  0.421339  0.375732  0.750574  1
  Sn  Sn24  1  0.152348  0.642026  0.752024  1
  Sn  Sn25  1  0.921253  0.125703  0.751038  1
  Sn  Sn26  1  0.347652  0.142026  0.247976  1
  Sn  Sn27  1  0.078661  0.875732  0.249426  1
  Bi  Bi28  1  0.774597  0.474531  0.545004  1
  Bi  Bi29  1  0.725403  0.974531  0.454996  1
  Bi  Bi30  1  0.218885  0.530630  0.457696  1
  Bi  Bi31  1  0.273105  0.022572  0.956184  1
  Bi  Bi32  1  0.773476  0.476855  0.956714  1
  Bi  Bi33  1  0.226895  0.522572  0.043816  1
  Bi  Bi34  1  0.281115  0.030630  0.542304  1
  Bi  Bi35  1  0.726524  0.976855  0.043286  1
