# generated using pymatgen
data_Sc2Ga2Si2Mo3
_symmetry_space_group_name_H-M   'P 1'
_cell_length_a   6.75246100
_cell_length_b   6.70319818
_cell_length_c   6.94417148
_cell_angle_alpha   70.22573104
_cell_angle_beta   90.00000000
_cell_angle_gamma   90.00000000
_symmetry_Int_Tables_number   1
_chemical_formula_structural   Sc2Ga2Si2Mo3
_chemical_formula_sum   'Sc4 Ga4 Si4 Mo6'
_cell_volume   295.78036557
_cell_formula_units_Z   2
loop_
 _symmetry_equiv_pos_site_id
 _symmetry_equiv_pos_as_xyz
  1  'x, y, z'
loop_
 _atom_site_type_symbol
 _atom_site_label
 _atom_site_symmetry_multiplicity
 _atom_site_fract_x
 _atom_site_fract_y
 _atom_site_fract_z
 _atom_site_occupancy
  Sc  Sc0  1  0.333120  0.559021  0.802444  1
  Sc  Sc1  1  0.833120  0.940979  0.197556  1
  Sc  Sc2  1  0.666880  0.440979  0.197556  1
  Sc  Sc3  1  0.166880  0.059021  0.802444  1
  Ga  Ga4  1  0.537655  0.853150  0.923867  1
  Ga  Ga5  1  0.037655  0.646850  0.076133  1
  Ga  Ga6  1  0.462345  0.146850  0.076133  1
  Ga  Ga7  1  0.962345  0.353150  0.923867  1
  Si  Si8  1  0.130472  0.867565  0.508949  1
  Si  Si9  1  0.630472  0.632435  0.491051  1
  Si  Si10  1  0.869528  0.132435  0.491051  1
  Si  Si11  1  0.369528  0.367565  0.508949  1
  Mo  Mo12  1  0.500000  0.000000  0.500000  1
  Mo  Mo13  1  0.000000  0.500000  0.500000  1
  Mo  Mo14  1  0.826779  0.752314  0.732868  1
  Mo  Mo15  1  0.326779  0.747686  0.267132  1
  Mo  Mo16  1  0.173221  0.247686  0.267132  1
  Mo  Mo17  1  0.673221  0.252314  0.732868  1
