# generated using pymatgen
data_Ho6Al24Os5Rh3
_symmetry_space_group_name_H-M   'P 1'
_cell_length_a   8.80538709
_cell_length_b   8.78074155
_cell_length_c   9.54930011
_cell_angle_alpha   89.97047875
_cell_angle_beta   89.81661767
_cell_angle_gamma   119.73387671
_symmetry_Int_Tables_number   1
_chemical_formula_structural   Ho6Al24Os5Rh3
_chemical_formula_sum   'Ho6 Al24 Os5 Rh3'
_cell_volume   641.11613560
_cell_formula_units_Z   1
loop_
 _symmetry_equiv_pos_site_id
 _symmetry_equiv_pos_as_xyz
  1  'x, y, z'
loop_
 _atom_site_type_symbol
 _atom_site_label
 _atom_site_symmetry_multiplicity
 _atom_site_fract_x
 _atom_site_fract_y
 _atom_site_fract_z
 _atom_site_occupancy
  Ho  Ho0  1  0.195044  0.387614  0.251849  1
  Ho  Ho1  1  0.804956  0.612386  0.748151  1
  Ho  Ho2  1  0.613844  0.802589  0.250950  1
  Ho  Ho3  1  0.386156  0.197411  0.749050  1
  Ho  Ho4  1  0.189460  0.804784  0.251688  1
  Ho  Ho5  1  0.810540  0.195216  0.748312  1
  Al  Al6  1  0.333228  0.667332  0.022011  1
  Al  Al7  1  0.666772  0.332668  0.977989  1
  Al  Al8  1  0.667935  0.333599  0.520834  1
  Al  Al9  1  0.332065  0.666401  0.479166  1
  Al  Al10  1  0.164168  0.327993  0.576652  1
  Al  Al11  1  0.835832  0.672007  0.423348  1
  Al  Al12  1  0.673346  0.835047  0.577245  1
  Al  Al13  1  0.834009  0.672578  0.077267  1
  Al  Al14  1  0.326654  0.164953  0.422755  1
  Al  Al15  1  0.165991  0.327422  0.922733  1
  Al  Al16  1  0.161999  0.835265  0.577990  1
  Al  Al17  1  0.326104  0.164864  0.077420  1
  Al  Al18  1  0.838001  0.164735  0.422010  1
  Al  Al19  1  0.673896  0.835136  0.922580  1
  Al  Al20  1  0.836145  0.162428  0.078269  1
  Al  Al21  1  0.163855  0.837572  0.921731  1
  Al  Al22  1  0.560261  0.120161  0.249640  1
  Al  Al23  1  0.439739  0.879839  0.750360  1
  Al  Al24  1  0.877074  0.438369  0.249951  1
  Al  Al25  1  0.122926  0.561631  0.750049  1
  Al  Al26  1  0.562121  0.436989  0.249644  1
  Al  Al27  1  0.437879  0.563011  0.750356  1
  Al  Al28  1  0.998732  0.998874  0.250034  1
  Al  Al29  1  0.001268  0.001126  0.749966  1
  Os  Os30  1  0.500000  0.500000  0.000000  1
  Os  Os31  1  0.000000  0.500000  0.500000  1
  Os  Os32  1  0.500000  0.500000  0.500000  1
  Os  Os33  1  0.000000  0.000000  0.000000  1
  Os  Os34  1  0.000000  0.000000  0.500000  1
  Rh  Rh35  1  0.500000  0.000000  0.000000  1
  Rh  Rh36  1  0.000000  0.500000  0.000000  1
  Rh  Rh37  1  0.500000  0.000000  0.500000  1
