# generated using pymatgen
data_Nd8Zn3Si12Ag
_symmetry_space_group_name_H-M   'P 1'
_cell_length_a   8.24510000
_cell_length_b   8.24510082
_cell_length_c   8.57009400
_cell_angle_alpha   90.00000000
_cell_angle_beta   90.00000000
_cell_angle_gamma   119.99999672
_symmetry_Int_Tables_number   1
_chemical_formula_structural   Nd8Zn3Si12Ag
_chemical_formula_sum   'Nd8 Zn3 Si12 Ag1'
_cell_volume   504.55455258
_cell_formula_units_Z   1
loop_
 _symmetry_equiv_pos_site_id
 _symmetry_equiv_pos_as_xyz
  1  'x, y, z'
loop_
 _atom_site_type_symbol
 _atom_site_label
 _atom_site_symmetry_multiplicity
 _atom_site_fract_x
 _atom_site_fract_y
 _atom_site_fract_z
 _atom_site_occupancy
  Nd  Nd0  1  0.498380  0.501620  0.751785  1
  Nd  Nd1  1  0.499296  0.500704  0.248153  1
  Nd  Nd2  1  0.003239  0.501620  0.751785  1
  Nd  Nd3  1  0.001407  0.500704  0.248153  1
  Nd  Nd4  1  0.498380  0.996761  0.751785  1
  Nd  Nd5  1  0.499296  0.998593  0.248153  1
  Nd  Nd6  1  0.000000  0.000000  0.749729  1
  Nd  Nd7  1  0.000000  0.000000  0.250546  1
  Zn  Zn8  1  0.666667  0.333333  0.996293  1
  Zn  Zn9  1  0.333333  0.666667  0.002821  1
  Zn  Zn10  1  0.333333  0.666667  0.497999  1
  Si  Si11  1  0.833695  0.166305  0.000800  1
  Si  Si12  1  0.166262  0.833738  0.999463  1
  Si  Si13  1  0.332610  0.166305  0.000800  1
  Si  Si14  1  0.165503  0.834497  0.499914  1
  Si  Si15  1  0.667476  0.833738  0.999463  1
  Si  Si16  1  0.836217  0.163783  0.500250  1
  Si  Si17  1  0.833695  0.667390  0.000800  1
  Si  Si18  1  0.668993  0.834497  0.499914  1
  Si  Si19  1  0.166262  0.332524  0.999463  1
  Si  Si20  1  0.327566  0.163783  0.500250  1
  Si  Si21  1  0.165503  0.331007  0.499914  1
  Si  Si22  1  0.836217  0.672434  0.500250  1
  Ag  Ag23  1  0.666667  0.333333  0.501516  1
