# generated using pymatgen
data_V(NiPt)4
_symmetry_space_group_name_H-M   'P 1'
_cell_length_a   5.92308436
_cell_length_b   5.92308467
_cell_length_c   5.92308465
_cell_angle_alpha   95.77547669
_cell_angle_beta   95.77547673
_cell_angle_gamma   143.00987618
_symmetry_Int_Tables_number   1
_chemical_formula_structural   V(NiPt)4
_chemical_formula_sum   'V1 Ni4 Pt4'
_cell_volume   118.57046623
_cell_formula_units_Z   1
loop_
 _symmetry_equiv_pos_site_id
 _symmetry_equiv_pos_as_xyz
  1  'x, y, z'
loop_
 _atom_site_type_symbol
 _atom_site_label
 _atom_site_symmetry_multiplicity
 _atom_site_fract_x
 _atom_site_fract_y
 _atom_site_fract_z
 _atom_site_occupancy
  V  V0  1  0.000000  0.000000  0.000000  1
  Ni  Ni1  1  0.340962  0.340962  0.681924  1
  Ni  Ni2  1  0.659038  0.659038  0.318076  1
  Ni  Ni3  1  0.659038  0.340962  0.000000  1
  Ni  Ni4  1  0.340962  0.659038  0.000000  1
  Pt  Pt5  1  0.000000  0.319480  0.319480  1
  Pt  Pt6  1  0.000000  0.680520  0.680520  1
  Pt  Pt7  1  0.680520  0.000000  0.680520  1
  Pt  Pt8  1  0.319480  0.000000  0.319480  1
