# generated using pymatgen
data_Ho16Tl4RuRh3
_symmetry_space_group_name_H-M   'P 1'
_cell_length_a   9.61722101
_cell_length_b   9.61908060
_cell_length_c   9.61722200
_cell_angle_alpha   60.00639835
_cell_angle_beta   60.00000347
_cell_angle_gamma   60.00640117
_symmetry_Int_Tables_number   1
_chemical_formula_structural   Ho16Tl4RuRh3
_chemical_formula_sum   'Ho16 Tl4 Ru1 Rh3'
_cell_volume   629.15813848
_cell_formula_units_Z   1
loop_
 _symmetry_equiv_pos_site_id
 _symmetry_equiv_pos_as_xyz
  1  'x, y, z'
loop_
 _atom_site_type_symbol
 _atom_site_label
 _atom_site_symmetry_multiplicity
 _atom_site_fract_x
 _atom_site_fract_y
 _atom_site_fract_z
 _atom_site_occupancy
  Ho  Ho0  1  0.187668  0.188332  0.812000  1
  Ho  Ho1  1  0.599240  0.600472  0.201048  1
  Ho  Ho2  1  0.438194  0.059458  0.438194  1
  Ho  Ho3  1  0.438129  0.438718  0.061577  1
  Ho  Ho4  1  0.812000  0.188332  0.812000  1
  Ho  Ho5  1  0.189397  0.812572  0.189397  1
  Ho  Ho6  1  0.438194  0.059458  0.064155  1
  Ho  Ho7  1  0.189397  0.812572  0.808635  1
  Ho  Ho8  1  0.061577  0.438718  0.061577  1
  Ho  Ho9  1  0.808635  0.812572  0.189397  1
  Ho  Ho10  1  0.201048  0.600472  0.599240  1
  Ho  Ho11  1  0.061577  0.438718  0.438129  1
  Ho  Ho12  1  0.064155  0.059458  0.438194  1
  Ho  Ho13  1  0.812000  0.188332  0.187668  1
  Ho  Ho14  1  0.600009  0.199974  0.600009  1
  Ho  Ho15  1  0.599240  0.600472  0.599240  1
  Tl  Tl16  1  0.835262  0.835720  0.835262  1
  Tl  Tl17  1  0.835262  0.835720  0.493759  1
  Tl  Tl18  1  0.493759  0.835720  0.835262  1
  Tl  Tl19  1  0.834821  0.495539  0.834821  1
  Ru  Ru20  1  0.392804  0.821588  0.392804  1
  Rh  Rh21  1  0.392448  0.392363  0.392448  1
  Rh  Rh22  1  0.822741  0.392363  0.392448  1
  Rh  Rh23  1  0.392448  0.392363  0.822741  1
