# generated using pymatgen
data_Nd2HoLuPt2
_symmetry_space_group_name_H-M   'P 1'
_cell_length_a   4.82854600
_cell_length_b   7.23926100
_cell_length_c   8.80069100
_cell_angle_alpha   90.00000000
_cell_angle_beta   90.00000000
_cell_angle_gamma   90.00000000
_symmetry_Int_Tables_number   1
_chemical_formula_structural   Nd2HoLuPt2
_chemical_formula_sum   'Nd4 Ho2 Lu2 Pt4'
_cell_volume   307.62907573
_cell_formula_units_Z   2
loop_
 _symmetry_equiv_pos_site_id
 _symmetry_equiv_pos_as_xyz
  1  'x, y, z'
loop_
 _atom_site_type_symbol
 _atom_site_label
 _atom_site_symmetry_multiplicity
 _atom_site_fract_x
 _atom_site_fract_y
 _atom_site_fract_z
 _atom_site_occupancy
  Nd  Nd0  1  0.750000  0.489836  0.173812  1
  Nd  Nd1  1  0.250000  0.010164  0.673812  1
  Nd  Nd2  1  0.750000  0.990635  0.325705  1
  Nd  Nd3  1  0.250000  0.509365  0.825705  1
  Ho  Ho4  1  0.750000  0.359570  0.578935  1
  Ho  Ho5  1  0.250000  0.140430  0.078935  1
  Lu  Lu6  1  0.750000  0.855385  0.921665  1
  Lu  Lu7  1  0.250000  0.644615  0.421665  1
  Pt  Pt8  1  0.750000  0.748596  0.589201  1
  Pt  Pt9  1  0.750000  0.242836  0.910685  1
  Pt  Pt10  1  0.250000  0.257164  0.410685  1
  Pt  Pt11  1  0.250000  0.751404  0.089201  1
