# generated using pymatgen
data_TbHo7Lu2(In2Pt)4
_symmetry_space_group_name_H-M   'P 1'
_cell_length_a   3.60154000
_cell_length_b   8.15598879
_cell_length_c   18.17137008
_cell_angle_alpha   90.06537595
_cell_angle_beta   90.00000000
_cell_angle_gamma   90.00000000
_symmetry_Int_Tables_number   1
_chemical_formula_structural   TbHo7Lu2(In2Pt)4
_chemical_formula_sum   'Tb1 Ho7 Lu2 In8 Pt4'
_cell_volume   533.76765542
_cell_formula_units_Z   1
loop_
 _symmetry_equiv_pos_site_id
 _symmetry_equiv_pos_as_xyz
  1  'x, y, z'
loop_
 _atom_site_type_symbol
 _atom_site_label
 _atom_site_symmetry_multiplicity
 _atom_site_fract_x
 _atom_site_fract_y
 _atom_site_fract_z
 _atom_site_occupancy
  Tb  Tb0  1  0.000000  0.500000  0.500000  1
  Ho  Ho1  1  0.000000  0.382937  0.914776  1
  Ho  Ho2  1  0.000000  0.617063  0.085224  1
  Ho  Ho3  1  0.000000  0.242545  0.220256  1
  Ho  Ho4  1  0.000000  0.757455  0.779744  1
  Ho  Ho5  1  0.000000  0.257595  0.719632  1
  Ho  Ho6  1  0.000000  0.742405  0.280368  1
  Ho  Ho7  1  0.000000  0.000000  0.000000  1
  Lu  Lu8  1  0.000000  0.116979  0.413848  1
  Lu  Lu9  1  0.000000  0.883021  0.586152  1
  In  In10  1  0.500000  0.421207  0.351097  1
  In  In11  1  0.500000  0.578793  0.648903  1
  In  In12  1  0.500000  0.075951  0.850874  1
  In  In13  1  0.500000  0.924049  0.149126  1
  In  In14  1  0.500000  0.292150  0.066468  1
  In  In15  1  0.500000  0.707850  0.933532  1
  In  In16  1  0.500000  0.203846  0.565531  1
  In  In17  1  0.500000  0.796154  0.434469  1
  Pt  Pt18  1  0.500000  0.025622  0.304893  1
  Pt  Pt19  1  0.500000  0.974378  0.695107  1
  Pt  Pt20  1  0.500000  0.475221  0.803167  1
  Pt  Pt21  1  0.500000  0.524779  0.196833  1
