# generated using pymatgen
data_Hf8In4CoNi7
_symmetry_space_group_name_H-M   'P 1'
_cell_length_a   7.22490693
_cell_length_b   7.22490693
_cell_length_c   6.53268849
_cell_angle_alpha   90.03108893
_cell_angle_beta   90.03108893
_cell_angle_gamma   90.16694485
_symmetry_Int_Tables_number   1
_chemical_formula_structural   Hf8In4CoNi7
_chemical_formula_sum   'Hf8 In4 Co1 Ni7'
_cell_volume   341.00008832
_cell_formula_units_Z   1
loop_
 _symmetry_equiv_pos_site_id
 _symmetry_equiv_pos_as_xyz
  1  'x, y, z'
loop_
 _atom_site_type_symbol
 _atom_site_label
 _atom_site_symmetry_multiplicity
 _atom_site_fract_x
 _atom_site_fract_y
 _atom_site_fract_z
 _atom_site_occupancy
  Hf  Hf0  1  0.172670  0.832731  0.497756  1
  Hf  Hf1  1  0.325122  0.325122  0.002486  1
  Hf  Hf2  1  0.658575  0.658575  0.500447  1
  Hf  Hf3  1  0.832731  0.172670  0.497756  1
  Hf  Hf4  1  0.161147  0.843708  0.002769  1
  Hf  Hf5  1  0.336051  0.336051  0.497524  1
  Hf  Hf6  1  0.671924  0.671924  0.999884  1
  Hf  Hf7  1  0.843708  0.161147  0.002769  1
  In  In8  1  0.502102  0.000311  0.750197  1
  In  In9  1  0.000187  0.500778  0.250426  1
  In  In10  1  0.000311  0.502102  0.750197  1
  In  In11  1  0.500778  0.000187  0.250426  1
  Co  Co12  1  0.124903  0.124903  0.261318  1
  Ni  Ni13  1  0.873942  0.873942  0.733867  1
  Ni  Ni14  1  0.871363  0.871363  0.266661  1
  Ni  Ni15  1  0.125527  0.125527  0.735969  1
  Ni  Ni16  1  0.374849  0.625155  0.234414  1
  Ni  Ni17  1  0.625061  0.373894  0.765359  1
  Ni  Ni18  1  0.373894  0.625061  0.765359  1
  Ni  Ni19  1  0.625155  0.374849  0.234414  1
