# generated using pymatgen
data_Nd4Tm2Si3Ge
_symmetry_space_group_name_H-M   'P 1'
_cell_length_a   7.58728844
_cell_length_b   7.58728903
_cell_length_c   4.41467900
_cell_angle_alpha   90.00000000
_cell_angle_beta   90.00000000
_cell_angle_gamma   90.44930368
_symmetry_Int_Tables_number   1
_chemical_formula_structural   Nd4Tm2Si3Ge
_chemical_formula_sum   'Nd4 Tm2 Si3 Ge1'
_cell_volume   254.13179258
_cell_formula_units_Z   1
loop_
 _symmetry_equiv_pos_site_id
 _symmetry_equiv_pos_as_xyz
  1  'x, y, z'
loop_
 _atom_site_type_symbol
 _atom_site_label
 _atom_site_symmetry_multiplicity
 _atom_site_fract_x
 _atom_site_fract_y
 _atom_site_fract_z
 _atom_site_occupancy
  Nd  Nd0  1  0.679305  0.176584  0.500000  1
  Nd  Nd1  1  0.323416  0.820695  0.500000  1
  Nd  Nd2  1  0.174936  0.325064  0.500000  1
  Nd  Nd3  1  0.823692  0.676308  0.500000  1
  Tm  Tm4  1  0.500929  0.502612  0.000000  1
  Tm  Tm5  1  0.997388  0.999071  0.000000  1
  Si  Si6  1  0.114512  0.614175  0.000000  1
  Si  Si7  1  0.885825  0.385488  0.000000  1
  Si  Si8  1  0.617406  0.882594  0.000000  1
  Ge  Ge9  1  0.382590  0.117410  0.000000  1
