# generated using pymatgen
data_Na3Ga2Au
_symmetry_space_group_name_H-M   'P 1'
_cell_length_a   9.24079096
_cell_length_b   9.24079037
_cell_length_c   9.24079200
_cell_angle_alpha   60.00000133
_cell_angle_beta   60.00000344
_cell_angle_gamma   60.00000432
_symmetry_Int_Tables_number   1
_chemical_formula_structural   Na3Ga2Au
_chemical_formula_sum   'Na12 Ga8 Au4'
_cell_volume   557.97210966
_cell_formula_units_Z   4
loop_
 _symmetry_equiv_pos_site_id
 _symmetry_equiv_pos_as_xyz
  1  'x, y, z'
loop_
 _atom_site_type_symbol
 _atom_site_label
 _atom_site_symmetry_multiplicity
 _atom_site_fract_x
 _atom_site_fract_y
 _atom_site_fract_z
 _atom_site_occupancy
  Na  Na0  1  0.452423  0.047577  0.047577  1
  Na  Na1  1  0.797577  0.202423  0.797577  1
  Na  Na2  1  0.452423  0.452423  0.047577  1
  Na  Na3  1  0.797577  0.797577  0.202423  1
  Na  Na4  1  0.202423  0.797577  0.797577  1
  Na  Na5  1  0.047577  0.452423  0.452423  1
  Na  Na6  1  0.047577  0.047577  0.452423  1
  Na  Na7  1  0.202423  0.202423  0.797577  1
  Na  Na8  1  0.452423  0.047577  0.452423  1
  Na  Na9  1  0.797577  0.202423  0.202423  1
  Na  Na10  1  0.047577  0.452423  0.047577  1
  Na  Na11  1  0.202423  0.797577  0.202423  1
  Ga  Ga12  1  0.421163  0.421163  0.421163  1
  Ga  Ga13  1  0.736511  0.421163  0.421163  1
  Ga  Ga14  1  0.828837  0.828837  0.828837  1
  Ga  Ga15  1  0.421163  0.421163  0.736511  1
  Ga  Ga16  1  0.828837  0.828837  0.513489  1
  Ga  Ga17  1  0.421163  0.736511  0.421163  1
  Ga  Ga18  1  0.828837  0.513489  0.828837  1
  Ga  Ga19  1  0.513489  0.828837  0.828837  1
  Au  Au20  1  0.625000  0.625000  0.125000  1
  Au  Au21  1  0.625000  0.125000  0.625000  1
  Au  Au22  1  0.125000  0.625000  0.625000  1
  Au  Au23  1  0.625000  0.625000  0.625000  1
