# generated using pymatgen
data_YbTm2Pa(ReB6)2
_symmetry_space_group_name_H-M   'P 1'
_cell_length_a   3.68221700
_cell_length_b   9.13478279
_cell_length_c   11.50366411
_cell_angle_alpha   90.32813241
_cell_angle_beta   90.00000000
_cell_angle_gamma   90.00000000
_symmetry_Int_Tables_number   1
_chemical_formula_structural   YbTm2Pa(ReB6)2
_chemical_formula_sum   'Yb2 Tm4 Pa2 Re4 B24'
_cell_volume   386.93380474
_cell_formula_units_Z   2
loop_
 _symmetry_equiv_pos_site_id
 _symmetry_equiv_pos_as_xyz
  1  'x, y, z'
loop_
 _atom_site_type_symbol
 _atom_site_label
 _atom_site_symmetry_multiplicity
 _atom_site_fract_x
 _atom_site_fract_y
 _atom_site_fract_z
 _atom_site_occupancy
  Yb  Yb0  1  0.000000  0.825537  0.085281  1
  Yb  Yb1  1  0.000000  0.174463  0.914719  1
  Tm  Tm2  1  0.000000  0.944482  0.370922  1
  Tm  Tm3  1  0.000000  0.055518  0.629078  1
  Tm  Tm4  1  0.000000  0.442147  0.129530  1
  Tm  Tm5  1  0.000000  0.557853  0.870470  1
  Pa  Pa6  1  0.000000  0.319806  0.413174  1
  Pa  Pa7  1  0.000000  0.680194  0.586826  1
  Re  Re8  1  0.000000  0.635175  0.324519  1
  Re  Re9  1  0.000000  0.364825  0.675481  1
  Re  Re10  1  0.000000  0.143274  0.184145  1
  Re  Re11  1  0.000000  0.856726  0.815855  1
  B  B12  1  0.500000  0.553485  0.432854  1
  B  B13  1  0.500000  0.446515  0.567146  1
  B  B14  1  0.500000  0.053911  0.067245  1
  B  B15  1  0.500000  0.946089  0.932755  1
  B  B16  1  0.500000  0.749505  0.418495  1
  B  B17  1  0.500000  0.250495  0.581505  1
  B  B18  1  0.500000  0.249957  0.080809  1
  B  B19  1  0.500000  0.750043  0.919191  1
  B  B20  1  0.500000  0.791751  0.265493  1
  B  B21  1  0.500000  0.208249  0.734507  1
  B  B22  1  0.500000  0.292780  0.234886  1
  B  B23  1  0.500000  0.707220  0.765114  1
  B  B24  1  0.500000  0.630251  0.185255  1
  B  B25  1  0.500000  0.369749  0.814745  1
  B  B26  1  0.500000  0.131986  0.314851  1
  B  B27  1  0.500000  0.868014  0.685149  1
  B  B28  1  0.500000  0.983197  0.211876  1
  B  B29  1  0.500000  0.016803  0.788124  1
  B  B30  1  0.500000  0.482436  0.287750  1
  B  B31  1  0.500000  0.517564  0.712250  1
  B  B32  1  0.500000  0.595731  0.026906  1
  B  B33  1  0.500000  0.404269  0.973094  1
  B  B34  1  0.500000  0.107233  0.470759  1
  B  B35  1  0.500000  0.892767  0.529241  1
