# generated using pymatgen
data_LiTm3Zn(SiAg)2
_symmetry_space_group_name_H-M   'P 1'
_cell_length_a   7.03839375
_cell_length_b   7.03839422
_cell_length_c   4.11074700
_cell_angle_alpha   90.00000000
_cell_angle_beta   90.00000000
_cell_angle_gamma   119.86692114
_symmetry_Int_Tables_number   1
_chemical_formula_structural   LiTm3Zn(SiAg)2
_chemical_formula_sum   'Li1 Tm3 Zn1 Si2 Ag2'
_cell_volume   176.59538566
_cell_formula_units_Z   1
loop_
 _symmetry_equiv_pos_site_id
 _symmetry_equiv_pos_as_xyz
  1  'x, y, z'
loop_
 _atom_site_type_symbol
 _atom_site_label
 _atom_site_symmetry_multiplicity
 _atom_site_fract_x
 _atom_site_fract_y
 _atom_site_fract_z
 _atom_site_occupancy
  Li  Li0  1  0.758640  0.758640  0.000000  1
  Tm  Tm1  1  0.421932  0.421932  0.500000  1
  Tm  Tm2  1  0.576054  0.997521  0.500000  1
  Tm  Tm3  1  0.997521  0.576054  0.500000  1
  Zn  Zn4  1  0.992891  0.992891  0.500000  1
  Si  Si5  1  0.666573  0.337214  0.000000  1
  Si  Si6  1  0.337214  0.666573  0.000000  1
  Ag  Ag7  1  0.250117  0.999058  0.000000  1
  Ag  Ag8  1  0.999058  0.250117  0.000000  1
