# generated using pymatgen
data_Hf3ReGe(MoP)2
_symmetry_space_group_name_H-M   'P 1'
_cell_length_a   6.99185906
_cell_length_b   7.01156358
_cell_length_c   3.39846400
_cell_angle_alpha   90.00000000
_cell_angle_beta   90.00000000
_cell_angle_gamma   119.92198078
_symmetry_Int_Tables_number   1
_chemical_formula_structural   Hf3ReGe(MoP)2
_chemical_formula_sum   'Hf3 Re1 Ge1 Mo2 P2'
_cell_volume   144.39818735
_cell_formula_units_Z   1
loop_
 _symmetry_equiv_pos_site_id
 _symmetry_equiv_pos_as_xyz
  1  'x, y, z'
loop_
 _atom_site_type_symbol
 _atom_site_label
 _atom_site_symmetry_multiplicity
 _atom_site_fract_x
 _atom_site_fract_y
 _atom_site_fract_z
 _atom_site_occupancy
  Hf  Hf0  1  0.009862  0.603706  0.500000  1
  Hf  Hf1  1  0.396057  0.406544  0.500000  1
  Hf  Hf2  1  0.592746  0.989850  0.500000  1
  Re  Re3  1  0.248437  0.994704  0.000000  1
  Ge  Ge4  1  0.666643  0.332870  0.000000  1
  Mo  Mo5  1  0.747389  0.752144  0.000000  1
  Mo  Mo6  1  0.006769  0.253492  0.000000  1
  P  P7  1  0.333299  0.666759  0.000000  1
  P  P8  1  0.998800  0.999930  0.500000  1
