# generated using pymatgen
data_Er11Tm9(IrPt5)2
_symmetry_space_group_name_H-M   'P 1'
_cell_length_a   10.93132801
_cell_length_b   10.93221301
_cell_length_c   6.35234301
_cell_angle_alpha   89.99579683
_cell_angle_beta   90.00544420
_cell_angle_gamma   89.99813423
_symmetry_Int_Tables_number   1
_chemical_formula_structural   Er11Tm9(IrPt5)2
_chemical_formula_sum   'Er11 Tm9 Ir2 Pt10'
_cell_volume   759.12789255
_cell_formula_units_Z   1
loop_
 _symmetry_equiv_pos_site_id
 _symmetry_equiv_pos_as_xyz
  1  'x, y, z'
loop_
 _atom_site_type_symbol
 _atom_site_label
 _atom_site_symmetry_multiplicity
 _atom_site_fract_x
 _atom_site_fract_y
 _atom_site_fract_z
 _atom_site_occupancy
  Er  Er0  1  0.587835  0.207914  0.376896  1
  Er  Er1  1  0.412245  0.792091  0.376910  1
  Er  Er2  1  0.412142  0.207926  0.876874  1
  Er  Er3  1  0.205692  0.412890  0.623750  1
  Er  Er4  1  0.205695  0.587123  0.123731  1
  Er  Er5  1  0.794304  0.412885  0.123751  1
  Er  Er6  1  0.794270  0.587160  0.623771  1
  Er  Er7  1  0.912832  0.705731  0.123736  1
  Er  Er8  1  0.912844  0.294250  0.623829  1
  Er  Er9  1  0.087125  0.705723  0.623771  1
  Er  Er10  1  0.087141  0.294262  0.123792  1
  Tm  Tm11  1  0.292080  0.087749  0.377014  1
  Tm  Tm12  1  0.292158  0.912245  0.877042  1
  Tm  Tm13  1  0.707908  0.087638  0.876995  1
  Tm  Tm14  1  0.707868  0.912210  0.377037  1
  Tm  Tm15  1  0.587842  0.792269  0.877021  1
  Tm  Tm16  1  0.000001  0.000009  0.500582  1
  Tm  Tm17  1  0.000011  0.999992  0.000563  1
  Tm  Tm18  1  0.500040  0.500102  0.000519  1
  Tm  Tm19  1  0.500011  0.500026  0.500617  1
  Ir  Ir20  1  0.999973  0.500003  0.879972  1
  Ir  Ir21  1  0.999989  0.499987  0.379947  1
  Pt  Pt22  1  0.845838  0.152610  0.249509  1
  Pt  Pt23  1  0.845651  0.847322  0.749593  1
  Pt  Pt24  1  0.154169  0.152628  0.749495  1
  Pt  Pt25  1  0.154160  0.847388  0.249478  1
  Pt  Pt26  1  0.652878  0.345834  0.749872  1
  Pt  Pt27  1  0.652810  0.654288  0.249515  1
  Pt  Pt28  1  0.347120  0.345858  0.249891  1
  Pt  Pt29  1  0.347252  0.654203  0.749922  1
  Pt  Pt30  1  0.500066  0.999823  0.117151  1
  Pt  Pt31  1  0.500050  0.999863  0.617441  1
