# generated using pymatgen
data_Ho12Co4BiIr
_symmetry_space_group_name_H-M   'P 1'
_cell_length_a   8.32950084
_cell_length_b   8.32950833
_cell_length_c   8.32950146
_cell_angle_alpha   111.15567105
_cell_angle_beta   110.57722803
_cell_angle_gamma   106.71592233
_symmetry_Int_Tables_number   1
_chemical_formula_structural   Ho12Co4BiIr
_chemical_formula_sum   'Ho12 Co4 Bi1 Ir1'
_cell_volume   444.09377699
_cell_formula_units_Z   1
loop_
 _symmetry_equiv_pos_site_id
 _symmetry_equiv_pos_as_xyz
  1  'x, y, z'
loop_
 _atom_site_type_symbol
 _atom_site_label
 _atom_site_symmetry_multiplicity
 _atom_site_fract_x
 _atom_site_fract_y
 _atom_site_fract_z
 _atom_site_occupancy
  Ho  Ho0  1  0.818112  0.714164  0.532276  1
  Ho  Ho1  1  0.181888  0.285836  0.467724  1
  Ho  Ho2  1  0.181889  0.714164  0.896053  1
  Ho  Ho3  1  0.818111  0.285836  0.103947  1
  Ho  Ho4  1  0.687914  0.378257  0.690344  1
  Ho  Ho5  1  0.312086  0.621743  0.309656  1
  Ho  Ho6  1  0.687913  0.997567  0.309654  1
  Ho  Ho7  1  0.312087  0.002433  0.690346  1
  Ho  Ho8  1  0.591477  0.788918  0.802562  1
  Ho  Ho9  1  0.408523  0.211082  0.197438  1
  Ho  Ho10  1  0.986357  0.788918  0.197441  1
  Ho  Ho11  1  0.013643  0.211082  0.802559  1
  Co  Co12  1  0.623022  0.000000  0.623022  1
  Co  Co13  1  0.376978  0.000000  0.376978  1
  Co  Co14  1  0.110613  0.610614  0.500001  1
  Co  Co15  1  0.889387  0.389386  0.499999  1
  Bi  Bi16  1  0.500000  0.500000  0.000000  1
  Ir  Ir17  1  0.000000  0.000000  0.000000  1
