# generated using pymatgen
data_Ho16TlIn3Ru3Rh
_symmetry_space_group_name_H-M   'P 1'
_cell_length_a   9.63718097
_cell_length_b   9.63718067
_cell_length_c   9.60425814
_cell_angle_alpha   59.77043283
_cell_angle_beta   59.77043317
_cell_angle_gamma   59.89846272
_symmetry_Int_Tables_number   1
_chemical_formula_structural   Ho16TlIn3Ru3Rh
_chemical_formula_sum   'Ho16 Tl1 In3 Ru3 Rh1'
_cell_volume   628.05993746
_cell_formula_units_Z   1
loop_
 _symmetry_equiv_pos_site_id
 _symmetry_equiv_pos_as_xyz
  1  'x, y, z'
loop_
 _atom_site_type_symbol
 _atom_site_label
 _atom_site_symmetry_multiplicity
 _atom_site_fract_x
 _atom_site_fract_y
 _atom_site_fract_z
 _atom_site_occupancy
  Ho  Ho0  1  0.189949  0.189949  0.807905  1
  Ho  Ho1  1  0.597773  0.597773  0.205830  1
  Ho  Ho2  1  0.441911  0.058489  0.440458  1
  Ho  Ho3  1  0.441454  0.441454  0.059754  1
  Ho  Ho4  1  0.811956  0.190645  0.807708  1
  Ho  Ho5  1  0.192630  0.808034  0.191186  1
  Ho  Ho6  1  0.439794  0.056976  0.060518  1
  Ho  Ho7  1  0.190645  0.811956  0.807708  1
  Ho  Ho8  1  0.056976  0.439794  0.060518  1
  Ho  Ho9  1  0.807863  0.807863  0.192006  1
  Ho  Ho10  1  0.204966  0.598640  0.597221  1
  Ho  Ho11  1  0.058489  0.441911  0.440458  1
  Ho  Ho12  1  0.059045  0.059045  0.438625  1
  Ho  Ho13  1  0.808034  0.192630  0.191186  1
  Ho  Ho14  1  0.598640  0.204966  0.597221  1
  Ho  Ho15  1  0.598901  0.598901  0.597723  1
  Tl  Tl16  1  0.835020  0.835020  0.834345  1
  In  In17  1  0.832645  0.832645  0.500804  1
  In  In18  1  0.501494  0.832611  0.831894  1
  In  In19  1  0.832611  0.501494  0.831894  1
  Ru  Ru20  1  0.389614  0.830347  0.392014  1
  Ru  Ru21  1  0.388715  0.388715  0.391583  1
  Ru  Ru22  1  0.830347  0.389614  0.392014  1
  Rh  Rh23  1  0.390526  0.390526  0.829427  1
