# generated using pymatgen
data_Ac5Nd3(LuPb4)2
_symmetry_space_group_name_H-M   'P 1'
_cell_length_a   8.60229900
_cell_length_b   8.69371650
_cell_length_c   16.70698700
_cell_angle_alpha   90.05141235
_cell_angle_beta   90.00000000
_cell_angle_gamma   90.00000000
_symmetry_Int_Tables_number   1
_chemical_formula_structural   Ac5Nd3(LuPb4)2
_chemical_formula_sum   'Ac10 Nd6 Lu4 Pb16'
_cell_volume   1249.44737060
_cell_formula_units_Z   2
loop_
 _symmetry_equiv_pos_site_id
 _symmetry_equiv_pos_as_xyz
  1  'x, y, z'
loop_
 _atom_site_type_symbol
 _atom_site_label
 _atom_site_symmetry_multiplicity
 _atom_site_fract_x
 _atom_site_fract_y
 _atom_site_fract_z
 _atom_site_occupancy
  Ac  Ac0  1  0.374154  0.844572  0.616257  1
  Ac  Ac1  1  0.874154  0.655428  0.883743  1
  Ac  Ac2  1  0.532404  0.320414  0.903150  1
  Ac  Ac3  1  0.032404  0.179586  0.596850  1
  Ac  Ac4  1  0.467462  0.676756  0.399249  1
  Ac  Ac5  1  0.967462  0.823244  0.100751  1
  Ac  Ac6  1  0.468140  0.677949  0.099888  1
  Ac  Ac7  1  0.968140  0.822051  0.400112  1
  Ac  Ac8  1  0.532467  0.321815  0.597850  1
  Ac  Ac9  1  0.032467  0.178185  0.902150  1
  Nd  Nd10  1  0.372431  0.844878  0.879777  1
  Nd  Nd11  1  0.872431  0.655122  0.620223  1
  Nd  Nd12  1  0.627037  0.154101  0.379113  1
  Nd  Nd13  1  0.127037  0.345899  0.120887  1
  Nd  Nd14  1  0.624777  0.154368  0.122563  1
  Nd  Nd15  1  0.124777  0.345632  0.377437  1
  Lu  Lu16  1  0.210920  0.504586  0.749852  1
  Lu  Lu17  1  0.710920  0.995414  0.750148  1
  Lu  Lu18  1  0.789159  0.493718  0.250861  1
  Lu  Lu19  1  0.289159  0.006282  0.249139  1
  Pb  Pb20  1  0.287688  0.037048  0.048360  1
  Pb  Pb21  1  0.787688  0.462952  0.451640  1
  Pb  Pb22  1  0.720455  0.965720  0.546695  1
  Pb  Pb23  1  0.220455  0.534280  0.953305  1
  Pb  Pb24  1  0.706284  0.970639  0.953730  1
  Pb  Pb25  1  0.206284  0.529361  0.546270  1
  Pb  Pb26  1  0.287748  0.041212  0.446478  1
  Pb  Pb27  1  0.787748  0.458788  0.053522  1
  Pb  Pb28  1  0.568384  0.627393  0.749933  1
  Pb  Pb29  1  0.068384  0.872607  0.750067  1
  Pb  Pb30  1  0.430813  0.366577  0.250130  1
  Pb  Pb31  1  0.930813  0.133423  0.249870  1
  Pb  Pb32  1  0.341604  0.152017  0.751295  1
  Pb  Pb33  1  0.841604  0.347983  0.748705  1
  Pb  Pb34  1  0.658073  0.851872  0.250129  1
  Pb  Pb35  1  0.158073  0.648128  0.249871  1
