# generated using pymatgen
data_Tb3Co4Cu2Ni5B4
_symmetry_space_group_name_H-M   'P 1'
_cell_length_a   5.04358560
_cell_length_b   5.03274871
_cell_length_c   9.90219500
_cell_angle_alpha   89.99999931
_cell_angle_beta   89.99977913
_cell_angle_gamma   119.91584563
_symmetry_Int_Tables_number   1
_chemical_formula_structural   Tb3Co4Cu2Ni5B4
_chemical_formula_sum   'Tb3 Co4 Cu2 Ni5 B4'
_cell_volume   217.85844733
_cell_formula_units_Z   1
loop_
 _symmetry_equiv_pos_site_id
 _symmetry_equiv_pos_as_xyz
  1  'x, y, z'
loop_
 _atom_site_type_symbol
 _atom_site_label
 _atom_site_symmetry_multiplicity
 _atom_site_fract_x
 _atom_site_fract_y
 _atom_site_fract_z
 _atom_site_occupancy
  Tb  Tb0  1  0.999986  0.000002  0.996440  1
  Tb  Tb1  1  0.999999  0.000001  0.344241  1
  Tb  Tb2  1  0.999997  0.999999  0.656529  1
  Co  Co3  1  0.499999  0.000001  0.499346  1
  Co  Co4  1  0.499999  0.500000  0.499356  1
  Co  Co5  1  0.999997  0.499999  0.500477  1
  Co  Co6  1  0.999990  0.499998  0.790003  1
  Cu  Cu7  1  0.329910  0.664947  0.999874  1
  Cu  Cu8  1  0.670069  0.335056  0.999874  1
  Ni  Ni9  1  0.499999  0.000001  0.207503  1
  Ni  Ni10  1  0.499997  0.500001  0.207526  1
  Ni  Ni11  1  0.999998  0.500002  0.206684  1
  Ni  Ni12  1  0.499990  0.999996  0.793953  1
  Ni  Ni13  1  0.499989  0.499999  0.793935  1
  B  B14  1  0.332107  0.666062  0.352911  1
  B  B15  1  0.667889  0.333939  0.352910  1
  B  B16  1  0.669999  0.334971  0.649221  1
  B  B17  1  0.329986  0.665025  0.649219  1
