# generated using pymatgen
data_Ta5NbCo2(BRu2)4
_symmetry_space_group_name_H-M   'P 1'
_cell_length_a   9.26194948
_cell_length_b   9.26194948
_cell_length_c   3.04222700
_cell_angle_alpha   90.00000000
_cell_angle_beta   90.00000000
_cell_angle_gamma   90.03679520
_symmetry_Int_Tables_number   1
_chemical_formula_structural   Ta5NbCo2(BRu2)4
_chemical_formula_sum   'Ta5 Nb1 Co2 B4 Ru8'
_cell_volume   260.97345920
_cell_formula_units_Z   1
loop_
 _symmetry_equiv_pos_site_id
 _symmetry_equiv_pos_as_xyz
  1  'x, y, z'
loop_
 _atom_site_type_symbol
 _atom_site_label
 _atom_site_symmetry_multiplicity
 _atom_site_fract_x
 _atom_site_fract_y
 _atom_site_fract_z
 _atom_site_occupancy
  Ta  Ta0  1  0.174129  0.325871  0.000000  1
  Ta  Ta1  1  0.325881  0.826046  0.000000  1
  Ta  Ta2  1  0.673954  0.174119  0.000000  1
  Ta  Ta3  1  0.500248  0.500020  0.000000  1
  Ta  Ta4  1  0.999980  0.999752  0.000000  1
  Nb  Nb5  1  0.825610  0.674390  0.000000  1
  Co  Co6  1  0.499658  0.000342  0.500000  1
  Co  Co7  1  0.000117  0.499883  0.500000  1
  B  B8  1  0.605730  0.894270  0.000000  1
  B  B9  1  0.394043  0.105957  0.000000  1
  B  B10  1  0.106509  0.605805  0.000000  1
  B  B11  1  0.894195  0.393491  0.000000  1
  Ru  Ru12  1  0.565889  0.724951  0.500000  1
  Ru  Ru13  1  0.433348  0.275605  0.500000  1
  Ru  Ru14  1  0.067247  0.775538  0.500000  1
  Ru  Ru15  1  0.933760  0.224203  0.500000  1
  Ru  Ru16  1  0.275797  0.566240  0.500000  1
  Ru  Ru17  1  0.724462  0.432753  0.500000  1
  Ru  Ru18  1  0.224395  0.066652  0.500000  1
  Ru  Ru19  1  0.775049  0.934111  0.500000  1
