# generated using pymatgen
data_DyHo9InPb5
_symmetry_space_group_name_H-M   'P 1'
_cell_length_a   9.00947412
_cell_length_b   9.01472341
_cell_length_c   6.64997300
_cell_angle_alpha   90.00000000
_cell_angle_beta   90.00000000
_cell_angle_gamma   119.99946348
_symmetry_Int_Tables_number   1
_chemical_formula_structural   DyHo9InPb5
_chemical_formula_sum   'Dy1 Ho9 In1 Pb5'
_cell_volume   467.74021389
_cell_formula_units_Z   1
loop_
 _symmetry_equiv_pos_site_id
 _symmetry_equiv_pos_as_xyz
  1  'x, y, z'
loop_
 _atom_site_type_symbol
 _atom_site_label
 _atom_site_symmetry_multiplicity
 _atom_site_fract_x
 _atom_site_fract_y
 _atom_site_fract_z
 _atom_site_occupancy
  Dy  Dy0  1  0.237177  0.236887  0.750000  1
  Ho  Ho1  1  0.335811  0.669555  0.001726  1
  Ho  Ho2  1  0.666339  0.330524  0.498285  1
  Ho  Ho3  1  0.666339  0.330524  0.001715  1
  Ho  Ho4  1  0.335811  0.669555  0.498274  1
  Ho  Ho5  1  0.238677  0.999930  0.250000  1
  Ho  Ho6  1  0.000232  0.763099  0.750000  1
  Ho  Ho7  1  0.995829  0.234247  0.250000  1
  Ho  Ho8  1  0.761761  0.765855  0.250000  1
  Ho  Ho9  1  0.762541  0.999933  0.750000  1
  In  In10  1  0.603709  0.999973  0.250000  1
  Pb  Pb11  1  0.605334  0.604319  0.750000  1
  Pb  Pb12  1  0.000792  0.395891  0.750000  1
  Pb  Pb13  1  0.999836  0.605502  0.250000  1
  Pb  Pb14  1  0.394292  0.394415  0.250000  1
  Pb  Pb15  1  0.395522  0.999792  0.750000  1
