# generated using pymatgen
data_SrEuHo2F10
_symmetry_space_group_name_H-M   'P 1'
_cell_length_a   8.19914454
_cell_length_b   8.19914288
_cell_length_c   5.77206013
_cell_angle_alpha   89.05978714
_cell_angle_beta   89.05979295
_cell_angle_gamma   149.43394889
_symmetry_Int_Tables_number   1
_chemical_formula_structural   SrEuHo2F10
_chemical_formula_sum   'Sr1 Eu1 Ho2 F10'
_cell_volume   196.94383128
_cell_formula_units_Z   1
loop_
 _symmetry_equiv_pos_site_id
 _symmetry_equiv_pos_as_xyz
  1  'x, y, z'
loop_
 _atom_site_type_symbol
 _atom_site_label
 _atom_site_symmetry_multiplicity
 _atom_site_fract_x
 _atom_site_fract_y
 _atom_site_fract_z
 _atom_site_occupancy
  Sr  Sr0  1  0.676589  0.323411  0.250000  1
  Eu  Eu1  1  0.323514  0.676486  0.750000  1
  Ho  Ho2  1  0.075150  0.924850  0.750000  1
  Ho  Ho3  1  0.924782  0.075218  0.250000  1
  F  F4  1  0.730245  0.807619  0.602053  1
  F  F5  1  0.807694  0.730162  0.102016  1
  F  F6  1  0.803128  0.180937  0.004478  1
  F  F7  1  0.621350  0.378650  0.750000  1
  F  F8  1  0.819063  0.196872  0.495522  1
  F  F9  1  0.180858  0.803203  0.504195  1
  F  F10  1  0.378612  0.621388  0.250000  1
  F  F11  1  0.196797  0.819142  0.995805  1
  F  F12  1  0.192381  0.269755  0.897947  1
  F  F13  1  0.269838  0.192306  0.397984  1
