# generated using pymatgen
data_Y2Tm6Re(B8Ir)3
_symmetry_space_group_name_H-M   'P 1'
_cell_length_a   3.63555400
_cell_length_b   9.12663416
_cell_length_c   11.47090800
_cell_angle_alpha   90.13999658
_cell_angle_beta   90.00000000
_cell_angle_gamma   90.00000000
_symmetry_Int_Tables_number   1
_chemical_formula_structural   Y2Tm6Re(B8Ir)3
_chemical_formula_sum   'Y2 Tm6 Re1 B24 Ir3'
_cell_volume   380.60785068
_cell_formula_units_Z   1
loop_
 _symmetry_equiv_pos_site_id
 _symmetry_equiv_pos_as_xyz
  1  'x, y, z'
loop_
 _atom_site_type_symbol
 _atom_site_label
 _atom_site_symmetry_multiplicity
 _atom_site_fract_x
 _atom_site_fract_y
 _atom_site_fract_z
 _atom_site_occupancy
  Y  Y0  1  0.000000  0.320507  0.413670  1
  Y  Y1  1  0.000000  0.683248  0.590366  1
  Tm  Tm2  1  0.000000  0.820248  0.082339  1
  Tm  Tm3  1  0.000000  0.176151  0.912460  1
  Tm  Tm4  1  0.000000  0.943730  0.372957  1
  Tm  Tm5  1  0.000000  0.053690  0.626672  1
  Tm  Tm6  1  0.000000  0.443500  0.125698  1
  Tm  Tm7  1  0.000000  0.557467  0.875232  1
  Re  Re8  1  0.000000  0.862832  0.821887  1
  B  B9  1  0.500000  0.554156  0.433933  1
  B  B10  1  0.500000  0.447190  0.566996  1
  B  B11  1  0.500000  0.053328  0.065891  1
  B  B12  1  0.500000  0.947007  0.933827  1
  B  B13  1  0.500000  0.750926  0.420077  1
  B  B14  1  0.500000  0.249761  0.579701  1
  B  B15  1  0.500000  0.249245  0.078512  1
  B  B16  1  0.500000  0.751522  0.920428  1
  B  B17  1  0.500000  0.792743  0.264078  1
  B  B18  1  0.500000  0.207198  0.734300  1
  B  B19  1  0.500000  0.293028  0.234425  1
  B  B20  1  0.500000  0.707932  0.766760  1
  B  B21  1  0.500000  0.631279  0.183561  1
  B  B22  1  0.500000  0.368085  0.816504  1
  B  B23  1  0.500000  0.131269  0.315428  1
  B  B24  1  0.500000  0.869620  0.685718  1
  B  B25  1  0.500000  0.981008  0.212763  1
  B  B26  1  0.500000  0.018159  0.786866  1
  B  B27  1  0.500000  0.481498  0.286615  1
  B  B28  1  0.500000  0.517898  0.714710  1
  B  B29  1  0.500000  0.607528  0.030723  1
  B  B30  1  0.500000  0.390060  0.970416  1
  B  B31  1  0.500000  0.107322  0.469999  1
  B  B32  1  0.500000  0.893670  0.528121  1
  Ir  Ir33  1  0.000000  0.638326  0.321042  1
  Ir  Ir34  1  0.000000  0.361687  0.679400  1
  Ir  Ir35  1  0.000000  0.137185  0.177922  1
