# generated using pymatgen
data_Sc4Be(SiIr)6
_symmetry_space_group_name_H-M   'P 1'
_cell_length_a   6.94520385
_cell_length_b   6.94520384
_cell_length_c   6.94520293
_cell_angle_alpha   109.41863905
_cell_angle_beta   109.41863536
_cell_angle_gamma   109.57643622
_symmetry_Int_Tables_number   1
_chemical_formula_structural   Sc4Be(SiIr)6
_chemical_formula_sum   'Sc4 Be1 Si6 Ir6'
_cell_volume   257.88848911
_cell_formula_units_Z   1
loop_
 _symmetry_equiv_pos_site_id
 _symmetry_equiv_pos_as_xyz
  1  'x, y, z'
loop_
 _atom_site_type_symbol
 _atom_site_label
 _atom_site_symmetry_multiplicity
 _atom_site_fract_x
 _atom_site_fract_y
 _atom_site_fract_z
 _atom_site_occupancy
  Sc  Sc0  1  0.003155  0.996845  0.500000  1
  Sc  Sc1  1  0.003155  0.503155  0.006310  1
  Sc  Sc2  1  0.496845  0.996845  0.993690  1
  Sc  Sc3  1  0.496845  0.503155  0.500000  1
  Be  Be4  1  0.750000  0.250000  0.500000  1
  Si  Si5  1  0.680933  0.680933  0.000000  1
  Si  Si6  1  0.310442  0.996414  0.314029  1
  Si  Si7  1  0.003586  0.317615  0.314029  1
  Si  Si8  1  0.319067  0.319067  0.000000  1
  Si  Si9  1  0.682385  0.996414  0.685971  1
  Si  Si10  1  0.003586  0.689558  0.685971  1
  Ir  Ir11  1  0.742554  0.485139  0.257416  1
  Ir  Ir12  1  0.514861  0.257446  0.742584  1
  Ir  Ir13  1  0.227723  0.485139  0.742584  1
  Ir  Ir14  1  0.250000  0.750000  0.500000  1
  Ir  Ir15  1  0.514861  0.772277  0.257416  1
  Ir  Ir16  1  0.000000  0.000000  0.000000  1
