# generated using pymatgen
data_HfZrCS
_symmetry_space_group_name_H-M   'P 1'
_cell_length_a   3.40331800
_cell_length_b   3.40331813
_cell_length_c   12.18446300
_cell_angle_alpha   90.00000000
_cell_angle_beta   90.00000000
_cell_angle_gamma   119.99999870
_symmetry_Int_Tables_number   1
_chemical_formula_structural   HfZrCS
_chemical_formula_sum   'Hf2 Zr2 C2 S2'
_cell_volume   122.21995216
_cell_formula_units_Z   2
loop_
 _symmetry_equiv_pos_site_id
 _symmetry_equiv_pos_as_xyz
  1  'x, y, z'
loop_
 _atom_site_type_symbol
 _atom_site_label
 _atom_site_symmetry_multiplicity
 _atom_site_fract_x
 _atom_site_fract_y
 _atom_site_fract_z
 _atom_site_occupancy
  Hf  Hf0  1  0.333333  0.666667  0.399707  1
  Hf  Hf1  1  0.666667  0.333333  0.899707  1
  Zr  Zr2  1  0.666667  0.333333  0.601044  1
  Zr  Zr3  1  0.333333  0.666667  0.101044  1
  C  C4  1  0.000000  0.000000  0.496167  1
  C  C5  1  0.000000  0.000000  0.996167  1
  S  S6  1  0.666667  0.333333  0.253081  1
  S  S7  1  0.333333  0.666667  0.753081  1
