# generated using pymatgen
data_Sr2GePd2
_symmetry_space_group_name_H-M   'P 1'
_cell_length_a   9.45576950
_cell_length_b   8.41667717
_cell_length_c   6.00998059
_cell_angle_alpha   80.01088583
_cell_angle_beta   61.23690487
_cell_angle_gamma   38.75221375
_symmetry_Int_Tables_number   1
_chemical_formula_structural   Sr2GePd2
_chemical_formula_sum   'Sr4 Ge2 Pd4'
_cell_volume   244.06640346
_cell_formula_units_Z   2
loop_
 _symmetry_equiv_pos_site_id
 _symmetry_equiv_pos_as_xyz
  1  'x, y, z'
loop_
 _atom_site_type_symbol
 _atom_site_label
 _atom_site_symmetry_multiplicity
 _atom_site_fract_x
 _atom_site_fract_y
 _atom_site_fract_z
 _atom_site_occupancy
  Sr  Sr0  1  0.032330  0.062031  0.635703  1
  Sr  Sr1  1  0.269934  0.635703  0.062031  1
  Sr  Sr2  1  0.614297  0.980066  0.217670  1
  Sr  Sr3  1  0.187969  0.217670  0.980066  1
  Ge  Ge4  1  0.890498  0.609502  0.609502  1
  Ge  Ge5  1  0.640498  0.359502  0.359502  1
  Pd  Pd6  1  0.617934  0.630593  0.061310  1
  Pd  Pd7  1  0.690162  0.061310  0.630593  1
  Pd  Pd8  1  0.188690  0.559838  0.632066  1
  Pd  Pd9  1  0.619407  0.632066  0.559838  1
