# generated using pymatgen
data_Dy4Lu(SiB4)2
_symmetry_space_group_name_H-M   'P 1'
_cell_length_a   7.20942300
_cell_length_b   7.20942300
_cell_length_c   8.03041000
_cell_angle_alpha   90.00000000
_cell_angle_beta   90.00000000
_cell_angle_gamma   90.00000000
_symmetry_Int_Tables_number   1
_chemical_formula_structural   Dy4Lu(SiB4)2
_chemical_formula_sum   'Dy8 Lu2 Si4 B16'
_cell_volume   417.38682341
_cell_formula_units_Z   2
loop_
 _symmetry_equiv_pos_site_id
 _symmetry_equiv_pos_as_xyz
  1  'x, y, z'
loop_
 _atom_site_type_symbol
 _atom_site_label
 _atom_site_symmetry_multiplicity
 _atom_site_fract_x
 _atom_site_fract_y
 _atom_site_fract_z
 _atom_site_occupancy
  Dy  Dy0  1  0.680340  0.180340  0.225497  1
  Dy  Dy1  1  0.319660  0.819660  0.774503  1
  Dy  Dy2  1  0.319660  0.819660  0.225497  1
  Dy  Dy3  1  0.819660  0.680340  0.225497  1
  Dy  Dy4  1  0.819660  0.680340  0.774503  1
  Dy  Dy5  1  0.680340  0.180340  0.774503  1
  Dy  Dy6  1  0.180340  0.319660  0.774503  1
  Dy  Dy7  1  0.180340  0.319660  0.225497  1
  Lu  Lu8  1  0.000000  0.000000  0.500000  1
  Lu  Lu9  1  0.500000  0.500000  0.500000  1
  Si  Si10  1  0.115842  0.615842  0.500000  1
  Si  Si11  1  0.884158  0.384158  0.500000  1
  Si  Si12  1  0.384158  0.115842  0.500000  1
  Si  Si13  1  0.615842  0.884158  0.500000  1
  B  B14  1  0.172695  0.039264  0.000000  1
  B  B15  1  0.827305  0.960736  0.000000  1
  B  B16  1  0.960736  0.172695  0.000000  1
  B  B17  1  0.327305  0.539264  0.000000  1
  B  B18  1  0.039264  0.827305  0.000000  1
  B  B19  1  0.672695  0.460736  0.000000  1
  B  B20  1  0.539264  0.672695  0.000000  1
  B  B21  1  0.460736  0.327305  0.000000  1
  B  B22  1  0.089529  0.589529  0.000000  1
  B  B23  1  0.910471  0.410471  0.000000  1
  B  B24  1  0.410471  0.089529  0.000000  1
  B  B25  1  0.589529  0.910471  0.000000  1
  B  B26  1  0.000000  0.000000  0.163986  1
  B  B27  1  0.000000  0.000000  0.836014  1
  B  B28  1  0.500000  0.500000  0.836014  1
  B  B29  1  0.500000  0.500000  0.163986  1
