# generated using pymatgen
data_Hf7Zr3ZnGaSn6
_symmetry_space_group_name_H-M   'P 1'
_cell_length_a   8.66065100
_cell_length_b   8.66065194
_cell_length_c   5.85289400
_cell_angle_alpha   90.00000000
_cell_angle_beta   90.00000000
_cell_angle_gamma   120.00000786
_symmetry_Int_Tables_number   1
_chemical_formula_structural   Hf7Zr3ZnGaSn6
_chemical_formula_sum   'Hf7 Zr3 Zn1 Ga1 Sn6'
_cell_volume   380.19147937
_cell_formula_units_Z   1
loop_
 _symmetry_equiv_pos_site_id
 _symmetry_equiv_pos_as_xyz
  1  'x, y, z'
loop_
 _atom_site_type_symbol
 _atom_site_label
 _atom_site_symmetry_multiplicity
 _atom_site_fract_x
 _atom_site_fract_y
 _atom_site_fract_z
 _atom_site_occupancy
  Hf  Hf0  1  0.269594  0.269594  0.251491  1
  Hf  Hf1  1  0.730406  0.000000  0.251491  1
  Hf  Hf2  1  0.000000  0.730406  0.251491  1
  Hf  Hf3  1  0.666667  0.333333  0.001017  1
  Hf  Hf4  1  0.333333  0.666667  0.001017  1
  Hf  Hf5  1  0.333333  0.666667  0.498996  1
  Hf  Hf6  1  0.666667  0.333333  0.498996  1
  Zr  Zr7  1  0.733952  0.733952  0.748226  1
  Zr  Zr8  1  0.266048  0.000000  0.748226  1
  Zr  Zr9  1  0.000000  0.266048  0.748226  1
  Zn  Zn10  1  0.000000  0.000000  0.005166  1
  Ga  Ga11  1  0.000000  0.000000  0.495637  1
  Sn  Sn12  1  0.386723  0.386723  0.749939  1
  Sn  Sn13  1  0.613277  0.000000  0.749939  1
  Sn  Sn14  1  0.000000  0.613277  0.749939  1
  Sn  Sn15  1  0.613762  0.613762  0.250068  1
  Sn  Sn16  1  0.386238  0.000000  0.250068  1
  Sn  Sn17  1  0.000000  0.386238  0.250068  1
