# generated using pymatgen
data_Dy2Er6In3Ni
_symmetry_space_group_name_H-M   'P 1'
_cell_length_a   10.37469500
_cell_length_b   10.37279005
_cell_length_c   6.91750200
_cell_angle_alpha   89.99982182
_cell_angle_beta   90.00000000
_cell_angle_gamma   120.00607204
_symmetry_Int_Tables_number   1
_chemical_formula_structural   Dy2Er6In3Ni
_chemical_formula_sum   'Dy4 Er12 In6 Ni2'
_cell_volume   644.65042767
_cell_formula_units_Z   2
loop_
 _symmetry_equiv_pos_site_id
 _symmetry_equiv_pos_as_xyz
  1  'x, y, z'
loop_
 _atom_site_type_symbol
 _atom_site_label
 _atom_site_symmetry_multiplicity
 _atom_site_fract_x
 _atom_site_fract_y
 _atom_site_fract_z
 _atom_site_occupancy
  Dy  Dy0  1  0.533028  0.066054  0.793347  1
  Dy  Dy1  1  0.934201  0.467344  0.794306  1
  Dy  Dy2  1  0.533144  0.467344  0.794306  1
  Dy  Dy3  1  0.466856  0.933711  0.293396  1
  Er  Er4  1  0.066626  0.533125  0.294410  1
  Er  Er5  1  0.466499  0.533125  0.294410  1
  Er  Er6  1  0.822726  0.645453  0.498968  1
  Er  Er7  1  0.353921  0.177307  0.499362  1
  Er  Er8  1  0.823386  0.177307  0.499362  1
  Er  Er9  1  0.177175  0.354350  0.000684  1
  Er  Er10  1  0.645919  0.822813  0.000226  1
  Er  Er11  1  0.176895  0.822813  0.000226  1
  Er  Er12  1  0.666912  0.333824  0.180487  1
  Er  Er13  1  0.333163  0.666327  0.679883  1
  Er  Er14  1  0.000051  0.000102  0.777739  1
  Er  Er15  1  0.999970  0.999939  0.278261  1
  In  In16  1  0.837591  0.675184  0.037654  1
  In  In17  1  0.325341  0.162505  0.037560  1
  In  In18  1  0.837163  0.162505  0.037560  1
  In  In19  1  0.162923  0.325846  0.536990  1
  In  In20  1  0.674380  0.837075  0.537364  1
  In  In21  1  0.162694  0.837075  0.537364  1
  Ni  Ni22  1  0.666619  0.333237  0.565762  1
  Ni  Ni23  1  0.332817  0.665634  0.066280  1
