# generated using pymatgen
data_Ba6Mn3InNiO15
_symmetry_space_group_name_H-M   'P 1'
_cell_length_a   7.30925360
_cell_length_b   7.41047644
_cell_length_c   7.35338155
_cell_angle_alpha   87.44856542
_cell_angle_beta   88.06468475
_cell_angle_gamma   88.31274892
_symmetry_Int_Tables_number   1
_chemical_formula_structural   Ba6Mn3InNiO15
_chemical_formula_sum   'Ba6 Mn3 In1 Ni1 O15'
_cell_volume   397.51873520
_cell_formula_units_Z   1
loop_
 _symmetry_equiv_pos_site_id
 _symmetry_equiv_pos_as_xyz
  1  'x, y, z'
loop_
 _atom_site_type_symbol
 _atom_site_label
 _atom_site_symmetry_multiplicity
 _atom_site_fract_x
 _atom_site_fract_y
 _atom_site_fract_z
 _atom_site_occupancy
  Ba  Ba0  1  0.325595  0.671444  0.995332  1
  Ba  Ba1  1  0.998024  0.324050  0.672147  1
  Ba  Ba2  1  0.672832  0.000480  0.327998  1
  Ba  Ba3  1  0.140760  0.852983  0.503998  1
  Ba  Ba4  1  0.505940  0.141695  0.858009  1
  Ba  Ba5  1  0.857444  0.503680  0.140085  1
  Mn  Mn6  1  0.291579  0.289026  0.290566  1
  Mn  Mn7  1  0.715806  0.708091  0.711541  1
  Mn  Mn8  1  0.089703  0.097817  0.093210  1
  In  In9  1  0.498708  0.502587  0.500705  1
  Ni  Ni10  1  0.903747  0.904590  0.905595  1
  O  O11  1  0.143867  0.003983  0.856031  1
  O  O12  1  0.853932  0.164244  0.008440  1
  O  O13  1  0.998129  0.859459  0.146964  1
  O  O14  1  0.038555  0.194106  0.332948  1
  O  O15  1  0.333380  0.039585  0.196480  1
  O  O16  1  0.199261  0.332423  0.037809  1
  O  O17  1  0.804858  0.958979  0.666971  1
  O  O18  1  0.668368  0.799914  0.961777  1
  O  O19  1  0.964964  0.651180  0.794716  1
  O  O20  1  0.369505  0.229946  0.532829  1
  O  O21  1  0.532921  0.369873  0.231966  1
  O  O22  1  0.229160  0.529613  0.365971  1
  O  O23  1  0.767515  0.634985  0.465588  1
  O  O24  1  0.466685  0.768216  0.633328  1
  O  O25  1  0.628758  0.467053  0.768997  1
