# generated using pymatgen
data_Er8In4Pd7Au
_symmetry_space_group_name_H-M   'P 1'
_cell_length_a   7.75059785
_cell_length_b   7.75059812
_cell_length_c   7.33415388
_cell_angle_alpha   90.00917699
_cell_angle_beta   90.00917888
_cell_angle_gamma   89.77593294
_symmetry_Int_Tables_number   1
_chemical_formula_structural   Er8In4Pd7Au
_chemical_formula_sum   'Er8 In4 Pd7 Au1'
_cell_volume   440.57221801
_cell_formula_units_Z   1
loop_
 _symmetry_equiv_pos_site_id
 _symmetry_equiv_pos_as_xyz
  1  'x, y, z'
loop_
 _atom_site_type_symbol
 _atom_site_label
 _atom_site_symmetry_multiplicity
 _atom_site_fract_x
 _atom_site_fract_y
 _atom_site_fract_z
 _atom_site_occupancy
  Er  Er0  1  0.832072  0.162392  0.503438  1
  Er  Er1  1  0.162392  0.832072  0.503438  1
  Er  Er2  1  0.340410  0.340410  0.996800  1
  Er  Er3  1  0.664724  0.664724  0.999739  1
  Er  Er4  1  0.679960  0.679960  0.500526  1
  Er  Er5  1  0.323616  0.323616  0.502546  1
  Er  Er6  1  0.178841  0.815796  0.997278  1
  Er  Er7  1  0.815796  0.178841  0.997278  1
  In  In8  1  0.503512  0.998091  0.250345  1
  In  In9  1  0.999785  0.498464  0.750185  1
  In  In10  1  0.498464  0.999785  0.750185  1
  In  In11  1  0.998091  0.503512  0.250345  1
  Pd  Pd12  1  0.628610  0.372781  0.266489  1
  Pd  Pd13  1  0.372781  0.628610  0.266489  1
  Pd  Pd14  1  0.128437  0.128437  0.766379  1
  Pd  Pd15  1  0.872416  0.872416  0.766602  1
  Pd  Pd16  1  0.373777  0.628518  0.733105  1
  Pd  Pd17  1  0.628518  0.373777  0.733105  1
  Pd  Pd18  1  0.871659  0.871659  0.233291  1
  Au  Au19  1  0.126136  0.126136  0.232436  1
