# generated using pymatgen
data_Ac2Tb2Zn4Si3Ge
_symmetry_space_group_name_H-M   'P 1'
_cell_length_a   4.30908200
_cell_length_b   4.30907985
_cell_length_c   16.67602000
_cell_angle_alpha   90.00000000
_cell_angle_beta   90.00000000
_cell_angle_gamma   120.00001648
_symmetry_Int_Tables_number   1
_chemical_formula_structural   Ac2Tb2Zn4Si3Ge
_chemical_formula_sum   'Ac2 Tb2 Zn4 Si3 Ge1'
_cell_volume   268.15893227
_cell_formula_units_Z   1
loop_
 _symmetry_equiv_pos_site_id
 _symmetry_equiv_pos_as_xyz
  1  'x, y, z'
loop_
 _atom_site_type_symbol
 _atom_site_label
 _atom_site_symmetry_multiplicity
 _atom_site_fract_x
 _atom_site_fract_y
 _atom_site_fract_z
 _atom_site_occupancy
  Ac  Ac0  1  0.000000  0.000000  0.001616  1
  Ac  Ac1  1  0.000000  0.000000  0.499301  1
  Tb  Tb2  1  0.000000  0.000000  0.250488  1
  Tb  Tb3  1  0.000000  0.000000  0.748620  1
  Zn  Zn4  1  0.333333  0.666667  0.153720  1
  Zn  Zn5  1  0.666667  0.333333  0.843777  1
  Zn  Zn6  1  0.666667  0.333333  0.651998  1
  Zn  Zn7  1  0.333333  0.666667  0.347519  1
  Si  Si8  1  0.333333  0.666667  0.627789  1
  Si  Si9  1  0.666667  0.333333  0.371637  1
  Si  Si10  1  0.666667  0.333333  0.129112  1
  Ge  Ge11  1  0.333333  0.666667  0.874424  1
