# generated using pymatgen
data_YbCeB2(IrN)2
_symmetry_space_group_name_H-M   'P 1'
_cell_length_a   3.79877300
_cell_length_b   3.79877300
_cell_length_c   7.41791700
_cell_angle_alpha   90.00000000
_cell_angle_beta   90.00000000
_cell_angle_gamma   90.00000000
_symmetry_Int_Tables_number   1
_chemical_formula_structural   YbCeB2(IrN)2
_chemical_formula_sum   'Yb1 Ce1 B2 Ir2 N2'
_cell_volume   107.04555909
_cell_formula_units_Z   1
loop_
 _symmetry_equiv_pos_site_id
 _symmetry_equiv_pos_as_xyz
  1  'x, y, z'
loop_
 _atom_site_type_symbol
 _atom_site_label
 _atom_site_symmetry_multiplicity
 _atom_site_fract_x
 _atom_site_fract_y
 _atom_site_fract_z
 _atom_site_occupancy
  Yb  Yb0  1  0.500000  0.000000  0.167875  1
  Ce  Ce1  1  0.000000  0.500000  0.841614  1
  B  B2  1  0.000000  0.500000  0.343993  1
  B  B3  1  0.500000  0.000000  0.651361  1
  Ir  Ir4  1  0.000000  0.000000  0.499029  1
  Ir  Ir5  1  0.500000  0.500000  0.499029  1
  N  N6  1  0.000000  0.500000  0.145928  1
  N  N7  1  0.500000  0.000000  0.851172  1
