# generated using pymatgen
data_Sc9Re3WSe
_symmetry_space_group_name_H-M   'P 1'
_cell_length_a   8.56614700
_cell_length_b   8.75324339
_cell_length_c   8.75324100
_cell_angle_alpha   120.01181465
_cell_angle_beta   90.00000000
_cell_angle_gamma   90.00000000
_symmetry_Int_Tables_number   1
_chemical_formula_structural   Sc9Re3WSe
_chemical_formula_sum   'Sc18 Re6 W2 Se2'
_cell_volume   568.33228695
_cell_formula_units_Z   2
loop_
 _symmetry_equiv_pos_site_id
 _symmetry_equiv_pos_as_xyz
  1  'x, y, z'
loop_
 _atom_site_type_symbol
 _atom_site_label
 _atom_site_symmetry_multiplicity
 _atom_site_fract_x
 _atom_site_fract_y
 _atom_site_fract_z
 _atom_site_occupancy
  Sc  Sc0  1  0.546937  0.805161  0.610304  1
  Sc  Sc1  1  0.546880  0.805147  0.194853  1
  Sc  Sc2  1  0.546937  0.389696  0.194839  1
  Sc  Sc3  1  0.453063  0.194839  0.389696  1
  Sc  Sc4  1  0.453120  0.194853  0.805147  1
  Sc  Sc5  1  0.453063  0.610304  0.805161  1
  Sc  Sc6  1  0.046937  0.194839  0.389696  1
  Sc  Sc7  1  0.046880  0.194853  0.805147  1
  Sc  Sc8  1  0.046937  0.610304  0.805161  1
  Sc  Sc9  1  0.953063  0.805161  0.610304  1
  Sc  Sc10  1  0.953120  0.805147  0.194853  1
  Sc  Sc11  1  0.953063  0.389696  0.194839  1
  Sc  Sc12  1  0.750000  0.457882  0.915777  1
  Sc  Sc13  1  0.750000  0.457867  0.542133  1
  Sc  Sc14  1  0.750000  0.084223  0.542118  1
  Sc  Sc15  1  0.250000  0.542118  0.084223  1
  Sc  Sc16  1  0.250000  0.542133  0.457867  1
  Sc  Sc17  1  0.250000  0.915777  0.457882  1
  Re  Re18  1  0.750000  0.107948  0.215854  1
  Re  Re19  1  0.750000  0.107942  0.892058  1
  Re  Re20  1  0.750000  0.784146  0.892052  1
  Re  Re21  1  0.250000  0.892052  0.784146  1
  Re  Re22  1  0.250000  0.892058  0.107942  1
  Re  Re23  1  0.250000  0.215854  0.107948  1
  W  W24  1  0.500000  0.000000  0.000000  1
  W  W25  1  0.000000  0.000000  0.000000  1
  Se  Se26  1  0.750000  0.666693  0.333307  1
  Se  Se27  1  0.250000  0.333307  0.666693  1
