# generated using pymatgen
data_Na2BeCu17Si8
_symmetry_space_group_name_H-M   'P 1'
_cell_length_a   8.16056308
_cell_length_b   8.11271442
_cell_length_c   8.04547660
_cell_angle_alpha   60.66657523
_cell_angle_beta   60.07416246
_cell_angle_gamma   59.25927021
_symmetry_Int_Tables_number   1
_chemical_formula_structural   Na2BeCu17Si8
_chemical_formula_sum   'Na2 Be1 Cu17 Si8'
_cell_volume   376.52280240
_cell_formula_units_Z   1
loop_
 _symmetry_equiv_pos_site_id
 _symmetry_equiv_pos_as_xyz
  1  'x, y, z'
loop_
 _atom_site_type_symbol
 _atom_site_label
 _atom_site_symmetry_multiplicity
 _atom_site_fract_x
 _atom_site_fract_y
 _atom_site_fract_z
 _atom_site_occupancy
  Na  Na0  1  0.250000  0.250000  0.250000  1
  Na  Na1  1  0.750000  0.750000  0.750000  1
  Be  Be2  1  0.000000  0.000000  0.000000  1
  Cu  Cu3  1  0.715232  0.284768  0.062818  1
  Cu  Cu4  1  0.284768  0.715232  0.937182  1
  Cu  Cu5  1  0.199284  0.800716  0.438501  1
  Cu  Cu6  1  0.800716  0.199284  0.561499  1
  Cu  Cu7  1  0.438501  0.561499  0.199284  1
  Cu  Cu8  1  0.561499  0.438501  0.800716  1
  Cu  Cu9  1  0.062818  0.937182  0.715232  1
  Cu  Cu10  1  0.937182  0.062818  0.284768  1
  Cu  Cu11  1  0.443642  0.189633  0.810367  1
  Cu  Cu12  1  0.189633  0.443642  0.556358  1
  Cu  Cu13  1  0.938080  0.698161  0.061920  1
  Cu  Cu14  1  0.698161  0.938080  0.301839  1
  Cu  Cu15  1  0.556358  0.810367  0.189633  1
  Cu  Cu16  1  0.810367  0.556358  0.443642  1
  Cu  Cu17  1  0.061920  0.301839  0.938080  1
  Cu  Cu18  1  0.301839  0.061920  0.698161  1
  Cu  Cu19  1  0.500000  0.500000  0.500000  1
  Si  Si20  1  0.709390  0.060741  0.939259  1
  Si  Si21  1  0.060741  0.709390  0.290610  1
  Si  Si22  1  0.204706  0.559621  0.795294  1
  Si  Si23  1  0.559621  0.204706  0.440379  1
  Si  Si24  1  0.290610  0.939259  0.060741  1
  Si  Si25  1  0.939259  0.290610  0.709390  1
  Si  Si26  1  0.795294  0.440379  0.204706  1
  Si  Si27  1  0.440379  0.795294  0.559621  1
