# generated using pymatgen
data_Tb4DyP12Ru10Rh9
_symmetry_space_group_name_H-M   'P 1'
_cell_length_a   12.63582961
_cell_length_b   12.59043654
_cell_length_c   3.92997800
_cell_angle_alpha   90.00000000
_cell_angle_beta   90.00000000
_cell_angle_gamma   119.94526192
_symmetry_Int_Tables_number   1
_chemical_formula_structural   Tb4DyP12Ru10Rh9
_chemical_formula_sum   'Tb4 Dy1 P12 Ru10 Rh9'
_cell_volume   541.75706401
_cell_formula_units_Z   1
loop_
 _symmetry_equiv_pos_site_id
 _symmetry_equiv_pos_as_xyz
  1  'x, y, z'
loop_
 _atom_site_type_symbol
 _atom_site_label
 _atom_site_symmetry_multiplicity
 _atom_site_fract_x
 _atom_site_fract_y
 _atom_site_fract_z
 _atom_site_occupancy
  Tb  Tb0  1  0.666418  0.332422  0.000000  1
  Tb  Tb1  1  0.333558  0.667055  0.000000  1
  Tb  Tb2  1  0.812453  0.000620  0.500000  1
  Tb  Tb3  1  0.185128  0.187276  0.500000  1
  Dy  Dy4  1  0.000145  0.813367  0.500000  1
  P  P5  1  0.630973  0.997538  0.000000  1
  P  P6  1  0.366239  0.371939  0.000000  1
  P  P7  1  0.006421  0.634045  0.000000  1
  P  P8  1  0.686736  0.519484  0.500000  1
  P  P9  1  0.831066  0.308344  0.500000  1
  P  P10  1  0.314933  0.832814  0.500000  1
  P  P11  1  0.518248  0.685806  0.500000  1
  P  P12  1  0.180370  0.001096  0.000000  1
  P  P13  1  0.819657  0.818774  0.000000  1
  P  P14  1  0.996125  0.180819  0.000000  1
  P  P15  1  0.478753  0.164917  0.500000  1
  P  P16  1  0.167951  0.482948  0.500000  1
  Ru  Ru17  1  0.126867  0.641654  0.500000  1
  Ru  Ru18  1  0.360517  0.486801  0.500000  1
  Ru  Ru19  1  0.513168  0.872074  0.500000  1
  Ru  Ru20  1  0.716872  0.715158  0.500000  1
  Ru  Ru21  1  0.000963  0.285590  0.500000  1
  Ru  Ru22  1  0.450561  0.002537  0.000000  1
  Ru  Ru23  1  0.553247  0.547371  0.000000  1
  Ru  Ru24  1  0.000236  0.449707  0.000000  1
  Ru  Ru25  1  0.817255  0.195460  0.000000  1
  Ru  Ru26  1  0.283672  0.001096  0.500000  1
  Rh  Rh27  1  0.624251  0.803095  0.000000  1
  Rh  Rh28  1  0.180693  0.376160  0.000000  1
  Rh  Rh29  1  0.375020  0.183682  0.000000  1
  Rh  Rh30  1  0.196019  0.821562  0.000000  1
  Rh  Rh31  1  0.808912  0.624239  0.000000  1
  Rh  Rh32  1  0.870272  0.507935  0.500000  1
  Rh  Rh33  1  0.489717  0.359271  0.500000  1
  Rh  Rh34  1  0.637098  0.127290  0.500000  1
  Rh  Rh35  1  0.999488  0.000054  0.000000  1
