# generated using pymatgen
data_LaYbPd4
_symmetry_space_group_name_H-M   'P 1'
_cell_length_a   5.50627832
_cell_length_b   5.50627771
_cell_length_c   5.50627900
_cell_angle_alpha   59.99999827
_cell_angle_beta   60.00000193
_cell_angle_gamma   60.00000456
_symmetry_Int_Tables_number   1
_chemical_formula_structural   LaYbPd4
_chemical_formula_sum   'La1 Yb1 Pd4'
_cell_volume   118.04823605
_cell_formula_units_Z   1
loop_
 _symmetry_equiv_pos_site_id
 _symmetry_equiv_pos_as_xyz
  1  'x, y, z'
loop_
 _atom_site_type_symbol
 _atom_site_label
 _atom_site_symmetry_multiplicity
 _atom_site_fract_x
 _atom_site_fract_y
 _atom_site_fract_z
 _atom_site_occupancy
  La  La0  1  0.250000  0.250000  0.250000  1
  Yb  Yb1  1  0.000000  0.000000  0.000000  1
  Pd  Pd2  1  0.625409  0.625409  0.123773  1
  Pd  Pd3  1  0.625409  0.123773  0.625409  1
  Pd  Pd4  1  0.123773  0.625409  0.625409  1
  Pd  Pd5  1  0.625409  0.625409  0.625409  1
