# generated using pymatgen
data_CaScCoB6
_symmetry_space_group_name_H-M   'P 1'
_cell_length_a   3.41791000
_cell_length_b   8.96867700
_cell_length_c   11.34874800
_cell_angle_alpha   90.00000000
_cell_angle_beta   90.00000000
_cell_angle_gamma   90.00000000
_symmetry_Int_Tables_number   1
_chemical_formula_structural   CaScCoB6
_chemical_formula_sum   'Ca4 Sc4 Co4 B24'
_cell_volume   347.88600567
_cell_formula_units_Z   4
loop_
 _symmetry_equiv_pos_site_id
 _symmetry_equiv_pos_as_xyz
  1  'x, y, z'
loop_
 _atom_site_type_symbol
 _atom_site_label
 _atom_site_symmetry_multiplicity
 _atom_site_fract_x
 _atom_site_fract_y
 _atom_site_fract_z
 _atom_site_occupancy
  Ca  Ca0  1  0.000000  0.323192  0.415433  1
  Ca  Ca1  1  0.000000  0.676808  0.584567  1
  Ca  Ca2  1  0.000000  0.823192  0.084567  1
  Ca  Ca3  1  0.000000  0.176808  0.915433  1
  Sc  Sc4  1  0.000000  0.944674  0.370891  1
  Sc  Sc5  1  0.000000  0.055326  0.629109  1
  Sc  Sc6  1  0.000000  0.444674  0.129109  1
  Sc  Sc7  1  0.000000  0.555326  0.870891  1
  Co  Co8  1  0.000000  0.642762  0.316863  1
  Co  Co9  1  0.000000  0.357238  0.683137  1
  Co  Co10  1  0.000000  0.142762  0.183137  1
  Co  Co11  1  0.000000  0.857238  0.816863  1
  B  B12  1  0.500000  0.557240  0.430498  1
  B  B13  1  0.500000  0.442760  0.569502  1
  B  B14  1  0.500000  0.057240  0.069502  1
  B  B15  1  0.500000  0.942760  0.930498  1
  B  B16  1  0.500000  0.751721  0.416315  1
  B  B17  1  0.500000  0.248279  0.583685  1
  B  B18  1  0.500000  0.251721  0.083685  1
  B  B19  1  0.500000  0.748279  0.916315  1
  B  B20  1  0.500000  0.792607  0.264747  1
  B  B21  1  0.500000  0.207393  0.735253  1
  B  B22  1  0.500000  0.292607  0.235253  1
  B  B23  1  0.500000  0.707393  0.764747  1
  B  B24  1  0.500000  0.631024  0.183476  1
  B  B25  1  0.500000  0.368976  0.816524  1
  B  B26  1  0.500000  0.131024  0.316524  1
  B  B27  1  0.500000  0.868976  0.683476  1
  B  B28  1  0.500000  0.987167  0.213366  1
  B  B29  1  0.500000  0.012833  0.786634  1
  B  B30  1  0.500000  0.487167  0.286634  1
  B  B31  1  0.500000  0.512833  0.713366  1
  B  B32  1  0.500000  0.598245  0.025945  1
  B  B33  1  0.500000  0.401755  0.974055  1
  B  B34  1  0.500000  0.098245  0.474055  1
  B  B35  1  0.500000  0.901755  0.525945  1
