# generated using pymatgen
data_Sm2H(Pd2Pt)2
_symmetry_space_group_name_H-M   'P 1'
_cell_length_a   5.94508607
_cell_length_b   5.94508570
_cell_length_c   5.92890600
_cell_angle_alpha   60.08998659
_cell_angle_beta   60.08998862
_cell_angle_gamma   59.85040887
_symmetry_Int_Tables_number   1
_chemical_formula_structural   Sm2H(Pd2Pt)2
_chemical_formula_sum   'Sm2 H1 Pd4 Pt2'
_cell_volume   148.20760492
_cell_formula_units_Z   1
loop_
 _symmetry_equiv_pos_site_id
 _symmetry_equiv_pos_as_xyz
  1  'x, y, z'
loop_
 _atom_site_type_symbol
 _atom_site_label
 _atom_site_symmetry_multiplicity
 _atom_site_fract_x
 _atom_site_fract_y
 _atom_site_fract_z
 _atom_site_occupancy
  Sm  Sm0  1  0.250520  0.250520  0.257021  1
  Sm  Sm1  1  0.749480  0.749480  0.758060  1
  H  H2  1  0.500000  0.500000  0.437084  1
  Pd  Pd3  1  0.753259  0.753259  0.255192  1
  Pd  Pd4  1  0.246741  0.246741  0.761710  1
  Pd  Pd5  1  0.751799  0.248201  0.759490  1
  Pd  Pd6  1  0.248201  0.751799  0.759490  1
  Pt  Pt7  1  0.754913  0.245087  0.255976  1
  Pt  Pt8  1  0.245087  0.754913  0.255976  1
