# generated using pymatgen
data_Dy12Si12Os3Ru
_symmetry_space_group_name_H-M   'P 1'
_cell_length_a   4.20273000
_cell_length_b   10.72199372
_cell_length_c   12.38823338
_cell_angle_alpha   90.03523544
_cell_angle_beta   90.00000000
_cell_angle_gamma   90.00000000
_symmetry_Int_Tables_number   1
_chemical_formula_structural   Dy12Si12Os3Ru
_chemical_formula_sum   'Dy12 Si12 Os3 Ru1'
_cell_volume   558.23406524
_cell_formula_units_Z   1
loop_
 _symmetry_equiv_pos_site_id
 _symmetry_equiv_pos_as_xyz
  1  'x, y, z'
loop_
 _atom_site_type_symbol
 _atom_site_label
 _atom_site_symmetry_multiplicity
 _atom_site_fract_x
 _atom_site_fract_y
 _atom_site_fract_z
 _atom_site_occupancy
  Dy  Dy0  1  0.250000  0.880612  0.021534  1
  Dy  Dy1  1  0.250000  0.619162  0.521371  1
  Dy  Dy2  1  0.750000  0.119686  0.978813  1
  Dy  Dy3  1  0.750000  0.380758  0.478571  1
  Dy  Dy4  1  0.250000  0.920574  0.604524  1
  Dy  Dy5  1  0.250000  0.579160  0.104797  1
  Dy  Dy6  1  0.750000  0.079372  0.395047  1
  Dy  Dy7  1  0.750000  0.420469  0.895293  1
  Dy  Dy8  1  0.250000  0.663249  0.800621  1
  Dy  Dy9  1  0.250000  0.837275  0.300346  1
  Dy  Dy10  1  0.750000  0.337435  0.199627  1
  Dy  Dy11  1  0.750000  0.162793  0.699279  1
  Si  Si12  1  0.250000  0.009620  0.820776  1
  Si  Si13  1  0.250000  0.492617  0.320503  1
  Si  Si14  1  0.750000  0.992219  0.179313  1
  Si  Si15  1  0.750000  0.507682  0.679556  1
  Si  Si16  1  0.250000  0.248746  0.841456  1
  Si  Si17  1  0.250000  0.251458  0.341785  1
  Si  Si18  1  0.750000  0.750884  0.158582  1
  Si  Si19  1  0.750000  0.748292  0.657365  1
  Si  Si20  1  0.250000  0.202698  0.543206  1
  Si  Si21  1  0.250000  0.297563  0.043454  1
  Si  Si22  1  0.750000  0.797098  0.456378  1
  Si  Si23  1  0.750000  0.700498  0.958248  1
  Os  Os24  1  0.250000  0.388513  0.680655  1
  Os  Os25  1  0.250000  0.111600  0.180935  1
  Os  Os26  1  0.750000  0.611585  0.319354  1
  Ru  Ru27  1  0.750000  0.888383  0.818610  1
