# generated using pymatgen
data_Sr2Al7Au
_symmetry_space_group_name_H-M   'P 1'
_cell_length_a   4.42488200
_cell_length_b   4.42488200
_cell_length_c   11.26393200
_cell_angle_alpha   90.00000000
_cell_angle_beta   90.00000000
_cell_angle_gamma   90.00000000
_symmetry_Int_Tables_number   1
_chemical_formula_structural   Sr2Al7Au
_chemical_formula_sum   'Sr2 Al7 Au1'
_cell_volume   220.54306575
_cell_formula_units_Z   1
loop_
 _symmetry_equiv_pos_site_id
 _symmetry_equiv_pos_as_xyz
  1  'x, y, z'
loop_
 _atom_site_type_symbol
 _atom_site_label
 _atom_site_symmetry_multiplicity
 _atom_site_fract_x
 _atom_site_fract_y
 _atom_site_fract_z
 _atom_site_occupancy
  Sr  Sr0  1  0.000000  0.000000  0.997599  1
  Sr  Sr1  1  0.500000  0.500000  0.496145  1
  Al  Al2  1  0.000000  0.500000  0.245523  1
  Al  Al3  1  0.500000  0.000000  0.751151  1
  Al  Al4  1  0.500000  0.000000  0.245523  1
  Al  Al5  1  0.000000  0.500000  0.751151  1
  Al  Al6  1  0.000000  0.000000  0.616125  1
  Al  Al7  1  0.000000  0.000000  0.383597  1
  Al  Al8  1  0.500000  0.500000  0.892362  1
  Au  Au9  1  0.500000  0.500000  0.120824  1
