# generated using pymatgen
data_NdDy2Sc3MnBi2
_symmetry_space_group_name_H-M   'P 1'
_cell_length_a   4.33567200
_cell_length_b   7.99852953
_cell_length_c   7.99852890
_cell_angle_alpha   120.23554532
_cell_angle_beta   90.00000000
_cell_angle_gamma   90.00000000
_symmetry_Int_Tables_number   1
_chemical_formula_structural   NdDy2Sc3MnBi2
_chemical_formula_sum   'Nd1 Dy2 Sc3 Mn1 Bi2'
_cell_volume   239.64679126
_cell_formula_units_Z   1
loop_
 _symmetry_equiv_pos_site_id
 _symmetry_equiv_pos_as_xyz
  1  'x, y, z'
loop_
 _atom_site_type_symbol
 _atom_site_label
 _atom_site_symmetry_multiplicity
 _atom_site_fract_x
 _atom_site_fract_y
 _atom_site_fract_z
 _atom_site_occupancy
  Nd  Nd0  1  0.000000  0.393000  0.393000  1
  Dy  Dy1  1  0.000000  0.000979  0.611527  1
  Dy  Dy2  1  0.000000  0.611527  0.000979  1
  Sc  Sc3  1  0.500000  0.776696  0.776696  1
  Sc  Sc4  1  0.500000  0.998287  0.221024  1
  Sc  Sc5  1  0.500000  0.221024  0.998287  1
  Mn  Mn6  1  0.000000  0.995173  0.995173  1
  Bi  Bi7  1  0.500000  0.671240  0.332073  1
  Bi  Bi8  1  0.500000  0.332073  0.671240  1
