# generated using pymatgen
data_U4GaSi2Tc7As3
_symmetry_space_group_name_H-M   'P 1'
_cell_length_a   7.19331553
_cell_length_b   7.19331612
_cell_length_c   7.18547861
_cell_angle_alpha   109.56589945
_cell_angle_beta   109.49527488
_cell_angle_gamma   109.39679780
_symmetry_Int_Tables_number   1
_chemical_formula_structural   U4GaSi2Tc7As3
_chemical_formula_sum   'U4 Ga1 Si2 Tc7 As3'
_cell_volume   286.05769266
_cell_formula_units_Z   1
loop_
 _symmetry_equiv_pos_site_id
 _symmetry_equiv_pos_as_xyz
  1  'x, y, z'
loop_
 _atom_site_type_symbol
 _atom_site_label
 _atom_site_symmetry_multiplicity
 _atom_site_fract_x
 _atom_site_fract_y
 _atom_site_fract_z
 _atom_site_occupancy
  U  U0  1  0.488816  0.489824  0.492046  1
  U  U1  1  0.001755  0.507314  0.004449  1
  U  U2  1  0.497135  0.002694  0.004449  1
  U  U3  1  0.002222  0.003230  0.492046  1
  Ga  Ga4  1  0.697679  0.000289  0.697967  1
  Si  Si5  1  0.996744  0.310802  0.307546  1
  Si  Si6  1  0.321819  0.999883  0.321702  1
  Tc  Tc7  1  0.497867  0.749256  0.247123  1
  Tc  Tc8  1  0.749038  0.248148  0.495427  1
  Tc  Tc9  1  0.247279  0.746388  0.495427  1
  Tc  Tc10  1  0.245803  0.497100  0.742903  1
  Tc  Tc11  1  0.016905  0.005725  0.022630  1
  Tc  Tc12  1  0.498102  0.248815  0.746916  1
  Tc  Tc13  1  0.748671  0.496250  0.244921  1
  As  As14  1  0.690961  0.694588  0.997181  1
  As  As15  1  0.302593  0.306220  0.997181  1
  As  As16  1  0.996608  0.693475  0.690084  1
