# generated using pymatgen
data_Er9Lu11Sn16
_symmetry_space_group_name_H-M   'P 1'
_cell_length_a   7.92639408
_cell_length_b   8.04862099
_cell_length_c   15.21596602
_cell_angle_alpha   90.02702043
_cell_angle_beta   90.00437021
_cell_angle_gamma   90.06173423
_symmetry_Int_Tables_number   1
_chemical_formula_structural   Er9Lu11Sn16
_chemical_formula_sum   'Er9 Lu11 Sn16'
_cell_volume   970.72533763
_cell_formula_units_Z   1
loop_
 _symmetry_equiv_pos_site_id
 _symmetry_equiv_pos_as_xyz
  1  'x, y, z'
loop_
 _atom_site_type_symbol
 _atom_site_label
 _atom_site_symmetry_multiplicity
 _atom_site_fract_x
 _atom_site_fract_y
 _atom_site_fract_z
 _atom_site_occupancy
  Er  Er0  1  0.866213  0.663413  0.877688  1
  Er  Er1  1  0.520525  0.321213  0.904168  1
  Er  Er2  1  0.020695  0.178694  0.595591  1
  Er  Er3  1  0.479169  0.678403  0.403914  1
  Er  Er4  1  0.978731  0.822459  0.097370  1
  Er  Er5  1  0.480613  0.677903  0.096205  1
  Er  Er6  1  0.979393  0.821779  0.403489  1
  Er  Er7  1  0.519805  0.321163  0.595383  1
  Er  Er8  1  0.020445  0.178387  0.903725  1
  Lu  Lu9  1  0.364671  0.837531  0.876194  1
  Lu  Lu10  1  0.865284  0.661926  0.623065  1
  Lu  Lu11  1  0.634855  0.161549  0.376660  1
  Lu  Lu12  1  0.134959  0.337957  0.123647  1
  Lu  Lu13  1  0.633750  0.161907  0.124595  1
  Lu  Lu14  1  0.134626  0.337523  0.376609  1
  Lu  Lu15  1  0.366038  0.838143  0.622755  1
  Lu  Lu16  1  0.196838  0.504634  0.749724  1
  Lu  Lu17  1  0.696270  0.995802  0.749323  1
  Lu  Lu18  1  0.803560  0.495156  0.250381  1
  Lu  Lu19  1  0.303153  0.004512  0.250013  1
  Sn  Sn20  1  0.296153  0.039229  0.041406  1
  Sn  Sn21  1  0.796551  0.460801  0.458262  1
  Sn  Sn22  1  0.704467  0.960426  0.541148  1
  Sn  Sn23  1  0.206801  0.538136  0.958996  1
  Sn  Sn24  1  0.701469  0.963601  0.958702  1
  Sn  Sn25  1  0.202940  0.539450  0.541345  1
  Sn  Sn26  1  0.296178  0.039036  0.458387  1
  Sn  Sn27  1  0.796350  0.459281  0.042866  1
  Sn  Sn28  1  0.561830  0.619951  0.749069  1
  Sn  Sn29  1  0.062816  0.881010  0.749064  1
  Sn  Sn30  1  0.437791  0.379963  0.250695  1
  Sn  Sn31  1  0.937732  0.120131  0.250068  1
  Sn  Sn32  1  0.330870  0.149837  0.749613  1
  Sn  Sn33  1  0.830398  0.350117  0.749458  1
  Sn  Sn34  1  0.668827  0.849483  0.250247  1
  Sn  Sn35  1  0.169234  0.649493  0.250174  1
