# generated using pymatgen
data_Dy2HoBBr3
_symmetry_space_group_name_H-M   'P 1'
_cell_length_a   9.72907166
_cell_length_b   9.72907030
_cell_length_c   9.72907128
_cell_angle_alpha   109.48506527
_cell_angle_beta   109.48505817
_cell_angle_gamma   109.44353806
_symmetry_Int_Tables_number   1
_chemical_formula_structural   Dy2HoBBr3
_chemical_formula_sum   'Dy8 Ho4 B4 Br12'
_cell_volume   708.91176461
_cell_formula_units_Z   4
loop_
 _symmetry_equiv_pos_site_id
 _symmetry_equiv_pos_as_xyz
  1  'x, y, z'
loop_
 _atom_site_type_symbol
 _atom_site_label
 _atom_site_symmetry_multiplicity
 _atom_site_fract_x
 _atom_site_fract_y
 _atom_site_fract_z
 _atom_site_occupancy
  Dy  Dy0  1  0.459812  0.479855  0.229808  1
  Dy  Dy1  1  0.750047  0.230004  0.270192  1
  Dy  Dy2  1  0.749953  0.020145  0.479957  1
  Dy  Dy3  1  0.230004  0.459812  0.479957  1
  Dy  Dy4  1  0.269996  0.749953  0.229808  1
  Dy  Dy5  1  0.040188  0.269996  0.020043  1
  Dy  Dy6  1  0.020145  0.040188  0.270192  1
  Dy  Dy7  1  0.479855  0.750047  0.020043  1
  Ho  Ho8  1  0.479507  0.229507  0.459013  1
  Ho  Ho9  1  0.020493  0.479507  0.750000  1
  Ho  Ho10  1  0.270493  0.020493  0.040987  1
  Ho  Ho11  1  0.229507  0.270493  0.750000  1
  B  B12  1  0.250287  0.249713  0.250000  1
  B  B13  1  0.499713  0.000287  0.250000  1
  B  B14  1  0.000287  0.250287  0.500574  1
  B  B15  1  0.249713  0.499713  0.999426  1
  Br  Br16  1  0.249679  0.758084  0.742092  1
  Br  Br17  1  0.515993  0.507587  0.757908  1
  Br  Br18  1  0.984007  0.741916  0.991596  1
  Br  Br19  1  0.741916  0.250321  0.757908  1
  Br  Br20  1  0.992413  0.984007  0.742092  1
  Br  Br21  1  0.250321  0.992413  0.508404  1
  Br  Br22  1  0.758084  0.515993  0.508404  1
  Br  Br23  1  0.507587  0.249679  0.991596  1
  Br  Br24  1  0.758101  0.741899  0.250000  1
  Br  Br25  1  0.741899  0.991899  0.983796  1
  Br  Br26  1  0.991899  0.508101  0.250000  1
  Br  Br27  1  0.508101  0.758101  0.516204  1
