# generated using pymatgen
data_EuAsPd2Pt
_symmetry_space_group_name_H-M   'P 1'
_cell_length_a   6.35732488
_cell_length_b   6.35732521
_cell_length_c   4.15984475
_cell_angle_alpha   70.77847954
_cell_angle_beta   70.77847608
_cell_angle_gamma   38.18527965
_symmetry_Int_Tables_number   1
_chemical_formula_structural   EuAsPd2Pt
_chemical_formula_sum   'Eu1 As1 Pd2 Pt1'
_cell_volume   97.42308355
_cell_formula_units_Z   1
loop_
 _symmetry_equiv_pos_site_id
 _symmetry_equiv_pos_as_xyz
  1  'x, y, z'
loop_
 _atom_site_type_symbol
 _atom_site_label
 _atom_site_symmetry_multiplicity
 _atom_site_fract_x
 _atom_site_fract_y
 _atom_site_fract_z
 _atom_site_occupancy
  Eu  Eu0  1  0.008584  0.008584  0.988083  1
  As  As1  1  0.379993  0.379993  0.616673  1
  Pd  Pd2  1  0.256494  0.256494  0.241076  1
  Pd  Pd3  1  0.757104  0.757104  0.739206  1
  Pt  Pt4  1  0.592902  0.592902  0.403973  1
