# generated using pymatgen
data_Tb7Tm9Cd4Ru3Pt
_symmetry_space_group_name_H-M   'P 1'
_cell_length_a   9.55130679
_cell_length_b   9.58927745
_cell_length_c   9.62090300
_cell_angle_alpha   59.89084601
_cell_angle_beta   59.75867173
_cell_angle_gamma   59.75290328
_symmetry_Int_Tables_number   1
_chemical_formula_structural   Tb7Tm9Cd4Ru3Pt
_chemical_formula_sum   'Tb7 Tm9 Cd4 Ru3 Pt1'
_cell_volume   620.26837217
_cell_formula_units_Z   1
loop_
 _symmetry_equiv_pos_site_id
 _symmetry_equiv_pos_as_xyz
  1  'x, y, z'
loop_
 _atom_site_type_symbol
 _atom_site_label
 _atom_site_symmetry_multiplicity
 _atom_site_fract_x
 _atom_site_fract_y
 _atom_site_fract_z
 _atom_site_occupancy
  Tb  Tb0  1  0.815632  0.806149  0.189110  1
  Tb  Tb1  1  0.938681  0.559283  0.561920  1
  Tb  Tb2  1  0.556113  0.939867  0.938802  1
  Tb  Tb3  1  0.556113  0.939867  0.565218  1
  Tb  Tb4  1  0.938681  0.559283  0.940115  1
  Tb  Tb5  1  0.556445  0.563891  0.939832  1
  Tb  Tb6  1  0.938684  0.939799  0.560759  1
  Tm  Tm7  1  0.345125  0.350418  0.349610  1
  Tm  Tm8  1  0.345125  0.350418  0.954848  1
  Tm  Tm9  1  0.344975  0.957431  0.348798  1
  Tm  Tm10  1  0.965554  0.344020  0.345212  1
  Tm  Tm11  1  0.815647  0.188740  0.188950  1
  Tm  Tm12  1  0.187090  0.812109  0.811988  1
  Tm  Tm13  1  0.187090  0.812109  0.188812  1
  Tm  Tm14  1  0.815647  0.188740  0.806665  1
  Tm  Tm15  1  0.186603  0.187106  0.813145  1
  Cd  Cd16  1  0.580106  0.579466  0.580330  1
  Cd  Cd17  1  0.580106  0.579466  0.260097  1
  Cd  Cd18  1  0.580535  0.259259  0.580103  1
  Cd  Cd19  1  0.257484  0.580631  0.580941  1
  Ru  Ru20  1  0.144305  0.139778  0.138181  1
  Ru  Ru21  1  0.144305  0.139778  0.577737  1
  Ru  Ru22  1  0.146417  0.576227  0.138678  1
  Pt  Pt23  1  0.573536  0.146165  0.140150  1
