# generated using pymatgen
data_Ho2PaOs2
_symmetry_space_group_name_H-M   'P 1'
_cell_length_a   5.85534881
_cell_length_b   5.85534909
_cell_length_c   5.85534955
_cell_angle_alpha   136.77700331
_cell_angle_beta   121.46257406
_cell_angle_gamma   75.48489335
_symmetry_Int_Tables_number   1
_chemical_formula_structural   Ho2PaOs2
_chemical_formula_sum   'Ho2 Pa1 Os2'
_cell_volume   114.34287068
_cell_formula_units_Z   1
loop_
 _symmetry_equiv_pos_site_id
 _symmetry_equiv_pos_as_xyz
  1  'x, y, z'
loop_
 _atom_site_type_symbol
 _atom_site_label
 _atom_site_symmetry_multiplicity
 _atom_site_fract_x
 _atom_site_fract_y
 _atom_site_fract_z
 _atom_site_occupancy
  Ho  Ho0  1  0.698401  0.198402  0.499999  1
  Ho  Ho1  1  0.301598  0.801598  0.500000  1
  Pa  Pa2  1  0.000000  0.000000  0.000000  1
  Os  Os3  1  0.732393  0.500000  0.232393  1
  Os  Os4  1  0.267608  0.500000  0.767608  1
