# generated using pymatgen
data_AcMn2O5
_symmetry_space_group_name_H-M   'P 1'
_cell_length_a   5.88441200
_cell_length_b   8.01856600
_cell_length_c   8.90335400
_cell_angle_alpha   90.00000000
_cell_angle_beta   90.00000000
_cell_angle_gamma   90.00000000
_symmetry_Int_Tables_number   1
_chemical_formula_structural   AcMn2O5
_chemical_formula_sum   'Ac4 Mn8 O20'
_cell_volume   420.10071631
_cell_formula_units_Z   4
loop_
 _symmetry_equiv_pos_site_id
 _symmetry_equiv_pos_as_xyz
  1  'x, y, z'
loop_
 _atom_site_type_symbol
 _atom_site_label
 _atom_site_symmetry_multiplicity
 _atom_site_fract_x
 _atom_site_fract_y
 _atom_site_fract_z
 _atom_site_occupancy
  Ac  Ac0  1  0.000000  0.350240  0.672920  1
  Ac  Ac1  1  0.000000  0.649760  0.327080  1
  Ac  Ac2  1  0.000000  0.850240  0.827080  1
  Ac  Ac3  1  0.000000  0.149760  0.172920  1
  Mn  Mn4  1  0.500000  0.089130  0.851652  1
  Mn  Mn5  1  0.500000  0.910870  0.148348  1
  Mn  Mn6  1  0.500000  0.589130  0.648348  1
  Mn  Mn7  1  0.500000  0.410870  0.351652  1
  Mn  Mn8  1  0.261033  0.500000  0.000000  1
  Mn  Mn9  1  0.738967  0.000000  0.500000  1
  Mn  Mn10  1  0.738967  0.500000  0.000000  1
  Mn  Mn11  1  0.261033  0.000000  0.500000  1
  O  O12  1  0.254909  0.907399  0.294054  1
  O  O13  1  0.254909  0.092601  0.705946  1
  O  O14  1  0.745091  0.407399  0.205946  1
  O  O15  1  0.745091  0.592601  0.794054  1
  O  O16  1  0.745091  0.092601  0.705946  1
  O  O17  1  0.745091  0.907399  0.294054  1
  O  O18  1  0.254909  0.592601  0.794054  1
  O  O19  1  0.254909  0.407399  0.205946  1
  O  O20  1  0.500000  0.350595  0.938558  1
  O  O21  1  0.500000  0.649405  0.061442  1
  O  O22  1  0.500000  0.850595  0.561442  1
  O  O23  1  0.500000  0.149405  0.438558  1
  O  O24  1  0.283888  0.000000  0.000000  1
  O  O25  1  0.716112  0.500000  0.500000  1
  O  O26  1  0.716112  0.000000  0.000000  1
  O  O27  1  0.283888  0.500000  0.500000  1
  O  O28  1  0.000000  0.147935  0.451533  1
  O  O29  1  0.000000  0.852065  0.548467  1
  O  O30  1  0.000000  0.647935  0.048467  1
  O  O31  1  0.000000  0.352065  0.951533  1
