# generated using pymatgen
data_Tb6Dy10CdIn(HgPt2)2
_symmetry_space_group_name_H-M   'P 1'
_cell_length_a   9.68655182
_cell_length_b   9.68655274
_cell_length_c   9.67953000
_cell_angle_alpha   60.02397988
_cell_angle_beta   60.02397674
_cell_angle_gamma   60.07464651
_symmetry_Int_Tables_number   1
_chemical_formula_structural   Tb6Dy10CdIn(HgPt2)2
_chemical_formula_sum   'Tb6 Dy10 Cd1 In1 Hg2 Pt4'
_cell_volume   642.80554649
_cell_formula_units_Z   1
loop_
 _symmetry_equiv_pos_site_id
 _symmetry_equiv_pos_as_xyz
  1  'x, y, z'
loop_
 _atom_site_type_symbol
 _atom_site_label
 _atom_site_symmetry_multiplicity
 _atom_site_fract_x
 _atom_site_fract_y
 _atom_site_fract_z
 _atom_site_occupancy
  Tb  Tb0  1  0.936424  0.562445  0.564313  1
  Tb  Tb1  1  0.563279  0.935010  0.937615  1
  Tb  Tb2  1  0.563279  0.935010  0.564097  1
  Tb  Tb3  1  0.936424  0.562445  0.936819  1
  Tb  Tb4  1  0.564078  0.563081  0.936420  1
  Tb  Tb5  1  0.937534  0.936275  0.563096  1
  Dy  Dy6  1  0.352817  0.352424  0.351062  1
  Dy  Dy7  1  0.352817  0.352424  0.943696  1
  Dy  Dy8  1  0.355627  0.936741  0.353816  1
  Dy  Dy9  1  0.936935  0.355969  0.353548  1
  Dy  Dy10  1  0.810282  0.189251  0.190854  1
  Dy  Dy11  1  0.188487  0.811159  0.810550  1
  Dy  Dy12  1  0.188487  0.811159  0.189804  1
  Dy  Dy13  1  0.810282  0.189251  0.809613  1
  Dy  Dy14  1  0.189911  0.189831  0.810129  1
  Dy  Dy15  1  0.810664  0.810259  0.189538  1
  Cd  Cd16  1  0.255510  0.581033  0.581728  1
  In  In17  1  0.579741  0.256733  0.581762  1
  Hg  Hg18  1  0.584298  0.585829  0.587376  1
  Hg  Hg19  1  0.584298  0.585829  0.242495  1
  Pt  Pt20  1  0.143293  0.143052  0.145606  1
  Pt  Pt21  1  0.143293  0.143052  0.568050  1
  Pt  Pt22  1  0.142068  0.569963  0.143985  1
  Pt  Pt23  1  0.570171  0.141770  0.144031  1
