# generated using pymatgen
data_Th3AlIn2Ir3
_symmetry_space_group_name_H-M   'P 1'
_cell_length_a   7.56962562
_cell_length_b   7.56962681
_cell_length_c   4.07393500
_cell_angle_alpha   90.00000000
_cell_angle_beta   90.00000000
_cell_angle_gamma   120.27315027
_symmetry_Int_Tables_number   1
_chemical_formula_structural   Th3AlIn2Ir3
_chemical_formula_sum   'Th3 Al1 In2 Ir3'
_cell_volume   201.60051328
_cell_formula_units_Z   1
loop_
 _symmetry_equiv_pos_site_id
 _symmetry_equiv_pos_as_xyz
  1  'x, y, z'
loop_
 _atom_site_type_symbol
 _atom_site_label
 _atom_site_symmetry_multiplicity
 _atom_site_fract_x
 _atom_site_fract_y
 _atom_site_fract_z
 _atom_site_occupancy
  Th  Th0  1  0.589406  0.997296  0.499999  1
  Th  Th1  1  0.425199  0.425199  0.499999  1
  Th  Th2  1  0.997295  0.589406  0.499999  1
  Al  Al3  1  0.756792  0.756792  0.000000  1
  In  In4  1  0.244809  0.002650  0.000000  1
  In  In5  1  0.002649  0.244808  0.000000  1
  Ir  Ir6  1  0.672475  0.349800  0.000000  1
  Ir  Ir7  1  0.349801  0.672474  0.000000  1
  Ir  Ir8  1  0.961677  0.961677  0.499999  1
