# generated using pymatgen
data_Th3Zn2Pt3Au
_symmetry_space_group_name_H-M   'P 1'
_cell_length_a   3.90251300
_cell_length_b   7.76525019
_cell_length_c   7.53603643
_cell_angle_alpha   121.01134058
_cell_angle_beta   90.00000000
_cell_angle_gamma   90.00000000
_symmetry_Int_Tables_number   1
_chemical_formula_structural   Th3Zn2Pt3Au
_chemical_formula_sum   'Th3 Zn2 Pt3 Au1'
_cell_volume   195.72970165
_cell_formula_units_Z   1
loop_
 _symmetry_equiv_pos_site_id
 _symmetry_equiv_pos_as_xyz
  1  'x, y, z'
loop_
 _atom_site_type_symbol
 _atom_site_label
 _atom_site_symmetry_multiplicity
 _atom_site_fract_x
 _atom_site_fract_y
 _atom_site_fract_z
 _atom_site_occupancy
  Th  Th0  1  0.000000  0.405914  0.000000  1
  Th  Th1  1  0.000000  0.600611  0.607511  1
  Th  Th2  1  0.000000  0.993101  0.392489  1
  Zn  Zn3  1  0.500000  0.253834  0.251331  1
  Zn  Zn4  1  0.500000  0.002503  0.748669  1
  Pt  Pt5  1  0.500000  0.661667  0.349594  1
  Pt  Pt6  1  0.500000  0.312073  0.650406  1
  Pt  Pt7  1  0.000000  0.028214  0.000000  1
  Au  Au8  1  0.500000  0.742182  0.000000  1
