# generated using pymatgen
data_Er2PaMnCo
_symmetry_space_group_name_H-M   'P 1'
_cell_length_a   3.71610690
_cell_length_b   5.75583733
_cell_length_c   5.87879956
_cell_angle_alpha   119.31047241
_cell_angle_beta   108.42482667
_cell_angle_gamma   89.99998931
_symmetry_Int_Tables_number   1
_chemical_formula_structural   Er2PaMnCo
_chemical_formula_sum   'Er2 Pa1 Mn1 Co1'
_cell_volume   102.18965206
_cell_formula_units_Z   1
loop_
 _symmetry_equiv_pos_site_id
 _symmetry_equiv_pos_as_xyz
  1  'x, y, z'
loop_
 _atom_site_type_symbol
 _atom_site_label
 _atom_site_symmetry_multiplicity
 _atom_site_fract_x
 _atom_site_fract_y
 _atom_site_fract_z
 _atom_site_occupancy
  Er  Er0  1  0.803406  0.307598  0.606811  1
  Er  Er1  1  0.196594  0.700786  0.393189  1
  Pa  Pa2  1  0.000000  0.011771  0.000000  1
  Mn  Mn3  1  0.500000  0.283027  0.000000  1
  Co  Co4  1  0.500000  0.696818  0.000000  1
