# generated using pymatgen
data_Ho5B4Pd7Rh8
_symmetry_space_group_name_H-M   'P 1'
_cell_length_a   4.21145300
_cell_length_b   4.21145300
_cell_length_c   20.88584900
_cell_angle_alpha   90.00000000
_cell_angle_beta   90.00000000
_cell_angle_gamma   90.00000000
_symmetry_Int_Tables_number   1
_chemical_formula_structural   Ho5B4Pd7Rh8
_chemical_formula_sum   'Ho5 B4 Pd7 Rh8'
_cell_volume   370.43844326
_cell_formula_units_Z   1
loop_
 _symmetry_equiv_pos_site_id
 _symmetry_equiv_pos_as_xyz
  1  'x, y, z'
loop_
 _atom_site_type_symbol
 _atom_site_label
 _atom_site_symmetry_multiplicity
 _atom_site_fract_x
 _atom_site_fract_y
 _atom_site_fract_z
 _atom_site_occupancy
  Ho  Ho0  1  0.000000  0.000000  0.900267  1
  Ho  Ho1  1  0.000000  0.000000  0.099733  1
  Ho  Ho2  1  0.000000  0.000000  0.299267  1
  Ho  Ho3  1  0.000000  0.000000  0.500000  1
  Ho  Ho4  1  0.000000  0.000000  0.700733  1
  B  B5  1  0.500000  0.500000  0.189413  1
  B  B6  1  0.500000  0.500000  0.397389  1
  B  B7  1  0.500000  0.500000  0.602611  1
  B  B8  1  0.500000  0.500000  0.810587  1
  Pd  Pd9  1  0.500000  0.500000  0.909002  1
  Pd  Pd10  1  0.500000  0.500000  0.090998  1
  Pd  Pd11  1  0.500000  0.500000  0.296515  1
  Pd  Pd12  1  0.500000  0.500000  0.500000  1
  Pd  Pd13  1  0.500000  0.500000  0.703485  1
  Pd  Pd14  1  0.500000  0.000000  0.000000  1
  Pd  Pd15  1  0.000000  0.500000  0.000000  1
  Rh  Rh16  1  0.500000  0.000000  0.199991  1
  Rh  Rh17  1  0.500000  0.000000  0.399946  1
  Rh  Rh18  1  0.500000  0.000000  0.600054  1
  Rh  Rh19  1  0.500000  0.000000  0.800009  1
  Rh  Rh20  1  0.000000  0.500000  0.199991  1
  Rh  Rh21  1  0.000000  0.500000  0.399946  1
  Rh  Rh22  1  0.000000  0.500000  0.600054  1
  Rh  Rh23  1  0.000000  0.500000  0.800009  1
