# generated using pymatgen
data_Ce(Lu2Tc)2
_symmetry_space_group_name_H-M   'P 1'
_cell_length_a   6.20363196
_cell_length_b   7.26834347
_cell_length_c   8.43836840
_cell_angle_alpha   95.58235932
_cell_angle_beta   111.56084206
_cell_angle_gamma   92.66496615
_symmetry_Int_Tables_number   1
_chemical_formula_structural   Ce(Lu2Tc)2
_chemical_formula_sum   'Ce2 Lu8 Tc4'
_cell_volume   350.79240146
_cell_formula_units_Z   2
loop_
 _symmetry_equiv_pos_site_id
 _symmetry_equiv_pos_as_xyz
  1  'x, y, z'
loop_
 _atom_site_type_symbol
 _atom_site_label
 _atom_site_symmetry_multiplicity
 _atom_site_fract_x
 _atom_site_fract_y
 _atom_site_fract_z
 _atom_site_occupancy
  Ce  Ce0  1  0.508825  0.098169  0.810506  1
  Ce  Ce1  1  0.491175  0.901831  0.189494  1
  Lu  Lu2  1  0.712585  0.421895  0.188118  1
  Lu  Lu3  1  0.287415  0.578105  0.811882  1
  Lu  Lu4  1  0.297936  0.316856  0.431516  1
  Lu  Lu5  1  0.702064  0.683144  0.568484  1
  Lu  Lu6  1  0.861338  0.182587  0.569826  1
  Lu  Lu7  1  0.138662  0.817413  0.430174  1
  Lu  Lu8  1  0.081540  0.245201  0.004205  1
  Lu  Lu9  1  0.918460  0.754799  0.995795  1
  Tc  Tc10  1  0.329442  0.595853  0.214943  1
  Tc  Tc11  1  0.670558  0.404147  0.785057  1
  Tc  Tc12  1  0.142580  0.929916  0.779204  1
  Tc  Tc13  1  0.857420  0.070084  0.220796  1
