# generated using pymatgen
data_Nd3Eu5Si12AgRh3
_symmetry_space_group_name_H-M   'P 1'
_cell_length_a   8.33651200
_cell_length_b   8.33651135
_cell_length_c   8.56917000
_cell_angle_alpha   90.00000000
_cell_angle_beta   90.00000000
_cell_angle_gamma   119.99999464
_symmetry_Int_Tables_number   1
_chemical_formula_structural   Nd3Eu5Si12AgRh3
_chemical_formula_sum   'Nd3 Eu5 Si12 Ag1 Rh3'
_cell_volume   515.74869697
_cell_formula_units_Z   1
loop_
 _symmetry_equiv_pos_site_id
 _symmetry_equiv_pos_as_xyz
  1  'x, y, z'
loop_
 _atom_site_type_symbol
 _atom_site_label
 _atom_site_symmetry_multiplicity
 _atom_site_fract_x
 _atom_site_fract_y
 _atom_site_fract_z
 _atom_site_occupancy
  Nd  Nd0  1  0.497549  0.502451  0.256388  1
  Nd  Nd1  1  0.004903  0.502451  0.256388  1
  Nd  Nd2  1  0.497549  0.995097  0.256388  1
  Eu  Eu3  1  0.000000  0.000000  0.749220  1
  Eu  Eu4  1  0.000000  0.000000  0.251561  1
  Eu  Eu5  1  0.495604  0.504396  0.744521  1
  Eu  Eu6  1  0.495604  0.991211  0.744521  1
  Eu  Eu7  1  0.008789  0.504396  0.744521  1
  Si  Si8  1  0.840288  0.159712  0.002402  1
  Si  Si9  1  0.840288  0.680576  0.002402  1
  Si  Si10  1  0.319424  0.159712  0.002402  1
  Si  Si11  1  0.832949  0.167051  0.498466  1
  Si  Si12  1  0.832949  0.665899  0.498466  1
  Si  Si13  1  0.334101  0.167051  0.498466  1
  Si  Si14  1  0.165547  0.834453  0.498112  1
  Si  Si15  1  0.668906  0.834453  0.498112  1
  Si  Si16  1  0.165547  0.331094  0.498112  1
  Si  Si17  1  0.168358  0.831642  0.001949  1
  Si  Si18  1  0.663283  0.831642  0.001949  1
  Si  Si19  1  0.168358  0.336717  0.001949  1
  Ag  Ag20  1  0.666667  0.333333  0.995606  1
  Rh  Rh21  1  0.666667  0.333333  0.498376  1
  Rh  Rh22  1  0.333333  0.666667  0.491516  1
  Rh  Rh23  1  0.333333  0.666667  0.008203  1
