# generated using pymatgen
data_Tm2Sc2Al17GeIr6
_symmetry_space_group_name_H-M   'P 1'
_cell_length_a   7.50630940
_cell_length_b   7.50630875
_cell_length_c   9.37131000
_cell_angle_alpha   90.00000000
_cell_angle_beta   90.00000000
_cell_angle_gamma   119.68006117
_symmetry_Int_Tables_number   1
_chemical_formula_structural   Tm2Sc2Al17GeIr6
_chemical_formula_sum   'Tm2 Sc2 Al17 Ge1 Ir6'
_cell_volume   458.74880051
_cell_formula_units_Z   1
loop_
 _symmetry_equiv_pos_site_id
 _symmetry_equiv_pos_as_xyz
  1  'x, y, z'
loop_
 _atom_site_type_symbol
 _atom_site_label
 _atom_site_symmetry_multiplicity
 _atom_site_fract_x
 _atom_site_fract_y
 _atom_site_fract_z
 _atom_site_occupancy
  Tm  Tm0  1  0.994132  0.677955  0.250000  1
  Tm  Tm1  1  0.677955  0.994132  0.250000  1
  Sc  Sc2  1  0.001577  0.327986  0.750000  1
  Sc  Sc3  1  0.327986  0.001577  0.750000  1
  Al  Al4  1  0.877911  0.877911  0.750000  1
  Al  Al5  1  0.000370  0.337925  0.071458  1
  Al  Al6  1  0.001679  0.664983  0.918626  1
  Al  Al7  1  0.001679  0.664983  0.581374  1
  Al  Al8  1  0.337925  0.000370  0.428542  1
  Al  Al9  1  0.000370  0.337925  0.428542  1
  Al  Al10  1  0.664983  0.001679  0.581374  1
  Al  Al11  1  0.664983  0.001679  0.918626  1
  Al  Al12  1  0.337925  0.000370  0.071458  1
  Al  Al13  1  0.328826  0.328826  0.566890  1
  Al  Al14  1  0.663099  0.663099  0.450364  1
  Al  Al15  1  0.663099  0.663099  0.049636  1
  Al  Al16  1  0.328826  0.328826  0.933110  1
  Al  Al17  1  0.337740  0.554052  0.250000  1
  Al  Al18  1  0.660550  0.446012  0.750000  1
  Al  Al19  1  0.554052  0.337740  0.250000  1
  Al  Al20  1  0.446012  0.660550  0.750000  1
  Ge  Ge21  1  0.137360  0.137360  0.250000  1
  Ir  Ir22  1  0.669973  0.326431  0.999370  1
  Ir  Ir23  1  0.326431  0.669973  0.999370  1
  Ir  Ir24  1  0.326431  0.669973  0.500630  1
  Ir  Ir25  1  0.669973  0.326431  0.500630  1
  Ir  Ir26  1  0.999077  0.999077  0.000910  1
  Ir  Ir27  1  0.999077  0.999077  0.499090  1
