# generated using pymatgen
data_DyHo2ZrAl14(Ga2Ir3)2
_symmetry_space_group_name_H-M   'P 1'
_cell_length_a   7.54045800
_cell_length_b   7.53085185
_cell_length_c   9.41479600
_cell_angle_alpha   90.00000000
_cell_angle_beta   90.00000000
_cell_angle_gamma   119.61979442
_symmetry_Int_Tables_number   1
_chemical_formula_structural   DyHo2ZrAl14(Ga2Ir3)2
_chemical_formula_sum   'Dy1 Ho2 Zr1 Al14 Ga4 Ir6'
_cell_volume   464.76619189
_cell_formula_units_Z   1
loop_
 _symmetry_equiv_pos_site_id
 _symmetry_equiv_pos_as_xyz
  1  'x, y, z'
loop_
 _atom_site_type_symbol
 _atom_site_label
 _atom_site_symmetry_multiplicity
 _atom_site_fract_x
 _atom_site_fract_y
 _atom_site_fract_z
 _atom_site_occupancy
  Dy  Dy0  1  0.005463  0.327136  0.750000  1
  Ho  Ho1  1  0.674244  0.997165  0.250000  1
  Ho  Ho2  1  0.328992  0.006762  0.750000  1
  Zr  Zr3  1  0.998137  0.672953  0.250000  1
  Al  Al4  1  0.999841  0.338154  0.078670  1
  Al  Al5  1  0.998284  0.664945  0.930468  1
  Al  Al6  1  0.998284  0.664945  0.569532  1
  Al  Al7  1  0.332798  0.998316  0.420913  1
  Al  Al8  1  0.999841  0.338154  0.421330  1
  Al  Al9  1  0.663827  0.996654  0.573726  1
  Al  Al10  1  0.663827  0.996654  0.926274  1
  Al  Al11  1  0.332798  0.998316  0.079087  1
  Al  Al12  1  0.334595  0.334771  0.548177  1
  Al  Al13  1  0.669058  0.666964  0.436249  1
  Al  Al14  1  0.669058  0.666964  0.063751  1
  Al  Al15  1  0.334595  0.334771  0.951823  1
  Al  Al16  1  0.334421  0.550504  0.250000  1
  Al  Al17  1  0.555375  0.341395  0.250000  1
  Ga  Ga18  1  0.130741  0.129210  0.250000  1
  Ga  Ga19  1  0.870066  0.868063  0.750000  1
  Ga  Ga20  1  0.659212  0.451924  0.750000  1
  Ga  Ga21  1  0.450136  0.657665  0.750000  1
  Ir  Ir22  1  0.671552  0.327536  0.002800  1
  Ir  Ir23  1  0.327661  0.671993  0.003430  1
  Ir  Ir24  1  0.327661  0.671993  0.496570  1
  Ir  Ir25  1  0.671552  0.327536  0.497200  1
  Ir  Ir26  1  0.998992  0.999277  0.000756  1
  Ir  Ir27  1  0.998992  0.999277  0.499244  1
