# generated using pymatgen
data_Nd4Al18RuPt2Rh3
_symmetry_space_group_name_H-M   'P 1'
_cell_length_a   7.64828422
_cell_length_b   7.64828424
_cell_length_c   9.60374368
_cell_angle_alpha   89.96084833
_cell_angle_beta   89.96083912
_cell_angle_gamma   119.52224314
_symmetry_Int_Tables_number   1
_chemical_formula_structural   Nd4Al18RuPt2Rh3
_chemical_formula_sum   'Nd4 Al18 Ru1 Pt2 Rh3'
_cell_volume   488.84315918
_cell_formula_units_Z   1
loop_
 _symmetry_equiv_pos_site_id
 _symmetry_equiv_pos_as_xyz
  1  'x, y, z'
loop_
 _atom_site_type_symbol
 _atom_site_label
 _atom_site_symmetry_multiplicity
 _atom_site_fract_x
 _atom_site_fract_y
 _atom_site_fract_z
 _atom_site_occupancy
  Nd  Nd0  1  0.994583  0.669345  0.749224  1
  Nd  Nd1  1  0.005417  0.330655  0.250776  1
  Nd  Nd2  1  0.669345  0.994583  0.749224  1
  Nd  Nd3  1  0.330655  0.005417  0.250776  1
  Al  Al4  1  0.127395  0.127395  0.749610  1
  Al  Al5  1  0.872605  0.872605  0.250390  1
  Al  Al6  1  0.003170  0.329682  0.574884  1
  Al  Al7  1  0.996830  0.670318  0.425116  1
  Al  Al8  1  0.998763  0.665271  0.073135  1
  Al  Al9  1  0.334729  0.001237  0.926865  1
  Al  Al10  1  0.001237  0.334729  0.926865  1
  Al  Al11  1  0.665271  0.998763  0.073135  1
  Al  Al12  1  0.670318  0.996830  0.425116  1
  Al  Al13  1  0.329682  0.003170  0.574884  1
  Al  Al14  1  0.333115  0.333115  0.045686  1
  Al  Al15  1  0.666885  0.666885  0.954314  1
  Al  Al16  1  0.670300  0.670300  0.550169  1
  Al  Al17  1  0.329700  0.329700  0.449831  1
  Al  Al18  1  0.340615  0.545429  0.753560  1
  Al  Al19  1  0.659385  0.454571  0.246440  1
  Al  Al20  1  0.545429  0.340615  0.753560  1
  Al  Al21  1  0.454571  0.659385  0.246440  1
  Ru  Ru22  1  0.000000  0.000000  0.500000  1
  Pt  Pt23  1  0.671435  0.328565  0.500000  1
  Pt  Pt24  1  0.328565  0.671435  0.500000  1
  Rh  Rh25  1  0.329071  0.670929  0.000000  1
  Rh  Rh26  1  0.670929  0.329071  0.000000  1
  Rh  Rh27  1  0.000000  0.000000  0.000000  1
