# generated using pymatgen
data_Ti10Si5AsO
_symmetry_space_group_name_H-M   'P 1'
_cell_length_a   7.46874424
_cell_length_b   7.46488102
_cell_length_c   5.10507602
_cell_angle_alpha   89.95647016
_cell_angle_beta   90.08701467
_cell_angle_gamma   120.01712088
_symmetry_Int_Tables_number   1
_chemical_formula_structural   Ti10Si5AsO
_chemical_formula_sum   'Ti10 Si5 As1 O1'
_cell_volume   246.44946026
_cell_formula_units_Z   1
loop_
 _symmetry_equiv_pos_site_id
 _symmetry_equiv_pos_as_xyz
  1  'x, y, z'
loop_
 _atom_site_type_symbol
 _atom_site_label
 _atom_site_symmetry_multiplicity
 _atom_site_fract_x
 _atom_site_fract_y
 _atom_site_fract_z
 _atom_site_occupancy
  Ti  Ti0  1  0.999256  0.758379  0.254413  1
  Ti  Ti1  1  0.240878  0.241621  0.254413  1
  Ti  Ti2  1  0.759891  0.000000  0.254397  1
  Ti  Ti3  1  0.004194  0.243907  0.745276  1
  Ti  Ti4  1  0.760287  0.756093  0.745276  1
  Ti  Ti5  1  0.238149  0.000000  0.745607  1
  Ti  Ti6  1  0.332446  0.665511  0.498753  1
  Ti  Ti7  1  0.666936  0.334489  0.498753  1
  Ti  Ti8  1  0.666567  0.333641  0.001143  1
  Ti  Ti9  1  0.332925  0.666359  0.001143  1
  Si  Si10  1  0.000062  0.399734  0.242586  1
  Si  Si11  1  0.600328  0.600266  0.242586  1
  Si  Si12  1  0.395209  0.000000  0.245209  1
  Si  Si13  1  0.999962  0.599479  0.757101  1
  Si  Si14  1  0.400483  0.400521  0.757101  1
  As  As15  1  0.603364  0.000000  0.755850  1
  O  O16  1  0.999060  0.000000  0.500393  1
