# generated using pymatgen
data_Sm4Ho2Al15Si9Os8
_symmetry_space_group_name_H-M   'P 1'
_cell_length_a   8.73166519
_cell_length_b   8.73252373
_cell_length_c   9.41462100
_cell_angle_alpha   90.00000000
_cell_angle_beta   90.00000000
_cell_angle_gamma   120.07399791
_symmetry_Int_Tables_number   1
_chemical_formula_structural   Sm4Ho2Al15Si9Os8
_chemical_formula_sum   'Sm4 Ho2 Al15 Si9 Os8'
_cell_volume   621.22082602
_cell_formula_units_Z   1
loop_
 _symmetry_equiv_pos_site_id
 _symmetry_equiv_pos_as_xyz
  1  'x, y, z'
loop_
 _atom_site_type_symbol
 _atom_site_label
 _atom_site_symmetry_multiplicity
 _atom_site_fract_x
 _atom_site_fract_y
 _atom_site_fract_z
 _atom_site_occupancy
  Sm  Sm0  1  0.616095  0.809152  0.250000  1
  Sm  Sm1  1  0.383052  0.190179  0.750000  1
  Sm  Sm2  1  0.192761  0.807605  0.250000  1
  Sm  Sm3  1  0.807991  0.191895  0.750000  1
  Ho  Ho4  1  0.193540  0.388633  0.250000  1
  Ho  Ho5  1  0.807980  0.612634  0.750000  1
  Al  Al6  1  0.165977  0.329722  0.575778  1
  Al  Al7  1  0.835672  0.670514  0.422223  1
  Al  Al8  1  0.670799  0.833581  0.577333  1
  Al  Al9  1  0.835672  0.670514  0.077777  1
  Al  Al10  1  0.328749  0.164465  0.420814  1
  Al  Al11  1  0.165977  0.329722  0.924222  1
  Al  Al12  1  0.163707  0.835091  0.577418  1
  Al  Al13  1  0.328749  0.164465  0.079186  1
  Al  Al14  1  0.835966  0.165328  0.421720  1
  Al  Al15  1  0.670799  0.833581  0.922667  1
  Al  Al16  1  0.835966  0.165328  0.078280  1
  Al  Al17  1  0.163707  0.835091  0.922582  1
  Al  Al18  1  0.435935  0.564786  0.750000  1
  Al  Al19  1  0.002500  0.003261  0.250000  1
  Al  Al20  1  0.998016  0.996451  0.750000  1
  Si  Si21  1  0.334017  0.664807  0.038986  1
  Si  Si22  1  0.666400  0.334771  0.960205  1
  Si  Si23  1  0.666400  0.334771  0.539795  1
  Si  Si24  1  0.334017  0.664807  0.461014  1
  Si  Si25  1  0.563122  0.127212  0.250000  1
  Si  Si26  1  0.434195  0.872998  0.750000  1
  Si  Si27  1  0.875401  0.437102  0.250000  1
  Si  Si28  1  0.125092  0.565743  0.750000  1
  Si  Si29  1  0.561606  0.436154  0.250000  1
  Os  Os30  1  0.500111  0.000723  0.000579  1
  Os  Os31  1  0.999318  0.499884  0.000638  1
  Os  Os32  1  0.500111  0.000723  0.499421  1
  Os  Os33  1  0.500814  0.499017  0.006559  1
  Os  Os34  1  0.999318  0.499884  0.499362  1
  Os  Os35  1  0.500814  0.499017  0.493441  1
  Os  Os36  1  0.999828  0.000194  0.999931  1
  Os  Os37  1  0.999828  0.000194  0.500069  1
