# generated using pymatgen
data_NdDy4Ho(Al3Os)8
_symmetry_space_group_name_H-M   'P 1'
_cell_length_a   8.82685900
_cell_length_b   8.82349311
_cell_length_c   9.61228000
_cell_angle_alpha   90.00000000
_cell_angle_beta   90.00000000
_cell_angle_gamma   120.01262344
_symmetry_Int_Tables_number   1
_chemical_formula_structural   NdDy4Ho(Al3Os)8
_chemical_formula_sum   'Nd1 Dy4 Ho1 Al24 Os8'
_cell_volume   648.25895930
_cell_formula_units_Z   1
loop_
 _symmetry_equiv_pos_site_id
 _symmetry_equiv_pos_as_xyz
  1  'x, y, z'
loop_
 _atom_site_type_symbol
 _atom_site_label
 _atom_site_symmetry_multiplicity
 _atom_site_fract_x
 _atom_site_fract_y
 _atom_site_fract_z
 _atom_site_occupancy
  Nd  Nd0  1  0.191458  0.382917  0.250000  1
  Dy  Dy1  1  0.612848  0.806897  0.250000  1
  Dy  Dy2  1  0.386295  0.193362  0.750000  1
  Dy  Dy3  1  0.194048  0.806897  0.250000  1
  Dy  Dy4  1  0.807068  0.193362  0.750000  1
  Ho  Ho5  1  0.806579  0.613158  0.750000  1
  Al  Al6  1  0.333726  0.667453  0.015082  1
  Al  Al7  1  0.666701  0.333403  0.981302  1
  Al  Al8  1  0.666701  0.333403  0.518698  1
  Al  Al9  1  0.333726  0.667453  0.484918  1
  Al  Al10  1  0.163462  0.326925  0.577673  1
  Al  Al11  1  0.836691  0.673381  0.426008  1
  Al  Al12  1  0.673765  0.836712  0.575146  1
  Al  Al13  1  0.836691  0.673381  0.073992  1
  Al  Al14  1  0.327841  0.163059  0.426701  1
  Al  Al15  1  0.163462  0.326925  0.922327  1
  Al  Al16  1  0.162946  0.836712  0.575146  1
  Al  Al17  1  0.327841  0.163059  0.073299  1
  Al  Al18  1  0.835220  0.163059  0.426701  1
  Al  Al19  1  0.673765  0.836712  0.924854  1
  Al  Al20  1  0.835220  0.163059  0.073299  1
  Al  Al21  1  0.162946  0.836712  0.924854  1
  Al  Al22  1  0.561354  0.122709  0.250000  1
  Al  Al23  1  0.439030  0.878060  0.750000  1
  Al  Al24  1  0.875875  0.439427  0.250000  1
  Al  Al25  1  0.121862  0.561613  0.750000  1
  Al  Al26  1  0.563553  0.439427  0.250000  1
  Al  Al27  1  0.439751  0.561613  0.750000  1
  Al  Al28  1  0.997615  0.995229  0.250000  1
  Al  Al29  1  0.999496  0.998994  0.750000  1
  Os  Os30  1  0.500177  0.000354  0.999784  1
  Os  Os31  1  0.999032  0.500812  0.998745  1
  Os  Os32  1  0.500177  0.000354  0.500216  1
  Os  Os33  1  0.501779  0.500812  0.998745  1
  Os  Os34  1  0.999032  0.500812  0.501255  1
  Os  Os35  1  0.501779  0.500812  0.501255  1
  Os  Os36  1  0.000243  0.000485  0.999854  1
  Os  Os37  1  0.000243  0.000485  0.500146  1
