# generated using pymatgen
data_Li2Pr3MgAgSn4
_symmetry_space_group_name_H-M   'P 1'
_cell_length_a   8.97656309
_cell_length_b   8.87632530
_cell_length_c   8.87632479
_cell_angle_alpha   149.07408407
_cell_angle_beta   130.85650479
_cell_angle_gamma   59.09695426
_symmetry_Int_Tables_number   1
_chemical_formula_structural   Li2Pr3MgAgSn4
_chemical_formula_sum   'Li2 Pr3 Mg1 Ag1 Sn4'
_cell_volume   272.85059946
_cell_formula_units_Z   1
loop_
 _symmetry_equiv_pos_site_id
 _symmetry_equiv_pos_as_xyz
  1  'x, y, z'
loop_
 _atom_site_type_symbol
 _atom_site_label
 _atom_site_symmetry_multiplicity
 _atom_site_fract_x
 _atom_site_fract_y
 _atom_site_fract_z
 _atom_site_occupancy
  Li  Li0  1  0.863396  0.672003  0.191392  1
  Li  Li1  1  0.145982  0.330149  0.815833  1
  Pr  Pr2  1  0.499129  0.998395  0.500733  1
  Pr  Pr3  1  0.874944  0.873457  0.001488  1
  Pr  Pr4  1  0.117101  0.127794  0.989306  1
  Mg  Mg5  1  0.481719  0.672046  0.809673  1
  Ag  Ag6  1  0.516630  0.327570  0.189060  1
  Sn  Sn7  1  0.272181  0.784615  0.487567  1
  Sn  Sn8  1  0.734942  0.216028  0.518914  1
  Sn  Sn9  1  0.803934  0.500995  0.302939  1
  Sn  Sn10  1  0.190042  0.496948  0.693094  1
