# generated using pymatgen
data_Li4As6Ir3Pd4
_symmetry_space_group_name_H-M   'P 1'
_cell_length_a   7.05927681
_cell_length_b   7.04297322
_cell_length_c   7.04297379
_cell_angle_alpha   108.97970628
_cell_angle_beta   109.67012178
_cell_angle_gamma   109.67011492
_symmetry_Int_Tables_number   1
_chemical_formula_structural   Li4As6Ir3Pd4
_chemical_formula_sum   'Li4 As6 Ir3 Pd4'
_cell_volume   269.85842817
_cell_formula_units_Z   1
loop_
 _symmetry_equiv_pos_site_id
 _symmetry_equiv_pos_as_xyz
  1  'x, y, z'
loop_
 _atom_site_type_symbol
 _atom_site_label
 _atom_site_symmetry_multiplicity
 _atom_site_fract_x
 _atom_site_fract_y
 _atom_site_fract_z
 _atom_site_occupancy
  Li  Li0  1  0.000000  0.997602  0.499247  1
  Li  Li1  1  0.500000  0.000810  0.999190  1
  Li  Li2  1  0.000000  0.500753  0.002398  1
  Li  Li3  1  0.500000  0.500810  0.499190  1
  As  As4  1  0.696528  0.690623  0.005906  1
  As  As5  1  0.314220  0.309302  0.004917  1
  As  As6  1  0.000000  0.694736  0.683470  1
  As  As7  1  0.000000  0.316530  0.305264  1
  As  As8  1  0.685780  0.995083  0.690698  1
  As  As9  1  0.303472  0.994094  0.309377  1
  Ir  Ir10  1  0.000000  0.999975  0.000025  1
  Ir  Ir11  1  0.749952  0.501012  0.248940  1
  Ir  Ir12  1  0.250048  0.751060  0.498988  1
  Pd  Pd13  1  0.252270  0.501216  0.751054  1
  Pd  Pd14  1  0.747730  0.248946  0.498784  1
  Pd  Pd15  1  0.500000  0.248724  0.751276  1
  Pd  Pd16  1  0.500000  0.748724  0.251276  1
