# generated using pymatgen
data_DyHo3V3PtF28
_symmetry_space_group_name_H-M   'P 1'
_cell_length_a   5.51396935
_cell_length_b   8.83411750
_cell_length_c   11.80763063
_cell_angle_alpha   63.02151523
_cell_angle_beta   89.87331470
_cell_angle_gamma   89.88588135
_symmetry_Int_Tables_number   1
_chemical_formula_structural   DyHo3V3PtF28
_chemical_formula_sum   'Dy1 Ho3 V3 Pt1 F28'
_cell_volume   512.56965187
_cell_formula_units_Z   1
loop_
 _symmetry_equiv_pos_site_id
 _symmetry_equiv_pos_as_xyz
  1  'x, y, z'
loop_
 _atom_site_type_symbol
 _atom_site_label
 _atom_site_symmetry_multiplicity
 _atom_site_fract_x
 _atom_site_fract_y
 _atom_site_fract_z
 _atom_site_occupancy
  Dy  Dy0  1  0.742169  0.807769  0.270412  1
  Ho  Ho1  1  0.759083  0.811611  0.767376  1
  Ho  Ho2  1  0.258168  0.188614  0.734766  1
  Ho  Ho3  1  0.239109  0.189013  0.229142  1
  V  V4  1  0.752953  0.275230  0.954975  1
  V  V5  1  0.255936  0.724208  0.547298  1
  V  V6  1  0.246333  0.726753  0.044054  1
  Pt  Pt7  1  0.742764  0.270378  0.456187  1
  F  F8  1  0.454793  0.709427  0.922760  1
  F  F9  1  0.935667  0.301613  0.583857  1
  F  F10  1  0.542753  0.293173  0.075518  1
  F  F11  1  0.049970  0.707450  0.425256  1
  F  F12  1  0.438997  0.282279  0.540347  1
  F  F13  1  0.965477  0.716756  0.952059  1
  F  F14  1  0.538236  0.716536  0.455566  1
  F  F15  1  0.034809  0.285827  0.046725  1
  F  F16  1  0.764432  0.507234  0.863390  1
  F  F17  1  0.270723  0.489644  0.637725  1
  F  F18  1  0.234705  0.493900  0.137584  1
  F  F19  1  0.731372  0.518302  0.354331  1
  F  F20  1  0.757826  0.044331  0.046468  1
  F  F21  1  0.257100  0.955261  0.455366  1
  F  F22  1  0.242020  0.959393  0.951244  1
  F  F23  1  0.743638  0.021439  0.549894  1
  F  F24  1  0.984779  0.724896  0.646353  1
  F  F25  1  0.480830  0.267740  0.859427  1
  F  F26  1  0.041001  0.269330  0.364474  1
  F  F27  1  0.518216  0.736920  0.137991  1
  F  F28  1  0.042175  0.750849  0.166035  1
  F  F29  1  0.553153  0.248999  0.322807  1
  F  F30  1  0.960958  0.253998  0.832697  1
  F  F31  1  0.459957  0.742062  0.671779  1
  F  F32  1  0.418604  0.973141  0.230866  1
  F  F33  1  0.920766  0.028461  0.269125  1
  F  F34  1  0.581175  0.031204  0.766280  1
  F  F35  1  0.079352  0.976259  0.729863  1
