# generated using pymatgen
data_Dy8Hf12Si15Ir
_symmetry_space_group_name_H-M   'P 1'
_cell_length_a   7.28429353
_cell_length_b   7.29097862
_cell_length_c   13.41319794
_cell_angle_alpha   89.87235657
_cell_angle_beta   89.90756804
_cell_angle_gamma   90.03356939
_symmetry_Int_Tables_number   1
_chemical_formula_structural   Dy8Hf12Si15Ir
_chemical_formula_sum   'Dy8 Hf12 Si15 Ir1'
_cell_volume   712.36714009
_cell_formula_units_Z   1
loop_
 _symmetry_equiv_pos_site_id
 _symmetry_equiv_pos_as_xyz
  1  'x, y, z'
loop_
 _atom_site_type_symbol
 _atom_site_label
 _atom_site_symmetry_multiplicity
 _atom_site_fract_x
 _atom_site_fract_y
 _atom_site_fract_z
 _atom_site_occupancy
  Dy  Dy0  1  0.995576  0.346639  0.214620  1
  Dy  Dy1  1  0.004270  0.655318  0.714638  1
  Dy  Dy2  1  0.157725  0.494451  0.463575  1
  Dy  Dy3  1  0.503587  0.842756  0.034240  1
  Dy  Dy4  1  0.844348  0.502881  0.965086  1
  Dy  Dy5  1  0.496167  0.157179  0.535381  1
  Dy  Dy6  1  0.343667  0.996994  0.785181  1
  Dy  Dy7  1  0.657408  0.000459  0.284588  1
  Hf  Hf8  1  0.174931  0.175085  0.998676  1
  Hf  Hf9  1  0.827046  0.825724  0.500419  1
  Hf  Hf10  1  0.325339  0.667837  0.252684  1
  Hf  Hf11  1  0.674233  0.325283  0.750274  1
  Hf  Hf12  1  0.153815  0.005203  0.373529  1
  Hf  Hf13  1  0.850371  0.003765  0.874728  1
  Hf  Hf14  1  0.503578  0.650525  0.625557  1
  Hf  Hf15  1  0.351288  0.496166  0.873811  1
  Hf  Hf16  1  0.494759  0.346907  0.126498  1
  Hf  Hf17  1  0.646064  0.501782  0.378742  1
  Hf  Hf18  1  0.997253  0.148627  0.626290  1
  Hf  Hf19  1  0.000328  0.848745  0.124302  1
  Si  Si20  1  0.638346  0.705266  0.818500  1
  Si  Si21  1  0.204881  0.861947  0.566896  1
  Si  Si22  1  0.137942  0.795161  0.932701  1
  Si  Si23  1  0.796477  0.137344  0.066209  1
  Si  Si24  1  0.860780  0.199825  0.435493  1
  Si  Si25  1  0.295826  0.362079  0.683232  1
  Si  Si26  1  0.703801  0.639458  0.182526  1
  Si  Si27  1  0.291108  0.045354  0.183628  1
  Si  Si28  1  0.705215  0.951411  0.685702  1
  Si  Si29  1  0.452008  0.797913  0.438068  1
  Si  Si30  1  0.205442  0.550305  0.061644  1
  Si  Si31  1  0.548126  0.204543  0.935183  1
  Si  Si32  1  0.795369  0.451338  0.566216  1
  Si  Si33  1  0.047897  0.295872  0.814597  1
  Si  Si34  1  0.949403  0.708913  0.313955  1
  Ir  Ir35  1  0.365622  0.300944  0.312631  1
