# generated using pymatgen
data_Tb12NiOs2Pd
_symmetry_space_group_name_H-M   'P 1'
_cell_length_a   6.31025483
_cell_length_b   7.19957636
_cell_length_c   9.48217800
_cell_angle_alpha   90.00000000
_cell_angle_beta   90.00000000
_cell_angle_gamma   89.75691449
_symmetry_Int_Tables_number   1
_chemical_formula_structural   Tb12NiOs2Pd
_chemical_formula_sum   'Tb12 Ni1 Os2 Pd1'
_cell_volume   430.78248282
_cell_formula_units_Z   1
loop_
 _symmetry_equiv_pos_site_id
 _symmetry_equiv_pos_as_xyz
  1  'x, y, z'
loop_
 _atom_site_type_symbol
 _atom_site_label
 _atom_site_symmetry_multiplicity
 _atom_site_fract_x
 _atom_site_fract_y
 _atom_site_fract_z
 _atom_site_occupancy
  Tb  Tb0  1  0.323948  0.684487  0.062467  1
  Tb  Tb1  1  0.163018  0.172634  0.443421  1
  Tb  Tb2  1  0.674912  0.324712  0.567505  1
  Tb  Tb3  1  0.829481  0.821834  0.938303  1
  Tb  Tb4  1  0.674912  0.324712  0.932495  1
  Tb  Tb5  1  0.829481  0.821834  0.561697  1
  Tb  Tb6  1  0.323948  0.684487  0.437533  1
  Tb  Tb7  1  0.163018  0.172634  0.056579  1
  Tb  Tb8  1  0.872065  0.534380  0.250000  1
  Tb  Tb9  1  0.633879  0.027737  0.250000  1
  Tb  Tb10  1  0.138060  0.466244  0.750000  1
  Tb  Tb11  1  0.372323  0.964184  0.750000  1
  Ni  Ni12  1  0.557179  0.616016  0.750000  1
  Os  Os13  1  0.050298  0.883354  0.250000  1
  Os  Os14  1  0.953205  0.115130  0.750000  1
  Pd  Pd15  1  0.440272  0.385624  0.250000  1
