# generated using pymatgen
data_Ta2Fe3Ge
_symmetry_space_group_name_H-M   'P 1'
_cell_length_a   4.89721700
_cell_length_b   4.89721577
_cell_length_c   4.89721463
_cell_angle_alpha   59.30374461
_cell_angle_beta   59.30375091
_cell_angle_gamma   59.30373996
_symmetry_Int_Tables_number   1
_chemical_formula_structural   Ta2Fe3Ge
_chemical_formula_sum   'Ta2 Fe3 Ge1'
_cell_volume   81.73207271
_cell_formula_units_Z   1
loop_
 _symmetry_equiv_pos_site_id
 _symmetry_equiv_pos_as_xyz
  1  'x, y, z'
loop_
 _atom_site_type_symbol
 _atom_site_label
 _atom_site_symmetry_multiplicity
 _atom_site_fract_x
 _atom_site_fract_y
 _atom_site_fract_z
 _atom_site_occupancy
  Ta  Ta0  1  0.246998  0.246998  0.246998  1
  Ta  Ta1  1  0.003002  0.003002  0.003002  1
  Fe  Fe2  1  0.625000  0.625000  0.125000  1
  Fe  Fe3  1  0.625000  0.125000  0.625000  1
  Fe  Fe4  1  0.125000  0.625000  0.625000  1
  Ge  Ge5  1  0.625000  0.625000  0.625000  1
