# generated using pymatgen
data_Tb5Ho3Ti3Si16Mo9
_symmetry_space_group_name_H-M   'P 1'
_cell_length_a   6.92053262
_cell_length_b   6.92070472
_cell_length_c   12.82566869
_cell_angle_alpha   90.00021510
_cell_angle_beta   89.98689680
_cell_angle_gamma   89.85017798
_symmetry_Int_Tables_number   1
_chemical_formula_structural   Tb5Ho3Ti3Si16Mo9
_chemical_formula_sum   'Tb5 Ho3 Ti3 Si16 Mo9'
_cell_volume   614.28280785
_cell_formula_units_Z   1
loop_
 _symmetry_equiv_pos_site_id
 _symmetry_equiv_pos_as_xyz
  1  'x, y, z'
loop_
 _atom_site_type_symbol
 _atom_site_label
 _atom_site_symmetry_multiplicity
 _atom_site_fract_x
 _atom_site_fract_y
 _atom_site_fract_z
 _atom_site_occupancy
  Tb  Tb0  1  0.339416  0.002577  0.468350  1
  Tb  Tb1  1  0.496184  0.839171  0.719088  1
  Tb  Tb2  1  0.500286  0.161509  0.217197  1
  Tb  Tb3  1  0.839232  0.496283  0.280863  1
  Tb  Tb4  1  0.161456  0.500291  0.782828  1
  Ho  Ho5  1  0.659189  0.999772  0.968668  1
  Ho  Ho6  1  0.001835  0.339906  0.531684  1
  Ho  Ho7  1  0.999772  0.659209  0.031306  1
  Ti  Ti8  1  0.170726  0.830836  0.248385  1
  Ti  Ti9  1  0.830881  0.170869  0.751609  1
  Ti  Ti10  1  0.669267  0.669245  0.500057  1
  Si  Si11  1  0.199499  0.128983  0.684063  1
  Si  Si12  1  0.374294  0.697073  0.935111  1
  Si  Si13  1  0.628837  0.299915  0.434691  1
  Si  Si14  1  0.697058  0.374274  0.064829  1
  Si  Si15  1  0.299233  0.627243  0.565546  1
  Si  Si16  1  0.798001  0.871938  0.184003  1
  Si  Si17  1  0.128092  0.200335  0.315818  1
  Si  Si18  1  0.871929  0.797920  0.815978  1
  Si  Si19  1  0.287242  0.962841  0.061347  1
  Si  Si20  1  0.540158  0.789578  0.313373  1
  Si  Si21  1  0.457997  0.211765  0.815348  1
  Si  Si22  1  0.790161  0.539900  0.686353  1
  Si  Si23  1  0.211767  0.458107  0.184588  1
  Si  Si24  1  0.711787  0.042020  0.563724  1
  Si  Si25  1  0.962779  0.287274  0.938641  1
  Si  Si26  1  0.041365  0.710311  0.436476  1
  Mo  Mo27  1  0.331286  0.331328  0.999995  1
  Mo  Mo28  1  0.155394  0.002557  0.873560  1
  Mo  Mo29  1  0.496133  0.666531  0.124476  1
  Mo  Mo30  1  0.506170  0.340179  0.624925  1
  Mo  Mo31  1  0.666621  0.496089  0.875348  1
  Mo  Mo32  1  0.339872  0.505607  0.375248  1
  Mo  Mo33  1  0.840852  0.992587  0.374474  1
  Mo  Mo34  1  0.002464  0.155427  0.126360  1
  Mo  Mo35  1  0.992768  0.840551  0.625687  1
