# generated using pymatgen
data_Er4TmSiNiBi
_symmetry_space_group_name_H-M   'P 1'
_cell_length_a   8.44089600
_cell_length_b   8.44089594
_cell_length_c   8.70172748
_cell_angle_alpha   125.41141869
_cell_angle_beta   125.41141136
_cell_angle_gamma   78.77292291
_symmetry_Int_Tables_number   1
_chemical_formula_structural   Er4TmSiNiBi
_chemical_formula_sum   'Er8 Tm2 Si2 Ni2 Bi2'
_cell_volume   402.43057749
_cell_formula_units_Z   2
loop_
 _symmetry_equiv_pos_site_id
 _symmetry_equiv_pos_as_xyz
  1  'x, y, z'
loop_
 _atom_site_type_symbol
 _atom_site_label
 _atom_site_symmetry_multiplicity
 _atom_site_fract_x
 _atom_site_fract_y
 _atom_site_fract_z
 _atom_site_occupancy
  Er  Er0  1  0.778787  0.278787  0.790295  1
  Er  Er1  1  0.221213  0.721213  0.209705  1
  Er  Er2  1  0.488492  0.988492  0.209705  1
  Er  Er3  1  0.296271  0.465934  0.500000  1
  Er  Er4  1  0.034066  0.203729  0.500000  1
  Er  Er5  1  0.511508  0.011508  0.790295  1
  Er  Er6  1  0.703729  0.534066  0.500000  1
  Er  Er7  1  0.965934  0.796271  0.500000  1
  Tm  Tm8  1  0.000000  0.000000  0.000000  1
  Tm  Tm9  1  0.500000  0.500000  0.000000  1
  Si  Si10  1  0.150219  0.650219  0.800441  1
  Si  Si11  1  0.849781  0.349781  0.199559  1
  Ni  Ni12  1  0.632683  0.867317  0.500000  1
  Ni  Ni13  1  0.367317  0.132683  0.500000  1
  Bi  Bi14  1  0.250000  0.250000  0.000000  1
  Bi  Bi15  1  0.750000  0.750000  0.000000  1
