# generated using pymatgen
data_Tb8Zr3Sc9Ga16
_symmetry_space_group_name_H-M   'P 1'
_cell_length_a   7.28012577
_cell_length_b   7.56720203
_cell_length_c   14.50498449
_cell_angle_alpha   89.99753876
_cell_angle_beta   90.05195498
_cell_angle_gamma   89.99085385
_symmetry_Int_Tables_number   1
_chemical_formula_structural   Tb8Zr3Sc9Ga16
_chemical_formula_sum   'Tb8 Zr3 Sc9 Ga16'
_cell_volume   799.08190330
_cell_formula_units_Z   1
loop_
 _symmetry_equiv_pos_site_id
 _symmetry_equiv_pos_as_xyz
  1  'x, y, z'
loop_
 _atom_site_type_symbol
 _atom_site_label
 _atom_site_symmetry_multiplicity
 _atom_site_fract_x
 _atom_site_fract_y
 _atom_site_fract_z
 _atom_site_occupancy
  Tb  Tb0  1  0.011737  0.177259  0.094234  1
  Tb  Tb1  1  0.988624  0.822085  0.905279  1
  Tb  Tb2  1  0.488802  0.677069  0.905100  1
  Tb  Tb3  1  0.988097  0.823667  0.594873  1
  Tb  Tb4  1  0.511508  0.322846  0.094238  1
  Tb  Tb5  1  0.011363  0.176499  0.405192  1
  Tb  Tb6  1  0.511344  0.324503  0.404657  1
  Tb  Tb7  1  0.488722  0.676046  0.595197  1
  Zr  Zr8  1  0.329703  0.174922  0.624684  1
  Zr  Zr9  1  0.671075  0.823647  0.376526  1
  Zr  Zr10  1  0.171019  0.675503  0.376884  1
  Sc  Sc11  1  0.162289  0.503629  0.750707  1
  Sc  Sc12  1  0.837962  0.495941  0.248991  1
  Sc  Sc13  1  0.337850  0.003677  0.249209  1
  Sc  Sc14  1  0.662082  0.996772  0.750585  1
  Sc  Sc15  1  0.670600  0.827393  0.123182  1
  Sc  Sc16  1  0.828516  0.325279  0.623460  1
  Sc  Sc17  1  0.329690  0.173253  0.876243  1
  Sc  Sc18  1  0.829312  0.327027  0.876575  1
  Sc  Sc19  1  0.170459  0.672771  0.123169  1
  Ga  Ga20  1  0.032310  0.118707  0.748877  1
  Ga  Ga21  1  0.968028  0.880355  0.251764  1
  Ga  Ga22  1  0.468031  0.619319  0.251589  1
  Ga  Ga23  1  0.531251  0.381032  0.749040  1
  Ga  Ga24  1  0.284960  0.874384  0.748513  1
  Ga  Ga25  1  0.715067  0.125125  0.251438  1
  Ga  Ga26  1  0.214991  0.374631  0.251420  1
  Ga  Ga27  1  0.784572  0.626761  0.749288  1
  Ga  Ga28  1  0.160814  0.463325  0.539946  1
  Ga  Ga29  1  0.840662  0.538157  0.458839  1
  Ga  Ga30  1  0.340270  0.962950  0.459865  1
  Ga  Ga31  1  0.840429  0.535789  0.040923  1
  Ga  Ga32  1  0.658097  0.035737  0.540012  1
  Ga  Ga33  1  0.160227  0.464016  0.959350  1
  Ga  Ga34  1  0.659315  0.035797  0.959136  1
  Ga  Ga35  1  0.340222  0.964127  0.041013  1
