# generated using pymatgen
data_Dy2Y3Sc3(P3Ir4)4
_symmetry_space_group_name_H-M   'P 1'
_cell_length_a   12.86372004
_cell_length_b   12.86551044
_cell_length_c   3.96656500
_cell_angle_alpha   90.00000000
_cell_angle_beta   90.00000000
_cell_angle_gamma   120.00459991
_symmetry_Int_Tables_number   1
_chemical_formula_structural   Dy2Y3Sc3(P3Ir4)4
_chemical_formula_sum   'Dy2 Y3 Sc3 P12 Ir16'
_cell_volume   568.48456325
_cell_formula_units_Z   1
loop_
 _symmetry_equiv_pos_site_id
 _symmetry_equiv_pos_as_xyz
  1  'x, y, z'
loop_
 _atom_site_type_symbol
 _atom_site_label
 _atom_site_symmetry_multiplicity
 _atom_site_fract_x
 _atom_site_fract_y
 _atom_site_fract_z
 _atom_site_occupancy
  Dy  Dy0  1  0.188221  0.188245  0.000000  1
  Dy  Dy1  1  0.811779  0.000024  0.000000  1
  Y  Y2  1  0.333341  0.666661  0.500000  1
  Y  Y3  1  0.666659  0.333319  0.500000  1
  Y  Y4  1  0.000000  0.811795  0.000000  1
  Sc  Sc5  1  0.000000  0.444778  0.500000  1
  Sc  Sc6  1  0.555160  0.555171  0.500000  1
  Sc  Sc7  1  0.444840  0.000011  0.500000  1
  P  P8  1  0.000000  0.645376  0.500000  1
  P  P9  1  0.354447  0.354460  0.500000  1
  P  P10  1  0.645553  0.000013  0.500000  1
  P  P11  1  0.517056  0.686625  0.000000  1
  P  P12  1  0.313379  0.830440  0.000000  1
  P  P13  1  0.169542  0.482904  0.000000  1
  P  P14  1  0.482944  0.169569  0.000000  1
  P  P15  1  0.686621  0.517061  0.000000  1
  P  P16  1  0.830458  0.313361  0.000000  1
  P  P17  1  0.000000  0.176940  0.500000  1
  P  P18  1  0.822991  0.823190  0.500000  1
  P  P19  1  0.177009  0.000199  0.500000  1
  Ir  Ir20  1  0.510089  0.867904  0.000000  1
  Ir  Ir21  1  0.132095  0.642157  0.000000  1
  Ir  Ir22  1  0.357841  0.489919  0.000000  1
  Ir  Ir23  1  0.489911  0.357814  0.000000  1
  Ir  Ir24  1  0.867905  0.510061  0.000000  1
  Ir  Ir25  1  0.642159  0.132077  0.000000  1
  Ir  Ir26  1  0.000000  0.277847  0.000000  1
  Ir  Ir27  1  0.722115  0.722135  0.000000  1
  Ir  Ir28  1  0.277885  0.000020  0.000000  1
  Ir  Ir29  1  0.627950  0.806819  0.500000  1
  Ir  Ir30  1  0.193315  0.821138  0.500000  1
  Ir  Ir31  1  0.178897  0.372033  0.500000  1
  Ir  Ir32  1  0.372050  0.178869  0.500000  1
  Ir  Ir33  1  0.806685  0.627823  0.500000  1
  Ir  Ir34  1  0.821103  0.193136  0.500000  1
  Ir  Ir35  1  0.000000  0.000106  0.500000  1
