# generated using pymatgen
data_KRb7SnSb4
_symmetry_space_group_name_H-M   'P 1'
_cell_length_a   12.08255085
_cell_length_b   12.09589155
_cell_length_c   12.08255097
_cell_angle_alpha   59.96346818
_cell_angle_beta   59.94408399
_cell_angle_gamma   59.96346966
_symmetry_Int_Tables_number   1
_chemical_formula_structural   KRb7SnSb4
_chemical_formula_sum   'K2 Rb14 Sn2 Sb8'
_cell_volume   1247.43082165
_cell_formula_units_Z   2
loop_
 _symmetry_equiv_pos_site_id
 _symmetry_equiv_pos_as_xyz
  1  'x, y, z'
loop_
 _atom_site_type_symbol
 _atom_site_label
 _atom_site_symmetry_multiplicity
 _atom_site_fract_x
 _atom_site_fract_y
 _atom_site_fract_z
 _atom_site_occupancy
  K  K0  1  0.625000  0.625000  0.125000  1
  K  K1  1  0.125000  0.625000  0.625000  1
  Rb  Rb2  1  0.625000  0.125000  0.625000  1
  Rb  Rb3  1  0.625000  0.625000  0.625000  1
  Rb  Rb4  1  0.023229  0.022095  0.477071  1
  Rb  Rb5  1  0.772929  0.227905  0.226771  1
  Rb  Rb6  1  0.226771  0.772394  0.772929  1
  Rb  Rb7  1  0.772929  0.772394  0.226771  1
  Rb  Rb8  1  0.772820  0.227180  0.772820  1
  Rb  Rb9  1  0.227514  0.772486  0.227514  1
  Rb  Rb10  1  0.477180  0.022820  0.477180  1
  Rb  Rb11  1  0.477071  0.022095  0.023229  1
  Rb  Rb12  1  0.023229  0.477606  0.477071  1
  Rb  Rb13  1  0.022486  0.477514  0.022486  1
  Rb  Rb14  1  0.226771  0.227905  0.772929  1
  Rb  Rb15  1  0.477071  0.477606  0.023229  1
  Sn  Sn16  1  0.750761  0.749239  0.750761  1
  Sn  Sn17  1  0.499239  0.500761  0.499239  1
  Sb  Sb18  1  0.398873  0.800240  0.398873  1
  Sb  Sb19  1  0.852354  0.849175  0.449295  1
  Sb  Sb20  1  0.449295  0.849175  0.852354  1
  Sb  Sb21  1  0.851127  0.847986  0.851127  1
  Sb  Sb22  1  0.800705  0.400825  0.397646  1
  Sb  Sb23  1  0.398873  0.402014  0.398873  1
  Sb  Sb24  1  0.397646  0.400825  0.800705  1
  Sb  Sb25  1  0.851127  0.449760  0.851127  1
