# generated using pymatgen
data_Cs6Na4LuNbAs6
_symmetry_space_group_name_H-M   'P 1'
_cell_length_a   11.12060400
_cell_length_b   11.12060488
_cell_length_c   16.26768500
_cell_angle_alpha   90.00000000
_cell_angle_beta   90.00000000
_cell_angle_gamma   142.58035742
_symmetry_Int_Tables_number   1
_chemical_formula_structural   Cs6Na4LuNbAs6
_chemical_formula_sum   'Cs12 Na8 Lu2 Nb2 As12'
_cell_volume   1222.46018102
_cell_formula_units_Z   2
loop_
 _symmetry_equiv_pos_site_id
 _symmetry_equiv_pos_as_xyz
  1  'x, y, z'
loop_
 _atom_site_type_symbol
 _atom_site_label
 _atom_site_symmetry_multiplicity
 _atom_site_fract_x
 _atom_site_fract_y
 _atom_site_fract_z
 _atom_site_occupancy
  Cs  Cs0  1  0.607222  0.948812  0.824059  1
  Cs  Cs1  1  0.280580  0.283681  0.314507  1
  Cs  Cs2  1  0.219420  0.216319  0.814507  1
  Cs  Cs3  1  0.716319  0.719420  0.685493  1
  Cs  Cs4  1  0.448812  0.107222  0.675941  1
  Cs  Cs5  1  0.892778  0.551188  0.324059  1
  Cs  Cs6  1  0.051188  0.392778  0.175941  1
  Cs  Cs7  1  0.392971  0.054595  0.176872  1
  Cs  Cs8  1  0.554595  0.892971  0.323128  1
  Cs  Cs9  1  0.107029  0.445405  0.676872  1
  Cs  Cs10  1  0.945405  0.607029  0.823128  1
  Cs  Cs11  1  0.783681  0.780580  0.185493  1
  Na  Na12  1  0.081237  0.918763  0.000000  1
  Na  Na13  1  0.580112  0.419888  0.500000  1
  Na  Na14  1  0.919888  0.080112  0.000000  1
  Na  Na15  1  0.753131  0.246869  0.000000  1
  Na  Na16  1  0.746869  0.253131  0.500000  1
  Na  Na17  1  0.244401  0.755599  0.000000  1
  Na  Na18  1  0.255599  0.744401  0.500000  1
  Na  Na19  1  0.418763  0.581237  0.500000  1
  Lu  Lu20  1  0.912887  0.087113  0.500000  1
  Lu  Lu21  1  0.587113  0.412887  0.000000  1
  Nb  Nb22  1  0.084203  0.915797  0.500000  1
  Nb  Nb23  1  0.415797  0.584203  0.000000  1
  As  As24  1  0.068826  0.389338  0.404080  1
  As  As25  1  0.889338  0.568826  0.095920  1
  As  As26  1  0.431174  0.110662  0.904080  1
  As  As27  1  0.610662  0.931174  0.595920  1
  As  As28  1  0.946634  0.641033  0.588624  1
  As  As29  1  0.141033  0.446634  0.911376  1
  As  As30  1  0.553366  0.858967  0.088624  1
  As  As31  1  0.358967  0.053366  0.411376  1
  As  As32  1  0.208011  0.192124  0.584921  1
  As  As33  1  0.692124  0.708011  0.915079  1
  As  As34  1  0.291989  0.307876  0.084921  1
  As  As35  1  0.807876  0.791989  0.415079  1
