# generated using pymatgen
data_ErCuAuO4
_symmetry_space_group_name_H-M   'P 1'
_cell_length_a   6.45320309
_cell_length_b   6.45320365
_cell_length_c   6.41837187
_cell_angle_alpha   125.94330216
_cell_angle_beta   126.18960277
_cell_angle_gamma   80.14889504
_symmetry_Int_Tables_number   1
_chemical_formula_structural   ErCuAuO4
_chemical_formula_sum   'Er2 Cu2 Au2 O8'
_cell_volume   168.22675991
_cell_formula_units_Z   2
loop_
 _symmetry_equiv_pos_site_id
 _symmetry_equiv_pos_as_xyz
  1  'x, y, z'
loop_
 _atom_site_type_symbol
 _atom_site_label
 _atom_site_symmetry_multiplicity
 _atom_site_fract_x
 _atom_site_fract_y
 _atom_site_fract_z
 _atom_site_occupancy
  Er  Er0  1  0.000333  0.000333  0.000000  1
  Er  Er1  1  0.749667  0.249667  0.500000  1
  Cu  Cu2  1  0.375000  0.125000  0.750000  1
  Cu  Cu3  1  0.375000  0.625000  0.250000  1
  Au  Au4  1  0.875000  0.625000  0.250000  1
  Au  Au5  1  0.375000  0.625000  0.750000  1
  O  O6  1  0.398229  0.866391  0.160663  1
  O  O7  1  0.705727  0.237564  0.839337  1
  O  O8  1  0.351771  0.383609  0.339337  1
  O  O9  1  0.044273  0.012436  0.660663  1
  O  O10  1  0.008008  0.648473  0.041008  1
  O  O11  1  0.607465  0.967002  0.958992  1
  O  O12  1  0.142535  0.282998  0.541008  1
  O  O13  1  0.741992  0.601527  0.458992  1
