# generated using pymatgen
data_Y2Hf2NbSi4
_symmetry_space_group_name_H-M   'P 1'
_cell_length_a   7.23545100
_cell_length_b   7.23545100
_cell_length_c   13.23666700
_cell_angle_alpha   90.00000000
_cell_angle_beta   90.00000000
_cell_angle_gamma   90.00000000
_symmetry_Int_Tables_number   1
_chemical_formula_structural   Y2Hf2NbSi4
_chemical_formula_sum   'Y8 Hf8 Nb4 Si16'
_cell_volume   692.96269715
_cell_formula_units_Z   4
loop_
 _symmetry_equiv_pos_site_id
 _symmetry_equiv_pos_as_xyz
  1  'x, y, z'
loop_
 _atom_site_type_symbol
 _atom_site_label
 _atom_site_symmetry_multiplicity
 _atom_site_fract_x
 _atom_site_fract_y
 _atom_site_fract_z
 _atom_site_occupancy
  Y  Y0  1  0.497848  0.154823  0.534688  1
  Y  Y1  1  0.502152  0.845177  0.034688  1
  Y  Y2  1  0.654823  0.002152  0.284688  1
  Y  Y3  1  0.345177  0.997848  0.784688  1
  Y  Y4  1  0.845177  0.502152  0.965312  1
  Y  Y5  1  0.154823  0.497848  0.465312  1
  Y  Y6  1  0.002152  0.654823  0.715312  1
  Y  Y7  1  0.997848  0.345177  0.215312  1
  Hf  Hf8  1  0.493036  0.353341  0.125435  1
  Hf  Hf9  1  0.506964  0.646659  0.625435  1
  Hf  Hf10  1  0.853341  0.006964  0.875435  1
  Hf  Hf11  1  0.146659  0.993036  0.375435  1
  Hf  Hf12  1  0.646659  0.506964  0.374565  1
  Hf  Hf13  1  0.353341  0.493036  0.874565  1
  Hf  Hf14  1  0.006964  0.853341  0.124565  1
  Hf  Hf15  1  0.993036  0.146659  0.624565  1
  Nb  Nb16  1  0.676873  0.323127  0.750000  1
  Nb  Nb17  1  0.323127  0.676873  0.250000  1
  Nb  Nb18  1  0.823127  0.823127  0.500000  1
  Nb  Nb19  1  0.176873  0.176873  0.000000  1
  Si  Si20  1  0.795306  0.138944  0.067524  1
  Si  Si21  1  0.204694  0.861056  0.567524  1
  Si  Si22  1  0.638944  0.704694  0.817524  1
  Si  Si23  1  0.361056  0.295306  0.317524  1
  Si  Si24  1  0.861056  0.204694  0.432476  1
  Si  Si25  1  0.138944  0.795306  0.932476  1
  Si  Si26  1  0.704694  0.638944  0.182476  1
  Si  Si27  1  0.295306  0.361056  0.682476  1
  Si  Si28  1  0.550520  0.204690  0.935417  1
  Si  Si29  1  0.449480  0.795310  0.435417  1
  Si  Si30  1  0.704690  0.949480  0.685417  1
  Si  Si31  1  0.295310  0.050520  0.185417  1
  Si  Si32  1  0.795310  0.449480  0.564583  1
  Si  Si33  1  0.204690  0.550520  0.064583  1
  Si  Si34  1  0.949480  0.704690  0.314583  1
  Si  Si35  1  0.050520  0.295310  0.814583  1
