# generated using pymatgen
data_Dy3HoGa24IrPt8
_symmetry_space_group_name_H-M   'P 1'
_cell_length_a   7.57290245
_cell_length_b   7.58254635
_cell_length_c   13.26457698
_cell_angle_alpha   84.77098621
_cell_angle_beta   79.33729229
_cell_angle_gamma   59.91491032
_symmetry_Int_Tables_number   1
_chemical_formula_structural   Dy3HoGa24IrPt8
_chemical_formula_sum   'Dy3 Ho1 Ga24 Ir1 Pt8'
_cell_volume   647.68435896
_cell_formula_units_Z   1
loop_
 _symmetry_equiv_pos_site_id
 _symmetry_equiv_pos_as_xyz
  1  'x, y, z'
loop_
 _atom_site_type_symbol
 _atom_site_label
 _atom_site_symmetry_multiplicity
 _atom_site_fract_x
 _atom_site_fract_y
 _atom_site_fract_z
 _atom_site_occupancy
  Dy  Dy0  1  0.395123  0.166584  0.809928  1
  Dy  Dy1  1  0.604899  0.833393  0.190087  1
  Dy  Dy2  1  0.730594  0.499490  0.809999  1
  Ho  Ho3  1  0.269231  0.500474  0.190341  1
  Ga  Ga4  1  0.686616  0.830905  0.940197  1
  Ga  Ga5  1  0.313442  0.169433  0.060080  1
  Ga  Ga6  1  0.146395  0.832307  0.561365  1
  Ga  Ga7  1  0.853659  0.167662  0.438508  1
  Ga  Ga8  1  0.480589  0.166442  0.557976  1
  Ga  Ga9  1  0.519435  0.833561  0.441924  1
  Ga  Ga10  1  0.221147  0.165735  0.323591  1
  Ga  Ga11  1  0.778893  0.834304  0.676125  1
  Ga  Ga12  1  0.436059  0.504707  0.675611  1
  Ga  Ga13  1  0.563992  0.495232  0.324113  1
  Ga  Ga14  1  0.107193  0.162458  0.674410  1
  Ga  Ga15  1  0.892931  0.837528  0.325347  1
  Ga  Ga16  1  0.353838  0.497071  0.940573  1
  Ga  Ga17  1  0.645597  0.503060  0.059897  1
  Ga  Ga18  1  0.018412  0.173882  0.945594  1
  Ga  Ga19  1  0.981759  0.825868  0.054770  1
  Ga  Ga20  1  0.186123  0.499247  0.441899  1
  Ga  Ga21  1  0.813910  0.500711  0.558007  1
  Ga  Ga22  1  0.736531  0.163863  0.182546  1
  Ga  Ga23  1  0.263252  0.836338  0.817471  1
  Ga  Ga24  1  0.060660  0.629199  0.818248  1
  Ga  Ga25  1  0.939580  0.370735  0.181754  1
  Ga  Ga26  1  0.856998  0.040495  0.817050  1
  Ga  Ga27  1  0.143020  0.959234  0.182907  1
  Ir  Ir28  1  0.999899  0.500060  0.000096  1
  Pt  Pt29  1  0.118727  0.493522  0.639726  1
  Pt  Pt30  1  0.881418  0.506519  0.360134  1
  Pt  Pt31  1  0.660136  0.169826  0.999986  1
  Pt  Pt32  1  0.339966  0.830261  0.000081  1
  Pt  Pt33  1  0.539061  0.167345  0.360240  1
  Pt  Pt34  1  0.460778  0.832758  0.639607  1
  Pt  Pt35  1  0.778774  0.173950  0.637929  1
  Pt  Pt36  1  0.221358  0.825839  0.361888  1
