# generated using pymatgen
data_Dy2Si14Ir5Rh
_symmetry_space_group_name_H-M   'P 1'
_cell_length_a   8.03879447
_cell_length_b   8.03879497
_cell_length_c   8.04688575
_cell_angle_alpha   56.56195176
_cell_angle_beta   56.56194204
_cell_angle_gamma   56.53299825
_symmetry_Int_Tables_number   1
_chemical_formula_structural   Dy2Si14Ir5Rh
_chemical_formula_sum   'Dy2 Si14 Ir5 Rh1'
_cell_volume   338.40651027
_cell_formula_units_Z   1
loop_
 _symmetry_equiv_pos_site_id
 _symmetry_equiv_pos_as_xyz
  1  'x, y, z'
loop_
 _atom_site_type_symbol
 _atom_site_label
 _atom_site_symmetry_multiplicity
 _atom_site_fract_x
 _atom_site_fract_y
 _atom_site_fract_z
 _atom_site_occupancy
  Dy  Dy0  1  0.000125  0.999920  0.999979  1
  Dy  Dy1  1  0.500080  0.499875  0.500021  1
  Si  Si2  1  0.751061  0.748939  0.750000  1
  Si  Si3  1  0.250069  0.249931  0.250000  1
  Si  Si4  1  0.850477  0.064261  0.672356  1
  Si  Si5  1  0.672302  0.850686  0.064125  1
  Si  Si6  1  0.063577  0.672152  0.850469  1
  Si  Si7  1  0.649314  0.827698  0.435875  1
  Si  Si8  1  0.435739  0.649523  0.827644  1
  Si  Si9  1  0.827848  0.436423  0.649531  1
  Si  Si10  1  0.172683  0.563367  0.351002  1
  Si  Si11  1  0.564520  0.350473  0.172121  1
  Si  Si12  1  0.350095  0.173357  0.564606  1
  Si  Si13  1  0.936633  0.327317  0.148998  1
  Si  Si14  1  0.326643  0.149905  0.935394  1
  Si  Si15  1  0.149527  0.935480  0.327879  1
  Ir  Ir16  1  0.249890  0.929791  0.570588  1
  Ir  Ir17  1  0.570209  0.250110  0.929412  1
  Ir  Ir18  1  0.929081  0.570919  0.250000  1
  Ir  Ir19  1  0.429567  0.749773  0.070735  1
  Ir  Ir20  1  0.750227  0.070433  0.429265  1
  Rh  Rh21  1  0.070334  0.429666  0.750000  1
