# generated using pymatgen
data_Ce4Tm12Cd4Ir3Ru
_symmetry_space_group_name_H-M   'P 1'
_cell_length_a   9.58827279
_cell_length_b   9.58827216
_cell_length_c   9.58827255
_cell_angle_alpha   59.79703609
_cell_angle_beta   59.79703683
_cell_angle_gamma   59.79703326
_symmetry_Int_Tables_number   1
_chemical_formula_structural   Ce4Tm12Cd4Ir3Ru
_chemical_formula_sum   'Ce4 Tm12 Cd4 Ir3 Ru1'
_cell_volume   620.44093957
_cell_formula_units_Z   1
loop_
 _symmetry_equiv_pos_site_id
 _symmetry_equiv_pos_as_xyz
  1  'x, y, z'
loop_
 _atom_site_type_symbol
 _atom_site_label
 _atom_site_symmetry_multiplicity
 _atom_site_fract_x
 _atom_site_fract_y
 _atom_site_fract_z
 _atom_site_occupancy
  Ce  Ce0  1  0.347986  0.347986  0.952681  1
  Ce  Ce1  1  0.347986  0.952681  0.347986  1
  Ce  Ce2  1  0.952681  0.347986  0.347986  1
  Ce  Ce3  1  0.349679  0.349679  0.349679  1
  Tm  Tm4  1  0.563334  0.563334  0.937213  1
  Tm  Tm5  1  0.936322  0.563381  0.936322  1
  Tm  Tm6  1  0.563381  0.936322  0.936322  1
  Tm  Tm7  1  0.936322  0.936322  0.563381  1
  Tm  Tm8  1  0.563334  0.937213  0.563334  1
  Tm  Tm9  1  0.937213  0.563334  0.563334  1
  Tm  Tm10  1  0.187808  0.187808  0.812791  1
  Tm  Tm11  1  0.811806  0.186873  0.811806  1
  Tm  Tm12  1  0.186872  0.811807  0.811806  1
  Tm  Tm13  1  0.811806  0.811807  0.186873  1
  Tm  Tm14  1  0.187807  0.812791  0.187807  1
  Tm  Tm15  1  0.812791  0.187808  0.187808  1
  Cd  Cd16  1  0.581692  0.581692  0.252586  1
  Cd  Cd17  1  0.581692  0.252586  0.581692  1
  Cd  Cd18  1  0.252586  0.581692  0.581692  1
  Cd  Cd19  1  0.581350  0.581350  0.581350  1
  Ir  Ir20  1  0.143787  0.143787  0.572742  1
  Ir  Ir21  1  0.143787  0.572742  0.143787  1
  Ir  Ir22  1  0.572742  0.143787  0.143787  1
  Ru  Ru23  1  0.145232  0.145232  0.145232  1
