# generated using pymatgen
data_TbNd4TmGa4
_symmetry_space_group_name_H-M   'P 1'
_cell_length_a   7.70386700
_cell_length_b   7.70386700
_cell_length_c   4.57116900
_cell_angle_alpha   90.00000000
_cell_angle_beta   90.00000000
_cell_angle_gamma   90.00000000
_symmetry_Int_Tables_number   1
_chemical_formula_structural   TbNd4TmGa4
_chemical_formula_sum   'Tb1 Nd4 Tm1 Ga4'
_cell_volume   271.29689971
_cell_formula_units_Z   1
loop_
 _symmetry_equiv_pos_site_id
 _symmetry_equiv_pos_as_xyz
  1  'x, y, z'
loop_
 _atom_site_type_symbol
 _atom_site_label
 _atom_site_symmetry_multiplicity
 _atom_site_fract_x
 _atom_site_fract_y
 _atom_site_fract_z
 _atom_site_occupancy
  Tb  Tb0  1  0.000000  0.000000  0.000000  1
  Nd  Nd1  1  0.326535  0.175243  0.500000  1
  Nd  Nd2  1  0.824756  0.326535  0.500000  1
  Nd  Nd3  1  0.175243  0.673464  0.500000  1
  Nd  Nd4  1  0.673464  0.824756  0.500000  1
  Tm  Tm5  1  0.500000  0.500000  0.000000  1
  Ga  Ga6  1  0.618685  0.120700  0.000000  1
  Ga  Ga7  1  0.120700  0.381314  0.000000  1
  Ga  Ga8  1  0.879300  0.618685  0.000000  1
  Ga  Ga9  1  0.381314  0.879300  0.000000  1
