# generated using pymatgen
data_Li4Nd4Si5Hg
_symmetry_space_group_name_H-M   'P 1'
_cell_length_a   9.59875146
_cell_length_b   9.59875134
_cell_length_c   6.85176800
_cell_angle_alpha   90.00000000
_cell_angle_beta   90.00000000
_cell_angle_gamma   153.07960818
_symmetry_Int_Tables_number   1
_chemical_formula_structural   Li4Nd4Si5Hg
_chemical_formula_sum   'Li4 Nd4 Si5 Hg1'
_cell_volume   285.81998169
_cell_formula_units_Z   1
loop_
 _symmetry_equiv_pos_site_id
 _symmetry_equiv_pos_as_xyz
  1  'x, y, z'
loop_
 _atom_site_type_symbol
 _atom_site_label
 _atom_site_symmetry_multiplicity
 _atom_site_fract_x
 _atom_site_fract_y
 _atom_site_fract_z
 _atom_site_occupancy
  Li  Li0  1  0.187472  0.812528  0.048246  1
  Li  Li1  1  0.187472  0.812528  0.451754  1
  Li  Li2  1  0.814152  0.185848  0.930991  1
  Li  Li3  1  0.814152  0.185848  0.569009  1
  Nd  Nd4  1  0.347280  0.652720  0.250000  1
  Nd  Nd5  1  0.654789  0.345211  0.750000  1
  Nd  Nd6  1  0.547396  0.452604  0.250000  1
  Nd  Nd7  1  0.448400  0.551600  0.750000  1
  Si  Si8  1  0.280164  0.719836  0.750000  1
  Si  Si9  1  0.057758  0.942242  0.924890  1
  Si  Si10  1  0.941877  0.058123  0.075090  1
  Si  Si11  1  0.941877  0.058123  0.424910  1
  Si  Si12  1  0.057758  0.942242  0.575110  1
  Hg  Hg13  1  0.719452  0.280548  0.250000  1
