# generated using pymatgen
data_TiSi12Mo19
_symmetry_space_group_name_H-M   'P 1'
_cell_length_a   7.24458200
_cell_length_b   7.24458291
_cell_length_c   13.62857100
_cell_angle_alpha   90.00000000
_cell_angle_beta   90.00000000
_cell_angle_gamma   140.63230204
_symmetry_Int_Tables_number   1
_chemical_formula_structural   TiSi12Mo19
_chemical_formula_sum   'Ti1 Si12 Mo19'
_cell_volume   453.69935959
_cell_formula_units_Z   1
loop_
 _symmetry_equiv_pos_site_id
 _symmetry_equiv_pos_as_xyz
  1  'x, y, z'
loop_
 _atom_site_type_symbol
 _atom_site_label
 _atom_site_symmetry_multiplicity
 _atom_site_fract_x
 _atom_site_fract_y
 _atom_site_fract_z
 _atom_site_occupancy
  Ti  Ti0  1  0.500120  0.500120  0.500000  1
  Si  Si1  1  0.249680  0.750294  0.749958  1
  Si  Si2  1  0.750294  0.249680  0.250042  1
  Si  Si3  1  0.750294  0.249680  0.749958  1
  Si  Si4  1  0.249680  0.750294  0.250042  1
  Si  Si5  1  0.251754  0.251754  0.666572  1
  Si  Si6  1  0.748471  0.748471  0.167270  1
  Si  Si7  1  0.251754  0.251754  0.333428  1
  Si  Si8  1  0.748471  0.748471  0.832730  1
  Si  Si9  1  0.583320  0.918415  0.500000  1
  Si  Si10  1  0.081619  0.416845  0.000000  1
  Si  Si11  1  0.918415  0.583320  0.500000  1
  Si  Si12  1  0.416845  0.081619  0.000000  1
  Mo  Mo13  1  0.499329  0.499329  0.000000  1
  Mo  Mo14  1  0.000036  0.000036  0.000000  1
  Mo  Mo15  1  0.076517  0.427738  0.399717  1
  Mo  Mo16  1  0.572552  0.925842  0.900263  1
  Mo  Mo17  1  0.427738  0.076517  0.600283  1
  Mo  Mo18  1  0.925841  0.572551  0.099738  1
  Mo  Mo19  1  0.848783  0.649516  0.676020  1
  Mo  Mo20  1  0.348551  0.150665  0.176753  1
  Mo  Mo21  1  0.649516  0.848783  0.323980  1
  Mo  Mo22  1  0.150665  0.348551  0.823247  1
  Mo  Mo23  1  0.649516  0.848783  0.676020  1
  Mo  Mo24  1  0.150665  0.348551  0.176753  1
  Mo  Mo25  1  0.848783  0.649516  0.323980  1
  Mo  Mo26  1  0.348551  0.150665  0.823247  1
  Mo  Mo27  1  0.427738  0.076517  0.399717  1
  Mo  Mo28  1  0.925841  0.572551  0.900262  1
  Mo  Mo29  1  0.076517  0.427738  0.600283  1
  Mo  Mo30  1  0.572552  0.925842  0.099737  1
  Mo  Mo31  1  0.999585  0.999585  0.500000  1
