# generated using pymatgen
data_Hf2SiPRh2
_symmetry_space_group_name_H-M   'P 1'
_cell_length_a   3.84989000
_cell_length_b   6.49325299
_cell_length_c   7.45963087
_cell_angle_alpha   89.51706736
_cell_angle_beta   90.00000000
_cell_angle_gamma   90.00000000
_symmetry_Int_Tables_number   1
_chemical_formula_structural   Hf2SiPRh2
_chemical_formula_sum   'Hf4 Si2 P2 Rh4'
_cell_volume   186.47153912
_cell_formula_units_Z   2
loop_
 _symmetry_equiv_pos_site_id
 _symmetry_equiv_pos_as_xyz
  1  'x, y, z'
loop_
 _atom_site_type_symbol
 _atom_site_label
 _atom_site_symmetry_multiplicity
 _atom_site_fract_x
 _atom_site_fract_y
 _atom_site_fract_z
 _atom_site_occupancy
  Hf  Hf0  1  0.250000  0.524672  0.178676  1
  Hf  Hf1  1  0.750000  0.475328  0.821324  1
  Hf  Hf2  1  0.250000  0.027661  0.315544  1
  Hf  Hf3  1  0.750000  0.972339  0.684456  1
  Si  Si4  1  0.250000  0.269279  0.619224  1
  Si  Si5  1  0.750000  0.730721  0.380776  1
  P  P6  1  0.250000  0.762070  0.876934  1
  P  P7  1  0.750000  0.237930  0.123066  1
  Rh  Rh8  1  0.750000  0.850079  0.064046  1
  Rh  Rh9  1  0.250000  0.149921  0.935954  1
  Rh  Rh10  1  0.750000  0.351326  0.436457  1
  Rh  Rh11  1  0.250000  0.648674  0.563543  1
