# generated using pymatgen
data_Zn3P6BrN12
_symmetry_space_group_name_H-M   'P 1'
_cell_length_a   7.21419284
_cell_length_b   7.21419262
_cell_length_c   7.21419192
_cell_angle_alpha   109.43487618
_cell_angle_beta   109.43487552
_cell_angle_gamma   109.43485633
_symmetry_Int_Tables_number   1
_chemical_formula_structural   Zn3P6BrN12
_chemical_formula_sum   'Zn3 P6 Br1 N12'
_cell_volume   289.41724973
_cell_formula_units_Z   1
loop_
 _symmetry_equiv_pos_site_id
 _symmetry_equiv_pos_as_xyz
  1  'x, y, z'
loop_
 _atom_site_type_symbol
 _atom_site_label
 _atom_site_symmetry_multiplicity
 _atom_site_fract_x
 _atom_site_fract_y
 _atom_site_fract_z
 _atom_site_occupancy
  Zn  Zn0  1  0.000852  0.366097  0.000852  1
  Zn  Zn1  1  0.000852  0.000852  0.366097  1
  Zn  Zn2  1  0.366097  0.000852  0.000852  1
  P  P3  1  0.498278  0.253001  0.747876  1
  P  P4  1  0.253001  0.747876  0.498278  1
  P  P5  1  0.747876  0.498278  0.253001  1
  P  P6  1  0.747876  0.253001  0.498278  1
  P  P7  1  0.498278  0.747876  0.253001  1
  P  P8  1  0.253001  0.498278  0.747876  1
  Br  Br9  1  0.014333  0.014333  0.014333  1
  N  N10  1  0.438840  0.717487  0.438840  1
  N  N11  1  0.717487  0.438840  0.438840  1
  N  N12  1  0.438840  0.438840  0.717487  1
  N  N13  1  0.724172  0.277312  0.724172  1
  N  N14  1  0.998751  0.555729  0.274885  1
  N  N15  1  0.274885  0.555729  0.998751  1
  N  N16  1  0.274885  0.998751  0.555729  1
  N  N17  1  0.998751  0.274885  0.555729  1
  N  N18  1  0.724172  0.724172  0.277312  1
  N  N19  1  0.555729  0.998751  0.274885  1
  N  N20  1  0.277312  0.724172  0.724172  1
  N  N21  1  0.555729  0.274885  0.998751  1
