# generated using pymatgen
data_La2Ge2P4Pd21
_symmetry_space_group_name_H-M   'P 1'
_cell_length_a   8.70754287
_cell_length_b   8.70754165
_cell_length_c   8.69937200
_cell_angle_alpha   60.03102387
_cell_angle_beta   60.03102846
_cell_angle_gamma   59.97176355
_symmetry_Int_Tables_number   1
_chemical_formula_structural   La2Ge2P4Pd21
_chemical_formula_sum   'La2 Ge2 P4 Pd21'
_cell_volume   466.52480984
_cell_formula_units_Z   1
loop_
 _symmetry_equiv_pos_site_id
 _symmetry_equiv_pos_as_xyz
  1  'x, y, z'
loop_
 _atom_site_type_symbol
 _atom_site_label
 _atom_site_symmetry_multiplicity
 _atom_site_fract_x
 _atom_site_fract_y
 _atom_site_fract_z
 _atom_site_occupancy
  La  La0  1  0.749923  0.749923  0.751630  1
  La  La1  1  0.250077  0.250077  0.251476  1
  Ge  Ge2  1  0.738812  0.261188  0.742562  1
  Ge  Ge3  1  0.261188  0.738812  0.742562  1
  P  P4  1  0.737459  0.737459  0.265504  1
  P  P5  1  0.260478  0.739522  0.264360  1
  P  P6  1  0.739522  0.260478  0.264360  1
  P  P7  1  0.262541  0.262541  0.740422  1
  Pd  Pd8  1  0.000000  0.000000  0.992963  1
  Pd  Pd9  1  0.612845  0.612845  0.159817  1
  Pd  Pd10  1  0.612730  0.156853  0.610516  1
  Pd  Pd11  1  0.156853  0.612730  0.610516  1
  Pd  Pd12  1  0.618812  0.618812  0.608871  1
  Pd  Pd13  1  0.381188  0.381188  0.846495  1
  Pd  Pd14  1  0.387270  0.843147  0.380098  1
  Pd  Pd15  1  0.843147  0.387270  0.380098  1
  Pd  Pd16  1  0.387155  0.387155  0.385507  1
  Pd  Pd17  1  0.000000  0.000000  0.339674  1
  Pd  Pd18  1  0.657287  0.000964  0.340422  1
  Pd  Pd19  1  0.000964  0.657287  0.340422  1
  Pd  Pd20  1  0.653975  0.346025  0.009521  1
  Pd  Pd21  1  0.999036  0.342713  0.998674  1
  Pd  Pd22  1  0.009769  0.346765  0.651242  1
  Pd  Pd23  1  0.346025  0.653975  0.009521  1
  Pd  Pd24  1  0.346765  0.009769  0.651242  1
  Pd  Pd25  1  0.342713  0.999036  0.998674  1
  Pd  Pd26  1  0.000000  0.000000  0.647304  1
  Pd  Pd27  1  0.990231  0.653235  0.007775  1
  Pd  Pd28  1  0.653235  0.990231  0.007775  1
