# generated using pymatgen
data_TbY5Al24Co3Os5
_symmetry_space_group_name_H-M   'P 1'
_cell_length_a   8.79396701
_cell_length_b   8.75980904
_cell_length_c   9.48740204
_cell_angle_alpha   90.26139226
_cell_angle_beta   90.00032010
_cell_angle_gamma   120.12483547
_symmetry_Int_Tables_number   1
_chemical_formula_structural   TbY5Al24Co3Os5
_chemical_formula_sum   'Tb1 Y5 Al24 Co3 Os5'
_cell_volume   632.12602786
_cell_formula_units_Z   1
loop_
 _symmetry_equiv_pos_site_id
 _symmetry_equiv_pos_as_xyz
  1  'x, y, z'
loop_
 _atom_site_type_symbol
 _atom_site_label
 _atom_site_symmetry_multiplicity
 _atom_site_fract_x
 _atom_site_fract_y
 _atom_site_fract_z
 _atom_site_occupancy
  Tb  Tb0  1  0.809170  0.196237  0.749466  1
  Y  Y1  1  0.194357  0.388675  0.248033  1
  Y  Y2  1  0.805592  0.611231  0.751976  1
  Y  Y3  1  0.612720  0.803700  0.250532  1
  Y  Y4  1  0.387353  0.196343  0.749465  1
  Y  Y5  1  0.190967  0.803723  0.250543  1
  Al  Al6  1  0.336681  0.673301  0.014708  1
  Al  Al7  1  0.663288  0.326725  0.985235  1
  Al  Al8  1  0.666684  0.333490  0.514380  1
  Al  Al9  1  0.333280  0.666519  0.485676  1
  Al  Al10  1  0.159864  0.319615  0.574544  1
  Al  Al11  1  0.840193  0.680408  0.425469  1
  Al  Al12  1  0.680430  0.840732  0.575986  1
  Al  Al13  1  0.839276  0.678566  0.075009  1
  Al  Al14  1  0.319545  0.159208  0.424036  1
  Al  Al15  1  0.160774  0.321445  0.924974  1
  Al  Al16  1  0.160315  0.840815  0.575978  1
  Al  Al17  1  0.320522  0.158561  0.074715  1
  Al  Al18  1  0.839679  0.159176  0.423995  1
  Al  Al19  1  0.679454  0.841395  0.925262  1
  Al  Al20  1  0.838067  0.158567  0.074753  1
  Al  Al21  1  0.161937  0.841426  0.925273  1
  Al  Al22  1  0.559003  0.118049  0.244407  1
  Al  Al23  1  0.440880  0.881842  0.755600  1
  Al  Al24  1  0.875423  0.436487  0.249087  1
  Al  Al25  1  0.124694  0.563638  0.750924  1
  Al  Al26  1  0.561065  0.436480  0.249085  1
  Al  Al27  1  0.438942  0.563509  0.750909  1
  Al  Al28  1  0.999560  0.999144  0.250142  1
  Al  Al29  1  0.000400  0.000913  0.749858  1
  Co  Co30  1  0.499952  0.999963  0.000050  1
  Co  Co31  1  0.000002  0.000015  0.000028  1
  Co  Co32  1  0.999999  0.999998  0.499951  1
  Os  Os33  1  0.000072  0.500093  0.000093  1
  Os  Os34  1  0.499888  0.999908  0.499924  1
  Os  Os35  1  0.499973  0.500030  0.000045  1
  Os  Os36  1  0.000032  0.500036  0.499957  1
  Os  Os37  1  0.499965  0.500035  0.499932  1
