# generated using pymatgen
data_Sc2Be2GeIr3Rh2
_symmetry_space_group_name_H-M   'P 1'
_cell_length_a   9.46834004
_cell_length_b   9.49278004
_cell_length_c   3.11834300
_cell_angle_alpha   90.00000000
_cell_angle_beta   90.00000000
_cell_angle_gamma   89.98988920
_symmetry_Int_Tables_number   1
_chemical_formula_structural   Sc2Be2GeIr3Rh2
_chemical_formula_sum   'Sc4 Be4 Ge2 Ir6 Rh4'
_cell_volume   280.27937520
_cell_formula_units_Z   2
loop_
 _symmetry_equiv_pos_site_id
 _symmetry_equiv_pos_as_xyz
  1  'x, y, z'
loop_
 _atom_site_type_symbol
 _atom_site_label
 _atom_site_symmetry_multiplicity
 _atom_site_fract_x
 _atom_site_fract_y
 _atom_site_fract_z
 _atom_site_occupancy
  Sc  Sc0  1  0.674780  0.174406  0.000000  1
  Sc  Sc1  1  0.327045  0.823810  0.000000  1
  Sc  Sc2  1  0.175017  0.325832  0.000000  1
  Sc  Sc3  1  0.824760  0.674264  0.000000  1
  Be  Be4  1  0.123275  0.624663  0.000000  1
  Be  Be5  1  0.875774  0.376473  0.000000  1
  Be  Be6  1  0.624403  0.876817  0.000000  1
  Be  Be7  1  0.375244  0.123462  0.000000  1
  Ge  Ge8  1  0.000055  0.999570  0.000000  1
  Ge  Ge9  1  0.500845  0.499728  0.000000  1
  Ir  Ir10  1  0.930538  0.208676  0.500000  1
  Ir  Ir11  1  0.291025  0.568628  0.500000  1
  Ir  Ir12  1  0.569278  0.709400  0.500000  1
  Ir  Ir13  1  0.431343  0.290679  0.500000  1
  Ir  Ir14  1  0.499856  0.000218  0.500000  1
  Ir  Ir15  1  0.999636  0.500389  0.500000  1
  Rh  Rh16  1  0.207513  0.068319  0.500000  1
  Rh  Rh17  1  0.792409  0.930816  0.500000  1
  Rh  Rh18  1  0.069037  0.792194  0.500000  1
  Rh  Rh19  1  0.708168  0.431657  0.500000  1
