# generated using pymatgen
data_Er5Be5P7Ir19
_symmetry_space_group_name_H-M   'P 1'
_cell_length_a   12.52277016
_cell_length_b   12.45381971
_cell_length_c   3.94148600
_cell_angle_alpha   90.00000000
_cell_angle_beta   90.00000000
_cell_angle_gamma   119.77831746
_symmetry_Int_Tables_number   1
_chemical_formula_structural   Er5Be5P7Ir19
_chemical_formula_sum   'Er5 Be5 P7 Ir19'
_cell_volume   533.53069705
_cell_formula_units_Z   1
loop_
 _symmetry_equiv_pos_site_id
 _symmetry_equiv_pos_as_xyz
  1  'x, y, z'
loop_
 _atom_site_type_symbol
 _atom_site_label
 _atom_site_symmetry_multiplicity
 _atom_site_fract_x
 _atom_site_fract_y
 _atom_site_fract_z
 _atom_site_occupancy
  Er  Er0  1  0.666235  0.334596  0.000000  1
  Er  Er1  1  0.336045  0.678597  0.000000  1
  Er  Er2  1  0.811385  0.809866  0.500000  1
  Er  Er3  1  0.187078  0.997367  0.500000  1
  Er  Er4  1  0.993855  0.183151  0.500000  1
  Be  Be5  1  0.687648  0.165350  0.500000  1
  Be  Be6  1  0.834545  0.521719  0.500000  1
  Be  Be7  1  0.478310  0.312747  0.500000  1
  Be  Be8  1  0.167531  0.691152  0.500000  1
  Be  Be9  1  0.521543  0.835148  0.500000  1
  P  P10  1  0.308409  0.484837  0.500000  1
  P  P11  1  0.633698  0.627324  0.000000  1
  P  P12  1  0.374751  0.000549  0.000000  1
  P  P13  1  0.994057  0.368957  0.000000  1
  P  P14  1  0.182548  0.179940  0.000000  1
  P  P15  1  0.815424  0.997378  0.000000  1
  P  P16  1  0.000870  0.816717  0.000000  1
  Ir  Ir17  1  0.805804  0.182002  0.000000  1
  Ir  Ir18  1  0.818203  0.623456  0.000000  1
  Ir  Ir19  1  0.375315  0.190807  0.000000  1
  Ir  Ir20  1  0.185544  0.809523  0.000000  1
  Ir  Ir21  1  0.623400  0.811620  0.000000  1
  Ir  Ir22  1  0.190892  0.376343  0.000000  1
  Ir  Ir23  1  0.452093  0.443969  0.000000  1
  Ir  Ir24  1  0.555253  0.997795  0.000000  1
  Ir  Ir25  1  0.003511  0.556164  0.000000  1
  Ir  Ir26  1  0.281324  0.284233  0.500000  1
  Ir  Ir27  1  0.716958  0.997480  0.500000  1
  Ir  Ir28  1  0.000322  0.718072  0.500000  1
  Ir  Ir29  1  0.873767  0.360763  0.500000  1
  Ir  Ir30  1  0.641166  0.512126  0.500000  1
  Ir  Ir31  1  0.489102  0.128464  0.500000  1
  Ir  Ir32  1  0.361459  0.874325  0.500000  1
  Ir  Ir33  1  0.504146  0.636536  0.500000  1
  Ir  Ir34  1  0.128256  0.491222  0.500000  1
  Ir  Ir35  1  0.999553  0.999706  0.000000  1
