# generated using pymatgen
data_Pr5Nd5Si5Bi
_symmetry_space_group_name_H-M   'P 1'
_cell_length_a   7.81641563
_cell_length_b   7.81141063
_cell_length_c   9.23682900
_cell_angle_alpha   115.00259969
_cell_angle_beta   115.05302819
_cell_angle_gamma   90.03754173
_symmetry_Int_Tables_number   1
_chemical_formula_structural   Pr5Nd5Si5Bi
_chemical_formula_sum   'Pr5 Nd5 Si5 Bi1'
_cell_volume   451.81713266
_cell_formula_units_Z   1
loop_
 _symmetry_equiv_pos_site_id
 _symmetry_equiv_pos_as_xyz
  1  'x, y, z'
loop_
 _atom_site_type_symbol
 _atom_site_label
 _atom_site_symmetry_multiplicity
 _atom_site_fract_x
 _atom_site_fract_y
 _atom_site_fract_z
 _atom_site_occupancy
  Pr  Pr0  1  0.448668  0.977376  0.279185  1
  Pr  Pr1  1  0.049037  0.200337  0.720642  1
  Pr  Pr2  1  0.671995  0.521449  0.720272  1
  Pr  Pr3  1  0.199854  0.669949  0.721211  1
  Pr  Pr4  1  0.522119  0.051669  0.721359  1
  Nd  Nd5  1  0.522015  0.522155  0.045578  1
  Nd  Nd6  1  0.978925  0.978738  0.956412  1
  Nd  Nd7  1  0.977726  0.827405  0.278580  1
  Nd  Nd8  1  0.299076  0.450419  0.278043  1
  Nd  Nd9  1  0.830033  0.300200  0.277615  1
  Si  Si10  1  0.246648  0.248718  0.495644  1
  Si  Si11  1  0.617352  0.885067  0.001512  1
  Si  Si12  1  0.385138  0.117134  0.001382  1
  Si  Si13  1  0.884746  0.385619  0.002436  1
  Si  Si14  1  0.115430  0.616168  0.000829  1
  Bi  Bi15  1  0.751237  0.747596  0.499300  1
