# generated using pymatgen
data_Sc3Ta3(OsRu2)2
_symmetry_space_group_name_H-M   'P 1'
_cell_length_a   4.50038500
_cell_length_b   6.35383800
_cell_length_c   13.60802300
_cell_angle_alpha   90.00001322
_cell_angle_beta   89.99958999
_cell_angle_gamma   89.99814181
_symmetry_Int_Tables_number   1
_chemical_formula_structural   Sc3Ta3(OsRu2)2
_chemical_formula_sum   'Sc6 Ta6 Os4 Ru8'
_cell_volume   389.11756960
_cell_formula_units_Z   2
loop_
 _symmetry_equiv_pos_site_id
 _symmetry_equiv_pos_as_xyz
  1  'x, y, z'
loop_
 _atom_site_type_symbol
 _atom_site_label
 _atom_site_symmetry_multiplicity
 _atom_site_fract_x
 _atom_site_fract_y
 _atom_site_fract_z
 _atom_site_occupancy
  Sc  Sc0  1  0.000001  0.000001  0.999084  1
  Sc  Sc1  1  0.499867  0.499999  0.167578  1
  Sc  Sc2  1  0.999856  0.000002  0.334183  1
  Sc  Sc3  1  0.500005  0.499997  0.500017  1
  Sc  Sc4  1  0.000153  0.000003  0.666653  1
  Sc  Sc5  1  0.500138  0.499997  0.832485  1
  Ta  Ta6  1  0.999990  0.500000  0.000554  1
  Ta  Ta7  1  0.499867  0.000000  0.166094  1
  Ta  Ta8  1  0.999885  0.500001  0.332696  1
  Ta  Ta9  1  0.499997  0.999998  0.500136  1
  Ta  Ta10  1  0.000113  0.500002  0.666564  1
  Ta  Ta11  1  0.500122  0.999998  0.833965  1
  Os  Os12  1  0.500008  0.249958  0.999678  1
  Os  Os13  1  0.499999  0.750044  0.999677  1
  Os  Os14  1  0.999859  0.250036  0.166980  1
  Os  Os15  1  0.999867  0.749964  0.166980  1
  Ru  Ru16  1  0.499849  0.250494  0.333817  1
  Ru  Ru17  1  0.499847  0.749505  0.333817  1
  Ru  Ru18  1  0.999998  0.249461  0.500223  1
  Ru  Ru19  1  0.000004  0.750540  0.500223  1
  Ru  Ru20  1  0.500136  0.250536  0.666450  1
  Ru  Ru21  1  0.500130  0.749463  0.666450  1
  Ru  Ru22  1  0.000151  0.249508  0.832846  1
  Ru  Ru23  1  0.000154  0.750492  0.832846  1
