# generated using pymatgen
data_TbDy15(Ga3Co)2
_symmetry_space_group_name_H-M   'P 1'
_cell_length_a   10.01910200
_cell_length_b   10.01909770
_cell_length_c   6.94235800
_cell_angle_alpha   90.00001176
_cell_angle_beta   90.00003366
_cell_angle_gamma   120.00007582
_symmetry_Int_Tables_number   1
_chemical_formula_structural   TbDy15(Ga3Co)2
_chemical_formula_sum   'Tb1 Dy15 Ga6 Co2'
_cell_volume   603.52423574
_cell_formula_units_Z   1
loop_
 _symmetry_equiv_pos_site_id
 _symmetry_equiv_pos_as_xyz
  1  'x, y, z'
loop_
 _atom_site_type_symbol
 _atom_site_label
 _atom_site_symmetry_multiplicity
 _atom_site_fract_x
 _atom_site_fract_y
 _atom_site_fract_z
 _atom_site_occupancy
  Tb  Tb0  1  0.000000  0.000000  0.268543  1
  Dy  Dy1  1  0.827510  0.655021  0.488892  1
  Dy  Dy2  1  0.344979  0.172489  0.488892  1
  Dy  Dy3  1  0.827510  0.172489  0.488892  1
  Dy  Dy4  1  0.172524  0.345046  0.988718  1
  Dy  Dy5  1  0.654954  0.827477  0.988718  1
  Dy  Dy6  1  0.172524  0.827477  0.988718  1
  Dy  Dy7  1  0.666666  0.333333  0.172350  1
  Dy  Dy8  1  0.333334  0.666667  0.672548  1
  Dy  Dy9  1  0.537243  0.074484  0.792273  1
  Dy  Dy10  1  0.925516  0.462757  0.792273  1
  Dy  Dy11  1  0.537243  0.462757  0.792274  1
  Dy  Dy12  1  0.462734  0.925468  0.292321  1
  Dy  Dy13  1  0.074532  0.537266  0.292320  1
  Dy  Dy14  1  0.462733  0.537267  0.292320  1
  Dy  Dy15  1  0.000000  0.000000  0.768598  1
  Ga  Ga16  1  0.836518  0.673038  0.040719  1
  Ga  Ga17  1  0.326964  0.163483  0.040721  1
  Ga  Ga18  1  0.836518  0.163481  0.040719  1
  Ga  Ga19  1  0.163463  0.326925  0.541580  1
  Ga  Ga20  1  0.673074  0.836536  0.541581  1
  Ga  Ga21  1  0.163463  0.836537  0.541578  1
  Co  Co22  1  0.666667  0.333333  0.555102  1
  Co  Co23  1  0.333333  0.666667  0.055422  1
