# generated using pymatgen
data_TbPr11(Si7Cl3)2
_symmetry_space_group_name_H-M   'P 1'
_cell_length_a   4.01628600
_cell_length_b   11.53894800
_cell_length_c   16.28674000
_cell_angle_alpha   90.00000000
_cell_angle_beta   90.00000000
_cell_angle_gamma   90.00000000
_symmetry_Int_Tables_number   1
_chemical_formula_structural   TbPr11(Si7Cl3)2
_chemical_formula_sum   'Tb1 Pr11 Si14 Cl6'
_cell_volume   754.78804184
_cell_formula_units_Z   1
loop_
 _symmetry_equiv_pos_site_id
 _symmetry_equiv_pos_as_xyz
  1  'x, y, z'
loop_
 _atom_site_type_symbol
 _atom_site_label
 _atom_site_symmetry_multiplicity
 _atom_site_fract_x
 _atom_site_fract_y
 _atom_site_fract_z
 _atom_site_occupancy
  Tb  Tb0  1  0.000000  0.650235  0.500000  1
  Pr  Pr1  1  0.500000  0.334190  0.500000  1
  Pr  Pr2  1  0.000000  0.664836  0.000000  1
  Pr  Pr3  1  0.500000  0.354710  0.753663  1
  Pr  Pr4  1  0.000000  0.645712  0.743128  1
  Pr  Pr5  1  0.500000  0.354710  0.246337  1
  Pr  Pr6  1  0.000000  0.645712  0.256872  1
  Pr  Pr7  1  0.500000  0.054409  0.877088  1
  Pr  Pr8  1  0.000000  0.943949  0.621869  1
  Pr  Pr9  1  0.500000  0.054409  0.122912  1
  Pr  Pr10  1  0.000000  0.943949  0.378131  1
  Pr  Pr11  1  0.500000  0.352086  0.000000  1
  Si  Si12  1  0.000000  0.142818  0.000000  1
  Si  Si13  1  0.500000  0.856394  0.500000  1
  Si  Si14  1  0.500000  0.569390  0.875893  1
  Si  Si15  1  0.000000  0.433279  0.621271  1
  Si  Si16  1  0.500000  0.569390  0.124107  1
  Si  Si17  1  0.000000  0.433279  0.378729  1
  Si  Si18  1  0.000000  0.248012  0.873116  1
  Si  Si19  1  0.500000  0.750259  0.624477  1
  Si  Si20  1  0.000000  0.248012  0.126884  1
  Si  Si21  1  0.500000  0.750259  0.375523  1
  Si  Si22  1  0.000000  0.457017  0.876401  1
  Si  Si23  1  0.500000  0.544203  0.619124  1
  Si  Si24  1  0.500000  0.544203  0.380876  1
  Si  Si25  1  0.000000  0.457017  0.123599  1
  Cl  Cl26  1  0.500000  0.107674  0.694931  1
  Cl  Cl27  1  0.000000  0.891453  0.804150  1
  Cl  Cl28  1  0.000000  0.137824  0.500000  1
  Cl  Cl29  1  0.500000  0.861483  0.000000  1
  Cl  Cl30  1  0.500000  0.107674  0.305069  1
  Cl  Cl31  1  0.000000  0.891453  0.195850  1
