# generated using pymatgen
data_Tb16Cd4OsRu2Rh
_symmetry_space_group_name_H-M   'P 1'
_cell_length_a   9.64980295
_cell_length_b   9.67954759
_cell_length_c   9.69826580
_cell_angle_alpha   60.06382747
_cell_angle_beta   59.93834637
_cell_angle_gamma   59.89797309
_symmetry_Int_Tables_number   1
_chemical_formula_structural   Tb16Cd4OsRu2Rh
_chemical_formula_sum   'Tb16 Cd4 Os1 Ru2 Rh1'
_cell_volume   640.06293427
_cell_formula_units_Z   1
loop_
 _symmetry_equiv_pos_site_id
 _symmetry_equiv_pos_as_xyz
  1  'x, y, z'
loop_
 _atom_site_type_symbol
 _atom_site_label
 _atom_site_symmetry_multiplicity
 _atom_site_fract_x
 _atom_site_fract_y
 _atom_site_fract_z
 _atom_site_occupancy
  Tb  Tb0  1  0.287864  0.903710  0.904716  1
  Tb  Tb1  1  0.692294  0.311766  0.684175  1
  Tb  Tb2  1  0.311669  0.689086  0.310157  1
  Tb  Tb3  1  0.061750  0.438508  0.439173  1
  Tb  Tb4  1  0.689441  0.312462  0.311865  1
  Tb  Tb5  1  0.437924  0.060693  0.440690  1
  Tb  Tb6  1  0.437986  0.061266  0.060375  1
  Tb  Tb7  1  0.903537  0.901586  0.902861  1
  Tb  Tb8  1  0.062108  0.438561  0.060768  1
  Tb  Tb9  1  0.903537  0.292017  0.902861  1
  Tb  Tb10  1  0.310965  0.691308  0.687655  1
  Tb  Tb11  1  0.904310  0.902100  0.291490  1
  Tb  Tb12  1  0.437986  0.440373  0.060375  1
  Tb  Tb13  1  0.310965  0.310073  0.687655  1
  Tb  Tb14  1  0.689441  0.686231  0.311865  1
  Tb  Tb15  1  0.061750  0.060569  0.439173  1
  Cd  Cd16  1  0.992118  0.669202  0.669477  1
  Cd  Cd17  1  0.669949  0.991227  0.669538  1
  Cd  Cd18  1  0.669813  0.669257  0.991673  1
  Cd  Cd19  1  0.669949  0.669286  0.669538  1
  Os  Os20  1  0.106143  0.110683  0.672490  1
  Ru  Ru21  1  0.108366  0.668927  0.111094  1
  Ru  Ru22  1  0.108366  0.111613  0.111094  1
  Rh  Rh23  1  0.671771  0.109493  0.109243  1
