# generated using pymatgen
data_BaMn6Al2O16
_symmetry_space_group_name_H-M   'P 1'
_cell_length_a   5.79669132
_cell_length_b   7.10936809
_cell_length_c   7.16677963
_cell_angle_alpha   87.83395242
_cell_angle_beta   78.28717390
_cell_angle_gamma   78.22826559
_symmetry_Int_Tables_number   1
_chemical_formula_structural   BaMn6Al2O16
_chemical_formula_sum   'Ba1 Mn6 Al2 O16'
_cell_volume   283.11447153
_cell_formula_units_Z   1
loop_
 _symmetry_equiv_pos_site_id
 _symmetry_equiv_pos_as_xyz
  1  'x, y, z'
loop_
 _atom_site_type_symbol
 _atom_site_label
 _atom_site_symmetry_multiplicity
 _atom_site_fract_x
 _atom_site_fract_y
 _atom_site_fract_z
 _atom_site_occupancy
  Ba  Ba0  1  0.009333  0.988001  0.996584  1
  Mn  Mn1  1  0.172971  0.816957  0.510410  1
  Mn  Mn2  1  0.670190  0.817321  0.516763  1
  Mn  Mn3  1  0.338434  0.188740  0.475901  1
  Mn  Mn4  1  0.836417  0.188887  0.481166  1
  Mn  Mn5  1  0.426535  0.484769  0.825153  1
  Mn  Mn6  1  0.925453  0.490626  0.824944  1
  Al  Al7  1  0.578970  0.516213  0.185245  1
  Al  Al8  1  0.080675  0.507254  0.186541  1
  O  O9  1  0.833849  0.640719  0.052556  1
  O  O10  1  0.328681  0.638197  0.051720  1
  O  O11  1  0.982268  0.706879  0.374416  1
  O  O12  1  0.485321  0.704018  0.379380  1
  O  O13  1  0.857844  0.953984  0.642947  1
  O  O14  1  0.352273  0.955005  0.640791  1
  O  O15  1  0.337813  0.378099  0.291825  1
  O  O16  1  0.838228  0.372004  0.287928  1
  O  O17  1  0.167306  0.635156  0.717311  1
  O  O18  1  0.668134  0.627460  0.712068  1
  O  O19  1  0.152510  0.046749  0.351032  1
  O  O20  1  0.657062  0.045755  0.353738  1
  O  O21  1  0.026812  0.293051  0.621882  1
  O  O22  1  0.524222  0.294987  0.618931  1
  O  O23  1  0.175269  0.353328  0.949757  1
  O  O24  1  0.680526  0.355842  0.951010  1
