# generated using pymatgen
data_NdY6(CCl5)2
_symmetry_space_group_name_H-M   'P 1'
_cell_length_a   10.33382171
_cell_length_b   10.33382164
_cell_length_c   12.90796494
_cell_angle_alpha   80.16279071
_cell_angle_beta   80.16279037
_cell_angle_gamma   21.00701417
_symmetry_Int_Tables_number   1
_chemical_formula_structural   NdY6(CCl5)2
_chemical_formula_sum   'Nd1 Y6 C2 Cl10'
_cell_volume   486.62008068
_cell_formula_units_Z   1
loop_
 _symmetry_equiv_pos_site_id
 _symmetry_equiv_pos_as_xyz
  1  'x, y, z'
loop_
 _atom_site_type_symbol
 _atom_site_label
 _atom_site_symmetry_multiplicity
 _atom_site_fract_x
 _atom_site_fract_y
 _atom_site_fract_z
 _atom_site_occupancy
  Nd  Nd0  1  0.000000  0.000000  0.000000  1
  Y  Y1  1  0.818908  0.818908  0.506564  1
  Y  Y2  1  0.181092  0.181092  0.493436  1
  Y  Y3  1  0.698891  0.698891  0.722206  1
  Y  Y4  1  0.301109  0.301109  0.277794  1
  Y  Y5  1  0.345233  0.345233  0.731300  1
  Y  Y6  1  0.654767  0.654767  0.268700  1
  C  C7  1  0.261175  0.261175  0.626044  1
  C  C8  1  0.738825  0.738825  0.373956  1
  Cl  Cl9  1  0.447478  0.447478  0.871542  1
  Cl  Cl10  1  0.552522  0.552522  0.128458  1
  Cl  Cl11  1  0.785193  0.785193  0.868089  1
  Cl  Cl12  1  0.214807  0.214807  0.131911  1
  Cl  Cl13  1  0.123730  0.123730  0.863497  1
  Cl  Cl14  1  0.075761  0.075761  0.374670  1
  Cl  Cl15  1  0.924239  0.924239  0.625330  1
  Cl  Cl16  1  0.402339  0.402339  0.385485  1
  Cl  Cl17  1  0.597661  0.597661  0.614515  1
  Cl  Cl18  1  0.876270  0.876270  0.136503  1
