# generated using pymatgen
data_LaYbZn21Ni
_symmetry_space_group_name_H-M   'P 1'
_cell_length_a   8.27899017
_cell_length_b   8.28409700
_cell_length_c   8.28408200
_cell_angle_alpha   99.65385898
_cell_angle_beta   100.16314992
_cell_angle_gamma   131.02366447
_symmetry_Int_Tables_number   1
_chemical_formula_structural   LaYbZn21Ni
_chemical_formula_sum   'La1 Yb1 Zn21 Ni1'
_cell_volume   389.95326198
_cell_formula_units_Z   1
loop_
 _symmetry_equiv_pos_site_id
 _symmetry_equiv_pos_as_xyz
  1  'x, y, z'
loop_
 _atom_site_type_symbol
 _atom_site_label
 _atom_site_symmetry_multiplicity
 _atom_site_fract_x
 _atom_site_fract_y
 _atom_site_fract_z
 _atom_site_occupancy
  La  La0  1  0.503241  0.499688  0.003563  1
  Yb  Yb1  1  0.747300  0.248793  0.498496  1
  Zn  Zn2  1  0.924575  0.595057  0.911580  1
  Zn  Zn3  1  0.846767  0.430198  0.173558  1
  Zn  Zn4  1  0.266540  0.676345  0.827860  1
  Zn  Zn5  1  0.683380  0.005856  0.074117  1
  Zn  Zn6  1  0.401240  0.073662  0.085062  1
  Zn  Zn7  1  0.980686  0.308619  0.908137  1
  Zn  Zn8  1  0.569248  0.143617  0.822616  1
  Zn  Zn9  1  0.327221  0.739888  0.169853  1
  Zn  Zn10  1  0.327220  0.157362  0.587326  1
  Zn  Zn11  1  0.401231  0.316168  0.327566  1
  Zn  Zn12  1  0.980687  0.072550  0.672069  1
  Zn  Zn13  1  0.569237  0.746624  0.425623  1
  Zn  Zn14  1  0.846761  0.673200  0.416560  1
  Zn  Zn15  1  0.266551  0.438695  0.590201  1
  Zn  Zn16  1  0.683371  0.609255  0.677537  1
  Zn  Zn17  1  0.924564  0.012977  0.329508  1
  Zn  Zn18  1  0.124499  0.872785  0.251712  1
  Zn  Zn19  1  0.126969  0.377904  0.250621  1
  Zn  Zn20  1  0.126965  0.876339  0.749062  1
  Zn  Zn21  1  0.268733  0.758714  0.510012  1
  Zn  Zn22  1  0.982662  0.992627  0.990034  1
  Ni  Ni23  1  0.620351  0.873076  0.747331  1
