# generated using pymatgen
data_Nb16AlFe(GeTe8)2
_symmetry_space_group_name_H-M   'P 1'
_cell_length_a   4.90631100
_cell_length_b   10.92280489
_cell_length_c   19.01257404
_cell_angle_alpha   89.99584819
_cell_angle_beta   90.00000000
_cell_angle_gamma   90.00000000
_symmetry_Int_Tables_number   1
_chemical_formula_structural   Nb16AlFe(GeTe8)2
_chemical_formula_sum   'Nb16 Al1 Fe1 Ge2 Te16'
_cell_volume   1018.89672658
_cell_formula_units_Z   1
loop_
 _symmetry_equiv_pos_site_id
 _symmetry_equiv_pos_as_xyz
  1  'x, y, z'
loop_
 _atom_site_type_symbol
 _atom_site_label
 _atom_site_symmetry_multiplicity
 _atom_site_fract_x
 _atom_site_fract_y
 _atom_site_fract_z
 _atom_site_occupancy
  Nb  Nb0  1  0.499385  0.566320  0.380231  1
  Nb  Nb1  1  0.499385  0.433680  0.619769  1
  Nb  Nb2  1  0.498434  0.065157  0.118138  1
  Nb  Nb3  1  0.498434  0.934843  0.881862  1
  Nb  Nb4  1  0.499176  0.709624  0.537221  1
  Nb  Nb5  1  0.499176  0.290376  0.462779  1
  Nb  Nb6  1  0.498910  0.206420  0.962917  1
  Nb  Nb7  1  0.498910  0.793580  0.037083  1
  Nb  Nb8  1  0.000493  0.694685  0.441542  1
  Nb  Nb9  1  0.000493  0.305315  0.558458  1
  Nb  Nb10  1  0.001306  0.191893  0.057594  1
  Nb  Nb11  1  0.001306  0.808107  0.942406  1
  Nb  Nb12  1  0.000412  0.398542  0.388787  1
  Nb  Nb13  1  0.000412  0.601458  0.611213  1
  Nb  Nb14  1  0.001712  0.900045  0.109826  1
  Nb  Nb15  1  0.001712  0.099955  0.890174  1
  Al  Al16  1  0.249795  0.500000  0.500000  1
  Fe  Fe17  1  0.250439  0.000000  0.000000  1
  Ge  Ge18  1  0.750578  0.000000  0.000000  1
  Ge  Ge19  1  0.749955  0.500000  0.500000  1
  Te  Te20  1  0.000502  0.849347  0.562858  1
  Te  Te21  1  0.000502  0.150653  0.437142  1
  Te  Te22  1  0.005589  0.347666  0.936975  1
  Te  Te23  1  0.005589  0.652334  0.063025  1
  Te  Te24  1  0.499282  0.331479  0.314576  1
  Te  Te25  1  0.499282  0.668521  0.685424  1
  Te  Te26  1  0.495018  0.832344  0.185062  1
  Te  Te27  1  0.495018  0.167656  0.814938  1
  Te  Te28  1  0.499171  0.825191  0.402435  1
  Te  Te29  1  0.499171  0.174809  0.597565  1
  Te  Te30  1  0.494419  0.323656  0.097002  1
  Te  Te31  1  0.494419  0.676344  0.902998  1
  Te  Te32  1  0.000717  0.609002  0.299766  1
  Te  Te33  1  0.000717  0.390998  0.700234  1
  Te  Te34  1  0.005093  0.108620  0.199469  1
  Te  Te35  1  0.005093  0.891380  0.800531  1
