# generated using pymatgen
data_Pr19LuSi15Ni
_symmetry_space_group_name_H-M   'P 1'
_cell_length_a   7.88576080
_cell_length_b   7.89107335
_cell_length_c   15.32673200
_cell_angle_alpha   89.92164831
_cell_angle_beta   89.86222717
_cell_angle_gamma   90.11862764
_symmetry_Int_Tables_number   1
_chemical_formula_structural   Pr19LuSi15Ni
_chemical_formula_sum   'Pr19 Lu1 Si15 Ni1'
_cell_volume   953.73264322
_cell_formula_units_Z   1
loop_
 _symmetry_equiv_pos_site_id
 _symmetry_equiv_pos_as_xyz
  1  'x, y, z'
loop_
 _atom_site_type_symbol
 _atom_site_label
 _atom_site_symmetry_multiplicity
 _atom_site_fract_x
 _atom_site_fract_y
 _atom_site_fract_z
 _atom_site_occupancy
  Pr  Pr0  1  0.191993  0.805536  0.248937  1
  Pr  Pr1  1  0.814417  0.188904  0.750425  1
  Pr  Pr2  1  0.694986  0.688204  0.500329  1
  Pr  Pr3  1  0.376080  0.010029  0.446319  1
  Pr  Pr4  1  0.487196  0.876358  0.698833  1
  Pr  Pr5  1  0.510254  0.122180  0.194740  1
  Pr  Pr6  1  0.878304  0.487342  0.301421  1
  Pr  Pr7  1  0.123323  0.510044  0.802147  1
  Pr  Pr8  1  0.625123  0.988355  0.947634  1
  Pr  Pr9  1  0.005551  0.378878  0.552987  1
  Pr  Pr10  1  0.987587  0.623478  0.052004  1
  Pr  Pr11  1  0.133087  0.984439  0.875572  1
  Pr  Pr12  1  0.519275  0.629872  0.124964  1
  Pr  Pr13  1  0.468386  0.363792  0.630117  1
  Pr  Pr14  1  0.627598  0.518738  0.873698  1
  Pr  Pr15  1  0.372254  0.479918  0.372231  1
  Pr  Pr16  1  0.873530  0.021916  0.376824  1
  Pr  Pr17  1  0.981279  0.125354  0.121938  1
  Pr  Pr18  1  0.026101  0.881919  0.625037  1
  Lu  Lu19  1  0.310901  0.309245  0.999152  1
  Si  Si20  1  0.329702  0.689829  0.953258  1
  Si  Si21  1  0.663534  0.304959  0.454552  1
  Si  Si22  1  0.691579  0.330657  0.046023  1
  Si  Si23  1  0.305655  0.668729  0.547286  1
  Si  Si24  1  0.806701  0.831263  0.204275  1
  Si  Si25  1  0.169081  0.194440  0.294103  1
  Si  Si26  1  0.832829  0.805190  0.796257  1
  Si  Si27  1  0.288523  0.925987  0.058001  1
  Si  Si28  1  0.579905  0.785661  0.310066  1
  Si  Si29  1  0.418515  0.214167  0.816785  1
  Si  Si30  1  0.783824  0.580938  0.690092  1
  Si  Si31  1  0.214795  0.417978  0.184543  1
  Si  Si32  1  0.706704  0.076521  0.560195  1
  Si  Si33  1  0.925464  0.289704  0.941352  1
  Si  Si34  1  0.080771  0.715203  0.440856  1
  Ni  Ni35  1  0.195200  0.174270  0.707052  1
