# generated using pymatgen
data_Tm7Lu3(Zn2Sb)2
_symmetry_space_group_name_H-M   'P 1'
_cell_length_a   8.43871218
_cell_length_b   8.43871245
_cell_length_c   8.43927204
_cell_angle_alpha   123.89656192
_cell_angle_beta   123.89657092
_cell_angle_gamma   83.39437618
_symmetry_Int_Tables_number   1
_chemical_formula_structural   Tm7Lu3(Zn2Sb)2
_chemical_formula_sum   'Tm7 Lu3 Zn4 Sb2'
_cell_volume   396.95196385
_cell_formula_units_Z   1
loop_
 _symmetry_equiv_pos_site_id
 _symmetry_equiv_pos_as_xyz
  1  'x, y, z'
loop_
 _atom_site_type_symbol
 _atom_site_label
 _atom_site_symmetry_multiplicity
 _atom_site_fract_x
 _atom_site_fract_y
 _atom_site_fract_z
 _atom_site_occupancy
  Tm  Tm0  1  0.200728  0.700728  0.190090  1
  Tm  Tm1  1  0.489674  0.989674  0.190880  1
  Tm  Tm2  1  0.299021  0.489493  0.500165  1
  Tm  Tm3  1  0.010434  0.200969  0.500015  1
  Tm  Tm4  1  0.510474  0.010474  0.809452  1
  Tm  Tm5  1  0.700969  0.510434  0.500015  1
  Tm  Tm6  1  0.989493  0.799021  0.500165  1
  Lu  Lu7  1  0.999896  0.000125  0.999831  1
  Lu  Lu8  1  0.500125  0.499896  0.999831  1
  Lu  Lu9  1  0.798462  0.298462  0.809097  1
  Zn  Zn10  1  0.136219  0.636219  0.772347  1
  Zn  Zn11  1  0.863766  0.363766  0.227349  1
  Zn  Zn12  1  0.636327  0.864369  0.500339  1
  Zn  Zn13  1  0.364369  0.136327  0.500339  1
  Sb  Sb14  1  0.249912  0.250130  0.000042  1
  Sb  Sb15  1  0.750130  0.749912  0.000042  1
