# generated using pymatgen
data_LaNd11(ThPt3)2
_symmetry_space_group_name_H-M   'P 1'
_cell_length_a   6.49618437
_cell_length_b   10.21086231
_cell_length_c   10.21086248
_cell_angle_alpha   120.10121576
_cell_angle_beta   90.03368541
_cell_angle_gamma   89.96631114
_symmetry_Int_Tables_number   1
_chemical_formula_structural   LaNd11(ThPt3)2
_chemical_formula_sum   'La1 Nd11 Th2 Pt6'
_cell_volume   585.96256671
_cell_formula_units_Z   1
loop_
 _symmetry_equiv_pos_site_id
 _symmetry_equiv_pos_as_xyz
  1  'x, y, z'
loop_
 _atom_site_type_symbol
 _atom_site_label
 _atom_site_symmetry_multiplicity
 _atom_site_fract_x
 _atom_site_fract_y
 _atom_site_fract_z
 _atom_site_occupancy
  La  La0  1  0.248107  0.127583  0.872417  1
  Nd  Nd1  1  0.248287  0.744083  0.872388  1
  Nd  Nd2  1  0.248287  0.127612  0.255917  1
  Nd  Nd3  1  0.748006  0.872413  0.127587  1
  Nd  Nd4  1  0.748123  0.255556  0.128407  1
  Nd  Nd5  1  0.748123  0.871593  0.744444  1
  Nd  Nd6  1  0.446033  0.537928  0.462072  1
  Nd  Nd7  1  0.446611  0.923816  0.461479  1
  Nd  Nd8  1  0.446611  0.538521  0.076184  1
  Nd  Nd9  1  0.945627  0.461882  0.538118  1
  Nd  Nd10  1  0.945845  0.075597  0.537513  1
  Nd  Nd11  1  0.945845  0.462487  0.924403  1
  Th  Th12  1  0.463842  0.333646  0.666354  1
  Th  Th13  1  0.963505  0.666947  0.333053  1
  Pt  Pt14  1  0.182008  0.808724  0.191276  1
  Pt  Pt15  1  0.182233  0.382652  0.191063  1
  Pt  Pt16  1  0.182233  0.808937  0.617348  1
  Pt  Pt17  1  0.682207  0.191375  0.808625  1
  Pt  Pt18  1  0.682234  0.617320  0.808673  1
  Pt  Pt19  1  0.682234  0.191327  0.382680  1
