# generated using pymatgen
data_Ta(VPt4)3
_symmetry_space_group_name_H-M   'P 1'
_cell_length_a   5.53781400
_cell_length_b   4.86157567
_cell_length_c   9.22174112
_cell_angle_alpha   79.42434207
_cell_angle_beta   90.00000000
_cell_angle_gamma   90.00000000
_symmetry_Int_Tables_number   1
_chemical_formula_structural   Ta(VPt4)3
_chemical_formula_sum   'Ta1 V3 Pt12'
_cell_volume   244.05504206
_cell_formula_units_Z   1
loop_
 _symmetry_equiv_pos_site_id
 _symmetry_equiv_pos_as_xyz
  1  'x, y, z'
loop_
 _atom_site_type_symbol
 _atom_site_label
 _atom_site_symmetry_multiplicity
 _atom_site_fract_x
 _atom_site_fract_y
 _atom_site_fract_z
 _atom_site_occupancy
  Ta  Ta0  1  0.750000  0.788133  0.627242  1
  V  V1  1  0.250000  0.376980  0.878437  1
  V  V2  1  0.750000  0.623988  0.121628  1
  V  V3  1  0.250000  0.216540  0.370163  1
  Pt  Pt4  1  0.250000  0.605572  0.122553  1
  Pt  Pt5  1  0.750000  0.387366  0.879106  1
  Pt  Pt6  1  0.250000  0.789033  0.627972  1
  Pt  Pt7  1  0.750000  0.211396  0.371613  1
  Pt  Pt8  1  0.496802  0.877979  0.876485  1
  Pt  Pt9  1  0.998764  0.121632  0.126466  1
  Pt  Pt10  1  0.501236  0.121632  0.126466  1
  Pt  Pt11  1  0.003198  0.877979  0.876485  1
  Pt  Pt12  1  0.499062  0.708734  0.374147  1
  Pt  Pt13  1  0.003235  0.292151  0.623543  1
  Pt  Pt14  1  0.496765  0.292151  0.623543  1
  Pt  Pt15  1  0.000938  0.708734  0.374147  1
