# generated using pymatgen
data_LiSm6(P3Rh5)4
_symmetry_space_group_name_H-M   'P 1'
_cell_length_a   13.50225200
_cell_length_b   13.50225043
_cell_length_c   3.94202400
_cell_angle_alpha   90.00000000
_cell_angle_beta   90.00000000
_cell_angle_gamma   119.99999896
_symmetry_Int_Tables_number   1
_chemical_formula_structural   LiSm6(P3Rh5)4
_chemical_formula_sum   'Li1 Sm6 P12 Rh20'
_cell_volume   622.38951547
_cell_formula_units_Z   1
loop_
 _symmetry_equiv_pos_site_id
 _symmetry_equiv_pos_as_xyz
  1  'x, y, z'
loop_
 _atom_site_type_symbol
 _atom_site_label
 _atom_site_symmetry_multiplicity
 _atom_site_fract_x
 _atom_site_fract_y
 _atom_site_fract_z
 _atom_site_occupancy
  Li  Li0  1  0.000000  0.000000  0.000000  1
  Sm  Sm1  1  0.530869  0.717843  0.249932  1
  Sm  Sm2  1  0.282157  0.813025  0.249932  1
  Sm  Sm3  1  0.186975  0.469131  0.249932  1
  Sm  Sm4  1  0.469131  0.282157  0.750068  1
  Sm  Sm5  1  0.717843  0.186975  0.750068  1
  Sm  Sm6  1  0.813025  0.530869  0.750068  1
  P  P7  1  0.524689  0.136755  0.250237  1
  P  P8  1  0.863245  0.387934  0.250237  1
  P  P9  1  0.612066  0.475311  0.250237  1
  P  P10  1  0.949600  0.723317  0.248615  1
  P  P11  1  0.276683  0.226282  0.248615  1
  P  P12  1  0.773718  0.050400  0.248615  1
  P  P13  1  0.387934  0.524689  0.749763  1
  P  P14  1  0.475311  0.863245  0.749763  1
  P  P15  1  0.136755  0.612066  0.749763  1
  P  P16  1  0.723317  0.773718  0.751385  1
  P  P17  1  0.226282  0.949600  0.751385  1
  P  P18  1  0.050400  0.276683  0.751385  1
  Rh  Rh19  1  0.333333  0.666667  0.750625  1
  Rh  Rh20  1  0.921761  0.251802  0.248583  1
  Rh  Rh21  1  0.748198  0.669960  0.248583  1
  Rh  Rh22  1  0.330040  0.078239  0.248583  1
  Rh  Rh23  1  0.441109  0.025506  0.749608  1
  Rh  Rh24  1  0.974494  0.415603  0.749608  1
  Rh  Rh25  1  0.584397  0.558891  0.749608  1
  Rh  Rh26  1  0.666667  0.333333  0.249375  1
  Rh  Rh27  1  0.094953  0.201793  0.252046  1
  Rh  Rh28  1  0.798207  0.893159  0.252046  1
  Rh  Rh29  1  0.106841  0.905047  0.252046  1
  Rh  Rh30  1  0.025506  0.584397  0.250392  1
  Rh  Rh31  1  0.415603  0.441109  0.250392  1
  Rh  Rh32  1  0.558891  0.974494  0.250392  1
  Rh  Rh33  1  0.669960  0.921761  0.751417  1
  Rh  Rh34  1  0.078239  0.748198  0.751417  1
  Rh  Rh35  1  0.251802  0.330040  0.751417  1
  Rh  Rh36  1  0.905047  0.798207  0.747954  1
  Rh  Rh37  1  0.201793  0.106841  0.747954  1
  Rh  Rh38  1  0.893159  0.094953  0.747954  1
