# generated using pymatgen
data_Zr2Si6AsRh12
_symmetry_space_group_name_H-M   'P 1'
_cell_length_a   9.73099800
_cell_length_b   9.73099932
_cell_length_c   3.81481900
_cell_angle_alpha   90.00000000
_cell_angle_beta   90.00000000
_cell_angle_gamma   119.99999550
_symmetry_Int_Tables_number   1
_chemical_formula_structural   Zr2Si6AsRh12
_chemical_formula_sum   'Zr2 Si6 As1 Rh12'
_cell_volume   312.83793754
_cell_formula_units_Z   1
loop_
 _symmetry_equiv_pos_site_id
 _symmetry_equiv_pos_as_xyz
  1  'x, y, z'
loop_
 _atom_site_type_symbol
 _atom_site_label
 _atom_site_symmetry_multiplicity
 _atom_site_fract_x
 _atom_site_fract_y
 _atom_site_fract_z
 _atom_site_occupancy
  Zr  Zr0  1  0.333333  0.666667  0.248722  1
  Zr  Zr1  1  0.666667  0.333333  0.751278  1
  Si  Si2  1  0.406511  0.114897  0.250015  1
  Si  Si3  1  0.708386  0.593489  0.250015  1
  Si  Si4  1  0.885103  0.291614  0.250015  1
  Si  Si5  1  0.593489  0.885103  0.749985  1
  Si  Si6  1  0.291614  0.406511  0.749985  1
  Si  Si7  1  0.114897  0.708386  0.749985  1
  As  As8  1  0.000000  0.000000  0.500000  1
  Rh  Rh9  1  0.448458  0.379306  0.249010  1
  Rh  Rh10  1  0.930848  0.551542  0.249010  1
  Rh  Rh11  1  0.620694  0.069152  0.249010  1
  Rh  Rh12  1  0.551542  0.620694  0.750990  1
  Rh  Rh13  1  0.069152  0.448458  0.750990  1
  Rh  Rh14  1  0.379306  0.930848  0.750990  1
  Rh  Rh15  1  0.145763  0.877523  0.249774  1
  Rh  Rh16  1  0.731760  0.854237  0.249774  1
  Rh  Rh17  1  0.122477  0.268240  0.249774  1
  Rh  Rh18  1  0.854237  0.122477  0.750226  1
  Rh  Rh19  1  0.268240  0.145763  0.750226  1
  Rh  Rh20  1  0.877523  0.731760  0.750226  1
