# generated using pymatgen
data_Ho2SnAs4(PRh6)2
_symmetry_space_group_name_H-M   'P 1'
_cell_length_a   9.98531923
_cell_length_b   10.01834864
_cell_length_c   3.91490634
_cell_angle_alpha   89.42032376
_cell_angle_beta   90.77441717
_cell_angle_gamma   120.68387070
_symmetry_Int_Tables_number   1
_chemical_formula_structural   Ho2SnAs4(PRh6)2
_chemical_formula_sum   'Ho2 Sn1 As4 P2 Rh12'
_cell_volume   336.76982179
_cell_formula_units_Z   1
loop_
 _symmetry_equiv_pos_site_id
 _symmetry_equiv_pos_as_xyz
  1  'x, y, z'
loop_
 _atom_site_type_symbol
 _atom_site_label
 _atom_site_symmetry_multiplicity
 _atom_site_fract_x
 _atom_site_fract_y
 _atom_site_fract_z
 _atom_site_occupancy
  Ho  Ho0  1  0.331426  0.667667  0.752027  1
  Ho  Ho1  1  0.662464  0.329584  0.240428  1
  Sn  Sn2  1  0.001718  0.999650  0.575581  1
  As  As3  1  0.400060  0.284230  0.738914  1
  As  As4  1  0.714484  0.122896  0.747062  1
  As  As5  1  0.879499  0.591464  0.741887  1
  As  As6  1  0.592920  0.710497  0.253406  1
  P  P7  1  0.289342  0.881853  0.244760  1
  P  P8  1  0.119030  0.408347  0.254047  1
  Rh  Rh9  1  0.446360  0.060909  0.737571  1
  Rh  Rh10  1  0.941949  0.389947  0.744133  1
  Rh  Rh11  1  0.614220  0.549638  0.746717  1
  Rh  Rh12  1  0.541867  0.933250  0.248725  1
  Rh  Rh13  1  0.078325  0.617063  0.245526  1
  Rh  Rh14  1  0.375172  0.447111  0.251396  1
  Rh  Rh15  1  0.153592  0.291994  0.761959  1
  Rh  Rh16  1  0.712265  0.878837  0.759894  1
  Rh  Rh17  1  0.133384  0.837327  0.744031  1
  Rh  Rh18  1  0.850314  0.725191  0.235434  1
  Rh  Rh19  1  0.272723  0.107316  0.228523  1
  Rh  Rh20  1  0.888887  0.165229  0.247978  1
