# generated using pymatgen
data_Ga2PbI8
_symmetry_space_group_name_H-M   'P 1'
_cell_length_a   8.36980000
_cell_length_b   8.61037265
_cell_length_c   15.81158361
_cell_angle_alpha   87.47203234
_cell_angle_beta   90.00000000
_cell_angle_gamma   90.00000000
_symmetry_Int_Tables_number   1
_chemical_formula_structural   Ga2PbI8
_chemical_formula_sum   'Ga4 Pb2 I16'
_cell_volume   1138.38598571
_cell_formula_units_Z   2
loop_
 _symmetry_equiv_pos_site_id
 _symmetry_equiv_pos_as_xyz
  1  'x, y, z'
loop_
 _atom_site_type_symbol
 _atom_site_label
 _atom_site_symmetry_multiplicity
 _atom_site_fract_x
 _atom_site_fract_y
 _atom_site_fract_z
 _atom_site_occupancy
  Ga  Ga0  1  0.933726  0.221976  0.579375  1
  Ga  Ga1  1  0.066274  0.221976  0.079375  1
  Ga  Ga2  1  0.570520  0.641399  0.777165  1
  Ga  Ga3  1  0.429480  0.641399  0.277165  1
  Pb  Pb4  1  0.753987  0.075727  0.811978  1
  Pb  Pb5  1  0.246013  0.075727  0.311978  1
  I  I6  1  0.422798  0.615549  0.639993  1
  I  I7  1  0.577202  0.615549  0.139993  1
  I  I8  1  0.869771  0.728731  0.760176  1
  I  I9  1  0.130229  0.728731  0.260176  1
  I  I10  1  0.938884  0.477480  0.496062  1
  I  I11  1  0.061116  0.477480  0.996062  1
  I  I12  1  0.922045  0.997751  0.002432  1
  I  I13  1  0.077955  0.997751  0.502432  1
  I  I14  1  0.641209  0.128199  0.615247  1
  I  I15  1  0.358791  0.128199  0.115247  1
  I  I16  1  0.559152  0.387321  0.874866  1
  I  I17  1  0.440848  0.387321  0.374866  1
  I  I18  1  0.441598  0.859466  0.866726  1
  I  I19  1  0.558402  0.859466  0.366726  1
  I  I20  1  0.927348  0.233801  0.228182  1
  I  I21  1  0.072652  0.233801  0.728182  1
