# generated using pymatgen
data_Pr3Nd5Cd2IrRu
_symmetry_space_group_name_H-M   'P 1'
_cell_length_a   9.97116733
_cell_length_b   9.97116728
_cell_length_c   10.00513300
_cell_angle_alpha   59.88725660
_cell_angle_beta   59.88725677
_cell_angle_gamma   59.81302285
_symmetry_Int_Tables_number   1
_chemical_formula_structural   Pr3Nd5Cd2IrRu
_chemical_formula_sum   'Pr6 Nd10 Cd4 Ir2 Ru2'
_cell_volume   701.20066916
_cell_formula_units_Z   2
loop_
 _symmetry_equiv_pos_site_id
 _symmetry_equiv_pos_as_xyz
  1  'x, y, z'
loop_
 _atom_site_type_symbol
 _atom_site_label
 _atom_site_symmetry_multiplicity
 _atom_site_fract_x
 _atom_site_fract_y
 _atom_site_fract_z
 _atom_site_occupancy
  Pr  Pr0  1  0.939671  0.559684  0.560868  1
  Pr  Pr1  1  0.559684  0.939671  0.939777  1
  Pr  Pr2  1  0.559684  0.939671  0.560868  1
  Pr  Pr3  1  0.939671  0.559684  0.939777  1
  Pr  Pr4  1  0.560806  0.560806  0.939194  1
  Pr  Pr5  1  0.940358  0.940358  0.559642  1
  Nd  Nd6  1  0.346489  0.346489  0.348462  1
  Nd  Nd7  1  0.346489  0.346489  0.958559  1
  Nd  Nd8  1  0.345230  0.959603  0.347583  1
  Nd  Nd9  1  0.959603  0.345230  0.347583  1
  Nd  Nd10  1  0.810881  0.190496  0.190135  1
  Nd  Nd11  1  0.190496  0.810881  0.808488  1
  Nd  Nd12  1  0.190496  0.810881  0.190135  1
  Nd  Nd13  1  0.810881  0.190496  0.808488  1
  Nd  Nd14  1  0.190761  0.190761  0.809239  1
  Nd  Nd15  1  0.809543  0.809543  0.190457  1
  Cd  Cd16  1  0.579414  0.579414  0.579357  1
  Cd  Cd17  1  0.579414  0.579414  0.261812  1
  Cd  Cd18  1  0.579445  0.260962  0.579795  1
  Cd  Cd19  1  0.260962  0.579445  0.579795  1
  Ir  Ir20  1  0.142313  0.577426  0.140131  1
  Ir  Ir21  1  0.577426  0.142313  0.140131  1
  Ru  Ru22  1  0.140140  0.140140  0.137279  1
  Ru  Ru23  1  0.140140  0.140140  0.582443  1
