# generated using pymatgen
data_Tb12TcNi4Pb
_symmetry_space_group_name_H-M   'P 1'
_cell_length_a   8.36877380
_cell_length_b   8.36877357
_cell_length_c   8.36877313
_cell_angle_alpha   107.35632731
_cell_angle_beta   109.43426164
_cell_angle_gamma   111.65159135
_symmetry_Int_Tables_number   1
_chemical_formula_structural   Tb12TcNi4Pb
_chemical_formula_sum   'Tb12 Tc1 Ni4 Pb1'
_cell_volume   450.55968626
_cell_formula_units_Z   1
loop_
 _symmetry_equiv_pos_site_id
 _symmetry_equiv_pos_as_xyz
  1  'x, y, z'
loop_
 _atom_site_type_symbol
 _atom_site_label
 _atom_site_symmetry_multiplicity
 _atom_site_fract_x
 _atom_site_fract_y
 _atom_site_fract_z
 _atom_site_occupancy
  Tb  Tb0  1  0.690599  0.281798  0.972397  1
  Tb  Tb1  1  0.309401  0.718202  0.027603  1
  Tb  Tb2  1  0.690599  0.718202  0.408801  1
  Tb  Tb3  1  0.309401  0.281798  0.591199  1
  Tb  Tb4  1  0.807735  0.128073  0.320338  1
  Tb  Tb5  1  0.807735  0.487396  0.679662  1
  Tb  Tb6  1  0.192265  0.871927  0.679662  1
  Tb  Tb7  1  0.192265  0.512604  0.320338  1
  Tb  Tb8  1  0.606323  0.784950  0.821373  1
  Tb  Tb9  1  0.963579  0.784950  0.178627  1
  Tb  Tb10  1  0.036421  0.215050  0.821373  1
  Tb  Tb11  1  0.393677  0.215050  0.178627  1
  Tc  Tc12  1  0.500000  0.500000  0.000000  1
  Ni  Ni13  1  0.860077  0.500000  0.360077  1
  Ni  Ni14  1  0.139923  0.500000  0.639923  1
  Ni  Ni15  1  0.000000  0.120539  0.120539  1
  Ni  Ni16  1  0.000000  0.879461  0.879461  1
  Pb  Pb17  1  0.500000  0.000000  0.500000  1
