# generated using pymatgen
data_Sc8Si15PRu12
_symmetry_space_group_name_H-M   'P 1'
_cell_length_a   10.00344340
_cell_length_b   10.01064814
_cell_length_c   13.44624300
_cell_angle_alpha   53.91548619
_cell_angle_beta   53.75983321
_cell_angle_gamma   30.98266489
_symmetry_Int_Tables_number   1
_chemical_formula_structural   Sc8Si15PRu12
_chemical_formula_sum   'Sc8 Si15 P1 Ru12'
_cell_volume   548.01174780
_cell_formula_units_Z   1
loop_
 _symmetry_equiv_pos_site_id
 _symmetry_equiv_pos_as_xyz
  1  'x, y, z'
loop_
 _atom_site_type_symbol
 _atom_site_label
 _atom_site_symmetry_multiplicity
 _atom_site_fract_x
 _atom_site_fract_y
 _atom_site_fract_z
 _atom_site_occupancy
  Sc  Sc0  1  0.295329  0.558514  0.645426  1
  Sc  Sc1  1  0.707552  0.962900  0.860714  1
  Sc  Sc2  1  0.290364  0.039112  0.138704  1
  Sc  Sc3  1  0.444279  0.704399  0.853601  1
  Sc  Sc4  1  0.036629  0.293032  0.638552  1
  Sc  Sc5  1  0.558451  0.292990  0.145899  1
  Sc  Sc6  1  0.963908  0.706268  0.360914  1
  Sc  Sc7  1  0.704546  0.442059  0.354835  1
  Si  Si8  1  0.613465  0.859083  0.600852  1
  Si  Si9  1  0.977158  0.251079  0.891742  1
  Si  Si10  1  0.382215  0.618245  0.249880  1
  Si  Si11  1  0.385380  0.142198  0.399344  1
  Si  Si12  1  0.573617  0.080287  0.065445  1
  Si  Si13  1  0.141842  0.386558  0.897983  1
  Si  Si14  1  0.251488  0.978324  0.389583  1
  Si  Si15  1  0.080342  0.574758  0.567367  1
  Si  Si16  1  0.425147  0.919805  0.933123  1
  Si  Si17  1  0.130326  0.869811  0.750007  1
  Si  Si18  1  0.748693  0.023359  0.608496  1
  Si  Si19  1  0.870982  0.128692  0.250521  1
  Si  Si20  1  0.621162  0.377931  0.751566  1
  Si  Si21  1  0.919780  0.426008  0.431899  1
  Si  Si22  1  0.854131  0.614498  0.101279  1
  P  P23  1  0.018684  0.753130  0.114599  1
  Ru  Ru24  1  0.139868  0.895758  0.086359  1
  Ru  Ru25  1  0.166884  0.364097  0.212708  1
  Ru  Ru26  1  0.353642  0.168495  0.717115  1
  Ru  Ru27  1  0.831279  0.645580  0.783096  1
  Ru  Ru28  1  0.504148  0.251909  0.430204  1
  Ru  Ru29  1  0.865566  0.091388  0.918485  1
  Ru  Ru30  1  0.645200  0.835510  0.281703  1
  Ru  Ru31  1  0.248686  0.506112  0.929564  1
  Ru  Ru32  1  0.750548  0.491099  0.069478  1
  Ru  Ru33  1  0.102440  0.859238  0.413914  1
  Ru  Ru34  1  0.899141  0.140804  0.585358  1
  Ru  Ru35  1  0.497126  0.746967  0.569682  1
