# generated using pymatgen
data_Pr4ThBi3Cl
_symmetry_space_group_name_H-M   'P 1'
_cell_length_a   9.67655300
_cell_length_b   9.67655349
_cell_length_c   6.67723000
_cell_angle_alpha   90.00000000
_cell_angle_beta   90.00000000
_cell_angle_gamma   120.00000173
_symmetry_Int_Tables_number   1
_chemical_formula_structural   Pr4ThBi3Cl
_chemical_formula_sum   'Pr8 Th2 Bi6 Cl2'
_cell_volume   541.46244687
_cell_formula_units_Z   2
loop_
 _symmetry_equiv_pos_site_id
 _symmetry_equiv_pos_as_xyz
  1  'x, y, z'
loop_
 _atom_site_type_symbol
 _atom_site_label
 _atom_site_symmetry_multiplicity
 _atom_site_fract_x
 _atom_site_fract_y
 _atom_site_fract_z
 _atom_site_occupancy
  Pr  Pr0  1  0.729446  0.996827  0.750000  1
  Pr  Pr1  1  0.003173  0.270554  0.250000  1
  Pr  Pr2  1  0.729446  0.732618  0.250000  1
  Pr  Pr3  1  0.666667  0.333333  0.500000  1
  Pr  Pr4  1  0.666667  0.333333  0.000000  1
  Pr  Pr5  1  0.267382  0.996827  0.250000  1
  Pr  Pr6  1  0.267382  0.270554  0.750000  1
  Pr  Pr7  1  0.003173  0.732618  0.750000  1
  Th  Th8  1  0.333333  0.666667  0.500000  1
  Th  Th9  1  0.333333  0.666667  0.000000  1
  Bi  Bi10  1  0.384055  0.000506  0.750000  1
  Bi  Bi11  1  0.616451  0.000506  0.250000  1
  Bi  Bi12  1  0.999494  0.615945  0.250000  1
  Bi  Bi13  1  0.616451  0.615945  0.750000  1
  Bi  Bi14  1  0.999494  0.383549  0.750000  1
  Bi  Bi15  1  0.384055  0.383549  0.250000  1
  Cl  Cl16  1  0.000000  0.000000  0.500000  1
  Cl  Cl17  1  0.000000  0.000000  0.000000  1
