# generated using pymatgen
data_Hf4Mn4SiAs3
_symmetry_space_group_name_H-M   'P 1'
_cell_length_a   3.68921300
_cell_length_b   6.57653973
_cell_length_c   7.72109576
_cell_angle_alpha   89.77521854
_cell_angle_beta   90.00000000
_cell_angle_gamma   90.00000000
_symmetry_Int_Tables_number   1
_chemical_formula_structural   Hf4Mn4SiAs3
_chemical_formula_sum   'Hf4 Mn4 Si1 As3'
_cell_volume   187.32975937
_cell_formula_units_Z   1
loop_
 _symmetry_equiv_pos_site_id
 _symmetry_equiv_pos_as_xyz
  1  'x, y, z'
loop_
 _atom_site_type_symbol
 _atom_site_label
 _atom_site_symmetry_multiplicity
 _atom_site_fract_x
 _atom_site_fract_y
 _atom_site_fract_z
 _atom_site_occupancy
  Hf  Hf0  1  0.250000  0.960909  0.321351  1
  Hf  Hf1  1  0.250000  0.472074  0.173574  1
  Hf  Hf2  1  0.750000  0.035209  0.676024  1
  Hf  Hf3  1  0.750000  0.536360  0.828790  1
  Mn  Mn4  1  0.250000  0.364391  0.562001  1
  Mn  Mn5  1  0.250000  0.862236  0.942249  1
  Mn  Mn6  1  0.750000  0.637763  0.434239  1
  Mn  Mn7  1  0.750000  0.130038  0.063416  1
  Si  Si8  1  0.750000  0.765350  0.125343  1
  As  As9  1  0.250000  0.736716  0.629476  1
  As  As10  1  0.250000  0.235846  0.873137  1
  As  As11  1  0.750000  0.263108  0.370402  1
