# generated using pymatgen
data_Cd2(Ni7B2)3
_symmetry_space_group_name_H-M   'P 1'
_cell_length_a   7.47452200
_cell_length_b   7.47452186
_cell_length_c   7.47452200
_cell_angle_alpha   120.00000060
_cell_angle_beta   90.00000000
_cell_angle_gamma   120.00000060
_symmetry_Int_Tables_number   1
_chemical_formula_structural   Cd2(Ni7B2)3
_chemical_formula_sum   'Cd2 Ni21 B6'
_cell_volume   295.28083471
_cell_formula_units_Z   1
loop_
 _symmetry_equiv_pos_site_id
 _symmetry_equiv_pos_as_xyz
  1  'x, y, z'
loop_
 _atom_site_type_symbol
 _atom_site_label
 _atom_site_symmetry_multiplicity
 _atom_site_fract_x
 _atom_site_fract_y
 _atom_site_fract_z
 _atom_site_occupancy
  Cd  Cd0  1  0.750002  0.500001  0.250001  1
  Cd  Cd1  1  0.250001  0.500001  0.750002  1
  Ni  Ni2  1  0.000000  0.000000  0.000000  1
  Ni  Ni3  1  0.335717  0.000000  0.000000  1
  Ni  Ni4  1  0.664285  0.000000  0.000000  1
  Ni  Ni5  1  0.000000  0.335717  0.000000  1
  Ni  Ni6  1  0.335717  0.335717  0.000000  1
  Ni  Ni7  1  0.000000  0.664285  0.000000  1
  Ni  Ni8  1  0.664285  0.664285  0.000000  1
  Ni  Ni9  1  0.386382  0.772764  0.159144  1
  Ni  Ni10  1  0.000000  0.000000  0.335717  1
  Ni  Ni11  1  0.000000  0.335717  0.335717  1
  Ni  Ni12  1  0.335717  0.335717  0.335717  1
  Ni  Ni13  1  0.613620  0.227239  0.386382  1
  Ni  Ni14  1  0.159144  0.772764  0.386382  1
  Ni  Ni15  1  0.613620  0.772764  0.386382  1
  Ni  Ni16  1  0.840857  0.227239  0.613619  1
  Ni  Ni17  1  0.386382  0.227239  0.613620  1
  Ni  Ni18  1  0.386382  0.772764  0.613620  1
  Ni  Ni19  1  0.000000  0.000000  0.664285  1
  Ni  Ni20  1  0.000000  0.664285  0.664285  1
  Ni  Ni21  1  0.664285  0.664285  0.664285  1
  Ni  Ni22  1  0.613619  0.227239  0.840857  1
  B  B23  1  0.273541  0.000000  0.273541  1
  B  B24  1  0.273541  0.547083  0.273541  1
  B  B25  1  0.726459  0.000000  0.273543  1
  B  B26  1  0.273543  0.000000  0.726459  1
  B  B27  1  0.726459  0.000000  0.726459  1
  B  B28  1  0.726459  0.452916  0.726459  1
