# generated using pymatgen
data_Ho2TcOs3
_symmetry_space_group_name_H-M   'P 1'
_cell_length_a   5.31434706
_cell_length_b   5.22809568
_cell_length_c   8.98555200
_cell_angle_alpha   90.00000000
_cell_angle_beta   90.00000000
_cell_angle_gamma   119.46457324
_symmetry_Int_Tables_number   1
_chemical_formula_structural   Ho2TcOs3
_chemical_formula_sum   'Ho4 Tc2 Os6'
_cell_volume   217.36358833
_cell_formula_units_Z   2
loop_
 _symmetry_equiv_pos_site_id
 _symmetry_equiv_pos_as_xyz
  1  'x, y, z'
loop_
 _atom_site_type_symbol
 _atom_site_label
 _atom_site_symmetry_multiplicity
 _atom_site_fract_x
 _atom_site_fract_y
 _atom_site_fract_z
 _atom_site_occupancy
  Ho  Ho0  1  0.331766  0.665884  0.437905  1
  Ho  Ho1  1  0.667657  0.333828  0.567140  1
  Ho  Ho2  1  0.667657  0.333828  0.932860  1
  Ho  Ho3  1  0.331766  0.665884  0.062095  1
  Tc  Tc4  1  0.830791  0.172690  0.250000  1
  Tc  Tc5  1  0.830791  0.658101  0.250000  1
  Os  Os6  1  0.998674  0.999337  0.500866  1
  Os  Os7  1  0.998674  0.999337  0.999134  1
  Os  Os8  1  0.343826  0.171913  0.250000  1
  Os  Os9  1  0.171118  0.830391  0.750000  1
  Os  Os10  1  0.171118  0.340728  0.750000  1
  Os  Os11  1  0.656160  0.828080  0.750000  1
