# generated using pymatgen
data_Nd2Ho5Lu(WO6)4
_symmetry_space_group_name_H-M   'P 1'
_cell_length_a   5.42690582
_cell_length_b   7.74715974
_cell_length_c   11.49964802
_cell_angle_alpha   75.49838049
_cell_angle_beta   90.00092127
_cell_angle_gamma   90.06107610
_symmetry_Int_Tables_number   1
_chemical_formula_structural   Nd2Ho5Lu(WO6)4
_chemical_formula_sum   'Nd2 Ho5 Lu1 W4 O24'
_cell_volume   468.07721179
_cell_formula_units_Z   1
loop_
 _symmetry_equiv_pos_site_id
 _symmetry_equiv_pos_as_xyz
  1  'x, y, z'
loop_
 _atom_site_type_symbol
 _atom_site_label
 _atom_site_symmetry_multiplicity
 _atom_site_fract_x
 _atom_site_fract_y
 _atom_site_fract_z
 _atom_site_occupancy
  Nd  Nd0  1  0.314761  0.500707  0.749156  1
  Nd  Nd1  1  0.685654  0.500307  0.250239  1
  Ho  Ho2  1  0.257103  0.999527  0.748863  1
  Ho  Ho3  1  0.185240  0.796640  0.077179  1
  Ho  Ho4  1  0.184311  0.202671  0.423222  1
  Ho  Ho5  1  0.743282  0.999507  0.250930  1
  Ho  Ho6  1  0.814910  0.203337  0.922940  1
  Lu  Lu7  1  0.815650  0.795784  0.578040  1
  W  W8  1  0.746008  0.728210  0.883470  1
  W  W9  1  0.254871  0.728354  0.385217  1
  W  W10  1  0.745293  0.272332  0.615790  1
  W  W11  1  0.254537  0.272069  0.115821  1
  O  O12  1  0.536125  0.154850  0.069685  1
  O  O13  1  0.043391  0.058553  0.103834  1
  O  O14  1  0.014606  0.720696  0.767570  1
  O  O15  1  0.462235  0.156234  0.569635  1
  O  O16  1  0.347770  0.493359  0.387433  1
  O  O17  1  0.952480  0.055689  0.603523  1
  O  O18  1  0.547088  0.796680  0.724147  1
  O  O19  1  0.456018  0.796570  0.227063  1
  O  O20  1  0.141982  0.642348  0.546642  1
  O  O21  1  0.043001  0.940908  0.397131  1
  O  O22  1  0.463450  0.844555  0.929211  1
  O  O23  1  0.455649  0.203890  0.273838  1
  O  O24  1  0.853537  0.359250  0.453909  1
  O  O25  1  0.651499  0.493006  0.886470  1
  O  O26  1  0.348495  0.507372  0.113478  1
  O  O27  1  0.957055  0.941205  0.896011  1
  O  O28  1  0.539583  0.842838  0.433001  1
  O  O29  1  0.984457  0.279891  0.230697  1
  O  O30  1  0.544013  0.204488  0.773517  1
  O  O31  1  0.853299  0.640741  0.045790  1
  O  O32  1  0.016126  0.278827  0.730102  1
  O  O33  1  0.146811  0.359698  0.953740  1
  O  O34  1  0.985492  0.720249  0.269426  1
  O  O35  1  0.654221  0.508657  0.613281  1
