# generated using pymatgen
data_Tm10Ir3Ru2Pt
_symmetry_space_group_name_H-M   'P 1'
_cell_length_a   10.70793357
_cell_length_b   10.70203200
_cell_length_c   6.38047333
_cell_angle_alpha   90.00000000
_cell_angle_beta   90.11700598
_cell_angle_gamma   90.00000000
_symmetry_Int_Tables_number   1
_chemical_formula_structural   Tm10Ir3Ru2Pt
_chemical_formula_sum   'Tm20 Ir6 Ru4 Pt2'
_cell_volume   731.17933022
_cell_formula_units_Z   2
loop_
 _symmetry_equiv_pos_site_id
 _symmetry_equiv_pos_as_xyz
  1  'x, y, z'
loop_
 _atom_site_type_symbol
 _atom_site_label
 _atom_site_symmetry_multiplicity
 _atom_site_fract_x
 _atom_site_fract_y
 _atom_site_fract_z
 _atom_site_occupancy
  Tm  Tm0  1  0.293299  0.086261  0.376841  1
  Tm  Tm1  1  0.293299  0.913739  0.876841  1
  Tm  Tm2  1  0.703147  0.087867  0.874768  1
  Tm  Tm3  1  0.703147  0.912133  0.374768  1
  Tm  Tm4  1  0.583418  0.793103  0.877354  1
  Tm  Tm5  1  0.583418  0.206897  0.377354  1
  Tm  Tm6  1  0.413023  0.792998  0.377428  1
  Tm  Tm7  1  0.413023  0.207002  0.877428  1
  Tm  Tm8  1  0.206979  0.413431  0.622675  1
  Tm  Tm9  1  0.206979  0.586569  0.122675  1
  Tm  Tm10  1  0.793087  0.416407  0.122277  1
  Tm  Tm11  1  0.793087  0.583593  0.622277  1
  Tm  Tm12  1  0.915099  0.705096  0.127057  1
  Tm  Tm13  1  0.915099  0.294904  0.627057  1
  Tm  Tm14  1  0.088899  0.705087  0.621561  1
  Tm  Tm15  1  0.088899  0.294913  0.121561  1
  Tm  Tm16  1  0.003079  0.999545  0.500060  1
  Tm  Tm17  1  0.003079  0.000455  0.000060  1
  Tm  Tm18  1  0.499710  0.499911  0.000203  1
  Tm  Tm19  1  0.499710  0.500089  0.500203  1
  Ir  Ir20  1  0.151824  0.152201  0.749835  1
  Ir  Ir21  1  0.151824  0.847799  0.249835  1
  Ir  Ir22  1  0.653299  0.346756  0.749919  1
  Ir  Ir23  1  0.653299  0.653244  0.249919  1
  Ir  Ir24  1  0.347305  0.347418  0.249922  1
  Ir  Ir25  1  0.347305  0.652582  0.749922  1
  Ru  Ru26  1  0.500523  0.000031  0.123694  1
  Ru  Ru27  1  0.500523  0.999969  0.623694  1
  Ru  Ru28  1  0.000074  0.499995  0.876248  1
  Ru  Ru29  1  0.000074  0.500005  0.376248  1
  Pt  Pt30  1  0.847233  0.152551  0.250158  1
  Pt  Pt31  1  0.847233  0.847449  0.750158  1
