# generated using pymatgen
data_Er19TmIr5Pt7
_symmetry_space_group_name_H-M   'P 1'
_cell_length_a   10.94970703
_cell_length_b   10.95010772
_cell_length_c   6.29089505
_cell_angle_alpha   90.01788904
_cell_angle_beta   90.01870524
_cell_angle_gamma   90.23646591
_symmetry_Int_Tables_number   1
_chemical_formula_structural   Er19TmIr5Pt7
_chemical_formula_sum   'Er19 Tm1 Ir5 Pt7'
_cell_volume   754.27478078
_cell_formula_units_Z   1
loop_
 _symmetry_equiv_pos_site_id
 _symmetry_equiv_pos_as_xyz
  1  'x, y, z'
loop_
 _atom_site_type_symbol
 _atom_site_label
 _atom_site_symmetry_multiplicity
 _atom_site_fract_x
 _atom_site_fract_y
 _atom_site_fract_z
 _atom_site_occupancy
  Er  Er0  1  0.295084  0.086363  0.373692  1
  Er  Er1  1  0.295136  0.908537  0.874279  1
  Er  Er2  1  0.704549  0.086897  0.873583  1
  Er  Er3  1  0.704509  0.912163  0.372924  1
  Er  Er4  1  0.583639  0.792703  0.872276  1
  Er  Er5  1  0.587372  0.205597  0.374752  1
  Er  Er6  1  0.410718  0.792239  0.378072  1
  Er  Er7  1  0.412313  0.203999  0.874487  1
  Er  Er8  1  0.207395  0.416386  0.627700  1
  Er  Er9  1  0.207644  0.589335  0.121958  1
  Er  Er10  1  0.794476  0.412608  0.125248  1
  Er  Er11  1  0.795922  0.587671  0.625489  1
  Er  Er12  1  0.913632  0.704923  0.126262  1
  Er  Er13  1  0.913113  0.295445  0.626450  1
  Er  Er14  1  0.091480  0.704855  0.625732  1
  Er  Er15  1  0.087843  0.295477  0.127008  1
  Er  Er16  1  0.999524  0.999884  0.500428  1
  Er  Er17  1  0.000119  0.000499  0.999569  1
  Er  Er18  1  0.497938  0.500683  0.999619  1
  Tm  Tm19  1  0.499320  0.502043  0.500381  1
  Ir  Ir20  1  0.347179  0.652848  0.749678  1
  Ir  Ir21  1  0.499944  0.999892  0.121544  1
  Ir  Ir22  1  0.499773  0.000068  0.620216  1
  Ir  Ir23  1  0.999931  0.500236  0.879731  1
  Ir  Ir24  1  0.000102  0.500048  0.378503  1
  Pt  Pt25  1  0.846369  0.153652  0.250045  1
  Pt  Pt26  1  0.845207  0.846523  0.750780  1
  Pt  Pt27  1  0.153491  0.154769  0.749154  1
  Pt  Pt28  1  0.152770  0.847187  0.250031  1
  Pt  Pt29  1  0.652970  0.346999  0.749579  1
  Pt  Pt30  1  0.654602  0.654044  0.250124  1
  Pt  Pt31  1  0.345931  0.345425  0.250707  1
