# generated using pymatgen
data_Y5Ho15Cd3Fe2Hg3
_symmetry_space_group_name_H-M   'P 1'
_cell_length_a   9.52877407
_cell_length_b   9.52877366
_cell_length_c   9.71398800
_cell_angle_alpha   90.00000000
_cell_angle_beta   90.00000000
_cell_angle_gamma   120.02049593
_symmetry_Int_Tables_number   1
_chemical_formula_structural   Y5Ho15Cd3Fe2Hg3
_chemical_formula_sum   'Y5 Ho15 Cd3 Fe2 Hg3'
_cell_volume   763.68190984
_cell_formula_units_Z   1
loop_
 _symmetry_equiv_pos_site_id
 _symmetry_equiv_pos_as_xyz
  1  'x, y, z'
loop_
 _atom_site_type_symbol
 _atom_site_label
 _atom_site_symmetry_multiplicity
 _atom_site_fract_x
 _atom_site_fract_y
 _atom_site_fract_z
 _atom_site_occupancy
  Y  Y0  1  0.540753  0.081765  0.250000  1
  Y  Y1  1  0.918235  0.459247  0.250000  1
  Y  Y2  1  0.459203  0.540797  0.750000  1
  Y  Y3  1  0.459286  0.918643  0.750000  1
  Y  Y4  1  0.081357  0.540714  0.750000  1
  Ho  Ho5  1  0.000094  0.999906  0.490885  1
  Ho  Ho6  1  0.000094  0.999906  0.009115  1
  Ho  Ho7  1  0.211612  0.788388  0.436441  1
  Ho  Ho8  1  0.211930  0.423107  0.436297  1
  Ho  Ho9  1  0.576893  0.788070  0.436297  1
  Ho  Ho10  1  0.788383  0.211617  0.562929  1
  Ho  Ho11  1  0.787971  0.576507  0.562608  1
  Ho  Ho12  1  0.423493  0.212029  0.562608  1
  Ho  Ho13  1  0.788383  0.211617  0.937071  1
  Ho  Ho14  1  0.787971  0.576507  0.937392  1
  Ho  Ho15  1  0.423493  0.212029  0.937392  1
  Ho  Ho16  1  0.211612  0.788388  0.063559  1
  Ho  Ho17  1  0.211930  0.423107  0.063703  1
  Ho  Ho18  1  0.576893  0.788070  0.063703  1
  Ho  Ho19  1  0.540428  0.459572  0.250000  1
  Cd  Cd20  1  0.112439  0.887561  0.750000  1
  Cd  Cd21  1  0.112443  0.224833  0.750000  1
  Cd  Cd22  1  0.775167  0.887557  0.750000  1
  Fe  Fe23  1  0.333500  0.666500  0.250000  1
  Fe  Fe24  1  0.666720  0.333280  0.750000  1
  Hg  Hg25  1  0.880525  0.119475  0.250000  1
  Hg  Hg26  1  0.879641  0.760450  0.250000  1
  Hg  Hg27  1  0.239550  0.120359  0.250000  1
