# generated using pymatgen
data_Y6TcPd
_symmetry_space_group_name_H-M   'P 1'
_cell_length_a   6.43630468
_cell_length_b   7.41681096
_cell_length_c   9.28685100
_cell_angle_alpha   90.00000000
_cell_angle_beta   90.00000000
_cell_angle_gamma   90.19141873
_symmetry_Int_Tables_number   1
_chemical_formula_structural   Y6TcPd
_chemical_formula_sum   'Y12 Tc2 Pd2'
_cell_volume   443.32258653
_cell_formula_units_Z   2
loop_
 _symmetry_equiv_pos_site_id
 _symmetry_equiv_pos_as_xyz
  1  'x, y, z'
loop_
 _atom_site_type_symbol
 _atom_site_label
 _atom_site_symmetry_multiplicity
 _atom_site_fract_x
 _atom_site_fract_y
 _atom_site_fract_z
 _atom_site_occupancy
  Y  Y0  1  0.628841  0.039267  0.250000  1
  Y  Y1  1  0.371159  0.960733  0.750000  1
  Y  Y2  1  0.124693  0.468716  0.750000  1
  Y  Y3  1  0.875307  0.531284  0.250000  1
  Y  Y4  1  0.176917  0.185173  0.064787  1
  Y  Y5  1  0.823083  0.814827  0.935213  1
  Y  Y6  1  0.661605  0.326567  0.939895  1
  Y  Y7  1  0.823083  0.814827  0.564787  1
  Y  Y8  1  0.338395  0.673433  0.060105  1
  Y  Y9  1  0.176917  0.185173  0.435213  1
  Y  Y10  1  0.338395  0.673433  0.439895  1
  Y  Y11  1  0.661605  0.326567  0.560105  1
  Tc  Tc12  1  0.465351  0.382111  0.250000  1
  Tc  Tc13  1  0.534649  0.617889  0.750000  1
  Pd  Pd14  1  0.949396  0.113404  0.750000  1
  Pd  Pd15  1  0.050604  0.886596  0.250000  1
