# generated using pymatgen
data_Sc12InCo4Tc
_symmetry_space_group_name_H-M   'P 1'
_cell_length_a   7.71543854
_cell_length_b   7.71543918
_cell_length_c   7.71543869
_cell_angle_alpha   111.62240124
_cell_angle_beta   110.95084760
_cell_angle_gamma   105.89915246
_symmetry_Int_Tables_number   1
_chemical_formula_structural   Sc12InCo4Tc
_chemical_formula_sum   'Sc12 In1 Co4 Tc1'
_cell_volume   352.52213146
_cell_formula_units_Z   1
loop_
 _symmetry_equiv_pos_site_id
 _symmetry_equiv_pos_as_xyz
  1  'x, y, z'
loop_
 _atom_site_type_symbol
 _atom_site_label
 _atom_site_symmetry_multiplicity
 _atom_site_fract_x
 _atom_site_fract_y
 _atom_site_fract_z
 _atom_site_occupancy
  Sc  Sc0  1  0.425748  0.226950  0.198797  1
  Sc  Sc1  1  0.574252  0.773050  0.801203  1
  Sc  Sc2  1  0.028153  0.226950  0.801203  1
  Sc  Sc3  1  0.971847  0.773050  0.198797  1
  Sc  Sc4  1  0.311229  0.611026  0.299797  1
  Sc  Sc5  1  0.688771  0.388974  0.700203  1
  Sc  Sc6  1  0.311229  0.011431  0.700203  1
  Sc  Sc7  1  0.688771  0.988569  0.299797  1
  Sc  Sc8  1  0.184062  0.274576  0.458639  1
  Sc  Sc9  1  0.815938  0.725423  0.541361  1
  Sc  Sc10  1  0.184062  0.725423  0.909486  1
  Sc  Sc11  1  0.815938  0.274576  0.090514  1
  In  In12  1  0.500000  0.500000  0.000000  1
  Co  Co13  1  0.369016  0.000000  0.369016  1
  Co  Co14  1  0.630984  0.000000  0.630984  1
  Co  Co15  1  0.118027  0.618027  0.500000  1
  Co  Co16  1  0.881973  0.381973  0.500000  1
  Tc  Tc17  1  0.000000  0.000000  0.000000  1
