# generated using pymatgen
data_HoEr9OsRu3
_symmetry_space_group_name_H-M   'P 1'
_cell_length_a   6.29306442
_cell_length_b   7.26542538
_cell_length_c   8.38948432
_cell_angle_alpha   96.76063604
_cell_angle_beta   112.10461503
_cell_angle_gamma   90.05169193
_symmetry_Int_Tables_number   1
_chemical_formula_structural   HoEr9OsRu3
_chemical_formula_sum   'Ho1 Er9 Os1 Ru3'
_cell_volume   352.49099766
_cell_formula_units_Z   1
loop_
 _symmetry_equiv_pos_site_id
 _symmetry_equiv_pos_as_xyz
  1  'x, y, z'
loop_
 _atom_site_type_symbol
 _atom_site_label
 _atom_site_symmetry_multiplicity
 _atom_site_fract_x
 _atom_site_fract_y
 _atom_site_fract_z
 _atom_site_occupancy
  Ho  Ho0  1  0.792145  0.582990  0.813258  1
  Er  Er1  1  0.976252  0.915476  0.183520  1
  Er  Er2  1  0.207400  0.415403  0.186368  1
  Er  Er3  1  0.023383  0.084346  0.814220  1
  Er  Er4  1  0.206146  0.685080  0.565654  1
  Er  Er5  1  0.640137  0.816691  0.436330  1
  Er  Er6  1  0.794553  0.315244  0.434123  1
  Er  Er7  1  0.358678  0.184101  0.564355  1
  Er  Er8  1  0.420303  0.750092  0.999587  1
  Er  Er9  1  0.580124  0.250223  0.000316  1
  Os  Os10  1  0.602901  0.924130  0.780942  1
  Ru  Ru11  1  0.824423  0.576962  0.221471  1
  Ru  Ru12  1  0.396562  0.076454  0.220432  1
  Ru  Ru13  1  0.176992  0.422808  0.779424  1
