# generated using pymatgen
data_Te7Rh
_symmetry_space_group_name_H-M   'P 1'
_cell_length_a   8.11457377
_cell_length_b   8.11457387
_cell_length_c   17.08135700
_cell_angle_alpha   83.70747944
_cell_angle_beta   83.70747916
_cell_angle_gamma   29.09076162
_symmetry_Int_Tables_number   1
_chemical_formula_structural   Te7Rh
_chemical_formula_sum   'Te14 Rh2'
_cell_volume   543.32737519
_cell_formula_units_Z   2
loop_
 _symmetry_equiv_pos_site_id
 _symmetry_equiv_pos_as_xyz
  1  'x, y, z'
loop_
 _atom_site_type_symbol
 _atom_site_label
 _atom_site_symmetry_multiplicity
 _atom_site_fract_x
 _atom_site_fract_y
 _atom_site_fract_z
 _atom_site_occupancy
  Te  Te0  1  0.274314  0.274314  0.390250  1
  Te  Te1  1  0.725686  0.725686  0.609750  1
  Te  Te2  1  0.947858  0.947858  0.264910  1
  Te  Te3  1  0.178213  0.178213  0.984487  1
  Te  Te4  1  0.424527  0.424527  0.095924  1
  Te  Te5  1  0.641074  0.641074  0.357741  1
  Te  Te6  1  0.052142  0.052142  0.735090  1
  Te  Te7  1  0.575473  0.575473  0.904076  1
  Te  Te8  1  0.821787  0.821787  0.015513  1
  Te  Te9  1  0.091373  0.091373  0.569434  1
  Te  Te10  1  0.908627  0.908627  0.430566  1
  Te  Te11  1  0.261282  0.261282  0.795841  1
  Te  Te12  1  0.738718  0.738718  0.204159  1
  Te  Te13  1  0.358926  0.358926  0.642259  1
  Rh  Rh14  1  0.657132  0.657132  0.762867  1
  Rh  Rh15  1  0.342868  0.342868  0.237133  1
