# generated using pymatgen
data_YbDy2Y5(ReC2)4
_symmetry_space_group_name_H-M   'P 1'
_cell_length_a   5.12551000
_cell_length_b   6.58016447
_cell_length_c   9.94998900
_cell_angle_alpha   89.38367980
_cell_angle_beta   90.00000000
_cell_angle_gamma   90.00000000
_symmetry_Int_Tables_number   1
_chemical_formula_structural   YbDy2Y5(ReC2)4
_chemical_formula_sum   'Yb1 Dy2 Y5 Re4 C8'
_cell_volume   335.56086744
_cell_formula_units_Z   1
loop_
 _symmetry_equiv_pos_site_id
 _symmetry_equiv_pos_as_xyz
  1  'x, y, z'
loop_
 _atom_site_type_symbol
 _atom_site_label
 _atom_site_symmetry_multiplicity
 _atom_site_fract_x
 _atom_site_fract_y
 _atom_site_fract_z
 _atom_site_occupancy
  Yb  Yb0  1  0.250000  0.033146  0.280573  1
  Dy  Dy1  1  0.250000  0.684085  0.554377  1
  Dy  Dy2  1  0.250000  0.179976  0.945450  1
  Y  Y3  1  0.750000  0.315190  0.443914  1
  Y  Y4  1  0.750000  0.817828  0.056249  1
  Y  Y5  1  0.250000  0.531502  0.220116  1
  Y  Y6  1  0.750000  0.467369  0.781559  1
  Y  Y7  1  0.750000  0.966760  0.718325  1
  Re  Re8  1  0.250000  0.721522  0.862637  1
  Re  Re9  1  0.750000  0.278108  0.135752  1
  Re  Re10  1  0.750000  0.776890  0.364030  1
  Re  Re11  1  0.250000  0.225482  0.636329  1
  C  C12  1  0.250000  0.455963  0.759783  1
  C  C13  1  0.750000  0.544479  0.240853  1
  C  C14  1  0.750000  0.043659  0.259142  1
  C  C15  1  0.250000  0.957417  0.739690  1
  C  C16  1  0.250000  0.813434  0.044184  1
  C  C17  1  0.750000  0.178221  0.953763  1
  C  C18  1  0.750000  0.683402  0.548373  1
  C  C19  1  0.250000  0.325567  0.454903  1
