# generated using pymatgen
data_Y2Mg2Ge6Ir7
_symmetry_space_group_name_H-M   'P 1'
_cell_length_a   7.10679193
_cell_length_b   7.25707375
_cell_length_c   7.25707312
_cell_angle_alpha   110.46539402
_cell_angle_beta   109.39358665
_cell_angle_gamma   109.39358514
_symmetry_Int_Tables_number   1
_chemical_formula_structural   Y2Mg2Ge6Ir7
_chemical_formula_sum   'Y2 Mg2 Ge6 Ir7'
_cell_volume   285.07398507
_cell_formula_units_Z   1
loop_
 _symmetry_equiv_pos_site_id
 _symmetry_equiv_pos_as_xyz
  1  'x, y, z'
loop_
 _atom_site_type_symbol
 _atom_site_label
 _atom_site_symmetry_multiplicity
 _atom_site_fract_x
 _atom_site_fract_y
 _atom_site_fract_z
 _atom_site_occupancy
  Y  Y0  1  0.500000  0.000000  0.000000  1
  Y  Y1  1  0.500000  0.500000  0.500000  1
  Mg  Mg2  1  0.000000  0.000000  0.500000  1
  Mg  Mg3  1  0.000000  0.500000  0.000000  1
  Ge  Ge4  1  0.693567  0.686476  0.007091  1
  Ge  Ge5  1  0.306433  0.992909  0.313524  1
  Ge  Ge6  1  0.000000  0.313916  0.313916  1
  Ge  Ge7  1  0.306433  0.313524  0.992909  1
  Ge  Ge8  1  0.693567  0.007091  0.686476  1
  Ge  Ge9  1  0.000000  0.686084  0.686084  1
  Ir  Ir10  1  0.758736  0.250472  0.508264  1
  Ir  Ir11  1  0.758736  0.508264  0.250472  1
  Ir  Ir12  1  0.500000  0.250000  0.750000  1
  Ir  Ir13  1  0.241264  0.491736  0.749528  1
  Ir  Ir14  1  0.241264  0.749528  0.491736  1
  Ir  Ir15  1  0.500000  0.750000  0.250000  1
  Ir  Ir16  1  0.000000  0.000000  0.000000  1
