# generated using pymatgen
data_U4Co6SiP
_symmetry_space_group_name_H-M   'P 1'
_cell_length_a   5.10793066
_cell_length_b   5.10292760
_cell_length_c   7.48034303
_cell_angle_alpha   89.99999995
_cell_angle_beta   89.99176900
_cell_angle_gamma   119.96759999
_symmetry_Int_Tables_number   1
_chemical_formula_structural   U4Co6SiP
_chemical_formula_sum   'U4 Co6 Si1 P1'
_cell_volume   168.91111810
_cell_formula_units_Z   1
loop_
 _symmetry_equiv_pos_site_id
 _symmetry_equiv_pos_as_xyz
  1  'x, y, z'
loop_
 _atom_site_type_symbol
 _atom_site_label
 _atom_site_symmetry_multiplicity
 _atom_site_fract_x
 _atom_site_fract_y
 _atom_site_fract_z
 _atom_site_occupancy
  U  U0  1  0.333346  0.666673  0.431260  1
  U  U1  1  0.666654  0.333327  0.568740  1
  U  U2  1  0.666638  0.333319  0.933599  1
  U  U3  1  0.333362  0.666681  0.066401  1
  Co  Co4  1  0.833402  0.166552  0.251634  1
  Co  Co5  1  0.833402  0.666851  0.251634  1
  Co  Co6  1  0.333120  0.166560  0.251641  1
  Co  Co7  1  0.166598  0.833448  0.748366  1
  Co  Co8  1  0.166598  0.333149  0.748366  1
  Co  Co9  1  0.666880  0.833440  0.748359  1
  Si  Si10  1  0.000000  0.000000  0.000000  1
  P  P11  1  0.000000  0.000000  0.500000  1
