# generated using pymatgen
data_Lu4Mg2Si3Ge
_symmetry_space_group_name_H-M   'P 1'
_cell_length_a   7.06262588
_cell_length_b   7.06262588
_cell_length_c   4.14286100
_cell_angle_alpha   90.00000000
_cell_angle_beta   90.00000000
_cell_angle_gamma   90.12017907
_symmetry_Int_Tables_number   1
_chemical_formula_structural   Lu4Mg2Si3Ge
_chemical_formula_sum   'Lu4 Mg2 Si3 Ge1'
_cell_volume   206.64828738
_cell_formula_units_Z   1
loop_
 _symmetry_equiv_pos_site_id
 _symmetry_equiv_pos_as_xyz
  1  'x, y, z'
loop_
 _atom_site_type_symbol
 _atom_site_label
 _atom_site_symmetry_multiplicity
 _atom_site_fract_x
 _atom_site_fract_y
 _atom_site_fract_z
 _atom_site_occupancy
  Lu  Lu0  1  0.677419  0.180129  0.500000  1
  Lu  Lu1  1  0.319871  0.822581  0.500000  1
  Lu  Lu2  1  0.177736  0.322264  0.500000  1
  Lu  Lu3  1  0.824610  0.675390  0.500000  1
  Mg  Mg4  1  0.497756  0.498063  0.000000  1
  Mg  Mg5  1  0.001937  0.002244  0.000000  1
  Si  Si6  1  0.880422  0.379958  0.000000  1
  Si  Si7  1  0.120042  0.619578  0.000000  1
  Si  Si8  1  0.377729  0.122271  0.000000  1
  Ge  Ge9  1  0.622480  0.877520  0.000000  1
