# generated using pymatgen
data_TbEr2IrO7
_symmetry_space_group_name_H-M   'P 1'
_cell_length_a   6.40694890
_cell_length_b   6.40695034
_cell_length_c   7.40422700
_cell_angle_alpha   90.00000000
_cell_angle_beta   90.00000000
_cell_angle_gamma   109.24316425
_symmetry_Int_Tables_number   1
_chemical_formula_structural   TbEr2IrO7
_chemical_formula_sum   'Tb2 Er4 Ir2 O14'
_cell_volume   286.95472511
_cell_formula_units_Z   2
loop_
 _symmetry_equiv_pos_site_id
 _symmetry_equiv_pos_as_xyz
  1  'x, y, z'
loop_
 _atom_site_type_symbol
 _atom_site_label
 _atom_site_symmetry_multiplicity
 _atom_site_fract_x
 _atom_site_fract_y
 _atom_site_fract_z
 _atom_site_occupancy
  Tb  Tb0  1  0.500000  0.500000  0.500000  1
  Tb  Tb1  1  0.500000  0.500000  0.000000  1
  Er  Er2  1  0.533345  0.999984  0.750000  1
  Er  Er3  1  0.999984  0.533345  0.250000  1
  Er  Er4  1  0.466655  0.000016  0.250000  1
  Er  Er5  1  0.000016  0.466655  0.750000  1
  Ir  Ir6  1  0.000000  0.000000  0.500000  1
  Ir  Ir7  1  0.000000  0.000000  0.000000  1
  O  O8  1  0.676376  0.926234  0.471630  1
  O  O9  1  0.926234  0.676376  0.528370  1
  O  O10  1  0.676376  0.926234  0.028370  1
  O  O11  1  0.926234  0.676376  0.971630  1
  O  O12  1  0.323624  0.073766  0.528370  1
  O  O13  1  0.073766  0.323624  0.471630  1
  O  O14  1  0.323624  0.073766  0.971630  1
  O  O15  1  0.073766  0.323624  0.028370  1
  O  O16  1  0.926246  0.073754  0.750000  1
  O  O17  1  0.073754  0.926246  0.250000  1
  O  O18  1  0.366915  0.633085  0.750000  1
  O  O19  1  0.633085  0.366915  0.250000  1
  O  O20  1  0.638422  0.361578  0.750000  1
  O  O21  1  0.361578  0.638422  0.250000  1
