# generated using pymatgen
data_Lu2BeB3Ir5
_symmetry_space_group_name_H-M   'P 1'
_cell_length_a   7.46146929
_cell_length_b   6.42095564
_cell_length_c   5.52507911
_cell_angle_alpha   78.40566137
_cell_angle_beta   56.94559132
_cell_angle_gamma   46.15452743
_symmetry_Int_Tables_number   1
_chemical_formula_structural   Lu2BeB3Ir5
_chemical_formula_sum   'Lu2 Be1 B3 Ir5'
_cell_volume   153.00922080
_cell_formula_units_Z   1
loop_
 _symmetry_equiv_pos_site_id
 _symmetry_equiv_pos_as_xyz
  1  'x, y, z'
loop_
 _atom_site_type_symbol
 _atom_site_label
 _atom_site_symmetry_multiplicity
 _atom_site_fract_x
 _atom_site_fract_y
 _atom_site_fract_z
 _atom_site_occupancy
  Lu  Lu0  1  0.866260  0.866882  0.133117  1
  Lu  Lu1  1  0.137088  0.141294  0.858706  1
  Be  Be2  1  0.501624  0.775318  0.224682  1
  B  B3  1  0.204595  0.533012  0.466988  1
  B  B4  1  0.780405  0.483369  0.516631  1
  B  B5  1  0.526228  0.205432  0.794568  1
  Ir  Ir6  1  0.501856  0.498700  0.998910  1
  Ir  Ir7  1  0.243446  0.257546  0.247615  1
  Ir  Ir8  1  0.999466  0.001090  0.501300  1
  Ir  Ir9  1  0.490427  0.484967  0.515032  1
  Ir  Ir10  1  0.748607  0.752384  0.742454  1
