# generated using pymatgen
data_MgZr12Zn3(Ir2N)4
_symmetry_space_group_name_H-M   'P 1'
_cell_length_a   8.57818720
_cell_length_b   8.57818706
_cell_length_c   8.57818852
_cell_angle_alpha   60.07168071
_cell_angle_beta   60.07167707
_cell_angle_gamma   60.07168453
_symmetry_Int_Tables_number   1
_chemical_formula_structural   MgZr12Zn3(Ir2N)4
_chemical_formula_sum   'Mg1 Zr12 Zn3 Ir8 N4'
_cell_volume   447.07103778
_cell_formula_units_Z   1
loop_
 _symmetry_equiv_pos_site_id
 _symmetry_equiv_pos_as_xyz
  1  'x, y, z'
loop_
 _atom_site_type_symbol
 _atom_site_label
 _atom_site_symmetry_multiplicity
 _atom_site_fract_x
 _atom_site_fract_y
 _atom_site_fract_z
 _atom_site_occupancy
  Mg  Mg0  1  0.625000  0.625000  0.625000  1
  Zr  Zr1  1  0.807206  0.192260  0.192260  1
  Zr  Zr2  1  0.192260  0.807206  0.192260  1
  Zr  Zr3  1  0.808318  0.808318  0.190494  1
  Zr  Zr4  1  0.190494  0.808318  0.808318  1
  Zr  Zr5  1  0.808318  0.190494  0.808318  1
  Zr  Zr6  1  0.192260  0.192260  0.807206  1
  Zr  Zr7  1  0.442794  0.057740  0.057740  1
  Zr  Zr8  1  0.057740  0.442794  0.057740  1
  Zr  Zr9  1  0.441682  0.441682  0.059506  1
  Zr  Zr10  1  0.059506  0.441682  0.441682  1
  Zr  Zr11  1  0.441682  0.059506  0.441682  1
  Zr  Zr12  1  0.057740  0.057740  0.442794  1
  Zn  Zn13  1  0.625000  0.625000  0.125000  1
  Zn  Zn14  1  0.125000  0.625000  0.625000  1
  Zn  Zn15  1  0.625000  0.125000  0.625000  1
  Ir  Ir16  1  0.413204  0.413204  0.756053  1
  Ir  Ir17  1  0.415247  0.415247  0.415247  1
  Ir  Ir18  1  0.756053  0.413204  0.413204  1
  Ir  Ir19  1  0.413204  0.756053  0.413204  1
  Ir  Ir20  1  0.836796  0.836796  0.493947  1
  Ir  Ir21  1  0.834753  0.834753  0.834753  1
  Ir  Ir22  1  0.493947  0.836796  0.836796  1
  Ir  Ir23  1  0.836796  0.493947  0.836796  1
  N  N24  1  0.125000  0.125000  0.625000  1
  N  N25  1  0.125000  0.125000  0.125000  1
  N  N26  1  0.625000  0.125000  0.125000  1
  N  N27  1  0.125000  0.625000  0.125000  1
