# generated using pymatgen
data_Rb4UInBr12
_symmetry_space_group_name_H-M   'P 1'
_cell_length_a   7.75533700
_cell_length_b   7.75533700
_cell_length_c   11.87153900
_cell_angle_alpha   90.00000000
_cell_angle_beta   90.00000000
_cell_angle_gamma   90.00000000
_symmetry_Int_Tables_number   1
_chemical_formula_structural   Rb4UInBr12
_chemical_formula_sum   'Rb4 U1 In1 Br12'
_cell_volume   714.01670486
_cell_formula_units_Z   1
loop_
 _symmetry_equiv_pos_site_id
 _symmetry_equiv_pos_as_xyz
  1  'x, y, z'
loop_
 _atom_site_type_symbol
 _atom_site_label
 _atom_site_symmetry_multiplicity
 _atom_site_fract_x
 _atom_site_fract_y
 _atom_site_fract_z
 _atom_site_occupancy
  Rb  Rb0  1  0.500000  0.000000  0.802966  1
  Rb  Rb1  1  0.500000  0.000000  0.197034  1
  Rb  Rb2  1  0.000000  0.500000  0.197034  1
  Rb  Rb3  1  0.000000  0.500000  0.802966  1
  U  U4  1  0.500000  0.500000  0.500000  1
  In  In5  1  0.000000  0.000000  0.000000  1
  Br  Br6  1  0.748431  0.245548  0.000000  1
  Br  Br7  1  0.251569  0.754452  0.000000  1
  Br  Br8  1  0.500000  0.500000  0.269841  1
  Br  Br9  1  0.307254  0.211408  0.500000  1
  Br  Br10  1  0.245548  0.251569  0.000000  1
  Br  Br11  1  0.788592  0.307254  0.500000  1
  Br  Br12  1  0.000000  0.000000  0.229204  1
  Br  Br13  1  0.692746  0.788592  0.500000  1
  Br  Br14  1  0.211408  0.692746  0.500000  1
  Br  Br15  1  0.500000  0.500000  0.730159  1
  Br  Br16  1  0.754452  0.748431  0.000000  1
  Br  Br17  1  0.000000  0.000000  0.770796  1
