# generated using pymatgen
data_Ce2LuTh5(Si3Rh)4
_symmetry_space_group_name_H-M   'P 1'
_cell_length_a   8.23608300
_cell_length_b   8.19604344
_cell_length_c   8.35603400
_cell_angle_alpha   90.00000000
_cell_angle_beta   90.00000000
_cell_angle_gamma   119.83931124
_symmetry_Int_Tables_number   1
_chemical_formula_structural   Ce2LuTh5(Si3Rh)4
_chemical_formula_sum   'Ce2 Lu1 Th5 Si12 Rh4'
_cell_volume   489.27917787
_cell_formula_units_Z   1
loop_
 _symmetry_equiv_pos_site_id
 _symmetry_equiv_pos_as_xyz
  1  'x, y, z'
loop_
 _atom_site_type_symbol
 _atom_site_label
 _atom_site_symmetry_multiplicity
 _atom_site_fract_x
 _atom_site_fract_y
 _atom_site_fract_z
 _atom_site_occupancy
  Ce  Ce0  1  0.000008  0.000003  0.250000  1
  Ce  Ce1  1  0.999997  0.999998  0.750000  1
  Lu  Lu2  1  0.999606  0.499803  0.750000  1
  Th  Th3  1  0.000193  0.500096  0.250000  1
  Th  Th4  1  0.499861  0.500118  0.250000  1
  Th  Th5  1  0.500256  0.000419  0.750000  1
  Th  Th6  1  0.499861  0.999742  0.250000  1
  Th  Th7  1  0.500256  0.499837  0.750000  1
  Si  Si8  1  0.164391  0.332448  0.997488  1
  Si  Si9  1  0.671911  0.835956  0.001485  1
  Si  Si10  1  0.164391  0.332448  0.502512  1
  Si  Si11  1  0.328021  0.164010  0.001611  1
  Si  Si12  1  0.164391  0.831943  0.997488  1
  Si  Si13  1  0.671911  0.835956  0.498515  1
  Si  Si14  1  0.835645  0.667583  0.997583  1
  Si  Si15  1  0.328021  0.164010  0.498389  1
  Si  Si16  1  0.164391  0.831943  0.502512  1
  Si  Si17  1  0.835645  0.667583  0.502417  1
  Si  Si18  1  0.835645  0.168063  0.997583  1
  Si  Si19  1  0.835645  0.168063  0.502417  1
  Rh  Rh20  1  0.335484  0.667742  0.992730  1
  Rh  Rh21  1  0.335484  0.667742  0.507270  1
  Rh  Rh22  1  0.664493  0.332246  0.993931  1
  Rh  Rh23  1  0.664493  0.332246  0.506069  1
