# generated using pymatgen
data_Zr10Al2InSb5
_symmetry_space_group_name_H-M   'P 1'
_cell_length_a   8.72406863
_cell_length_b   8.72406839
_cell_length_c   5.88691300
_cell_angle_alpha   90.00000000
_cell_angle_beta   90.00000000
_cell_angle_gamma   120.15156264
_symmetry_Int_Tables_number   1
_chemical_formula_structural   Zr10Al2InSb5
_chemical_formula_sum   'Zr10 Al2 In1 Sb5'
_cell_volume   387.42806889
_cell_formula_units_Z   1
loop_
 _symmetry_equiv_pos_site_id
 _symmetry_equiv_pos_as_xyz
  1  'x, y, z'
loop_
 _atom_site_type_symbol
 _atom_site_label
 _atom_site_symmetry_multiplicity
 _atom_site_fract_x
 _atom_site_fract_y
 _atom_site_fract_z
 _atom_site_occupancy
  Zr  Zr0  1  0.729640  0.729640  0.750000  1
  Zr  Zr1  1  0.271600  0.997926  0.750000  1
  Zr  Zr2  1  0.997926  0.271600  0.750000  1
  Zr  Zr3  1  0.269143  0.269143  0.250000  1
  Zr  Zr4  1  0.730262  0.999963  0.250000  1
  Zr  Zr5  1  0.999963  0.730262  0.250000  1
  Zr  Zr6  1  0.668556  0.332842  0.999379  1
  Zr  Zr7  1  0.332842  0.668556  0.999379  1
  Zr  Zr8  1  0.332842  0.668556  0.500621  1
  Zr  Zr9  1  0.668556  0.332842  0.500621  1
  Al  Al10  1  0.001894  0.001894  0.997387  1
  Al  Al11  1  0.001894  0.001894  0.502613  1
  In  In12  1  0.382893  0.382893  0.750000  1
  Sb  Sb13  1  0.613481  0.000236  0.750000  1
  Sb  Sb14  1  0.000236  0.613481  0.750000  1
  Sb  Sb15  1  0.609285  0.609285  0.250000  1
  Sb  Sb16  1  0.387550  0.001438  0.250000  1
  Sb  Sb17  1  0.001438  0.387550  0.250000  1
