# generated using pymatgen
data_Np2(ZnAu3)3
_symmetry_space_group_name_H-M   'P 1'
_cell_length_a   5.71124819
_cell_length_b   5.71124832
_cell_length_c   9.96767400
_cell_angle_alpha   90.00000000
_cell_angle_beta   90.00000000
_cell_angle_gamma   123.72088381
_symmetry_Int_Tables_number   1
_chemical_formula_structural   Np2(ZnAu3)3
_chemical_formula_sum   'Np2 Zn3 Au9'
_cell_volume   270.42676211
_cell_formula_units_Z   1
loop_
 _symmetry_equiv_pos_site_id
 _symmetry_equiv_pos_as_xyz
  1  'x, y, z'
loop_
 _atom_site_type_symbol
 _atom_site_label
 _atom_site_symmetry_multiplicity
 _atom_site_fract_x
 _atom_site_fract_y
 _atom_site_fract_z
 _atom_site_occupancy
  Np  Np0  1  0.000000  0.500000  0.755874  1
  Np  Np1  1  0.500000  0.000000  0.244126  1
  Zn  Zn2  1  0.000000  0.000000  0.500000  1
  Zn  Zn3  1  0.000000  0.000000  0.000000  1
  Zn  Zn4  1  0.500000  0.500000  0.500000  1
  Au  Au5  1  0.000000  0.500000  0.057874  1
  Au  Au6  1  0.500000  0.000000  0.544622  1
  Au  Au7  1  0.500000  0.000000  0.942126  1
  Au  Au8  1  0.000000  0.500000  0.455378  1
  Au  Au9  1  0.701210  0.803805  0.741216  1
  Au  Au10  1  0.196195  0.298790  0.258784  1
  Au  Au11  1  0.803805  0.701210  0.258784  1
  Au  Au12  1  0.298790  0.196195  0.741216  1
  Au  Au13  1  0.500000  0.500000  0.000000  1
