# generated using pymatgen
data_Zr5Hg2AuC
_symmetry_space_group_name_H-M   'P 1'
_cell_length_a   8.61722978
_cell_length_b   8.61722903
_cell_length_c   5.52413600
_cell_angle_alpha   90.00000000
_cell_angle_beta   90.00000000
_cell_angle_gamma   119.87932911
_symmetry_Int_Tables_number   1
_chemical_formula_structural   Zr5Hg2AuC
_chemical_formula_sum   'Zr10 Hg4 Au2 C2'
_cell_volume   355.67808280
_cell_formula_units_Z   2
loop_
 _symmetry_equiv_pos_site_id
 _symmetry_equiv_pos_as_xyz
  1  'x, y, z'
loop_
 _atom_site_type_symbol
 _atom_site_label
 _atom_site_symmetry_multiplicity
 _atom_site_fract_x
 _atom_site_fract_y
 _atom_site_fract_z
 _atom_site_occupancy
  Zr  Zr0  1  0.667886  0.329241  0.504388  1
  Zr  Zr1  1  0.329241  0.667886  0.504388  1
  Zr  Zr2  1  0.329241  0.667886  0.995612  1
  Zr  Zr3  1  0.667886  0.329241  0.995612  1
  Zr  Zr4  1  0.785840  0.785840  0.250000  1
  Zr  Zr5  1  0.218866  0.001103  0.250000  1
  Zr  Zr6  1  0.001103  0.218866  0.250000  1
  Zr  Zr7  1  0.214555  0.214555  0.750000  1
  Zr  Zr8  1  0.785547  0.002909  0.750000  1
  Zr  Zr9  1  0.002909  0.785547  0.750000  1
  Hg  Hg10  1  0.402472  0.402472  0.250000  1
  Hg  Hg11  1  0.596957  0.997736  0.250000  1
  Hg  Hg12  1  0.997736  0.596957  0.250000  1
  Hg  Hg13  1  0.599116  0.599116  0.750000  1
  Au  Au14  1  0.399354  0.000256  0.750000  1
  Au  Au15  1  0.000256  0.399354  0.750000  1
  C  C16  1  0.000517  0.000517  0.499552  1
  C  C17  1  0.000517  0.000517  0.000448  1
