# generated using pymatgen
data_SrCa2CuAs2H
_symmetry_space_group_name_H-M   'P 1'
_cell_length_a   4.24477500
_cell_length_b   11.63750800
_cell_length_c   12.33468200
_cell_angle_alpha   90.00000000
_cell_angle_beta   90.00000000
_cell_angle_gamma   90.00000000
_symmetry_Int_Tables_number   1
_chemical_formula_structural   SrCa2CuAs2H
_chemical_formula_sum   'Sr4 Ca8 Cu4 As8 H4'
_cell_volume   609.31605950
_cell_formula_units_Z   4
loop_
 _symmetry_equiv_pos_site_id
 _symmetry_equiv_pos_as_xyz
  1  'x, y, z'
loop_
 _atom_site_type_symbol
 _atom_site_label
 _atom_site_symmetry_multiplicity
 _atom_site_fract_x
 _atom_site_fract_y
 _atom_site_fract_z
 _atom_site_occupancy
  Sr  Sr0  1  0.250000  0.064819  0.625332  1
  Sr  Sr1  1  0.250000  0.564819  0.874668  1
  Sr  Sr2  1  0.750000  0.935181  0.374668  1
  Sr  Sr3  1  0.750000  0.435181  0.125332  1
  Ca  Ca4  1  0.250000  0.370120  0.556006  1
  Ca  Ca5  1  0.250000  0.870120  0.943994  1
  Ca  Ca6  1  0.750000  0.629880  0.443994  1
  Ca  Ca7  1  0.750000  0.129880  0.056006  1
  Ca  Ca8  1  0.250000  0.211944  0.296303  1
  Ca  Ca9  1  0.250000  0.711944  0.203697  1
  Ca  Ca10  1  0.750000  0.788056  0.703697  1
  Ca  Ca11  1  0.750000  0.288056  0.796303  1
  Cu  Cu12  1  0.250000  0.124611  0.873104  1
  Cu  Cu13  1  0.250000  0.624611  0.626896  1
  Cu  Cu14  1  0.750000  0.875389  0.126896  1
  Cu  Cu15  1  0.750000  0.375389  0.373104  1
  As  As16  1  0.250000  0.476204  0.324220  1
  As  As17  1  0.250000  0.976204  0.175780  1
  As  As18  1  0.750000  0.523796  0.675780  1
  As  As19  1  0.750000  0.023796  0.824220  1
  As  As20  1  0.250000  0.306225  0.980541  1
  As  As21  1  0.250000  0.806225  0.519459  1
  As  As22  1  0.750000  0.693775  0.019459  1
  As  As23  1  0.750000  0.193775  0.480541  1
  H  H24  1  0.250000  0.257700  0.712788  1
  H  H25  1  0.250000  0.757700  0.787212  1
  H  H26  1  0.750000  0.742300  0.287212  1
  H  H27  1  0.750000  0.242300  0.212788  1
