# generated using pymatgen
data_Sc3Tc2P3Os
_symmetry_space_group_name_H-M   'P 1'
_cell_length_a   6.75775483
_cell_length_b   6.75775620
_cell_length_c   3.46407200
_cell_angle_alpha   90.00000000
_cell_angle_beta   90.00000000
_cell_angle_gamma   120.32034982
_symmetry_Int_Tables_number   1
_chemical_formula_structural   Sc3Tc2P3Os
_chemical_formula_sum   'Sc3 Tc2 P3 Os1'
_cell_volume   136.55622249
_cell_formula_units_Z   1
loop_
 _symmetry_equiv_pos_site_id
 _symmetry_equiv_pos_as_xyz
  1  'x, y, z'
loop_
 _atom_site_type_symbol
 _atom_site_label
 _atom_site_symmetry_multiplicity
 _atom_site_fract_x
 _atom_site_fract_y
 _atom_site_fract_z
 _atom_site_occupancy
  Sc  Sc0  1  0.404277  0.404277  0.500000  1
  Sc  Sc1  1  0.595389  0.000961  0.500000  1
  Sc  Sc2  1  0.000961  0.595389  0.500000  1
  Tc  Tc3  1  0.999201  0.248546  0.000000  1
  Tc  Tc4  1  0.248546  0.999201  0.000000  1
  P  P5  1  0.666991  0.334271  0.000000  1
  P  P6  1  0.334271  0.666991  0.000000  1
  P  P7  1  0.999438  0.999438  0.500000  1
  Os  Os8  1  0.750927  0.750927  0.000000  1
