# generated using pymatgen
data_Tb16CdInTcHg2Pd3
_symmetry_space_group_name_H-M   'P 1'
_cell_length_a   9.73884643
_cell_length_b   9.74751161
_cell_length_c   9.74751200
_cell_angle_alpha   59.38875277
_cell_angle_beta   59.42498009
_cell_angle_gamma   59.42496812
_symmetry_Int_Tables_number   1
_chemical_formula_structural   Tb16CdInTcHg2Pd3
_chemical_formula_sum   'Tb16 Cd1 In1 Tc1 Hg2 Pd3'
_cell_volume   645.56352989
_cell_formula_units_Z   1
loop_
 _symmetry_equiv_pos_site_id
 _symmetry_equiv_pos_as_xyz
  1  'x, y, z'
loop_
 _atom_site_type_symbol
 _atom_site_label
 _atom_site_symmetry_multiplicity
 _atom_site_fract_x
 _atom_site_fract_y
 _atom_site_fract_z
 _atom_site_occupancy
  Tb  Tb0  1  0.356166  0.354436  0.354436  1
  Tb  Tb1  1  0.351809  0.350968  0.943870  1
  Tb  Tb2  1  0.351809  0.943870  0.350968  1
  Tb  Tb3  1  0.941044  0.352276  0.352276  1
  Tb  Tb4  1  0.817928  0.188286  0.188286  1
  Tb  Tb5  1  0.188011  0.809416  0.809416  1
  Tb  Tb6  1  0.186965  0.818633  0.188222  1
  Tb  Tb7  1  0.808461  0.189378  0.808644  1
  Tb  Tb8  1  0.186965  0.188222  0.818633  1
  Tb  Tb9  1  0.808461  0.808644  0.189378  1
  Tb  Tb10  1  0.934452  0.565379  0.565379  1
  Tb  Tb11  1  0.556005  0.937499  0.937499  1
  Tb  Tb12  1  0.564609  0.935702  0.565517  1
  Tb  Tb13  1  0.936493  0.556470  0.937875  1
  Tb  Tb14  1  0.564609  0.565517  0.935702  1
  Tb  Tb15  1  0.936493  0.937875  0.556470  1
  Cd  Cd16  1  0.255568  0.580873  0.580873  1
  In  In17  1  0.581908  0.583286  0.583286  1
  Tc  Tc18  1  0.143119  0.144776  0.144776  1
  Hg  Hg19  1  0.584038  0.586787  0.241295  1
  Hg  Hg20  1  0.584038  0.241295  0.586787  1
  Pd  Pd21  1  0.145739  0.145848  0.569043  1
  Pd  Pd22  1  0.145739  0.569043  0.145848  1
  Pd  Pd23  1  0.569577  0.145525  0.145525  1
