# generated using pymatgen
data_Pr16TlCd2Ir4Au
_symmetry_space_group_name_H-M   'P 1'
_cell_length_a   10.05338575
_cell_length_b   10.05338502
_cell_length_c   10.05388800
_cell_angle_alpha   60.05242544
_cell_angle_beta   60.05243442
_cell_angle_gamma   60.00797006
_symmetry_Int_Tables_number   1
_chemical_formula_structural   Pr16TlCd2Ir4Au
_chemical_formula_sum   'Pr16 Tl1 Cd2 Ir4 Au1'
_cell_volume   719.14028080
_cell_formula_units_Z   1
loop_
 _symmetry_equiv_pos_site_id
 _symmetry_equiv_pos_as_xyz
  1  'x, y, z'
loop_
 _atom_site_type_symbol
 _atom_site_label
 _atom_site_symmetry_multiplicity
 _atom_site_fract_x
 _atom_site_fract_y
 _atom_site_fract_z
 _atom_site_occupancy
  Pr  Pr0  1  0.347999  0.347998  0.347878  1
  Pr  Pr1  1  0.348420  0.348417  0.955138  1
  Pr  Pr2  1  0.349245  0.951942  0.349444  1
  Pr  Pr3  1  0.951939  0.349247  0.349443  1
  Pr  Pr4  1  0.808388  0.190094  0.191816  1
  Pr  Pr5  1  0.191140  0.807493  0.807814  1
  Pr  Pr6  1  0.190095  0.808389  0.191815  1
  Pr  Pr7  1  0.807492  0.191139  0.807815  1
  Pr  Pr8  1  0.189639  0.189638  0.809999  1
  Pr  Pr9  1  0.806465  0.806466  0.192047  1
  Pr  Pr10  1  0.942056  0.560196  0.562976  1
  Pr  Pr11  1  0.559523  0.935572  0.945385  1
  Pr  Pr12  1  0.560199  0.942055  0.562977  1
  Pr  Pr13  1  0.935572  0.559524  0.945385  1
  Pr  Pr14  1  0.559885  0.559885  0.949734  1
  Pr  Pr15  1  0.938616  0.938615  0.562783  1
  Tl  Tl16  1  0.582056  0.582057  0.579907  1
  Cd  Cd17  1  0.578381  0.263360  0.575544  1
  Cd  Cd18  1  0.263360  0.578381  0.575544  1
  Ir  Ir19  1  0.141621  0.141621  0.141673  1
  Ir  Ir20  1  0.142145  0.142145  0.576332  1
  Ir  Ir21  1  0.142296  0.575399  0.143253  1
  Ir  Ir22  1  0.575399  0.142295  0.143254  1
  Au  Au23  1  0.588069  0.588069  0.232038  1
