# generated using pymatgen
data_K3TmSb2
_symmetry_space_group_name_H-M   'P 1'
_cell_length_a   9.92851979
_cell_length_b   9.92851992
_cell_length_c   9.92614564
_cell_angle_alpha   129.51269539
_cell_angle_beta   135.85865939
_cell_angle_gamma   69.29541876
_symmetry_Int_Tables_number   1
_chemical_formula_structural   K3TmSb2
_chemical_formula_sum   'K6 Tm2 Sb4'
_cell_volume   515.96181370
_cell_formula_units_Z   2
loop_
 _symmetry_equiv_pos_site_id
 _symmetry_equiv_pos_as_xyz
  1  'x, y, z'
loop_
 _atom_site_type_symbol
 _atom_site_label
 _atom_site_symmetry_multiplicity
 _atom_site_fract_x
 _atom_site_fract_y
 _atom_site_fract_z
 _atom_site_occupancy
  K  K0  1  0.686455  0.490672  0.804236  1
  K  K1  1  0.813564  0.117783  0.304236  1
  K  K2  1  0.186436  0.882217  0.695764  1
  K  K3  1  0.313545  0.509328  0.195764  1
  K  K4  1  0.749966  0.999966  0.750000  1
  K  K5  1  0.250034  0.000034  0.250000  1
  Tm  Tm6  1  0.250103  0.500103  0.750000  1
  Tm  Tm7  1  0.749897  0.499897  0.250000  1
  Sb  Sb8  1  0.397179  0.199175  0.802251  1
  Sb  Sb9  1  0.602821  0.800825  0.197749  1
  Sb  Sb10  1  0.103077  0.405071  0.302251  1
  Sb  Sb11  1  0.896923  0.594929  0.697749  1
