# generated using pymatgen
data_PrY4(In2Ir)2
_symmetry_space_group_name_H-M   'P 1'
_cell_length_a   3.70920600
_cell_length_b   8.06069900
_cell_length_c   18.48812900
_cell_angle_alpha   90.00000000
_cell_angle_beta   90.00000000
_cell_angle_gamma   90.00000000
_symmetry_Int_Tables_number   1
_chemical_formula_structural   PrY4(In2Ir)2
_chemical_formula_sum   'Pr2 Y8 In8 Ir4'
_cell_volume   552.77274368
_cell_formula_units_Z   2
loop_
 _symmetry_equiv_pos_site_id
 _symmetry_equiv_pos_as_xyz
  1  'x, y, z'
loop_
 _atom_site_type_symbol
 _atom_site_label
 _atom_site_symmetry_multiplicity
 _atom_site_fract_x
 _atom_site_fract_y
 _atom_site_fract_z
 _atom_site_occupancy
  Pr  Pr0  1  0.500000  0.000000  0.000000  1
  Pr  Pr1  1  0.500000  0.500000  0.500000  1
  Y  Y2  1  0.500000  0.242975  0.778260  1
  Y  Y3  1  0.500000  0.757025  0.221740  1
  Y  Y4  1  0.500000  0.257025  0.278260  1
  Y  Y5  1  0.500000  0.742975  0.721740  1
  Y  Y6  1  0.500000  0.116039  0.590089  1
  Y  Y7  1  0.500000  0.883961  0.409911  1
  Y  Y8  1  0.500000  0.383961  0.090089  1
  Y  Y9  1  0.500000  0.616039  0.909911  1
  In  In10  1  0.000000  0.072686  0.152130  1
  In  In11  1  0.000000  0.927314  0.847870  1
  In  In12  1  0.000000  0.427314  0.652130  1
  In  In13  1  0.000000  0.572686  0.347870  1
  In  In14  1  0.000000  0.202843  0.430031  1
  In  In15  1  0.000000  0.797157  0.569969  1
  In  In16  1  0.000000  0.297157  0.930031  1
  In  In17  1  0.000000  0.702843  0.069969  1
  Ir  Ir18  1  0.000000  0.017312  0.695636  1
  Ir  Ir19  1  0.000000  0.982688  0.304364  1
  Ir  Ir20  1  0.000000  0.482688  0.195636  1
  Ir  Ir21  1  0.000000  0.517312  0.804364  1
