# generated using pymatgen
data_Tb3TmAl24Pt7Au2
_symmetry_space_group_name_H-M   'P 1'
_cell_length_a   7.57365235
_cell_length_b   7.58586952
_cell_length_c   13.15832208
_cell_angle_alpha   84.54002993
_cell_angle_beta   78.97371459
_cell_angle_gamma   59.93970588
_symmetry_Int_Tables_number   1
_chemical_formula_structural   Tb3TmAl24Pt7Au2
_chemical_formula_sum   'Tb3 Tm1 Al24 Pt7 Au2'
_cell_volume   642.22228054
_cell_formula_units_Z   1
loop_
 _symmetry_equiv_pos_site_id
 _symmetry_equiv_pos_as_xyz
  1  'x, y, z'
loop_
 _atom_site_type_symbol
 _atom_site_label
 _atom_site_symmetry_multiplicity
 _atom_site_fract_x
 _atom_site_fract_y
 _atom_site_fract_z
 _atom_site_occupancy
  Tb  Tb0  1  0.392619  0.169397  0.809344  1
  Tb  Tb1  1  0.607375  0.830674  0.190741  1
  Tb  Tb2  1  0.733511  0.498739  0.810032  1
  Tm  Tm3  1  0.266408  0.501041  0.190650  1
  Al  Al4  1  0.683300  0.834140  0.945104  1
  Al  Al5  1  0.316502  0.166635  0.055610  1
  Al  Al6  1  0.145882  0.839096  0.562186  1
  Al  Al7  1  0.854252  0.160717  0.437625  1
  Al  Al8  1  0.488373  0.159165  0.559277  1
  Al  Al9  1  0.511509  0.841002  0.440494  1
  Al  Al10  1  0.223399  0.160963  0.324898  1
  Al  Al11  1  0.776845  0.839417  0.674428  1
  Al  Al12  1  0.439755  0.506791  0.674474  1
  Al  Al13  1  0.559856  0.493375  0.324745  1
  Al  Al14  1  0.109035  0.154315  0.673041  1
  Al  Al15  1  0.891620  0.845244  0.326291  1
  Al  Al16  1  0.352636  0.499215  0.945440  1
  Al  Al17  1  0.646054  0.500824  0.055822  1
  Al  Al18  1  0.015490  0.167256  0.953865  1
  Al  Al19  1  0.985013  0.832024  0.046967  1
  Al  Al20  1  0.195729  0.499497  0.437427  1
  Al  Al21  1  0.804413  0.500496  0.562259  1
  Al  Al22  1  0.732050  0.165302  0.183047  1
  Al  Al23  1  0.267111  0.835244  0.816921  1
  Al  Al24  1  0.060498  0.633881  0.817947  1
  Al  Al25  1  0.940316  0.366279  0.182143  1
  Al  Al26  1  0.854551  0.042119  0.816303  1
  Al  Al27  1  0.145773  0.956838  0.183616  1
  Pt  Pt28  1  0.657286  0.171657  0.999730  1
  Pt  Pt29  1  0.342511  0.828400  0.000404  1
  Pt  Pt30  1  0.537044  0.167525  0.361809  1
  Pt  Pt31  1  0.462571  0.833025  0.637826  1
  Pt  Pt32  1  0.779843  0.175090  0.636538  1
  Pt  Pt33  1  0.220307  0.824415  0.363111  1
  Pt  Pt34  1  0.000033  0.500097  0.000140  1
  Au  Au35  1  0.119894  0.490905  0.637954  1
  Au  Au36  1  0.880638  0.509198  0.361788  1
