# generated using pymatgen
data_TbDy3Ho(In2Ni)2
_symmetry_space_group_name_H-M   'P 1'
_cell_length_a   3.57387700
_cell_length_b   8.04877900
_cell_length_c   17.96282000
_cell_angle_alpha   90.00000000
_cell_angle_beta   90.00000000
_cell_angle_gamma   90.00000000
_symmetry_Int_Tables_number   1
_chemical_formula_structural   TbDy3Ho(In2Ni)2
_chemical_formula_sum   'Tb2 Dy6 Ho2 In8 Ni4'
_cell_volume   516.70673506
_cell_formula_units_Z   2
loop_
 _symmetry_equiv_pos_site_id
 _symmetry_equiv_pos_as_xyz
  1  'x, y, z'
loop_
 _atom_site_type_symbol
 _atom_site_label
 _atom_site_symmetry_multiplicity
 _atom_site_fract_x
 _atom_site_fract_y
 _atom_site_fract_z
 _atom_site_occupancy
  Tb  Tb0  1  0.500000  0.499914  0.999740  1
  Tb  Tb1  1  0.500000  0.999914  0.500260  1
  Dy  Dy2  1  0.500000  0.117530  0.088099  1
  Dy  Dy3  1  0.500000  0.756660  0.720249  1
  Dy  Dy4  1  0.500000  0.256660  0.779751  1
  Dy  Dy5  1  0.500000  0.743774  0.220450  1
  Dy  Dy6  1  0.500000  0.243774  0.279550  1
  Dy  Dy7  1  0.500000  0.617530  0.411901  1
  Ho  Ho8  1  0.500000  0.382544  0.588480  1
  Ho  Ho9  1  0.500000  0.882544  0.911520  1
  In  In10  1  0.000000  0.796262  0.068250  1
  In  In11  1  0.000000  0.925456  0.347083  1
  In  In12  1  0.000000  0.075745  0.653229  1
  In  In13  1  0.000000  0.575745  0.846771  1
  In  In14  1  0.000000  0.703022  0.568539  1
  In  In15  1  0.000000  0.203022  0.931461  1
  In  In16  1  0.000000  0.296262  0.431750  1
  In  In17  1  0.000000  0.425456  0.152917  1
  Ni  Ni18  1  0.000000  0.976098  0.804051  1
  Ni  Ni19  1  0.000000  0.522994  0.303907  1
  Ni  Ni20  1  0.000000  0.476098  0.695949  1
  Ni  Ni21  1  0.000000  0.022994  0.196093  1
