# generated using pymatgen
data_MnGa6Co
_symmetry_space_group_name_H-M   'P 1'
_cell_length_a   6.27871700
_cell_length_b   6.28431000
_cell_length_c   6.58223000
_cell_angle_alpha   90.00000000
_cell_angle_beta   90.00000000
_cell_angle_gamma   90.00000000
_symmetry_Int_Tables_number   1
_chemical_formula_structural   MnGa6Co
_chemical_formula_sum   'Mn2 Ga12 Co2'
_cell_volume   259.71770853
_cell_formula_units_Z   2
loop_
 _symmetry_equiv_pos_site_id
 _symmetry_equiv_pos_as_xyz
  1  'x, y, z'
loop_
 _atom_site_type_symbol
 _atom_site_label
 _atom_site_symmetry_multiplicity
 _atom_site_fract_x
 _atom_site_fract_y
 _atom_site_fract_z
 _atom_site_occupancy
  Mn  Mn0  1  0.848388  0.151725  0.000000  1
  Mn  Mn1  1  0.651612  0.651725  0.500000  1
  Ga  Ga2  1  0.501565  0.001116  0.000000  1
  Ga  Ga3  1  0.497997  0.999845  0.500000  1
  Ga  Ga4  1  0.002003  0.499845  0.000000  1
  Ga  Ga5  1  0.998435  0.501116  0.500000  1
  Ga  Ga6  1  0.658638  0.346885  0.740268  1
  Ga  Ga7  1  0.841362  0.846885  0.759732  1
  Ga  Ga8  1  0.152317  0.157245  0.762804  1
  Ga  Ga9  1  0.347683  0.657245  0.737196  1
  Ga  Ga10  1  0.347683  0.657245  0.262804  1
  Ga  Ga11  1  0.658638  0.346885  0.259732  1
  Ga  Ga12  1  0.841362  0.846885  0.240268  1
  Ga  Ga13  1  0.152317  0.157245  0.237196  1
  Co  Co14  1  0.339519  0.339054  0.500000  1
  Co  Co15  1  0.160481  0.839054  0.000000  1
