# generated using pymatgen
data_YHo4(TcO6)2
_symmetry_space_group_name_H-M   'P 1'
_cell_length_a   6.81754491
_cell_length_b   6.81754562
_cell_length_c   7.52682204
_cell_angle_alpha   73.74369895
_cell_angle_beta   73.74369804
_cell_angle_gamma   49.06751484
_symmetry_Int_Tables_number   1
_chemical_formula_structural   YHo4(TcO6)2
_chemical_formula_sum   'Y1 Ho4 Tc2 O12'
_cell_volume   251.47263792
_cell_formula_units_Z   1
loop_
 _symmetry_equiv_pos_site_id
 _symmetry_equiv_pos_as_xyz
  1  'x, y, z'
loop_
 _atom_site_type_symbol
 _atom_site_label
 _atom_site_symmetry_multiplicity
 _atom_site_fract_x
 _atom_site_fract_y
 _atom_site_fract_z
 _atom_site_occupancy
  Y  Y0  1  0.000000  0.000000  0.500000  1
  Ho  Ho1  1  0.315331  0.315331  0.823961  1
  Ho  Ho2  1  0.684669  0.684669  0.176039  1
  Ho  Ho3  1  0.695759  0.695759  0.641969  1
  Ho  Ho4  1  0.304241  0.304241  0.358031  1
  Tc  Tc5  1  0.214553  0.785447  0.000000  1
  Tc  Tc6  1  0.785447  0.214553  0.000000  1
  O  O7  1  0.498895  0.498895  0.179035  1
  O  O8  1  0.501105  0.501105  0.820965  1
  O  O9  1  0.001367  0.001367  0.204098  1
  O  O10  1  0.998633  0.998633  0.795902  1
  O  O11  1  0.913251  0.416972  0.915499  1
  O  O12  1  0.583028  0.086749  0.084501  1
  O  O13  1  0.086749  0.583028  0.084501  1
  O  O14  1  0.592401  0.098192  0.574238  1
  O  O15  1  0.901808  0.407599  0.425762  1
  O  O16  1  0.407599  0.901808  0.425762  1
  O  O17  1  0.098192  0.592401  0.574238  1
  O  O18  1  0.416972  0.913251  0.915499  1
