# generated using pymatgen
data_Sm5TcMoO12
_symmetry_space_group_name_H-M   'P 1'
_cell_length_a   6.97700798
_cell_length_b   6.97700765
_cell_length_c   7.69647056
_cell_angle_alpha   73.87999318
_cell_angle_beta   73.87999344
_cell_angle_gamma   49.82887287
_symmetry_Int_Tables_number   1
_chemical_formula_structural   Sm5TcMoO12
_chemical_formula_sum   'Sm5 Tc1 Mo1 O12'
_cell_volume   272.53547649
_cell_formula_units_Z   1
loop_
 _symmetry_equiv_pos_site_id
 _symmetry_equiv_pos_as_xyz
  1  'x, y, z'
loop_
 _atom_site_type_symbol
 _atom_site_label
 _atom_site_symmetry_multiplicity
 _atom_site_fract_x
 _atom_site_fract_y
 _atom_site_fract_z
 _atom_site_occupancy
  Sm  Sm0  1  0.316117  0.295238  0.358436  1
  Sm  Sm1  1  0.704762  0.683883  0.641564  1
  Sm  Sm2  1  0.316523  0.308112  0.827227  1
  Sm  Sm3  1  0.691888  0.683477  0.172773  1
  Sm  Sm4  1  0.006887  0.993113  0.500000  1
  Tc  Tc5  1  0.765530  0.234470  0.000000  1
  Mo  Mo6  1  0.210586  0.789414  0.000000  1
  O  O7  1  0.909043  0.424340  0.917656  1
  O  O8  1  0.411244  0.903666  0.919536  1
  O  O9  1  0.096334  0.588756  0.080464  1
  O  O10  1  0.575660  0.090957  0.082344  1
  O  O11  1  0.104776  0.589789  0.573121  1
  O  O12  1  0.597594  0.088885  0.578276  1
  O  O13  1  0.911115  0.402406  0.421724  1
  O  O14  1  0.410211  0.895224  0.426879  1
  O  O15  1  0.992106  0.007217  0.802376  1
  O  O16  1  0.992783  0.007894  0.197624  1
  O  O17  1  0.493542  0.506702  0.825590  1
  O  O18  1  0.493298  0.506458  0.174410  1
