# generated using pymatgen
data_LiNd2(Si3Pd10)2
_symmetry_space_group_name_H-M   'P 1'
_cell_length_a   8.71520035
_cell_length_b   8.71520095
_cell_length_c   8.71520000
_cell_angle_alpha   60.00000360
_cell_angle_beta   60.00000132
_cell_angle_gamma   60.00000097
_symmetry_Int_Tables_number   1
_chemical_formula_structural   LiNd2(Si3Pd10)2
_chemical_formula_sum   'Li1 Nd2 Si6 Pd20'
_cell_volume   468.07684728
_cell_formula_units_Z   1
loop_
 _symmetry_equiv_pos_site_id
 _symmetry_equiv_pos_as_xyz
  1  'x, y, z'
loop_
 _atom_site_type_symbol
 _atom_site_label
 _atom_site_symmetry_multiplicity
 _atom_site_fract_x
 _atom_site_fract_y
 _atom_site_fract_z
 _atom_site_occupancy
  Li  Li0  1  0.000000  0.000000  0.000000  1
  Nd  Nd1  1  0.250000  0.250000  0.250000  1
  Nd  Nd2  1  0.750000  0.750000  0.750000  1
  Si  Si3  1  0.735122  0.264878  0.264878  1
  Si  Si4  1  0.264878  0.735122  0.735122  1
  Si  Si5  1  0.264878  0.735122  0.264878  1
  Si  Si6  1  0.735122  0.264878  0.735122  1
  Si  Si7  1  0.264878  0.264878  0.735122  1
  Si  Si8  1  0.735122  0.735122  0.264878  1
  Pd  Pd9  1  0.344031  0.000000  0.000000  1
  Pd  Pd10  1  0.655969  0.000000  0.000000  1
  Pd  Pd11  1  0.000000  0.344031  0.655969  1
  Pd  Pd12  1  0.000000  0.655969  0.344031  1
  Pd  Pd13  1  0.000000  0.344031  0.000000  1
  Pd  Pd14  1  0.655969  0.000000  0.344031  1
  Pd  Pd15  1  0.000000  0.655969  0.000000  1
  Pd  Pd16  1  0.344031  0.000000  0.655969  1
  Pd  Pd17  1  0.000000  0.000000  0.344031  1
  Pd  Pd18  1  0.000000  0.000000  0.655969  1
  Pd  Pd19  1  0.655969  0.344031  0.000000  1
  Pd  Pd20  1  0.344031  0.655969  0.000000  1
  Pd  Pd21  1  0.385122  0.385122  0.385122  1
  Pd  Pd22  1  0.614878  0.614878  0.614878  1
  Pd  Pd23  1  0.385122  0.385122  0.844633  1
  Pd  Pd24  1  0.385122  0.844633  0.385122  1
  Pd  Pd25  1  0.614878  0.614878  0.155367  1
  Pd  Pd26  1  0.614878  0.155367  0.614878  1
  Pd  Pd27  1  0.844633  0.385122  0.385122  1
  Pd  Pd28  1  0.155367  0.614878  0.614878  1
