# generated using pymatgen
data_Y10Pb6AuCl
_symmetry_space_group_name_H-M   'P 1'
_cell_length_a   9.25015300
_cell_length_b   9.25015406
_cell_length_c   6.70152700
_cell_angle_alpha   90.00000000
_cell_angle_beta   90.00000000
_cell_angle_gamma   119.99999263
_symmetry_Int_Tables_number   1
_chemical_formula_structural   Y10Pb6AuCl
_chemical_formula_sum   'Y10 Pb6 Au1 Cl1'
_cell_volume   496.59497161
_cell_formula_units_Z   1
loop_
 _symmetry_equiv_pos_site_id
 _symmetry_equiv_pos_as_xyz
  1  'x, y, z'
loop_
 _atom_site_type_symbol
 _atom_site_label
 _atom_site_symmetry_multiplicity
 _atom_site_fract_x
 _atom_site_fract_y
 _atom_site_fract_z
 _atom_site_occupancy
  Y  Y0  1  0.000000  0.740789  0.755743  1
  Y  Y1  1  0.333333  0.666667  0.500000  1
  Y  Y2  1  0.333333  0.666667  0.000000  1
  Y  Y3  1  0.740789  0.740789  0.244257  1
  Y  Y4  1  0.259211  0.259211  0.755743  1
  Y  Y5  1  0.000000  0.259211  0.244257  1
  Y  Y6  1  0.666667  0.333333  0.500000  1
  Y  Y7  1  0.259211  0.000000  0.244257  1
  Y  Y8  1  0.740789  0.000000  0.755743  1
  Y  Y9  1  0.666667  0.333333  0.000000  1
  Pb  Pb10  1  0.389436  0.000000  0.750609  1
  Pb  Pb11  1  0.389436  0.389436  0.249391  1
  Pb  Pb12  1  0.610564  0.610564  0.750609  1
  Pb  Pb13  1  0.000000  0.610564  0.249391  1
  Pb  Pb14  1  0.000000  0.389436  0.750609  1
  Pb  Pb15  1  0.610564  0.000000  0.249391  1
  Au  Au16  1  0.000000  0.000000  0.500000  1
  Cl  Cl17  1  0.000000  0.000000  0.000000  1
