# generated using pymatgen
data_Er10Si5Sn
_symmetry_space_group_name_H-M   'P 1'
_cell_length_a   8.43111100
_cell_length_b   8.45858094
_cell_length_c   6.32050700
_cell_angle_alpha   90.00000000
_cell_angle_beta   90.00000000
_cell_angle_gamma   119.89262495
_symmetry_Int_Tables_number   1
_chemical_formula_structural   Er10Si5Sn
_chemical_formula_sum   'Er10 Si5 Sn1'
_cell_volume   390.78127688
_cell_formula_units_Z   1
loop_
 _symmetry_equiv_pos_site_id
 _symmetry_equiv_pos_as_xyz
  1  'x, y, z'
loop_
 _atom_site_type_symbol
 _atom_site_label
 _atom_site_symmetry_multiplicity
 _atom_site_fract_x
 _atom_site_fract_y
 _atom_site_fract_z
 _atom_site_occupancy
  Er  Er0  1  0.989600  0.749237  0.750000  1
  Er  Er1  1  0.998310  0.242066  0.250000  1
  Er  Er2  1  0.756245  0.757934  0.250000  1
  Er  Er3  1  0.765958  0.000000  0.750000  1
  Er  Er4  1  0.240363  0.250763  0.750000  1
  Er  Er5  1  0.240975  0.000000  0.250000  1
  Er  Er6  1  0.331320  0.657493  0.497046  1
  Er  Er7  1  0.673828  0.342507  0.002954  1
  Er  Er8  1  0.673828  0.342507  0.497046  1
  Er  Er9  1  0.331320  0.657493  0.002954  1
  Si  Si10  1  0.393334  0.391899  0.250000  1
  Si  Si11  1  0.001435  0.608101  0.250000  1
  Si  Si12  1  0.998614  0.394190  0.750000  1
  Si  Si13  1  0.604424  0.605810  0.750000  1
  Si  Si14  1  0.605079  0.000000  0.250000  1
  Sn  Sn15  1  0.395368  0.000000  0.750000  1
