# generated using pymatgen
data_Cs4Tb7(DyTe4)5
_symmetry_space_group_name_H-M   'P 1'
_cell_length_a   4.42777300
_cell_length_b   13.38717910
_cell_length_c   23.87869217
_cell_angle_alpha   89.98632896
_cell_angle_beta   90.00000000
_cell_angle_gamma   90.00000000
_symmetry_Int_Tables_number   1
_chemical_formula_structural   Cs4Tb7(DyTe4)5
_chemical_formula_sum   'Cs4 Tb7 Dy5 Te20'
_cell_volume   1415.41875421
_cell_formula_units_Z   1
loop_
 _symmetry_equiv_pos_site_id
 _symmetry_equiv_pos_as_xyz
  1  'x, y, z'
loop_
 _atom_site_type_symbol
 _atom_site_label
 _atom_site_symmetry_multiplicity
 _atom_site_fract_x
 _atom_site_fract_y
 _atom_site_fract_z
 _atom_site_occupancy
  Cs  Cs0  1  0.250000  0.353949  0.089651  1
  Cs  Cs1  1  0.750000  0.646069  0.910355  1
  Cs  Cs2  1  0.750000  0.853925  0.410342  1
  Cs  Cs3  1  0.250000  0.146072  0.589652  1
  Tb  Tb4  1  0.250000  0.454358  0.697673  1
  Tb  Tb5  1  0.750000  0.545674  0.302302  1
  Tb  Tb6  1  0.750000  0.954362  0.802328  1
  Tb  Tb7  1  0.250000  0.045591  0.197666  1
  Tb  Tb8  1  0.250000  0.796636  0.674614  1
  Tb  Tb9  1  0.750000  0.203362  0.325389  1
  Tb  Tb10  1  0.750000  0.296635  0.825388  1
  Dy  Dy11  1  0.250000  0.703260  0.174648  1
  Dy  Dy12  1  0.250000  0.392223  0.444430  1
  Dy  Dy13  1  0.750000  0.607772  0.555571  1
  Dy  Dy14  1  0.750000  0.892184  0.055606  1
  Dy  Dy15  1  0.250000  0.107772  0.944438  1
  Te  Te16  1  0.250000  0.444671  0.568661  1
  Te  Te17  1  0.750000  0.555338  0.431335  1
  Te  Te18  1  0.750000  0.944663  0.931340  1
  Te  Te19  1  0.250000  0.055338  0.068662  1
  Te  Te20  1  0.250000  0.767893  0.546548  1
  Te  Te21  1  0.750000  0.232106  0.453453  1
  Te  Te22  1  0.750000  0.267890  0.953451  1
  Te  Te23  1  0.250000  0.732033  0.046807  1
  Te  Te24  1  0.250000  0.798907  0.803225  1
  Te  Te25  1  0.750000  0.201084  0.196777  1
  Te  Te26  1  0.750000  0.298910  0.696777  1
  Te  Te27  1  0.250000  0.701107  0.302974  1
  Te  Te28  1  0.250000  0.453650  0.826447  1
  Te  Te29  1  0.750000  0.546966  0.173518  1
  Te  Te30  1  0.750000  0.953653  0.673554  1
  Te  Te31  1  0.250000  0.046345  0.326445  1
  Te  Te32  1  0.250000  0.375017  0.313649  1
  Te  Te33  1  0.750000  0.624976  0.686353  1
  Te  Te34  1  0.750000  0.874632  0.186324  1
  Te  Te35  1  0.250000  0.124977  0.813646  1
