# generated using pymatgen
data_Ca2Cd2Os3RuO14
_symmetry_space_group_name_H-M   'P 1'
_cell_length_a   7.27650015
_cell_length_b   7.21109310
_cell_length_c   7.27650103
_cell_angle_alpha   60.66894859
_cell_angle_beta   60.95259287
_cell_angle_gamma   60.66894945
_symmetry_Int_Tables_number   1
_chemical_formula_structural   Ca2Cd2Os3RuO14
_chemical_formula_sum   'Ca2 Cd2 Os3 Ru1 O14'
_cell_volume   274.62578917
_cell_formula_units_Z   1
loop_
 _symmetry_equiv_pos_site_id
 _symmetry_equiv_pos_as_xyz
  1  'x, y, z'
loop_
 _atom_site_type_symbol
 _atom_site_label
 _atom_site_symmetry_multiplicity
 _atom_site_fract_x
 _atom_site_fract_y
 _atom_site_fract_z
 _atom_site_occupancy
  Ca  Ca0  1  0.625000  0.125000  0.125000  1
  Ca  Ca1  1  0.125000  0.125000  0.625000  1
  Cd  Cd2  1  0.125000  0.125000  0.125000  1
  Cd  Cd3  1  0.125000  0.625000  0.125000  1
  Os  Os4  1  0.125000  0.625000  0.625000  1
  Os  Os5  1  0.625000  0.125000  0.625000  1
  Os  Os6  1  0.625000  0.625000  0.125000  1
  Ru  Ru7  1  0.625000  0.625000  0.625000  1
  O  O8  1  0.240549  0.259972  0.240549  1
  O  O9  1  0.009451  0.990028  0.009451  1
  O  O10  1  0.551902  0.951882  0.551902  1
  O  O11  1  0.311216  0.689573  0.311216  1
  O  O12  1  0.558976  0.553822  0.947078  1
  O  O13  1  0.947078  0.553822  0.558976  1
  O  O14  1  0.558209  0.942026  0.940647  1
  O  O15  1  0.940647  0.942026  0.558209  1
  O  O16  1  0.938784  0.560427  0.938784  1
  O  O17  1  0.691791  0.307974  0.309353  1
  O  O18  1  0.302922  0.696178  0.691024  1
  O  O19  1  0.698098  0.298118  0.698098  1
  O  O20  1  0.309353  0.307974  0.691791  1
  O  O21  1  0.691024  0.696178  0.302922  1
