# generated using pymatgen
data_Lu11Hg9Pd4
_symmetry_space_group_name_H-M   'P 1'
_cell_length_a   3.61253100
_cell_length_b   13.04290993
_cell_length_c   13.04291000
_cell_angle_alpha   112.45081296
_cell_angle_beta   90.00000000
_cell_angle_gamma   90.00000000
_symmetry_Int_Tables_number   1
_chemical_formula_structural   Lu11Hg9Pd4
_chemical_formula_sum   'Lu11 Hg9 Pd4'
_cell_volume   567.97623618
_cell_formula_units_Z   1
loop_
 _symmetry_equiv_pos_site_id
 _symmetry_equiv_pos_as_xyz
  1  'x, y, z'
loop_
 _atom_site_type_symbol
 _atom_site_label
 _atom_site_symmetry_multiplicity
 _atom_site_fract_x
 _atom_site_fract_y
 _atom_site_fract_z
 _atom_site_occupancy
  Lu  Lu0  1  0.000000  0.922721  0.583655  1
  Lu  Lu1  1  0.000000  0.077279  0.416345  1
  Lu  Lu2  1  0.000000  0.583655  0.922721  1
  Lu  Lu3  1  0.000000  0.416345  0.077279  1
  Lu  Lu4  1  0.000000  0.164532  0.835468  1
  Lu  Lu5  1  0.000000  0.835468  0.164532  1
  Lu  Lu6  1  0.000000  0.370353  0.629647  1
  Lu  Lu7  1  0.000000  0.629647  0.370353  1
  Lu  Lu8  1  0.000000  0.698524  0.698524  1
  Lu  Lu9  1  0.000000  0.301476  0.301476  1
  Lu  Lu10  1  0.000000  0.000000  0.000000  1
  Hg  Hg11  1  0.500000  0.151983  0.630443  1
  Hg  Hg12  1  0.500000  0.848017  0.369557  1
  Hg  Hg13  1  0.500000  0.630443  0.151983  1
  Hg  Hg14  1  0.500000  0.369557  0.848017  1
  Hg  Hg15  1  0.500000  0.935456  0.785239  1
  Hg  Hg16  1  0.500000  0.064544  0.214761  1
  Hg  Hg17  1  0.500000  0.785239  0.935456  1
  Hg  Hg18  1  0.500000  0.214761  0.064544  1
  Hg  Hg19  1  0.500000  0.500000  0.500000  1
  Pd  Pd20  1  0.500000  0.748015  0.549793  1
  Pd  Pd21  1  0.500000  0.251985  0.450207  1
  Pd  Pd22  1  0.500000  0.549793  0.748015  1
  Pd  Pd23  1  0.500000  0.450207  0.251985  1
