# generated using pymatgen
data_Er3Ga3Ge2Os
_symmetry_space_group_name_H-M   'P 1'
_cell_length_a   6.94000400
_cell_length_b   6.94000420
_cell_length_c   4.24503200
_cell_angle_alpha   90.00000000
_cell_angle_beta   90.00000000
_cell_angle_gamma   119.99999904
_symmetry_Int_Tables_number   1
_chemical_formula_structural   Er3Ga3Ge2Os
_chemical_formula_sum   'Er3 Ga3 Ge2 Os1'
_cell_volume   177.06432107
_cell_formula_units_Z   1
loop_
 _symmetry_equiv_pos_site_id
 _symmetry_equiv_pos_as_xyz
  1  'x, y, z'
loop_
 _atom_site_type_symbol
 _atom_site_label
 _atom_site_symmetry_multiplicity
 _atom_site_fract_x
 _atom_site_fract_y
 _atom_site_fract_z
 _atom_site_occupancy
  Er  Er0  1  0.414535  0.000000  0.000000  1
  Er  Er1  1  0.000000  0.414535  0.000000  1
  Er  Er2  1  0.585465  0.585464  0.000000  1
  Ga  Ga3  1  0.769899  0.000000  0.500001  1
  Ga  Ga4  1  0.230100  0.230100  0.500001  1
  Ga  Ga5  1  0.000000  0.769899  0.500001  1
  Ge  Ge6  1  0.666666  0.333333  0.500001  1
  Ge  Ge7  1  0.333333  0.666666  0.500001  1
  Os  Os8  1  0.000000  0.000000  0.000000  1
