# generated using pymatgen
data_La3Dy8(Y3Bi4)3
_symmetry_space_group_name_H-M   'P 1'
_cell_length_a   8.33308807
_cell_length_b   9.53495403
_cell_length_c   12.19813500
_cell_angle_alpha   90.00026440
_cell_angle_beta   89.99235423
_cell_angle_gamma   89.99524690
_symmetry_Int_Tables_number   1
_chemical_formula_structural   La3Dy8(Y3Bi4)3
_chemical_formula_sum   'La3 Dy8 Y9 Bi12'
_cell_volume   969.21026653
_cell_formula_units_Z   1
loop_
 _symmetry_equiv_pos_site_id
 _symmetry_equiv_pos_as_xyz
  1  'x, y, z'
loop_
 _atom_site_type_symbol
 _atom_site_label
 _atom_site_symmetry_multiplicity
 _atom_site_fract_x
 _atom_site_fract_y
 _atom_site_fract_z
 _atom_site_occupancy
  La  La0  1  0.182717  0.749963  0.721712  1
  La  La1  1  0.683486  0.750026  0.778047  1
  La  La2  1  0.816865  0.249935  0.278544  1
  Dy  Dy3  1  0.025570  0.749989  0.988929  1
  Dy  Dy4  1  0.523182  0.749954  0.511236  1
  Dy  Dy5  1  0.975543  0.249973  0.013727  1
  Dy  Dy6  1  0.475186  0.249946  0.487806  1
  Dy  Dy7  1  0.307016  0.435378  0.940082  1
  Dy  Dy8  1  0.808437  0.065343  0.560752  1
  Dy  Dy9  1  0.693435  0.935500  0.060997  1
  Dy  Dy10  1  0.191441  0.564535  0.437933  1
  Y  Y11  1  0.314616  0.250190  0.218731  1
  Y  Y12  1  0.693581  0.561620  0.061110  1
  Y  Y13  1  0.191718  0.938440  0.437945  1
  Y  Y14  1  0.307026  0.061572  0.940201  1
  Y  Y15  1  0.808247  0.437820  0.560621  1
  Y  Y16  1  0.352777  0.749948  0.216336  1
  Y  Y17  1  0.853799  0.750036  0.282504  1
  Y  Y18  1  0.646761  0.249952  0.784824  1
  Y  Y19  1  0.148112  0.249922  0.716120  1
  Bi  Bi20  1  0.434813  0.009925  0.670999  1
  Bi  Bi21  1  0.934499  0.489605  0.829712  1
  Bi  Bi22  1  0.561692  0.506812  0.327607  1
  Bi  Bi23  1  0.070366  0.993155  0.172082  1
  Bi  Bi24  1  0.562188  0.993148  0.327710  1
  Bi  Bi25  1  0.070778  0.506840  0.171992  1
  Bi  Bi26  1  0.434420  0.490040  0.670910  1
  Bi  Bi27  1  0.934013  0.010341  0.829802  1
  Bi  Bi28  1  0.407265  0.748503  0.964007  1
  Bi  Bi29  1  0.905775  0.751473  0.535320  1
  Bi  Bi30  1  0.588858  0.248663  0.039685  1
  Bi  Bi31  1  0.095817  0.251452  0.462021  1
