# generated using pymatgen
data_Cs4Na2NdInP4
_symmetry_space_group_name_H-M   'P 1'
_cell_length_a   9.69805953
_cell_length_b   9.69805831
_cell_length_c   9.69805862
_cell_angle_alpha   137.29040493
_cell_angle_beta   61.21109711
_cell_angle_gamma   138.31246879
_symmetry_Int_Tables_number   1
_chemical_formula_structural   Cs4Na2NdInP4
_chemical_formula_sum   'Cs4 Na2 Nd1 In1 P4'
_cell_volume   406.87872813
_cell_formula_units_Z   1
loop_
 _symmetry_equiv_pos_site_id
 _symmetry_equiv_pos_as_xyz
  1  'x, y, z'
loop_
 _atom_site_type_symbol
 _atom_site_label
 _atom_site_symmetry_multiplicity
 _atom_site_fract_x
 _atom_site_fract_y
 _atom_site_fract_z
 _atom_site_occupancy
  Cs  Cs0  1  0.313781  0.716949  0.048201  1
  Cs  Cs1  1  0.186219  0.234420  0.403167  1
  Cs  Cs2  1  0.831252  0.783051  0.596832  1
  Cs  Cs3  1  0.668748  0.265580  0.951799  1
  Na  Na4  1  0.249999  0.249999  0.000000  1
  Na  Na5  1  0.750000  0.750000  0.000000  1
  Nd  Nd6  1  0.749999  0.249999  0.500000  1
  In  In7  1  0.249999  0.749999  0.500000  1
  P  P8  1  0.922201  0.292162  0.189497  1
  P  P9  1  0.577800  0.767298  0.369961  1
  P  P10  1  0.397335  0.207838  0.630039  1
  P  P11  1  0.102664  0.732702  0.810502  1
