# generated using pymatgen
data_BaLiTbSe3
_symmetry_space_group_name_H-M   'P 1'
_cell_length_a   7.39734148
_cell_length_b   7.39734108
_cell_length_c   10.78559700
_cell_angle_alpha   90.00000000
_cell_angle_beta   90.00000000
_cell_angle_gamma   146.38384682
_symmetry_Int_Tables_number   1
_chemical_formula_structural   BaLiTbSe3
_chemical_formula_sum   'Ba2 Li2 Tb2 Se6'
_cell_volume   326.74748403
_cell_formula_units_Z   2
loop_
 _symmetry_equiv_pos_site_id
 _symmetry_equiv_pos_as_xyz
  1  'x, y, z'
loop_
 _atom_site_type_symbol
 _atom_site_label
 _atom_site_symmetry_multiplicity
 _atom_site_fract_x
 _atom_site_fract_y
 _atom_site_fract_z
 _atom_site_occupancy
  Ba  Ba0  1  0.248771  0.751231  0.250000  1
  Ba  Ba1  1  0.751231  0.248771  0.750000  1
  Li  Li2  1  0.974376  0.025626  0.250000  1
  Li  Li3  1  0.025626  0.974376  0.750000  1
  Tb  Tb4  1  0.500001  0.500001  0.000000  1
  Tb  Tb5  1  0.500001  0.500001  0.500000  1
  Se  Se6  1  0.868129  0.131872  0.061247  1
  Se  Se7  1  0.570490  0.429511  0.250000  1
  Se  Se8  1  0.868129  0.131872  0.438753  1
  Se  Se9  1  0.131872  0.868129  0.561246  1
  Se  Se10  1  0.429511  0.570490  0.750000  1
  Se  Se11  1  0.131872  0.868129  0.938753  1
