# generated using pymatgen
data_Ac5Dy(BiO7)2
_symmetry_space_group_name_H-M   'P 1'
_cell_length_a   6.89080589
_cell_length_b   6.90624891
_cell_length_c   8.11855700
_cell_angle_alpha   106.89807765
_cell_angle_beta   89.83697951
_cell_angle_gamma   98.60398712
_symmetry_Int_Tables_number   1
_chemical_formula_structural   Ac5Dy(BiO7)2
_chemical_formula_sum   'Ac5 Dy1 Bi2 O14'
_cell_volume   365.17958539
_cell_formula_units_Z   1
loop_
 _symmetry_equiv_pos_site_id
 _symmetry_equiv_pos_as_xyz
  1  'x, y, z'
loop_
 _atom_site_type_symbol
 _atom_site_label
 _atom_site_symmetry_multiplicity
 _atom_site_fract_x
 _atom_site_fract_y
 _atom_site_fract_z
 _atom_site_occupancy
  Ac  Ac0  1  0.535975  0.996931  0.745452  1
  Ac  Ac1  1  0.262188  0.536411  0.884903  1
  Ac  Ac2  1  0.732626  0.470991  0.121535  1
  Ac  Ac3  1  0.745839  0.484741  0.615034  1
  Ac  Ac4  1  0.250086  0.507551  0.376000  1
  Dy  Dy5  1  0.462975  0.003433  0.254050  1
  Bi  Bi6  1  0.001591  0.000574  0.496239  1
  Bi  Bi7  1  0.000257  0.000297  0.005292  1
  O  O8  1  0.442924  0.661687  0.172810  1
  O  O9  1  0.559993  0.362757  0.835432  1
  O  O10  1  0.298385  0.942915  0.971365  1
  O  O11  1  0.706010  0.055691  0.056222  1
  O  O12  1  0.294483  0.938285  0.499894  1
  O  O13  1  0.709547  0.058904  0.471028  1
  O  O14  1  0.539644  0.344280  0.339338  1
  O  O15  1  0.445060  0.633600  0.649910  1
  O  O16  1  0.925443  0.677556  0.948302  1
  O  O17  1  0.071958  0.323075  0.051924  1
  O  O18  1  0.067737  0.327351  0.611317  1
  O  O19  1  0.924220  0.670983  0.392976  1
  O  O20  1  0.906316  0.927948  0.731761  1
  O  O21  1  0.116741  0.074043  0.269220  1
