# generated using pymatgen
data_Tm9Th3Fe3Ru
_symmetry_space_group_name_H-M   'P 1'
_cell_length_a   6.23201118
_cell_length_b   7.00560309
_cell_length_c   9.32255600
_cell_angle_alpha   90.00000000
_cell_angle_beta   90.00000000
_cell_angle_gamma   89.30498833
_symmetry_Int_Tables_number   1
_chemical_formula_structural   Tm9Th3Fe3Ru
_chemical_formula_sum   'Tm9 Th3 Fe3 Ru1'
_cell_volume   406.98349825
_cell_formula_units_Z   1
loop_
 _symmetry_equiv_pos_site_id
 _symmetry_equiv_pos_as_xyz
  1  'x, y, z'
loop_
 _atom_site_type_symbol
 _atom_site_label
 _atom_site_symmetry_multiplicity
 _atom_site_fract_x
 _atom_site_fract_y
 _atom_site_fract_z
 _atom_site_occupancy
  Tm  Tm0  1  0.853947  0.539236  0.250000  1
  Tm  Tm1  1  0.170368  0.176433  0.066069  1
  Tm  Tm2  1  0.829975  0.827835  0.933422  1
  Tm  Tm3  1  0.669840  0.330442  0.931878  1
  Tm  Tm4  1  0.829975  0.827835  0.566578  1
  Tm  Tm5  1  0.330339  0.667196  0.068924  1
  Tm  Tm6  1  0.170368  0.176433  0.433931  1
  Tm  Tm7  1  0.330339  0.667196  0.431076  1
  Tm  Tm8  1  0.669840  0.330442  0.568122  1
  Th  Th9  1  0.639020  0.059129  0.250000  1
  Th  Th10  1  0.349838  0.939193  0.750000  1
  Th  Th11  1  0.144896  0.444869  0.750000  1
  Fe  Fe12  1  0.469353  0.361238  0.250000  1
  Fe  Fe13  1  0.524985  0.633143  0.750000  1
  Fe  Fe14  1  0.982218  0.134678  0.750000  1
  Ru  Ru15  1  0.034699  0.884699  0.250000  1
