# generated using pymatgen
data_Dy2TmIn3Ag2Pt
_symmetry_space_group_name_H-M   'P 1'
_cell_length_a   7.97984528
_cell_length_b   7.96776345
_cell_length_c   3.74228600
_cell_angle_alpha   90.00000000
_cell_angle_beta   90.00000000
_cell_angle_gamma   120.08927792
_symmetry_Int_Tables_number   1
_chemical_formula_structural   Dy2TmIn3Ag2Pt
_chemical_formula_sum   'Dy2 Tm1 In3 Ag2 Pt1'
_cell_volume   205.87665554
_cell_formula_units_Z   1
loop_
 _symmetry_equiv_pos_site_id
 _symmetry_equiv_pos_as_xyz
  1  'x, y, z'
loop_
 _atom_site_type_symbol
 _atom_site_label
 _atom_site_symmetry_multiplicity
 _atom_site_fract_x
 _atom_site_fract_y
 _atom_site_fract_z
 _atom_site_occupancy
  Dy  Dy0  1  0.974991  0.390457  0.500000  1
  Dy  Dy1  1  0.609166  0.584290  0.500000  1
  Tm  Tm2  1  0.416927  0.027137  0.500000  1
  In  In3  1  0.265007  0.274813  0.000000  1
  In  In4  1  0.011235  0.735699  0.000000  1
  In  In5  1  0.724414  0.989439  0.000000  1
  Ag  Ag6  1  0.333785  0.668701  0.000000  1
  Ag  Ag7  1  0.000579  0.999897  0.500000  1
  Pt  Pt8  1  0.663895  0.329565  0.000000  1
