# generated using pymatgen
data_Gd2Dy5FeBr12
_symmetry_space_group_name_H-M   'P 1'
_cell_length_a   9.28351624
_cell_length_b   9.23921349
_cell_length_c   9.32076300
_cell_angle_alpha   106.63523937
_cell_angle_beta   106.45815172
_cell_angle_gamma   107.44632586
_symmetry_Int_Tables_number   1
_chemical_formula_structural   Gd2Dy5FeBr12
_chemical_formula_sum   'Gd2 Dy5 Fe1 Br12'
_cell_volume   668.52445068
_cell_formula_units_Z   1
loop_
 _symmetry_equiv_pos_site_id
 _symmetry_equiv_pos_as_xyz
  1  'x, y, z'
loop_
 _atom_site_type_symbol
 _atom_site_label
 _atom_site_symmetry_multiplicity
 _atom_site_fract_x
 _atom_site_fract_y
 _atom_site_fract_z
 _atom_site_occupancy
  Gd  Gd0  1  0.593892  0.794529  0.520091  1
  Gd  Gd1  1  0.406108  0.205471  0.479909  1
  Dy  Dy2  1  0.805189  0.524684  0.597636  1
  Dy  Dy3  1  0.520832  0.597194  0.802187  1
  Dy  Dy4  1  0.194811  0.475316  0.402364  1
  Dy  Dy5  1  0.479168  0.402806  0.197813  1
  Dy  Dy6  1  0.000000  0.000000  0.000000  1
  Fe  Fe7  1  0.500000  0.500000  0.500000  1
  Br  Br8  1  0.727486  0.188003  0.576168  1
  Br  Br9  1  0.965507  0.886530  0.672096  1
  Br  Br10  1  0.569696  0.716684  0.175978  1
  Br  Br11  1  0.116119  0.333247  0.041742  1
  Br  Br12  1  0.668843  0.959535  0.887632  1
  Br  Br13  1  0.883881  0.666753  0.958258  1
  Br  Br14  1  0.034493  0.113470  0.327904  1
  Br  Br15  1  0.819861  0.429568  0.281010  1
  Br  Br16  1  0.331157  0.040465  0.112368  1
  Br  Br17  1  0.272514  0.811997  0.423832  1
  Br  Br18  1  0.180139  0.570432  0.718990  1
  Br  Br19  1  0.430304  0.283316  0.824022  1
