# generated using pymatgen
data_Dy4Al3(CoO4)5
_symmetry_space_group_name_H-M   'P 1'
_cell_length_a   5.64837600
_cell_length_b   7.21347319
_cell_length_c   8.34999722
_cell_angle_alpha   89.74575720
_cell_angle_beta   90.00000000
_cell_angle_gamma   90.00000000
_symmetry_Int_Tables_number   1
_chemical_formula_structural   Dy4Al3(CoO4)5
_chemical_formula_sum   'Dy4 Al3 Co5 O20'
_cell_volume   340.21235093
_cell_formula_units_Z   1
loop_
 _symmetry_equiv_pos_site_id
 _symmetry_equiv_pos_as_xyz
  1  'x, y, z'
loop_
 _atom_site_type_symbol
 _atom_site_label
 _atom_site_symmetry_multiplicity
 _atom_site_fract_x
 _atom_site_fract_y
 _atom_site_fract_z
 _atom_site_occupancy
  Dy  Dy0  1  0.000000  0.860130  0.830104  1
  Dy  Dy1  1  0.000000  0.139960  0.169621  1
  Dy  Dy2  1  0.000000  0.369443  0.671448  1
  Dy  Dy3  1  0.000000  0.636983  0.329120  1
  Al  Al4  1  0.500000  0.609283  0.642456  1
  Al  Al5  1  0.500000  0.393723  0.358163  1
  Al  Al6  1  0.500000  0.891238  0.143745  1
  Co  Co7  1  0.746242  0.000691  0.498866  1
  Co  Co8  1  0.500000  0.090089  0.848417  1
  Co  Co9  1  0.255481  0.499146  0.001568  1
  Co  Co10  1  0.744519  0.499146  0.001568  1
  Co  Co11  1  0.253758  0.000691  0.498866  1
  O  O12  1  0.000000  0.338474  0.945557  1
  O  O13  1  0.722691  0.998774  0.001547  1
  O  O14  1  0.277309  0.998774  0.001547  1
  O  O15  1  0.500000  0.155924  0.431691  1
  O  O16  1  0.000000  0.161438  0.445222  1
  O  O17  1  0.720666  0.501583  0.500009  1
  O  O18  1  0.000000  0.839807  0.553431  1
  O  O19  1  0.748779  0.602075  0.790894  1
  O  O20  1  0.242057  0.102883  0.705836  1
  O  O21  1  0.500000  0.656366  0.070503  1
  O  O22  1  0.500000  0.346489  0.937688  1
  O  O23  1  0.000000  0.660604  0.054237  1
  O  O24  1  0.750114  0.898672  0.290536  1
  O  O25  1  0.749705  0.397719  0.210043  1
  O  O26  1  0.757943  0.102883  0.705836  1
  O  O27  1  0.251221  0.602075  0.790894  1
  O  O28  1  0.279334  0.501583  0.500009  1
  O  O29  1  0.249886  0.898672  0.290536  1
  O  O30  1  0.250295  0.397719  0.210043  1
  O  O31  1  0.500000  0.846965  0.569997  1
