# generated using pymatgen
data_Lu12InAgOs3
_symmetry_space_group_name_H-M   'P 1'
_cell_length_a   8.24274524
_cell_length_b   8.24274495
_cell_length_c   8.24274500
_cell_angle_alpha   111.20703755
_cell_angle_beta   107.29862162
_cell_angle_gamma   109.93226301
_symmetry_Int_Tables_number   1
_chemical_formula_structural   Lu12InAgOs3
_chemical_formula_sum   'Lu12 In1 Ag1 Os3'
_cell_volume   430.59736187
_cell_formula_units_Z   1
loop_
 _symmetry_equiv_pos_site_id
 _symmetry_equiv_pos_as_xyz
  1  'x, y, z'
loop_
 _atom_site_type_symbol
 _atom_site_label
 _atom_site_symmetry_multiplicity
 _atom_site_fract_x
 _atom_site_fract_y
 _atom_site_fract_z
 _atom_site_occupancy
  Lu  Lu0  1  0.321387  0.318083  0.639470  1
  Lu  Lu1  1  0.678613  0.681917  0.360530  1
  Lu  Lu2  1  0.678613  0.318083  0.996697  1
  Lu  Lu3  1  0.321387  0.681917  0.003303  1
  Lu  Lu4  1  0.187049  0.440220  0.253171  1
  Lu  Lu5  1  0.812951  0.559780  0.746829  1
  Lu  Lu6  1  0.187049  0.933876  0.746829  1
  Lu  Lu7  1  0.947198  0.182739  0.764460  1
  Lu  Lu8  1  0.812951  0.066124  0.253171  1
  Lu  Lu9  1  0.052802  0.817261  0.235540  1
  Lu  Lu10  1  0.418279  0.182739  0.235540  1
  Lu  Lu11  1  0.581721  0.817261  0.764460  1
  In  In12  1  0.500000  0.000000  0.500000  1
  Ag  Ag13  1  0.000000  0.500000  0.500000  1
  Os  Os14  1  0.342775  0.342775  0.000000  1
  Os  Os15  1  0.657225  0.657225  0.000000  1
  Os  Os16  1  0.000000  0.000000  0.000000  1
