# generated using pymatgen
data_Pr5NdAl24Os4Pd3Pt
_symmetry_space_group_name_H-M   'P 1'
_cell_length_a   8.96962300
_cell_length_b   8.92354819
_cell_length_c   9.68741400
_cell_angle_alpha   90.00000000
_cell_angle_beta   90.00000000
_cell_angle_gamma   119.86248260
_symmetry_Int_Tables_number   1
_chemical_formula_structural   Pr5NdAl24Os4Pd3Pt
_chemical_formula_sum   'Pr5 Nd1 Al24 Os4 Pd3 Pt1'
_cell_volume   672.43513520
_cell_formula_units_Z   1
loop_
 _symmetry_equiv_pos_site_id
 _symmetry_equiv_pos_as_xyz
  1  'x, y, z'
loop_
 _atom_site_type_symbol
 _atom_site_label
 _atom_site_symmetry_multiplicity
 _atom_site_fract_x
 _atom_site_fract_y
 _atom_site_fract_z
 _atom_site_occupancy
  Pr  Pr0  1  0.187163  0.379605  0.249970  1
  Pr  Pr1  1  0.812874  0.620184  0.750025  1
  Pr  Pr2  1  0.621966  0.810473  0.249927  1
  Pr  Pr3  1  0.378048  0.189484  0.750077  1
  Pr  Pr4  1  0.187064  0.806049  0.250283  1
  Nd  Nd5  1  0.813018  0.194531  0.749719  1
  Al  Al6  1  0.328671  0.664345  0.024914  1
  Al  Al7  1  0.671452  0.335359  0.974440  1
  Al  Al8  1  0.671323  0.335603  0.525424  1
  Al  Al9  1  0.328789  0.664090  0.475219  1
  Al  Al10  1  0.158663  0.326991  0.574503  1
  Al  Al11  1  0.840901  0.672753  0.425851  1
  Al  Al12  1  0.675926  0.837671  0.574111  1
  Al  Al13  1  0.841477  0.672926  0.074883  1
  Al  Al14  1  0.324250  0.162767  0.426207  1
  Al  Al15  1  0.158088  0.326813  0.924764  1
  Al  Al16  1  0.158558  0.831691  0.575923  1
  Al  Al17  1  0.324222  0.162242  0.074459  1
  Al  Al18  1  0.841427  0.168315  0.424669  1
  Al  Al19  1  0.675981  0.838219  0.925200  1
  Al  Al20  1  0.841366  0.168482  0.075260  1
  Al  Al21  1  0.158611  0.831513  0.924166  1
  Al  Al22  1  0.564675  0.127981  0.250036  1
  Al  Al23  1  0.436019  0.872455  0.749965  1
  Al  Al24  1  0.873493  0.436295  0.250060  1
  Al  Al25  1  0.126184  0.563179  0.749940  1
  Al  Al26  1  0.564464  0.436207  0.249990  1
  Al  Al27  1  0.435540  0.563805  0.750011  1
  Al  Al28  1  0.996017  0.997970  0.250027  1
  Al  Al29  1  0.003478  0.002412  0.749983  1
  Os  Os30  1  0.999841  0.499750  0.999766  1
  Os  Os31  1  0.999834  0.499747  0.500227  1
  Os  Os32  1  0.999966  0.000007  0.999983  1
  Os  Os33  1  0.999962  0.000011  0.500014  1
  Pd  Pd34  1  0.500250  0.000102  0.999810  1
  Pd  Pd35  1  0.500248  0.000105  0.500192  1
  Pd  Pd36  1  0.500088  0.499936  0.999925  1
  Pt  Pt37  1  0.500104  0.499936  0.500081  1
