# generated using pymatgen
data_Ta4AlCr7
_symmetry_space_group_name_H-M   'P 1'
_cell_length_a   4.88266100
_cell_length_b   4.88266035
_cell_length_c   8.18425600
_cell_angle_alpha   90.00000000
_cell_angle_beta   90.00000000
_cell_angle_gamma   119.99999764
_symmetry_Int_Tables_number   1
_chemical_formula_structural   Ta4AlCr7
_chemical_formula_sum   'Ta4 Al1 Cr7'
_cell_volume   168.97518655
_cell_formula_units_Z   1
loop_
 _symmetry_equiv_pos_site_id
 _symmetry_equiv_pos_as_xyz
  1  'x, y, z'
loop_
 _atom_site_type_symbol
 _atom_site_label
 _atom_site_symmetry_multiplicity
 _atom_site_fract_x
 _atom_site_fract_y
 _atom_site_fract_z
 _atom_site_occupancy
  Ta  Ta0  1  0.333333  0.666667  0.436701  1
  Ta  Ta1  1  0.666667  0.333333  0.935325  1
  Ta  Ta2  1  0.666667  0.333333  0.563299  1
  Ta  Ta3  1  0.333333  0.666667  0.064675  1
  Al  Al4  1  0.000000  0.000000  0.000000  1
  Cr  Cr5  1  0.170985  0.341970  0.744948  1
  Cr  Cr6  1  0.170985  0.829015  0.744948  1
  Cr  Cr7  1  0.341970  0.170985  0.255052  1
  Cr  Cr8  1  0.829015  0.658030  0.255052  1
  Cr  Cr9  1  0.658030  0.829015  0.744948  1
  Cr  Cr10  1  0.829015  0.170985  0.255052  1
  Cr  Cr11  1  0.000000  0.000000  0.500000  1
