# generated using pymatgen
data_Mg5In11(BRh4)2
_symmetry_space_group_name_H-M   'P 1'
_cell_length_a   8.72082836
_cell_length_b   8.74258455
_cell_length_c   8.74258439
_cell_angle_alpha   60.25076752
_cell_angle_beta   60.08229086
_cell_angle_gamma   60.08228649
_symmetry_Int_Tables_number   1
_chemical_formula_structural   Mg5In11(BRh4)2
_chemical_formula_sum   'Mg5 In11 B2 Rh8'
_cell_volume   472.80257128
_cell_formula_units_Z   1
loop_
 _symmetry_equiv_pos_site_id
 _symmetry_equiv_pos_as_xyz
  1  'x, y, z'
loop_
 _atom_site_type_symbol
 _atom_site_label
 _atom_site_symmetry_multiplicity
 _atom_site_fract_x
 _atom_site_fract_y
 _atom_site_fract_z
 _atom_site_occupancy
  Mg  Mg0  1  0.125479  0.122970  0.626072  1
  Mg  Mg1  1  0.125479  0.626072  0.122970  1
  Mg  Mg2  1  0.124896  0.124716  0.124716  1
  Mg  Mg3  1  0.625672  0.124716  0.124716  1
  Mg  Mg4  1  0.300616  0.699384  0.699384  1
  In  In5  1  0.954302  0.947402  0.550426  1
  In  In6  1  0.301245  0.699025  0.302985  1
  In  In7  1  0.696745  0.302985  0.699025  1
  In  In8  1  0.301245  0.302985  0.699025  1
  In  In9  1  0.700367  0.299633  0.299633  1
  In  In10  1  0.696745  0.699025  0.302985  1
  In  In11  1  0.949983  0.550017  0.550017  1
  In  In12  1  0.550787  0.949213  0.949213  1
  In  In13  1  0.547870  0.947402  0.550426  1
  In  In14  1  0.547870  0.550426  0.947402  1
  In  In15  1  0.954302  0.550426  0.947402  1
  B  B16  1  0.250032  0.249968  0.249968  1
  B  B17  1  0.999881  0.000119  0.000119  1
  Rh  Rh18  1  0.902193  0.903332  0.903332  1
  Rh  Rh19  1  0.902778  0.292010  0.902435  1
  Rh  Rh20  1  0.291143  0.903332  0.903332  1
  Rh  Rh21  1  0.345958  0.347498  0.960585  1
  Rh  Rh22  1  0.958523  0.347161  0.347161  1
  Rh  Rh23  1  0.902778  0.902435  0.292010  1
  Rh  Rh24  1  0.345958  0.960585  0.347498  1
  Rh  Rh25  1  0.347154  0.347161  0.347161  1
