# generated using pymatgen
data_Pr6Pt5Rh13
_symmetry_space_group_name_H-M   'P 1'
_cell_length_a   5.41441874
_cell_length_b   5.41441850
_cell_length_c   17.73238902
_cell_angle_alpha   89.98968413
_cell_angle_beta   90.01031736
_cell_angle_gamma   120.04573356
_symmetry_Int_Tables_number   1
_chemical_formula_structural   Pr6Pt5Rh13
_chemical_formula_sum   'Pr6 Pt5 Rh13'
_cell_volume   449.98828595
_cell_formula_units_Z   1
loop_
 _symmetry_equiv_pos_site_id
 _symmetry_equiv_pos_as_xyz
  1  'x, y, z'
loop_
 _atom_site_type_symbol
 _atom_site_label
 _atom_site_symmetry_multiplicity
 _atom_site_fract_x
 _atom_site_fract_y
 _atom_site_fract_z
 _atom_site_occupancy
  Pr  Pr0  1  0.333365  0.666635  0.956761  1
  Pr  Pr1  1  0.666810  0.333190  0.042722  1
  Pr  Pr2  1  0.666178  0.333822  0.457713  1
  Pr  Pr3  1  0.332960  0.667040  0.543706  1
  Pr  Pr4  1  0.333152  0.666848  0.750556  1
  Pr  Pr5  1  0.666807  0.333193  0.249099  1
  Pt  Pt6  1  0.169334  0.830666  0.374113  1
  Pt  Pt7  1  0.334542  0.665458  0.249378  1
  Pt  Pt8  1  0.666659  0.333341  0.749903  1
  Pt  Pt9  1  0.998758  0.001242  0.500543  1
  Pt  Pt10  1  0.000122  0.999878  0.999945  1
  Rh  Rh11  1  0.168395  0.332136  0.373455  1
  Rh  Rh12  1  0.667864  0.831605  0.373455  1
  Rh  Rh13  1  0.832071  0.167929  0.626584  1
  Rh  Rh14  1  0.832460  0.666516  0.626914  1
  Rh  Rh15  1  0.333484  0.167540  0.626914  1
  Rh  Rh16  1  0.832941  0.167059  0.873467  1
  Rh  Rh17  1  0.833047  0.665825  0.873207  1
  Rh  Rh18  1  0.334175  0.166953  0.873207  1
  Rh  Rh19  1  0.166769  0.833231  0.126852  1
  Rh  Rh20  1  0.167791  0.334989  0.126209  1
  Rh  Rh21  1  0.665011  0.832209  0.126209  1
  Rh  Rh22  1  0.997348  0.002652  0.249028  1
  Rh  Rh23  1  0.999961  0.000039  0.750057  1
