# generated using pymatgen
data_Pr(BrO3)3
_symmetry_space_group_name_H-M   'P 1'
_cell_length_a   8.43835156
_cell_length_b   7.73091021
_cell_length_c   7.49209100
_cell_angle_alpha   73.18681860
_cell_angle_beta   68.46250494
_cell_angle_gamma   67.81911708
_symmetry_Int_Tables_number   1
_chemical_formula_structural   Pr(BrO3)3
_chemical_formula_sum   'Pr2 Br6 O18'
_cell_volume   414.49525828
_cell_formula_units_Z   2
loop_
 _symmetry_equiv_pos_site_id
 _symmetry_equiv_pos_as_xyz
  1  'x, y, z'
loop_
 _atom_site_type_symbol
 _atom_site_label
 _atom_site_symmetry_multiplicity
 _atom_site_fract_x
 _atom_site_fract_y
 _atom_site_fract_z
 _atom_site_occupancy
  Pr  Pr0  1  0.754861  0.725973  0.222990  1
  Pr  Pr1  1  0.245139  0.274027  0.777010  1
  Br  Br2  1  0.196250  0.666057  0.306321  1
  Br  Br3  1  0.803750  0.333943  0.693679  1
  Br  Br4  1  0.812576  0.227497  0.220768  1
  Br  Br5  1  0.187424  0.772503  0.779232  1
  Br  Br6  1  0.709857  0.904852  0.699280  1
  Br  Br7  1  0.290143  0.095148  0.300720  1
  O  O8  1  0.252003  0.548409  0.516009  1
  O  O9  1  0.747997  0.451591  0.483991  1
  O  O10  1  0.942855  0.427964  0.720762  1
  O  O11  1  0.057145  0.572036  0.279238  1
  O  O12  1  0.939377  0.124419  0.634135  1
  O  O13  1  0.060623  0.875581  0.365865  1
  O  O14  1  0.022011  0.245475  0.095911  1
  O  O15  1  0.977989  0.754525  0.904089  1
  O  O16  1  0.227374  0.911921  0.884241  1
  O  O17  1  0.772626  0.088079  0.115759  1
  O  O18  1  0.685874  0.450130  0.154963  1
  O  O19  1  0.314126  0.549870  0.845037  1
  O  O20  1  0.567111  0.132162  0.678345  1
  O  O21  1  0.432889  0.867838  0.321655  1
  O  O22  1  0.623755  0.806743  0.928863  1
  O  O23  1  0.376245  0.193257  0.071137  1
  O  O24  1  0.662980  0.808825  0.557178  1
  O  O25  1  0.337020  0.191175  0.442822  1
