# generated using pymatgen
data_Tm3Ag2Hg3Rh
_symmetry_space_group_name_H-M   'P 1'
_cell_length_a   8.04727800
_cell_length_b   8.04727734
_cell_length_c   3.55664100
_cell_angle_alpha   90.00000000
_cell_angle_beta   90.00000000
_cell_angle_gamma   119.99999447
_symmetry_Int_Tables_number   1
_chemical_formula_structural   Tm3Ag2Hg3Rh
_chemical_formula_sum   'Tm3 Ag2 Hg3 Rh1'
_cell_volume   199.46589980
_cell_formula_units_Z   1
loop_
 _symmetry_equiv_pos_site_id
 _symmetry_equiv_pos_as_xyz
  1  'x, y, z'
loop_
 _atom_site_type_symbol
 _atom_site_label
 _atom_site_symmetry_multiplicity
 _atom_site_fract_x
 _atom_site_fract_y
 _atom_site_fract_z
 _atom_site_occupancy
  Tm  Tm0  1  0.964224  0.377891  0.500000  1
  Tm  Tm1  1  0.622109  0.586333  0.500000  1
  Tm  Tm2  1  0.413667  0.035776  0.500000  1
  Ag  Ag3  1  0.333333  0.666667  0.000000  1
  Ag  Ag4  1  0.000000  0.000000  0.500000  1
  Hg  Hg5  1  0.278050  0.288036  0.000000  1
  Hg  Hg6  1  0.009986  0.721950  0.000000  1
  Hg  Hg7  1  0.711964  0.990014  0.000000  1
  Rh  Rh8  1  0.666667  0.333333  0.000000  1
