# generated using pymatgen
data_DyHoNi9P7Ir3
_symmetry_space_group_name_H-M   'P 1'
_cell_length_a   9.14033300
_cell_length_b   9.14033325
_cell_length_c   3.80624300
_cell_angle_alpha   90.00000000
_cell_angle_beta   90.00000000
_cell_angle_gamma   120.00000368
_symmetry_Int_Tables_number   1
_chemical_formula_structural   DyHoNi9P7Ir3
_chemical_formula_sum   'Dy1 Ho1 Ni9 P7 Ir3'
_cell_volume   275.39190811
_cell_formula_units_Z   1
loop_
 _symmetry_equiv_pos_site_id
 _symmetry_equiv_pos_as_xyz
  1  'x, y, z'
loop_
 _atom_site_type_symbol
 _atom_site_label
 _atom_site_symmetry_multiplicity
 _atom_site_fract_x
 _atom_site_fract_y
 _atom_site_fract_z
 _atom_site_occupancy
  Dy  Dy0  1  0.000000  0.000000  0.500000  1
  Ho  Ho1  1  0.666667  0.333333  0.000000  1
  Ni  Ni2  1  0.765700  0.729002  0.000000  1
  Ni  Ni3  1  0.270998  0.036699  0.000000  1
  Ni  Ni4  1  0.963301  0.234300  0.000000  1
  Ni  Ni5  1  0.528372  0.741966  0.500000  1
  Ni  Ni6  1  0.258034  0.786406  0.500000  1
  Ni  Ni7  1  0.213594  0.471628  0.500000  1
  Ni  Ni8  1  0.487699  0.939870  0.000000  1
  Ni  Ni9  1  0.060130  0.547829  0.000000  1
  Ni  Ni10  1  0.452171  0.512301  0.000000  1
  P  P11  1  0.440234  0.064866  0.500000  1
  P  P12  1  0.935134  0.375366  0.500000  1
  P  P13  1  0.624634  0.559766  0.500000  1
  P  P14  1  0.333333  0.666667  0.000000  1
  P  P15  1  0.745278  0.959389  0.000000  1
  P  P16  1  0.040611  0.785888  0.000000  1
  P  P17  1  0.214112  0.254722  0.000000  1
  Ir  Ir18  1  0.716672  0.095161  0.500000  1
  Ir  Ir19  1  0.904839  0.621511  0.500000  1
  Ir  Ir20  1  0.378489  0.283328  0.500000  1
