# generated using pymatgen
data_TbHf5(Ni3P2)6
_symmetry_space_group_name_H-M   'P 1'
_cell_length_a   3.65469900
_cell_length_b   10.33955500
_cell_length_c   12.10782600
_cell_angle_alpha   90.00060763
_cell_angle_beta   89.99875828
_cell_angle_gamma   90.00000001
_symmetry_Int_Tables_number   1
_chemical_formula_structural   TbHf5(Ni3P2)6
_chemical_formula_sum   'Tb1 Hf5 Ni18 P12'
_cell_volume   457.53006050
_cell_formula_units_Z   1
loop_
 _symmetry_equiv_pos_site_id
 _symmetry_equiv_pos_as_xyz
  1  'x, y, z'
loop_
 _atom_site_type_symbol
 _atom_site_label
 _atom_site_symmetry_multiplicity
 _atom_site_fract_x
 _atom_site_fract_y
 _atom_site_fract_z
 _atom_site_occupancy
  Tb  Tb0  1  0.251907  0.500005  0.525209  1
  Hf  Hf1  1  0.751908  0.999997  0.473911  1
  Hf  Hf2  1  0.251765  0.679640  0.795793  1
  Hf  Hf3  1  0.251766  0.320405  0.795734  1
  Hf  Hf4  1  0.751856  0.822478  0.205414  1
  Hf  Hf5  1  0.751856  0.177472  0.205473  1
  Ni  Ni6  1  0.751715  0.000019  0.014594  1
  Ni  Ni7  1  0.251748  0.499982  0.986700  1
  Ni  Ni8  1  0.251828  0.194887  0.568772  1
  Ni  Ni9  1  0.251828  0.805111  0.568765  1
  Ni  Ni10  1  0.752008  0.296246  0.429276  1
  Ni  Ni11  1  0.752007  0.703759  0.429285  1
  Ni  Ni12  1  0.251986  0.625934  0.290101  1
  Ni  Ni13  1  0.251986  0.374060  0.290089  1
  Ni  Ni14  1  0.751706  0.876479  0.708548  1
  Ni  Ni15  1  0.751706  0.123529  0.708561  1
  Ni  Ni16  1  0.251720  0.168376  0.004759  1
  Ni  Ni17  1  0.251718  0.831652  0.004733  1
  Ni  Ni18  1  0.751745  0.329962  0.995638  1
  Ni  Ni19  1  0.751744  0.670015  0.995669  1
  Ni  Ni20  1  0.251576  0.999991  0.835923  1
  Ni  Ni21  1  0.751937  0.500006  0.161635  1
  Ni  Ni22  1  0.251807  0.999990  0.299499  1
  Ni  Ni23  1  0.751791  0.500010  0.704498  1
  P  P24  1  0.251983  0.182413  0.383608  1
  P  P25  1  0.251982  0.817573  0.383599  1
  P  P26  1  0.751854  0.314054  0.618862  1
  P  P27  1  0.751855  0.685960  0.618876  1
  P  P28  1  0.251739  0.999981  0.123424  1
  P  P29  1  0.751745  0.500024  0.878884  1
  P  P30  1  0.251815  0.656899  0.112130  1
  P  P31  1  0.251819  0.343136  0.112141  1
  P  P32  1  0.751707  0.844897  0.887429  1
  P  P33  1  0.751710  0.155063  0.887419  1
  P  P34  1  0.251773  0.999999  0.648611  1
  P  P35  1  0.752010  0.499999  0.346437  1
