# generated using pymatgen
data_Tb2Sm4RuBr10
_symmetry_space_group_name_H-M   'P 1'
_cell_length_a   7.48469439
_cell_length_b   9.36772127
_cell_length_c   9.37935849
_cell_angle_alpha   108.60374085
_cell_angle_beta   96.47685790
_cell_angle_gamma   105.83086569
_symmetry_Int_Tables_number   1
_chemical_formula_structural   Tb2Sm4RuBr10
_chemical_formula_sum   'Tb2 Sm4 Ru1 Br10'
_cell_volume   585.04923266
_cell_formula_units_Z   1
loop_
 _symmetry_equiv_pos_site_id
 _symmetry_equiv_pos_as_xyz
  1  'x, y, z'
loop_
 _atom_site_type_symbol
 _atom_site_label
 _atom_site_symmetry_multiplicity
 _atom_site_fract_x
 _atom_site_fract_y
 _atom_site_fract_z
 _atom_site_occupancy
  Tb  Tb0  1  0.366852  0.139467  0.182491  1
  Tb  Tb1  1  0.633148  0.860533  0.817509  1
  Sm  Sm2  1  0.124385  0.044717  0.753286  1
  Sm  Sm3  1  0.875615  0.955283  0.246714  1
  Sm  Sm4  1  0.974653  0.296554  0.093508  1
  Sm  Sm5  1  0.025347  0.703446  0.906492  1
  Ru  Ru6  1  0.000000  0.000000  0.000000  1
  Br  Br7  1  0.548545  0.173312  0.917637  1
  Br  Br8  1  0.451455  0.826688  0.082363  1
  Br  Br9  1  0.361582  0.453638  0.274972  1
  Br  Br10  1  0.638418  0.546362  0.725028  1
  Br  Br11  1  0.258595  0.086547  0.454725  1
  Br  Br12  1  0.741405  0.913453  0.545275  1
  Br  Br13  1  0.788888  0.259537  0.350214  1
  Br  Br14  1  0.211112  0.740463  0.649786  1
  Br  Br15  1  0.089136  0.367753  0.825952  1
  Br  Br16  1  0.910864  0.632247  0.174048  1
