# generated using pymatgen
data_Ta5Co16Si7Tc
_symmetry_space_group_name_H-M   'P 1'
_cell_length_a   7.88690138
_cell_length_b   7.87881150
_cell_length_c   7.88057547
_cell_angle_alpha   60.03367397
_cell_angle_beta   59.96389978
_cell_angle_gamma   59.98718689
_symmetry_Int_Tables_number   1
_chemical_formula_structural   Ta5Co16Si7Tc
_chemical_formula_sum   'Ta5 Co16 Si7 Tc1'
_cell_volume   346.22601605
_cell_formula_units_Z   1
loop_
 _symmetry_equiv_pos_site_id
 _symmetry_equiv_pos_as_xyz
  1  'x, y, z'
loop_
 _atom_site_type_symbol
 _atom_site_label
 _atom_site_symmetry_multiplicity
 _atom_site_fract_x
 _atom_site_fract_y
 _atom_site_fract_z
 _atom_site_occupancy
  Ta  Ta0  1  0.203140  0.796911  0.199882  1
  Ta  Ta1  1  0.795044  0.204952  0.204956  1
  Ta  Ta2  1  0.800067  0.199877  0.796916  1
  Ta  Ta3  1  0.800067  0.796924  0.199883  1
  Ta  Ta4  1  0.203135  0.199887  0.796921  1
  Co  Co5  1  0.381956  0.380830  0.380855  1
  Co  Co6  1  0.501347  0.834405  0.834405  1
  Co  Co7  1  0.619164  0.618031  0.143665  1
  Co  Co8  1  0.165509  0.170123  0.498870  1
  Co  Co9  1  0.833996  0.836686  0.495328  1
  Co  Co10  1  0.163328  0.166014  0.166004  1
  Co  Co11  1  0.829841  0.834393  0.834387  1
  Co  Co12  1  0.381264  0.383409  0.854031  1
  Co  Co13  1  0.833995  0.495341  0.836678  1
  Co  Co14  1  0.616655  0.618753  0.618742  1
  Co  Co15  1  0.381278  0.854032  0.383408  1
  Co  Co16  1  0.145821  0.618751  0.618770  1
  Co  Co17  1  0.619135  0.143670  0.618032  1
  Co  Co18  1  0.165508  0.498862  0.170122  1
  Co  Co19  1  0.856353  0.380854  0.380828  1
  Co  Co20  1  0.504666  0.166010  0.166007  1
  Si  Si21  1  0.004572  0.995287  0.503832  1
  Si  Si22  1  0.496325  0.995315  0.503786  1
  Si  Si23  1  0.501864  0.498152  0.498151  1
  Si  Si24  1  0.004565  0.503824  0.995294  1
  Si  Si25  1  0.496319  0.503789  0.995314  1
  Si  Si26  1  0.498502  0.001508  0.001511  1
  Si  Si27  1  0.998367  0.501636  0.501637  1
  Tc  Tc28  1  0.198218  0.801774  0.801785  1
