# generated using pymatgen
data_Nd20IrRu3Au8
_symmetry_space_group_name_H-M   'P 1'
_cell_length_a   11.67485200
_cell_length_b   11.67485200
_cell_length_c   6.59441100
_cell_angle_alpha   90.00000000
_cell_angle_beta   90.00000000
_cell_angle_gamma   90.00000000
_symmetry_Int_Tables_number   1
_chemical_formula_structural   Nd20IrRu3Au8
_chemical_formula_sum   'Nd20 Ir1 Ru3 Au8'
_cell_volume   898.83252404
_cell_formula_units_Z   1
loop_
 _symmetry_equiv_pos_site_id
 _symmetry_equiv_pos_as_xyz
  1  'x, y, z'
loop_
 _atom_site_type_symbol
 _atom_site_label
 _atom_site_symmetry_multiplicity
 _atom_site_fract_x
 _atom_site_fract_y
 _atom_site_fract_z
 _atom_site_occupancy
  Nd  Nd0  1  0.084087  0.299469  0.145673  1
  Nd  Nd1  1  0.799469  0.415913  0.145673  1
  Nd  Nd2  1  0.200531  0.584087  0.145673  1
  Nd  Nd3  1  0.915913  0.700531  0.145673  1
  Nd  Nd4  1  0.415957  0.801091  0.355196  1
  Nd  Nd5  1  0.584043  0.198909  0.355196  1
  Nd  Nd6  1  0.301091  0.084043  0.355196  1
  Nd  Nd7  1  0.698909  0.915957  0.355196  1
  Nd  Nd8  1  0.416135  0.198923  0.855244  1
  Nd  Nd9  1  0.698923  0.083865  0.855244  1
  Nd  Nd10  1  0.301077  0.916135  0.855244  1
  Nd  Nd11  1  0.583865  0.801077  0.855244  1
  Nd  Nd12  1  0.084778  0.700361  0.644015  1
  Nd  Nd13  1  0.915222  0.299639  0.644015  1
  Nd  Nd14  1  0.200361  0.415222  0.644015  1
  Nd  Nd15  1  0.799639  0.584778  0.644015  1
  Nd  Nd16  1  0.000000  0.000000  0.998976  1
  Nd  Nd17  1  0.500000  0.500000  0.998976  1
  Nd  Nd18  1  0.500000  0.500000  0.498546  1
  Nd  Nd19  1  0.000000  0.000000  0.498546  1
  Ir  Ir20  1  0.000000  0.500000  0.896735  1
  Ru  Ru21  1  0.000000  0.500000  0.396908  1
  Ru  Ru22  1  0.500000  0.000000  0.106324  1
  Ru  Ru23  1  0.500000  0.000000  0.606070  1
  Au  Au24  1  0.155496  0.844611  0.249401  1
  Au  Au25  1  0.344611  0.344504  0.249401  1
  Au  Au26  1  0.655389  0.655496  0.249401  1
  Au  Au27  1  0.844504  0.155389  0.249401  1
  Au  Au28  1  0.344784  0.655163  0.750200  1
  Au  Au29  1  0.155163  0.155216  0.750200  1
  Au  Au30  1  0.844837  0.844784  0.750200  1
  Au  Au31  1  0.655216  0.344837  0.750200  1
