# generated using pymatgen
data_CaLa3Pr3CoI12
_symmetry_space_group_name_H-M   'P 1'
_cell_length_a   10.18965066
_cell_length_b   10.19864736
_cell_length_c   9.99287679
_cell_angle_alpha   107.41939270
_cell_angle_beta   106.52188580
_cell_angle_gamma   107.00703688
_symmetry_Int_Tables_number   1
_chemical_formula_structural   CaLa3Pr3CoI12
_chemical_formula_sum   'Ca1 La3 Pr3 Co1 I12'
_cell_volume   865.20963458
_cell_formula_units_Z   1
loop_
 _symmetry_equiv_pos_site_id
 _symmetry_equiv_pos_as_xyz
  1  'x, y, z'
loop_
 _atom_site_type_symbol
 _atom_site_label
 _atom_site_symmetry_multiplicity
 _atom_site_fract_x
 _atom_site_fract_y
 _atom_site_fract_z
 _atom_site_occupancy
  Ca  Ca0  1  0.500393  0.499993  0.500569  1
  La  La1  1  0.975581  0.904699  0.712505  1
  La  La2  1  0.024157  0.094111  0.287067  1
  La  La3  1  0.101553  0.309118  0.026016  1
  Pr  Pr4  1  0.305082  0.026113  0.100544  1
  Pr  Pr5  1  0.899108  0.694995  0.973999  1
  Pr  Pr6  1  0.694700  0.973563  0.899377  1
  Co  Co7  1  0.000111  0.000369  0.999684  1
  I  I8  1  0.540708  0.618599  0.842627  1
  I  I9  1  0.461491  0.381008  0.158835  1
  I  I10  1  0.319494  0.927012  0.773916  1
  I  I11  1  0.384075  0.161433  0.462552  1
  I  I12  1  0.926695  0.773511  0.319262  1
  I  I13  1  0.680427  0.072792  0.226145  1
  I  I14  1  0.072567  0.224376  0.677433  1
  I  I15  1  0.772903  0.317419  0.926386  1
  I  I16  1  0.224353  0.682589  0.072869  1
  I  I17  1  0.838367  0.537076  0.615725  1
  I  I18  1  0.162287  0.462977  0.387043  1
  I  I19  1  0.615947  0.838247  0.537446  1
