# generated using pymatgen
data_Zr12Sn4Ir7RhN4
_symmetry_space_group_name_H-M   'P 1'
_cell_length_a   8.76103832
_cell_length_b   8.76103769
_cell_length_c   8.76103815
_cell_angle_alpha   59.98297647
_cell_angle_beta   59.98297482
_cell_angle_gamma   59.98298137
_symmetry_Int_Tables_number   1
_chemical_formula_structural   Zr12Sn4Ir7RhN4
_chemical_formula_sum   'Zr12 Sn4 Ir7 Rh1 N4'
_cell_volume   475.31775752
_cell_formula_units_Z   1
loop_
 _symmetry_equiv_pos_site_id
 _symmetry_equiv_pos_as_xyz
  1  'x, y, z'
loop_
 _atom_site_type_symbol
 _atom_site_label
 _atom_site_symmetry_multiplicity
 _atom_site_fract_x
 _atom_site_fract_y
 _atom_site_fract_z
 _atom_site_occupancy
  Zr  Zr0  1  0.813453  0.813453  0.188326  1
  Zr  Zr1  1  0.187062  0.187062  0.813140  1
  Zr  Zr2  1  0.813453  0.188326  0.813453  1
  Zr  Zr3  1  0.187062  0.813140  0.187062  1
  Zr  Zr4  1  0.188326  0.813453  0.813453  1
  Zr  Zr5  1  0.813140  0.187062  0.187062  1
  Zr  Zr6  1  0.436910  0.436910  0.063503  1
  Zr  Zr7  1  0.063871  0.063871  0.436030  1
  Zr  Zr8  1  0.436910  0.063503  0.436910  1
  Zr  Zr9  1  0.063871  0.436030  0.063871  1
  Zr  Zr10  1  0.063503  0.436910  0.436910  1
  Zr  Zr11  1  0.436030  0.063871  0.063871  1
  Sn  Sn12  1  0.123799  0.625912  0.625912  1
  Sn  Sn13  1  0.625912  0.123799  0.625912  1
  Sn  Sn14  1  0.625912  0.625912  0.123799  1
  Sn  Sn15  1  0.624839  0.624839  0.624839  1
  Ir  Ir16  1  0.773021  0.408721  0.408721  1
  Ir  Ir17  1  0.408721  0.773021  0.408721  1
  Ir  Ir18  1  0.408721  0.408721  0.773021  1
  Ir  Ir19  1  0.409100  0.409100  0.409100  1
  Ir  Ir20  1  0.476386  0.840640  0.840640  1
  Ir  Ir21  1  0.840640  0.476386  0.840640  1
  Ir  Ir22  1  0.840640  0.840640  0.476386  1
  Rh  Rh23  1  0.839745  0.839745  0.839745  1
  N  N24  1  0.625498  0.124258  0.124258  1
  N  N25  1  0.124258  0.625498  0.124258  1
  N  N26  1  0.124258  0.124258  0.625498  1
  N  N27  1  0.124959  0.124959  0.124959  1
