# generated using pymatgen
data_CePr4Ho(CI5)2
_symmetry_space_group_name_H-M   'P 1'
_cell_length_a   7.92385796
_cell_length_b   9.70377853
_cell_length_c   9.79518126
_cell_angle_alpha   107.33522802
_cell_angle_beta   96.97598006
_cell_angle_gamma   103.94724035
_symmetry_Int_Tables_number   1
_chemical_formula_structural   CePr4Ho(CI5)2
_chemical_formula_sum   'Ce1 Pr4 Ho1 C2 I10'
_cell_volume   682.40571679
_cell_formula_units_Z   1
loop_
 _symmetry_equiv_pos_site_id
 _symmetry_equiv_pos_as_xyz
  1  'x, y, z'
loop_
 _atom_site_type_symbol
 _atom_site_label
 _atom_site_symmetry_multiplicity
 _atom_site_fract_x
 _atom_site_fract_y
 _atom_site_fract_z
 _atom_site_occupancy
  Ce  Ce0  1  0.624149  0.864808  0.816040  1
  Pr  Pr1  1  0.375980  0.134781  0.182409  1
  Pr  Pr2  1  0.893552  0.960628  0.223220  1
  Pr  Pr3  1  0.033813  0.732906  0.923458  1
  Pr  Pr4  1  0.964508  0.267196  0.076253  1
  Ho  Ho5  1  0.103002  0.038425  0.785205  1
  C  C6  1  0.912106  0.969403  0.953065  1
  C  C7  1  0.087691  0.030092  0.036604  1
  I  I8  1  0.188164  0.745512  0.642734  1
  I  I9  1  0.092322  0.357872  0.812656  1
  I  I10  1  0.457410  0.805298  0.094152  1
  I  I11  1  0.254941  0.085379  0.465738  1
  I  I12  1  0.531450  0.190441  0.902502  1
  I  I13  1  0.809849  0.270227  0.360341  1
  I  I14  1  0.342571  0.460395  0.277366  1
  I  I15  1  0.910479  0.627168  0.181073  1
  I  I16  1  0.655966  0.539186  0.724221  1
  I  I17  1  0.762047  0.920285  0.542964  1
