# generated using pymatgen
data_Na2Cr(Si2O5)2
_symmetry_space_group_name_H-M   'P 1'
_cell_length_a   7.03359813
_cell_length_b   7.85631816
_cell_length_c   9.98633104
_cell_angle_alpha   101.97134184
_cell_angle_beta   102.72756111
_cell_angle_gamma   115.20619230
_symmetry_Int_Tables_number   1
_chemical_formula_structural   Na2Cr(Si2O5)2
_chemical_formula_sum   'Na4 Cr2 Si8 O20'
_cell_volume   457.76396493
_cell_formula_units_Z   2
loop_
 _symmetry_equiv_pos_site_id
 _symmetry_equiv_pos_as_xyz
  1  'x, y, z'
loop_
 _atom_site_type_symbol
 _atom_site_label
 _atom_site_symmetry_multiplicity
 _atom_site_fract_x
 _atom_site_fract_y
 _atom_site_fract_z
 _atom_site_occupancy
  Na  Na0  1  0.342389  0.240281  0.023418  1
  Na  Na1  1  0.657611  0.759719  0.976582  1
  Na  Na2  1  0.739619  0.275595  0.420159  1
  Na  Na3  1  0.260381  0.724405  0.579841  1
  Cr  Cr4  1  0.241401  0.286419  0.425044  1
  Cr  Cr5  1  0.758599  0.713581  0.574956  1
  Si  Si6  1  0.762328  0.066742  0.808490  1
  Si  Si7  1  0.237672  0.933258  0.191510  1
  Si  Si8  1  0.917669  0.293603  0.142469  1
  Si  Si9  1  0.082331  0.706397  0.857531  1
  Si  Si10  1  0.598170  0.354560  0.739147  1
  Si  Si11  1  0.401830  0.645440  0.260853  1
  Si  Si12  1  0.184316  0.379293  0.752120  1
  Si  Si13  1  0.815684  0.620707  0.247880  1
  O  O14  1  0.798648  0.107814  0.984785  1
  O  O15  1  0.201352  0.892186  0.015215  1
  O  O16  1  0.589158  0.141176  0.738177  1
  O  O17  1  0.410842  0.858824  0.261823  1
  O  O18  1  0.342919  0.169071  0.266458  1
  O  O19  1  0.657081  0.830929  0.733542  1
  O  O20  1  0.941859  0.215467  0.276530  1
  O  O21  1  0.058141  0.784533  0.723470  1
  O  O22  1  0.549191  0.367600  0.578220  1
  O  O23  1  0.450809  0.632400  0.421780  1
  O  O24  1  0.111564  0.359106  0.584013  1
  O  O25  1  0.888436  0.640894  0.415987  1
  O  O26  1  0.756549  0.399392  0.139352  1
  O  O27  1  0.243451  0.600608  0.860648  1
  O  O28  1  0.419141  0.373340  0.817122  1
  O  O29  1  0.580859  0.626660  0.182878  1
  O  O30  1  0.159937  0.459662  0.140800  1
  O  O31  1  0.840063  0.540338  0.859200  1
  O  O32  1  0.008347  0.203588  0.798053  1
  O  O33  1  0.991653  0.796412  0.201947  1
