# generated using pymatgen
data_CaY6IrBr12
_symmetry_space_group_name_H-M   'P 1'
_cell_length_a   9.32558797
_cell_length_b   9.31336175
_cell_length_c   9.24417016
_cell_angle_alpha   107.00463747
_cell_angle_beta   107.02757573
_cell_angle_gamma   106.77677054
_symmetry_Int_Tables_number   1
_chemical_formula_structural   CaY6IrBr12
_chemical_formula_sum   'Ca1 Y6 Ir1 Br12'
_cell_volume   669.80107240
_cell_formula_units_Z   1
loop_
 _symmetry_equiv_pos_site_id
 _symmetry_equiv_pos_as_xyz
  1  'x, y, z'
loop_
 _atom_site_type_symbol
 _atom_site_label
 _atom_site_symmetry_multiplicity
 _atom_site_fract_x
 _atom_site_fract_y
 _atom_site_fract_z
 _atom_site_occupancy
  Ca  Ca0  1  0.500000  0.500000  0.500000  1
  Y  Y1  1  0.104764  0.314379  0.022227  1
  Y  Y2  1  0.313812  0.022898  0.103413  1
  Y  Y3  1  0.021470  0.102243  0.308405  1
  Y  Y4  1  0.978531  0.897757  0.691596  1
  Y  Y5  1  0.686188  0.977103  0.896587  1
  Y  Y6  1  0.895236  0.685621  0.977773  1
  Ir  Ir7  1  0.000000  0.000000  0.000000  1
  Br  Br8  1  0.218181  0.676666  0.073491  1
  Br  Br9  1  0.455374  0.374479  0.156509  1
  Br  Br10  1  0.676945  0.073604  0.219144  1
  Br  Br11  1  0.927215  0.782461  0.323796  1
  Br  Br12  1  0.156958  0.454827  0.374415  1
  Br  Br13  1  0.373745  0.156750  0.454951  1
  Br  Br14  1  0.626255  0.843250  0.545050  1
  Br  Br15  1  0.843043  0.545173  0.625585  1
  Br  Br16  1  0.072786  0.217539  0.676205  1
  Br  Br17  1  0.323056  0.926397  0.780856  1
  Br  Br18  1  0.544626  0.625521  0.843492  1
  Br  Br19  1  0.781819  0.323334  0.926509  1
