# generated using pymatgen
data_Cs(Cr5Te8)2
_symmetry_space_group_name_H-M   'P 1'
_cell_length_a   7.93153639
_cell_length_b   10.51714577
_cell_length_c   10.51445997
_cell_angle_alpha   72.65574678
_cell_angle_beta   67.73896066
_cell_angle_gamma   79.16988022
_symmetry_Int_Tables_number   1
_chemical_formula_structural   Cs(Cr5Te8)2
_chemical_formula_sum   'Cs1 Cr10 Te16'
_cell_volume   772.01178767
_cell_formula_units_Z   1
loop_
 _symmetry_equiv_pos_site_id
 _symmetry_equiv_pos_as_xyz
  1  'x, y, z'
loop_
 _atom_site_type_symbol
 _atom_site_label
 _atom_site_symmetry_multiplicity
 _atom_site_fract_x
 _atom_site_fract_y
 _atom_site_fract_z
 _atom_site_occupancy
  Cs  Cs0  1  0.000000  0.000000  0.000000  1
  Cr  Cr1  1  0.836290  0.681997  0.485700  1
  Cr  Cr2  1  0.336582  0.680104  0.486103  1
  Cr  Cr3  1  0.663418  0.319896  0.513897  1
  Cr  Cr4  1  0.163710  0.318003  0.514300  1
  Cr  Cr5  1  0.813980  0.408492  0.168442  1
  Cr  Cr6  1  0.313698  0.406806  0.169434  1
  Cr  Cr7  1  0.686302  0.593194  0.830566  1
  Cr  Cr8  1  0.186020  0.591508  0.831558  1
  Cr  Cr9  1  0.500000  0.000000  0.500000  1
  Cr  Cr10  1  0.000000  0.000000  0.500000  1
  Te  Te11  1  0.791983  0.148516  0.342664  1
  Te  Te12  1  0.292465  0.147990  0.341827  1
  Te  Te13  1  0.707535  0.852010  0.658173  1
  Te  Te14  1  0.208017  0.851484  0.657336  1
  Te  Te15  1  0.959304  0.480460  0.341702  1
  Te  Te16  1  0.459384  0.479897  0.341999  1
  Te  Te17  1  0.540616  0.520103  0.658001  1
  Te  Te18  1  0.040696  0.519540  0.658298  1
  Te  Te19  1  0.626315  0.822216  0.332548  1
  Te  Te20  1  0.129757  0.822364  0.332465  1
  Te  Te21  1  0.870243  0.177636  0.667535  1
  Te  Te22  1  0.373685  0.177784  0.667452  1
  Te  Te23  1  0.339998  0.654146  0.993202  1
  Te  Te24  1  0.839363  0.655194  0.992578  1
  Te  Te25  1  0.160637  0.344806  0.007422  1
  Te  Te26  1  0.660002  0.345854  0.006798  1
