# generated using pymatgen
data_Eu3MnReC6
_symmetry_space_group_name_H-M   'P 1'
_cell_length_a   8.36455200
_cell_length_b   8.36455278
_cell_length_c   5.26122100
_cell_angle_alpha   90.00000000
_cell_angle_beta   90.00000000
_cell_angle_gamma   119.99998901
_symmetry_Int_Tables_number   1
_chemical_formula_structural   Eu3MnReC6
_chemical_formula_sum   'Eu6 Mn2 Re2 C12'
_cell_volume   318.78849243
_cell_formula_units_Z   2
loop_
 _symmetry_equiv_pos_site_id
 _symmetry_equiv_pos_as_xyz
  1  'x, y, z'
loop_
 _atom_site_type_symbol
 _atom_site_label
 _atom_site_symmetry_multiplicity
 _atom_site_fract_x
 _atom_site_fract_y
 _atom_site_fract_z
 _atom_site_occupancy
  Eu  Eu0  1  0.611914  0.696911  0.750000  1
  Eu  Eu1  1  0.915004  0.611914  0.250000  1
  Eu  Eu2  1  0.696911  0.084996  0.250000  1
  Eu  Eu3  1  0.303089  0.915004  0.750000  1
  Eu  Eu4  1  0.084996  0.388086  0.750000  1
  Eu  Eu5  1  0.388086  0.303089  0.250000  1
  Mn  Mn6  1  0.000000  0.000000  0.500000  1
  Mn  Mn7  1  0.000000  0.000000  0.000000  1
  Re  Re8  1  0.666667  0.333333  0.750000  1
  Re  Re9  1  0.333333  0.666667  0.250000  1
  C  C10  1  0.952506  0.780251  0.750000  1
  C  C11  1  0.172255  0.952506  0.250000  1
  C  C12  1  0.780251  0.827745  0.250000  1
  C  C13  1  0.219749  0.172255  0.750000  1
  C  C14  1  0.827745  0.047494  0.750000  1
  C  C15  1  0.047494  0.219749  0.250000  1
  C  C16  1  0.858642  0.592280  0.750000  1
  C  C17  1  0.266360  0.858642  0.250000  1
  C  C18  1  0.592280  0.733640  0.250000  1
  C  C19  1  0.407720  0.266360  0.750000  1
  C  C20  1  0.141358  0.407720  0.250000  1
  C  C21  1  0.733640  0.141358  0.750000  1
