# generated using pymatgen
data_Tb4Y12MgCo4Hg3
_symmetry_space_group_name_H-M   'P 1'
_cell_length_a   9.51054980
_cell_length_b   9.51153511
_cell_length_c   9.51153700
_cell_angle_alpha   59.99999692
_cell_angle_beta   59.99656972
_cell_angle_gamma   59.99656663
_symmetry_Int_Tables_number   1
_chemical_formula_structural   Tb4Y12MgCo4Hg3
_chemical_formula_sum   'Tb4 Y12 Mg1 Co4 Hg3'
_cell_volume   608.37226022
_cell_formula_units_Z   1
loop_
 _symmetry_equiv_pos_site_id
 _symmetry_equiv_pos_as_xyz
  1  'x, y, z'
loop_
 _atom_site_type_symbol
 _atom_site_label
 _atom_site_symmetry_multiplicity
 _atom_site_fract_x
 _atom_site_fract_y
 _atom_site_fract_z
 _atom_site_occupancy
  Tb  Tb0  1  0.347612  0.345632  0.345632  1
  Tb  Tb1  1  0.347612  0.345632  0.961125  1
  Tb  Tb2  1  0.347612  0.961125  0.345632  1
  Tb  Tb3  1  0.951921  0.349359  0.349359  1
  Y  Y4  1  0.810017  0.189561  0.189561  1
  Y  Y5  1  0.185921  0.813312  0.813312  1
  Y  Y6  1  0.185921  0.813312  0.187455  1
  Y  Y7  1  0.810017  0.189561  0.810862  1
  Y  Y8  1  0.185921  0.187455  0.813312  1
  Y  Y9  1  0.810017  0.810862  0.189561  1
  Y  Y10  1  0.936908  0.562168  0.562168  1
  Y  Y11  1  0.561399  0.937748  0.937748  1
  Y  Y12  1  0.561399  0.937748  0.563105  1
  Y  Y13  1  0.936908  0.562168  0.938757  1
  Y  Y14  1  0.561399  0.563105  0.937748  1
  Y  Y15  1  0.936908  0.938757  0.562168  1
  Mg  Mg16  1  0.286256  0.571248  0.571248  1
  Co  Co17  1  0.139621  0.143117  0.143117  1
  Co  Co18  1  0.139621  0.143117  0.574144  1
  Co  Co19  1  0.139621  0.574144  0.143117  1
  Co  Co20  1  0.572955  0.142348  0.142348  1
  Hg  Hg21  1  0.581477  0.585302  0.585302  1
  Hg  Hg22  1  0.581477  0.585302  0.247921  1
  Hg  Hg23  1  0.581477  0.247921  0.585302  1
