# generated using pymatgen
data_DyScPa2(Al3Rh)6
_symmetry_space_group_name_H-M   'P 1'
_cell_length_a   7.57834520
_cell_length_b   7.58843514
_cell_length_c   9.35133200
_cell_angle_alpha   90.00000000
_cell_angle_beta   90.00000000
_cell_angle_gamma   119.67302391
_symmetry_Int_Tables_number   1
_chemical_formula_structural   DyScPa2(Al3Rh)6
_chemical_formula_sum   'Dy1 Sc1 Pa2 Al18 Rh6'
_cell_volume   467.25314685
_cell_formula_units_Z   1
loop_
 _symmetry_equiv_pos_site_id
 _symmetry_equiv_pos_as_xyz
  1  'x, y, z'
loop_
 _atom_site_type_symbol
 _atom_site_label
 _atom_site_symmetry_multiplicity
 _atom_site_fract_x
 _atom_site_fract_y
 _atom_site_fract_z
 _atom_site_occupancy
  Dy  Dy0  1  0.330631  0.006764  0.250000  1
  Sc  Sc1  1  0.670258  0.993132  0.750000  1
  Pa  Pa2  1  0.997521  0.670950  0.750000  1
  Pa  Pa3  1  0.002647  0.329288  0.250000  1
  Al  Al4  1  0.126743  0.124291  0.750000  1
  Al  Al5  1  0.868693  0.873729  0.250000  1
  Al  Al6  1  0.996157  0.327862  0.580759  1
  Al  Al7  1  0.999322  0.668161  0.422724  1
  Al  Al8  1  0.999322  0.668161  0.077276  1
  Al  Al9  1  0.341785  0.002608  0.921845  1
  Al  Al10  1  0.996157  0.327862  0.919241  1
  Al  Al11  1  0.662506  0.997458  0.070561  1
  Al  Al12  1  0.662506  0.997458  0.429439  1
  Al  Al13  1  0.341785  0.002608  0.578155  1
  Al  Al14  1  0.334839  0.333323  0.051327  1
  Al  Al15  1  0.665374  0.669768  0.943834  1
  Al  Al16  1  0.665374  0.669768  0.556166  1
  Al  Al17  1  0.334839  0.333323  0.448673  1
  Al  Al18  1  0.342850  0.553092  0.750000  1
  Al  Al19  1  0.659403  0.451898  0.250000  1
  Al  Al20  1  0.551071  0.340207  0.750000  1
  Al  Al21  1  0.451304  0.659448  0.250000  1
  Rh  Rh22  1  0.675356  0.329578  0.500082  1
  Rh  Rh23  1  0.324325  0.670322  0.500727  1
  Rh  Rh24  1  0.324325  0.670322  0.999273  1
  Rh  Rh25  1  0.675356  0.329578  0.999918  1
  Rh  Rh26  1  0.999775  0.999520  0.500632  1
  Rh  Rh27  1  0.999775  0.999520  0.999368  1
