# generated using pymatgen
data_TbCe7(AlRu)8
_symmetry_space_group_name_H-M   'P 1'
_cell_length_a   4.02213600
_cell_length_b   7.34609342
_cell_length_c   15.84623813
_cell_angle_alpha   90.59236711
_cell_angle_beta   90.00000000
_cell_angle_gamma   90.00000000
_symmetry_Int_Tables_number   1
_chemical_formula_structural   TbCe7(AlRu)8
_chemical_formula_sum   'Tb1 Ce7 Al8 Ru8'
_cell_volume   468.18356560
_cell_formula_units_Z   1
loop_
 _symmetry_equiv_pos_site_id
 _symmetry_equiv_pos_as_xyz
  1  'x, y, z'
loop_
 _atom_site_type_symbol
 _atom_site_label
 _atom_site_symmetry_multiplicity
 _atom_site_fract_x
 _atom_site_fract_y
 _atom_site_fract_z
 _atom_site_occupancy
  Tb  Tb0  1  0.750000  0.958154  0.218476  1
  Ce  Ce1  1  0.250000  0.168783  0.560838  1
  Ce  Ce2  1  0.750000  0.827398  0.437147  1
  Ce  Ce3  1  0.750000  0.454203  0.280650  1
  Ce  Ce4  1  0.750000  0.329954  0.062041  1
  Ce  Ce5  1  0.250000  0.671763  0.939105  1
  Ce  Ce6  1  0.250000  0.048014  0.781166  1
  Ce  Ce7  1  0.250000  0.547724  0.719024  1
  Al  Al8  1  0.750000  0.501946  0.562757  1
  Al  Al9  1  0.750000  0.368880  0.848805  1
  Al  Al10  1  0.750000  0.004233  0.937111  1
  Al  Al11  1  0.750000  0.868284  0.651229  1
  Al  Al12  1  0.250000  0.490665  0.437211  1
  Al  Al13  1  0.250000  0.998936  0.065599  1
  Al  Al14  1  0.250000  0.639896  0.151917  1
  Al  Al15  1  0.250000  0.127445  0.346016  1
  Ru  Ru16  1  0.750000  0.737969  0.819734  1
  Ru  Ru17  1  0.250000  0.234980  0.935361  1
  Ru  Ru18  1  0.750000  0.258806  0.435101  1
  Ru  Ru19  1  0.250000  0.751335  0.325020  1
  Ru  Ru20  1  0.750000  0.763230  0.061292  1
  Ru  Ru21  1  0.750000  0.238414  0.679127  1
  Ru  Ru22  1  0.250000  0.275976  0.179975  1
  Ru  Ru23  1  0.250000  0.733011  0.565297  1
