# generated using pymatgen
data_TbCeHgRh2
_symmetry_space_group_name_H-M   'P 1'
_cell_length_a   7.74269800
_cell_length_b   7.64079700
_cell_length_c   3.66018600
_cell_angle_alpha   90.00000000
_cell_angle_beta   90.00000000
_cell_angle_gamma   90.00000000
_symmetry_Int_Tables_number   1
_chemical_formula_structural   TbCeHgRh2
_chemical_formula_sum   'Tb2 Ce2 Hg2 Rh4'
_cell_volume   216.53800799
_cell_formula_units_Z   2
loop_
 _symmetry_equiv_pos_site_id
 _symmetry_equiv_pos_as_xyz
  1  'x, y, z'
loop_
 _atom_site_type_symbol
 _atom_site_label
 _atom_site_symmetry_multiplicity
 _atom_site_fract_x
 _atom_site_fract_y
 _atom_site_fract_z
 _atom_site_occupancy
  Tb  Tb0  1  0.168107  0.668260  0.499999  1
  Tb  Tb1  1  0.668107  0.831740  0.499999  1
  Ce  Ce2  1  0.328717  0.165757  0.499999  1
  Ce  Ce3  1  0.828717  0.334243  0.499999  1
  Hg  Hg4  1  0.995343  0.990145  0.000000  1
  Hg  Hg5  1  0.495343  0.509855  0.000000  1
  Rh  Rh6  1  0.640184  0.147285  0.000000  1
  Rh  Rh7  1  0.140184  0.352714  0.000000  1
  Rh  Rh8  1  0.867648  0.615979  0.000000  1
  Rh  Rh9  1  0.367648  0.884020  0.000000  1
