# generated using pymatgen
data_LaNdTeO6
_symmetry_space_group_name_H-M   'P 1'
_cell_length_a   5.53258500
_cell_length_b   9.47742600
_cell_length_c   10.38981700
_cell_angle_alpha   90.00000000
_cell_angle_beta   90.00000000
_cell_angle_gamma   90.00000000
_symmetry_Int_Tables_number   1
_chemical_formula_structural   LaNdTeO6
_chemical_formula_sum   'La4 Nd4 Te4 O24'
_cell_volume   544.78657304
_cell_formula_units_Z   4
loop_
 _symmetry_equiv_pos_site_id
 _symmetry_equiv_pos_as_xyz
  1  'x, y, z'
loop_
 _atom_site_type_symbol
 _atom_site_label
 _atom_site_symmetry_multiplicity
 _atom_site_fract_x
 _atom_site_fract_y
 _atom_site_fract_z
 _atom_site_occupancy
  La  La0  1  0.529854  0.217861  0.358370  1
  La  La1  1  0.029854  0.282139  0.641630  1
  La  La2  1  0.470146  0.717861  0.141630  1
  La  La3  1  0.970146  0.782139  0.858370  1
  Nd  Nd4  1  0.524357  0.103992  0.956478  1
  Nd  Nd5  1  0.024357  0.396008  0.043522  1
  Nd  Nd6  1  0.475643  0.603992  0.543522  1
  Nd  Nd7  1  0.975643  0.896008  0.456478  1
  Te  Te8  1  0.461211  0.994582  0.640744  1
  Te  Te9  1  0.961211  0.505418  0.359256  1
  Te  Te10  1  0.538789  0.494582  0.859256  1
  Te  Te11  1  0.038789  0.005418  0.140744  1
  O  O12  1  0.303605  0.138790  0.172498  1
  O  O13  1  0.803605  0.361210  0.827502  1
  O  O14  1  0.696395  0.638790  0.327502  1
  O  O15  1  0.196395  0.861210  0.672498  1
  O  O16  1  0.721195  0.110258  0.563221  1
  O  O17  1  0.221195  0.389742  0.436779  1
  O  O18  1  0.278805  0.610258  0.936779  1
  O  O19  1  0.778805  0.889742  0.063221  1
  O  O20  1  0.675753  0.635347  0.745002  1
  O  O21  1  0.175753  0.864653  0.254998  1
  O  O22  1  0.324247  0.135347  0.754998  1
  O  O23  1  0.824247  0.364653  0.245002  1
  O  O24  1  0.667535  0.948261  0.785019  1
  O  O25  1  0.167535  0.551739  0.214981  1
  O  O26  1  0.332465  0.448261  0.714981  1
  O  O27  1  0.832465  0.051739  0.285019  1
  O  O28  1  0.253490  0.082493  0.507244  1
  O  O29  1  0.753490  0.417507  0.492756  1
  O  O30  1  0.746510  0.582493  0.992756  1
  O  O31  1  0.246510  0.917507  0.007244  1
  O  O32  1  0.078081  0.651536  0.476447  1
  O  O33  1  0.578081  0.848464  0.523553  1
  O  O34  1  0.921919  0.151536  0.023553  1
  O  O35  1  0.421919  0.348464  0.976447  1
