# generated using pymatgen
data_TbY3Pt4F28
_symmetry_space_group_name_H-M   'P 1'
_cell_length_a   5.54282710
_cell_length_b   8.93586115
_cell_length_c   12.05310067
_cell_angle_alpha   62.22378392
_cell_angle_beta   90.01994711
_cell_angle_gamma   90.00080174
_symmetry_Int_Tables_number   1
_chemical_formula_structural   TbY3Pt4F28
_chemical_formula_sum   'Tb1 Y3 Pt4 F28'
_cell_volume   528.20084610
_cell_formula_units_Z   1
loop_
 _symmetry_equiv_pos_site_id
 _symmetry_equiv_pos_as_xyz
  1  'x, y, z'
loop_
 _atom_site_type_symbol
 _atom_site_label
 _atom_site_symmetry_multiplicity
 _atom_site_fract_x
 _atom_site_fract_y
 _atom_site_fract_z
 _atom_site_occupancy
  Tb  Tb0  1  0.239400  0.814436  0.763441  1
  Y  Y1  1  0.261165  0.814836  0.263222  1
  Y  Y2  1  0.738865  0.185435  0.736735  1
  Y  Y3  1  0.761153  0.185200  0.236816  1
  Pt  Pt4  1  0.759010  0.726951  0.042508  1
  Pt  Pt5  1  0.240837  0.272675  0.957848  1
  Pt  Pt6  1  0.259188  0.273118  0.457660  1
  Pt  Pt7  1  0.741071  0.726905  0.541959  1
  F  F8  1  0.936171  0.706338  0.413629  1
  F  F9  1  0.064199  0.293729  0.585937  1
  F  F10  1  0.435979  0.293546  0.086066  1
  F  F11  1  0.563848  0.706720  0.914012  1
  F  F12  1  0.465977  0.727790  0.134121  1
  F  F13  1  0.533776  0.272184  0.866026  1
  F  F14  1  0.966154  0.272261  0.365919  1
  F  F15  1  0.033681  0.727930  0.633835  1
  F  F16  1  0.950816  0.741538  0.174665  1
  F  F17  1  0.049126  0.258336  0.825506  1
  F  F18  1  0.450913  0.258455  0.325469  1
  F  F19  1  0.549573  0.741545  0.674089  1
  F  F20  1  0.768038  0.478765  0.140668  1
  F  F21  1  0.231928  0.520713  0.859640  1
  F  F22  1  0.268157  0.521222  0.359387  1
  F  F23  1  0.731953  0.478803  0.640475  1
  F  F24  1  0.941922  0.281092  0.043345  1
  F  F25  1  0.057686  0.718866  0.956829  1
  F  F26  1  0.441672  0.718799  0.456590  1
  F  F27  1  0.558145  0.281346  0.543198  1
  F  F28  1  0.739754  0.975013  0.449665  1
  F  F29  1  0.260243  0.025016  0.550512  1
  F  F30  1  0.239679  0.024534  0.050369  1
  F  F31  1  0.760331  0.975001  0.949931  1
  F  F32  1  0.589444  0.968215  0.231545  1
  F  F33  1  0.410721  0.032393  0.768453  1
  F  F34  1  0.089417  0.031811  0.268463  1
  F  F35  1  0.910008  0.968485  0.731467  1
