# generated using pymatgen
data_ErLuWO6
_symmetry_space_group_name_H-M   'P 1'
_cell_length_a   5.33686700
_cell_length_b   7.62029285
_cell_length_c   11.31728826
_cell_angle_alpha   75.40215997
_cell_angle_beta   90.00000000
_cell_angle_gamma   90.00000000
_symmetry_Int_Tables_number   1
_chemical_formula_structural   ErLuWO6
_chemical_formula_sum   'Er4 Lu4 W4 O24'
_cell_volume   445.39931050
_cell_formula_units_Z   4
loop_
 _symmetry_equiv_pos_site_id
 _symmetry_equiv_pos_as_xyz
  1  'x, y, z'
loop_
 _atom_site_type_symbol
 _atom_site_label
 _atom_site_symmetry_multiplicity
 _atom_site_fract_x
 _atom_site_fract_y
 _atom_site_fract_z
 _atom_site_occupancy
  Er  Er0  1  0.258287  0.000000  0.750000  1
  Er  Er1  1  0.741713  0.000000  0.250000  1
  Er  Er2  1  0.315223  0.500000  0.750000  1
  Er  Er3  1  0.684777  0.500000  0.250000  1
  Lu  Lu4  1  0.182829  0.793889  0.079120  1
  Lu  Lu5  1  0.182829  0.206111  0.420880  1
  Lu  Lu6  1  0.817171  0.206111  0.920880  1
  Lu  Lu7  1  0.817171  0.793889  0.579120  1
  W  W8  1  0.743604  0.723586  0.885906  1
  W  W9  1  0.256396  0.723586  0.385906  1
  W  W10  1  0.743604  0.276414  0.614094  1
  W  W11  1  0.256396  0.276414  0.114094  1
  O  O12  1  0.540546  0.155371  0.067727  1
  O  O13  1  0.045469  0.057877  0.103422  1
  O  O14  1  0.020774  0.711708  0.770092  1
  O  O15  1  0.459454  0.155371  0.567727  1
  O  O16  1  0.360064  0.487188  0.385787  1
  O  O17  1  0.954531  0.057877  0.603422  1
  O  O18  1  0.542609  0.792729  0.725028  1
  O  O19  1  0.457391  0.792729  0.225028  1
  O  O20  1  0.147177  0.634269  0.550451  1
  O  O21  1  0.045469  0.942123  0.396578  1
  O  O22  1  0.459454  0.844629  0.932273  1
  O  O23  1  0.457391  0.207271  0.274972  1
  O  O24  1  0.852823  0.365731  0.449549  1
  O  O25  1  0.639936  0.487188  0.885787  1
  O  O26  1  0.360064  0.512812  0.114213  1
  O  O27  1  0.954531  0.942123  0.896578  1
  O  O28  1  0.540546  0.844629  0.432273  1
  O  O29  1  0.979226  0.288292  0.229908  1
  O  O30  1  0.542609  0.207271  0.774972  1
  O  O31  1  0.852823  0.634269  0.050451  1
  O  O32  1  0.020774  0.288292  0.729908  1
  O  O33  1  0.147177  0.365731  0.949549  1
  O  O34  1  0.979226  0.711708  0.270092  1
  O  O35  1  0.639936  0.512812  0.614213  1
