# generated using pymatgen
data_Hf3FeSn3Rh2
_symmetry_space_group_name_H-M   'P 1'
_cell_length_a   7.43264300
_cell_length_b   7.43264305
_cell_length_c   6.93213300
_cell_angle_alpha   90.00000000
_cell_angle_beta   90.00000000
_cell_angle_gamma   119.99999533
_symmetry_Int_Tables_number   1
_chemical_formula_structural   Hf3FeSn3Rh2
_chemical_formula_sum   'Hf6 Fe2 Sn6 Rh4'
_cell_volume   331.65312100
_cell_formula_units_Z   2
loop_
 _symmetry_equiv_pos_site_id
 _symmetry_equiv_pos_as_xyz
  1  'x, y, z'
loop_
 _atom_site_type_symbol
 _atom_site_label
 _atom_site_symmetry_multiplicity
 _atom_site_fract_x
 _atom_site_fract_y
 _atom_site_fract_z
 _atom_site_occupancy
  Hf  Hf0  1  0.005554  0.392573  0.750000  1
  Hf  Hf1  1  0.607427  0.612981  0.750000  1
  Hf  Hf2  1  0.387019  0.994446  0.750000  1
  Hf  Hf3  1  0.994446  0.387019  0.250000  1
  Hf  Hf4  1  0.612981  0.607427  0.250000  1
  Hf  Hf5  1  0.392573  0.005554  0.250000  1
  Fe  Fe6  1  0.000000  0.000000  0.750000  1
  Fe  Fe7  1  0.000000  0.000000  0.250000  1
  Sn  Sn8  1  0.265263  0.265263  0.500000  1
  Sn  Sn9  1  0.000000  0.734737  0.500000  1
  Sn  Sn10  1  0.000000  0.734737  0.000000  1
  Sn  Sn11  1  0.734737  0.000000  0.500000  1
  Sn  Sn12  1  0.734737  0.000000  0.000000  1
  Sn  Sn13  1  0.265263  0.265263  0.000000  1
  Rh  Rh14  1  0.333333  0.666667  0.488548  1
  Rh  Rh15  1  0.666667  0.333333  0.511452  1
  Rh  Rh16  1  0.333333  0.666667  0.011452  1
  Rh  Rh17  1  0.666667  0.333333  0.988548  1
