# generated using pymatgen
data_Cs6Zn4Sn5S17
_symmetry_space_group_name_H-M   'P 1'
_cell_length_a   11.41041703
_cell_length_b   11.41041693
_cell_length_c   11.39553333
_cell_angle_alpha   77.39965938
_cell_angle_beta   77.39966330
_cell_angle_gamma   123.90679270
_symmetry_Int_Tables_number   1
_chemical_formula_structural   Cs6Zn4Sn5S17
_chemical_formula_sum   'Cs6 Zn4 Sn5 S17'
_cell_volume   1090.81447188
_cell_formula_units_Z   1
loop_
 _symmetry_equiv_pos_site_id
 _symmetry_equiv_pos_as_xyz
  1  'x, y, z'
loop_
 _atom_site_type_symbol
 _atom_site_label
 _atom_site_symmetry_multiplicity
 _atom_site_fract_x
 _atom_site_fract_y
 _atom_site_fract_z
 _atom_site_occupancy
  Cs  Cs0  1  0.249548  0.750452  0.500000  1
  Cs  Cs1  1  0.575140  0.424860  0.000000  1
  Cs  Cs2  1  0.501171  0.982108  0.001314  1
  Cs  Cs3  1  0.017892  0.498829  0.998686  1
  Cs  Cs4  1  0.999713  0.000287  0.500000  1
  Cs  Cs5  1  0.499229  0.500771  0.500000  1
  Zn  Zn6  1  0.011509  0.376390  0.366476  1
  Zn  Zn7  1  0.743456  0.377799  0.633869  1
  Zn  Zn8  1  0.623610  0.988491  0.633524  1
  Zn  Zn9  1  0.622201  0.256544  0.366131  1
  Sn  Sn10  1  0.998825  0.001175  0.000000  1
  Sn  Sn11  1  0.956793  0.678686  0.278246  1
  Sn  Sn12  1  0.954837  0.235073  0.723009  1
  Sn  Sn13  1  0.764927  0.045163  0.276991  1
  Sn  Sn14  1  0.321314  0.043207  0.721754  1
  S  S15  1  0.146236  0.641179  0.231428  1
  S  S16  1  0.866515  0.375084  0.775703  1
  S  S17  1  0.869265  0.641621  0.505473  1
  S  S18  1  0.146423  0.379060  0.497711  1
  S  S19  1  0.620940  0.853577  0.502289  1
  S  S20  1  0.358379  0.130735  0.494527  1
  S  S21  1  0.624916  0.133485  0.224297  1
  S  S22  1  0.358821  0.853764  0.768572  1
  S  S23  1  0.115677  0.967722  0.148202  1
  S  S24  1  0.115565  0.264905  0.852605  1
  S  S25  1  0.735095  0.884435  0.147395  1
  S  S26  1  0.032278  0.884323  0.851798  1
  S  S27  1  0.744538  0.518509  0.223033  1
  S  S28  1  0.746807  0.969355  0.772680  1
  S  S29  1  0.030645  0.253193  0.227320  1
  S  S30  1  0.481491  0.255462  0.776967  1
  S  S31  1  0.750042  0.249958  0.500000  1
