# generated using pymatgen
data_Sm7Gd(SBr6)2
_symmetry_space_group_name_H-M   'P 1'
_cell_length_a   4.02426500
_cell_length_b   13.20419059
_cell_length_c   13.93340100
_cell_angle_alpha   90.46965117
_cell_angle_beta   90.00000000
_cell_angle_gamma   90.00000000
_symmetry_Int_Tables_number   1
_chemical_formula_structural   Sm7Gd(SBr6)2
_chemical_formula_sum   'Sm7 Gd1 S2 Br12'
_cell_volume   740.35651393
_cell_formula_units_Z   1
loop_
 _symmetry_equiv_pos_site_id
 _symmetry_equiv_pos_as_xyz
  1  'x, y, z'
loop_
 _atom_site_type_symbol
 _atom_site_label
 _atom_site_symmetry_multiplicity
 _atom_site_fract_x
 _atom_site_fract_y
 _atom_site_fract_z
 _atom_site_occupancy
  Sm  Sm0  1  0.500000  0.117891  0.344229  1
  Sm  Sm1  1  0.500000  0.883196  0.656725  1
  Sm  Sm2  1  0.500000  0.616907  0.155480  1
  Sm  Sm3  1  0.000000  0.114041  0.577220  1
  Sm  Sm4  1  0.000000  0.885816  0.423257  1
  Sm  Sm5  1  0.000000  0.614470  0.924198  1
  Sm  Sm6  1  0.000000  0.386542  0.077210  1
  Gd  Gd7  1  0.500000  0.381158  0.841519  1
  S  S8  1  0.500000  0.000083  0.500186  1
  S  S9  1  0.500000  0.498330  0.997760  1
  Br  Br10  1  0.500000  0.243457  0.161212  1
  Br  Br11  1  0.500000  0.755400  0.837511  1
  Br  Br12  1  0.500000  0.743908  0.338138  1
  Br  Br13  1  0.500000  0.256476  0.662768  1
  Br  Br14  1  0.000000  0.261163  0.416391  1
  Br  Br15  1  0.000000  0.739680  0.584652  1
  Br  Br16  1  0.000000  0.760739  0.086259  1
  Br  Br17  1  0.000000  0.241431  0.912823  1
  Br  Br18  1  0.000000  0.998636  0.239195  1
  Br  Br19  1  0.000000  0.002108  0.762032  1
  Br  Br20  1  0.000000  0.500054  0.261445  1
  Br  Br21  1  0.000000  0.498513  0.739789  1
