# generated using pymatgen
data_Lu(TlBr2)3
_symmetry_space_group_name_H-M   'P 1'
_cell_length_a   8.16472409
_cell_length_b   8.16472448
_cell_length_c   8.16472500
_cell_angle_alpha   62.32899065
_cell_angle_beta   62.32898921
_cell_angle_gamma   62.32899091
_symmetry_Int_Tables_number   1
_chemical_formula_structural   Lu(TlBr2)3
_chemical_formula_sum   'Lu1 Tl3 Br6'
_cell_volume   404.86691681
_cell_formula_units_Z   1
loop_
 _symmetry_equiv_pos_site_id
 _symmetry_equiv_pos_as_xyz
  1  'x, y, z'
loop_
 _atom_site_type_symbol
 _atom_site_label
 _atom_site_symmetry_multiplicity
 _atom_site_fract_x
 _atom_site_fract_y
 _atom_site_fract_z
 _atom_site_occupancy
  Lu  Lu0  1  0.000000  0.000000  0.000000  1
  Tl  Tl1  1  0.224408  0.224408  0.224408  1
  Tl  Tl2  1  0.500000  0.500000  0.500000  1
  Tl  Tl3  1  0.775592  0.775592  0.775592  1
  Br  Br4  1  0.799014  0.324829  0.124159  1
  Br  Br5  1  0.675171  0.875840  0.200987  1
  Br  Br6  1  0.124159  0.799013  0.324829  1
  Br  Br7  1  0.875841  0.200987  0.675171  1
  Br  Br8  1  0.324829  0.124160  0.799013  1
  Br  Br9  1  0.200986  0.675171  0.875841  1
