# generated using pymatgen
data_Ce7Er2ScSi8O3
_symmetry_space_group_name_H-M   'P 1'
_cell_length_a   10.41602500
_cell_length_b   10.46682504
_cell_length_c   4.39928000
_cell_angle_alpha   90.00000000
_cell_angle_beta   90.00000000
_cell_angle_gamma   119.83957602
_symmetry_Int_Tables_number   1
_chemical_formula_structural   Ce7Er2ScSi8O3
_chemical_formula_sum   'Ce7 Er2 Sc1 Si8 O3'
_cell_volume   416.03416873
_cell_formula_units_Z   1
loop_
 _symmetry_equiv_pos_site_id
 _symmetry_equiv_pos_as_xyz
  1  'x, y, z'
loop_
 _atom_site_type_symbol
 _atom_site_label
 _atom_site_symmetry_multiplicity
 _atom_site_fract_x
 _atom_site_fract_y
 _atom_site_fract_z
 _atom_site_occupancy
  Ce  Ce0  1  0.217422  0.790323  0.000000  1
  Ce  Ce1  1  0.213314  0.426628  0.000000  1
  Ce  Ce2  1  0.786686  0.573372  0.000000  1
  Ce  Ce3  1  0.427099  0.209677  0.000000  1
  Ce  Ce4  1  0.000000  0.000000  0.000000  1
  Ce  Ce5  1  0.572901  0.790323  0.000000  1
  Ce  Ce6  1  0.782578  0.209677  0.000000  1
  Er  Er7  1  0.000000  0.500000  0.500000  1
  Er  Er8  1  0.500000  0.500000  0.500000  1
  Sc  Sc9  1  0.500000  0.000000  0.500000  1
  Si  Si10  1  0.664654  0.329306  0.500000  1
  Si  Si11  1  0.001222  0.775810  0.500000  1
  Si  Si12  1  0.335346  0.670694  0.500000  1
  Si  Si13  1  0.225412  0.224190  0.500000  1
  Si  Si14  1  0.774588  0.775810  0.500000  1
  Si  Si15  1  0.770178  0.000000  0.500000  1
  Si  Si16  1  0.229822  0.000000  0.500000  1
  Si  Si17  1  0.998778  0.224190  0.500000  1
  O  O18  1  0.500000  0.500000  0.000000  1
  O  O19  1  0.500000  0.000000  0.000000  1
  O  O20  1  0.000000  0.500000  0.000000  1
