# generated using pymatgen
data_CaSm3(Sn5Pd3)2
_symmetry_space_group_name_H-M   'P 1'
_cell_length_a   13.55276226
_cell_length_b   13.55276319
_cell_length_c   7.39696600
_cell_angle_alpha   89.93675496
_cell_angle_beta   90.06324504
_cell_angle_gamma   160.42538725
_symmetry_Int_Tables_number   1
_chemical_formula_structural   CaSm3(Sn5Pd3)2
_chemical_formula_sum   'Ca1 Sm3 Sn10 Pd6'
_cell_volume   455.19560190
_cell_formula_units_Z   1
loop_
 _symmetry_equiv_pos_site_id
 _symmetry_equiv_pos_as_xyz
  1  'x, y, z'
loop_
 _atom_site_type_symbol
 _atom_site_label
 _atom_site_symmetry_multiplicity
 _atom_site_fract_x
 _atom_site_fract_y
 _atom_site_fract_z
 _atom_site_occupancy
  Ca  Ca0  1  0.522021  0.477979  0.239502  1
  Sm  Sm1  1  0.173970  0.826030  0.749327  1
  Sm  Sm2  1  0.827332  0.172668  0.249216  1
  Sm  Sm3  1  0.478363  0.521637  0.740741  1
  Sn  Sn4  1  0.881109  0.118891  0.732023  1
  Sn  Sn5  1  0.119085  0.880915  0.230860  1
  Sn  Sn6  1  0.702460  0.297540  0.048479  1
  Sn  Sn7  1  0.296539  0.703461  0.549855  1
  Sn  Sn8  1  0.598530  0.401470  0.607574  1
  Sn  Sn9  1  0.401288  0.598712  0.104762  1
  Sn  Sn10  1  0.952706  0.047294  0.403782  1
  Sn  Sn11  1  0.047279  0.952721  0.902269  1
  Sn  Sn12  1  0.288683  0.711317  0.976469  1
  Sn  Sn13  1  0.711156  0.288844  0.475574  1
  Pd  Pd14  1  0.051755  0.948245  0.521723  1
  Pd  Pd15  1  0.948079  0.051921  0.022138  1
  Pd  Pd16  1  0.777637  0.222363  0.774195  1
  Pd  Pd17  1  0.222802  0.777198  0.271723  1
  Pd  Pd18  1  0.395687  0.604313  0.479592  1
  Pd  Pd19  1  0.603518  0.396482  0.976197  1
