# generated using pymatgen
data_Sm2ThBC3
_symmetry_space_group_name_H-M   'P 1'
_cell_length_a   3.80121689
_cell_length_b   3.80121697
_cell_length_c   16.17162700
_cell_angle_alpha   90.00000000
_cell_angle_beta   90.00000000
_cell_angle_gamma   90.42190139
_symmetry_Int_Tables_number   1
_chemical_formula_structural   Sm2ThBC3
_chemical_formula_sum   'Sm4 Th2 B2 C6'
_cell_volume   233.66154920
_cell_formula_units_Z   2
loop_
 _symmetry_equiv_pos_site_id
 _symmetry_equiv_pos_as_xyz
  1  'x, y, z'
loop_
 _atom_site_type_symbol
 _atom_site_label
 _atom_site_symmetry_multiplicity
 _atom_site_fract_x
 _atom_site_fract_y
 _atom_site_fract_z
 _atom_site_occupancy
  Sm  Sm0  1  0.585922  0.414079  0.097785  1
  Sm  Sm1  1  0.585922  0.414079  0.402215  1
  Sm  Sm2  1  0.414079  0.585922  0.597785  1
  Sm  Sm3  1  0.414079  0.585922  0.902215  1
  Th  Th4  1  0.090506  0.909495  0.250000  1
  Th  Th5  1  0.909495  0.090506  0.750000  1
  B  B6  1  0.000000  0.000000  0.000000  1
  B  B7  1  0.000000  0.000000  0.500000  1
  C  C8  1  0.079151  0.920851  0.087407  1
  C  C9  1  0.597080  0.402922  0.250000  1
  C  C10  1  0.079151  0.920851  0.412593  1
  C  C11  1  0.920851  0.079151  0.587407  1
  C  C12  1  0.402922  0.597080  0.750000  1
  C  C13  1  0.920851  0.079151  0.912593  1
