# generated using pymatgen
data_CeEr(AlNi4)2
_symmetry_space_group_name_H-M   'P 1'
_cell_length_a   4.05774400
_cell_length_b   5.01874400
_cell_length_c   8.31280500
_cell_angle_alpha   90.00000000
_cell_angle_beta   90.00000000
_cell_angle_gamma   90.00000000
_symmetry_Int_Tables_number   1
_chemical_formula_structural   CeEr(AlNi4)2
_chemical_formula_sum   'Ce1 Er1 Al2 Ni8'
_cell_volume   169.28843132
_cell_formula_units_Z   1
loop_
 _symmetry_equiv_pos_site_id
 _symmetry_equiv_pos_as_xyz
  1  'x, y, z'
loop_
 _atom_site_type_symbol
 _atom_site_label
 _atom_site_symmetry_multiplicity
 _atom_site_fract_x
 _atom_site_fract_y
 _atom_site_fract_z
 _atom_site_occupancy
  Ce  Ce0  1  0.000000  0.500000  0.000000  1
  Er  Er1  1  0.000000  0.000000  0.500000  1
  Al  Al2  1  0.500000  0.500000  0.500000  1
  Al  Al3  1  0.500000  0.000000  0.000000  1
  Ni  Ni4  1  0.000000  0.500000  0.327970  1
  Ni  Ni5  1  0.000000  0.000000  0.832974  1
  Ni  Ni6  1  0.000000  0.000000  0.167026  1
  Ni  Ni7  1  0.000000  0.500000  0.672030  1
  Ni  Ni8  1  0.500000  0.752336  0.252057  1
  Ni  Ni9  1  0.500000  0.247664  0.747943  1
  Ni  Ni10  1  0.500000  0.247664  0.252057  1
  Ni  Ni11  1  0.500000  0.752336  0.747943  1
