# generated using pymatgen
data_Ba4CoIrO8
_symmetry_space_group_name_H-M   'P 1'
_cell_length_a   7.29026320
_cell_length_b   7.29026271
_cell_length_c   5.82567300
_cell_angle_alpha   90.00000000
_cell_angle_beta   90.00000000
_cell_angle_gamma   132.78097593
_symmetry_Int_Tables_number   1
_chemical_formula_structural   Ba4CoIrO8
_chemical_formula_sum   'Ba4 Co1 Ir1 O8'
_cell_volume   227.24910027
_cell_formula_units_Z   1
loop_
 _symmetry_equiv_pos_site_id
 _symmetry_equiv_pos_as_xyz
  1  'x, y, z'
loop_
 _atom_site_type_symbol
 _atom_site_label
 _atom_site_symmetry_multiplicity
 _atom_site_fract_x
 _atom_site_fract_y
 _atom_site_fract_z
 _atom_site_occupancy
  Ba  Ba0  1  0.645444  0.354556  0.000000  1
  Ba  Ba1  1  0.142285  0.857715  0.500000  1
  Ba  Ba2  1  0.857715  0.142285  0.500000  1
  Ba  Ba3  1  0.354556  0.645444  0.000000  1
  Co  Co4  1  0.000000  0.000000  0.000000  1
  Ir  Ir5  1  0.500000  0.500000  0.500000  1
  O  O6  1  0.738724  0.738724  0.264274  1
  O  O7  1  0.261276  0.261276  0.735726  1
  O  O8  1  0.261276  0.261276  0.264274  1
  O  O9  1  0.738724  0.738724  0.735726  1
  O  O10  1  0.845149  0.154851  0.000000  1
  O  O11  1  0.348284  0.651716  0.500000  1
  O  O12  1  0.651716  0.348284  0.500000  1
  O  O13  1  0.154851  0.845149  0.000000  1
