# generated using pymatgen
data_CaEu3ScSn3
_symmetry_space_group_name_H-M   'P 1'
_cell_length_a   9.36328003
_cell_length_b   9.36341181
_cell_length_c   9.36864000
_cell_angle_alpha   96.90647387
_cell_angle_beta   96.89057025
_cell_angle_gamma   139.43189281
_symmetry_Int_Tables_number   1
_chemical_formula_structural   CaEu3ScSn3
_chemical_formula_sum   'Ca2 Eu6 Sc2 Sn6'
_cell_volume   501.09315835
_cell_formula_units_Z   2
loop_
 _symmetry_equiv_pos_site_id
 _symmetry_equiv_pos_as_xyz
  1  'x, y, z'
loop_
 _atom_site_type_symbol
 _atom_site_label
 _atom_site_symmetry_multiplicity
 _atom_site_fract_x
 _atom_site_fract_y
 _atom_site_fract_z
 _atom_site_occupancy
  Ca  Ca0  1  0.712660  0.583178  0.295853  1
  Ca  Ca1  1  0.287340  0.416822  0.704147  1
  Eu  Eu2  1  0.088038  0.217465  0.305506  1
  Eu  Eu3  1  0.911962  0.782535  0.694494  1
  Eu  Eu4  1  0.782059  0.086642  0.868707  1
  Eu  Eu5  1  0.412962  0.717638  0.130605  1
  Eu  Eu6  1  0.217941  0.913358  0.131293  1
  Eu  Eu7  1  0.587038  0.282362  0.869395  1
  Sc  Sc8  1  0.251175  0.751189  0.499994  1
  Sc  Sc9  1  0.748825  0.248811  0.500006  1
  Sn  Sn10  1  0.145788  0.643943  0.789739  1
  Sn  Sn11  1  0.854212  0.356057  0.210261  1
  Sn  Sn12  1  0.354495  0.146614  0.501050  1
  Sn  Sn13  1  0.645505  0.853386  0.498950  1
  Sn  Sn14  1  0.249268  0.249261  0.000014  1
  Sn  Sn15  1  0.750732  0.750739  0.999986  1
