# generated using pymatgen
data_Yb4Sn3As3Ir7
_symmetry_space_group_name_H-M   'P 1'
_cell_length_a   7.39077090
_cell_length_b   7.39077115
_cell_length_c   7.45602900
_cell_angle_alpha   109.65017458
_cell_angle_beta   109.65017527
_cell_angle_gamma   109.29167787
_symmetry_Int_Tables_number   1
_chemical_formula_structural   Yb4Sn3As3Ir7
_chemical_formula_sum   'Yb4 Sn3 As3 Ir7'
_cell_volume   312.82485524
_cell_formula_units_Z   1
loop_
 _symmetry_equiv_pos_site_id
 _symmetry_equiv_pos_as_xyz
  1  'x, y, z'
loop_
 _atom_site_type_symbol
 _atom_site_label
 _atom_site_symmetry_multiplicity
 _atom_site_fract_x
 _atom_site_fract_y
 _atom_site_fract_z
 _atom_site_occupancy
  Yb  Yb0  1  0.000000  0.000000  0.454768  1
  Yb  Yb1  1  0.000000  0.521848  0.008179  1
  Yb  Yb2  1  0.521848  0.000000  0.008179  1
  Yb  Yb3  1  0.478152  0.478152  0.486333  1
  Sn  Sn4  1  0.291805  0.291805  0.985068  1
  Sn  Sn5  1  0.708195  0.000000  0.693264  1
  Sn  Sn6  1  0.000000  0.708195  0.693264  1
  As  As7  1  0.662237  0.662237  0.990331  1
  As  As8  1  0.337763  0.000000  0.328094  1
  As  As9  1  0.000000  0.337763  0.328094  1
  Ir  Ir10  1  0.755420  0.256523  0.502051  1
  Ir  Ir11  1  0.743477  0.498897  0.245528  1
  Ir  Ir12  1  0.501103  0.244580  0.746631  1
  Ir  Ir13  1  0.244580  0.501103  0.746631  1
  Ir  Ir14  1  0.256523  0.755420  0.502051  1
  Ir  Ir15  1  0.498897  0.743477  0.245528  1
  Ir  Ir16  1  0.000000  0.000000  0.036007  1
