# generated using pymatgen
data_Hf6SiGeN2
_symmetry_space_group_name_H-M   'P 1'
_cell_length_a   5.82964483
_cell_length_b   5.82964483
_cell_length_c   8.56154800
_cell_angle_alpha   90.00000000
_cell_angle_beta   90.00000000
_cell_angle_gamma   146.22002866
_symmetry_Int_Tables_number   1
_chemical_formula_structural   Hf6SiGeN2
_chemical_formula_sum   'Hf6 Si1 Ge1 N2'
_cell_volume   161.77643521
_cell_formula_units_Z   1
loop_
 _symmetry_equiv_pos_site_id
 _symmetry_equiv_pos_as_xyz
  1  'x, y, z'
loop_
 _atom_site_type_symbol
 _atom_site_label
 _atom_site_symmetry_multiplicity
 _atom_site_fract_x
 _atom_site_fract_y
 _atom_site_fract_z
 _atom_site_occupancy
  Hf  Hf0  1  0.630606  0.369394  0.450105  1
  Hf  Hf1  1  0.368306  0.631694  0.554866  1
  Hf  Hf2  1  0.630606  0.369394  0.049895  1
  Hf  Hf3  1  0.368306  0.631694  0.945134  1
  Hf  Hf4  1  0.946996  0.053004  0.250000  1
  Hf  Hf5  1  0.055500  0.944500  0.750000  1
  Si  Si6  1  0.744065  0.255935  0.750000  1
  Ge  Ge7  1  0.255377  0.744623  0.250000  1
  N  N8  1  0.000119  0.999881  0.499806  1
  N  N9  1  0.000119  0.999881  0.000194  1
