# generated using pymatgen
data_SrHo2(Si3Pd10)2
_symmetry_space_group_name_H-M   'P 1'
_cell_length_a   8.74509574
_cell_length_b   8.74509608
_cell_length_c   8.74509600
_cell_angle_alpha   60.00000031
_cell_angle_beta   59.99999904
_cell_angle_gamma   59.99999844
_symmetry_Int_Tables_number   1
_chemical_formula_structural   SrHo2(Si3Pd10)2
_chemical_formula_sum   'Sr1 Ho2 Si6 Pd20'
_cell_volume   472.91025342
_cell_formula_units_Z   1
loop_
 _symmetry_equiv_pos_site_id
 _symmetry_equiv_pos_as_xyz
  1  'x, y, z'
loop_
 _atom_site_type_symbol
 _atom_site_label
 _atom_site_symmetry_multiplicity
 _atom_site_fract_x
 _atom_site_fract_y
 _atom_site_fract_z
 _atom_site_occupancy
  Sr  Sr0  1  0.250000  0.250000  0.250000  1
  Ho  Ho1  1  0.750000  0.750000  0.750000  1
  Ho  Ho2  1  0.000000  0.000000  0.000000  1
  Si  Si3  1  0.732266  0.267734  0.267734  1
  Si  Si4  1  0.267734  0.732266  0.732266  1
  Si  Si5  1  0.267734  0.732266  0.267734  1
  Si  Si6  1  0.732266  0.267734  0.732266  1
  Si  Si7  1  0.267734  0.267734  0.732266  1
  Si  Si8  1  0.732266  0.732266  0.267734  1
  Pd  Pd9  1  0.387626  0.387626  0.387626  1
  Pd  Pd10  1  0.617350  0.617350  0.617350  1
  Pd  Pd11  1  0.387626  0.387626  0.837124  1
  Pd  Pd12  1  0.387626  0.837124  0.387626  1
  Pd  Pd13  1  0.617350  0.617350  0.147950  1
  Pd  Pd14  1  0.617350  0.147950  0.617350  1
  Pd  Pd15  1  0.837124  0.387626  0.387626  1
  Pd  Pd16  1  0.147950  0.617350  0.617350  1
  Pd  Pd17  1  0.346664  0.997446  0.997446  1
  Pd  Pd18  1  0.658445  0.997446  0.997446  1
  Pd  Pd19  1  0.997446  0.346664  0.658445  1
  Pd  Pd20  1  0.997446  0.658445  0.346664  1
  Pd  Pd21  1  0.997446  0.346664  0.997446  1
  Pd  Pd22  1  0.658445  0.997446  0.346664  1
  Pd  Pd23  1  0.997446  0.658445  0.997446  1
  Pd  Pd24  1  0.346664  0.997446  0.658445  1
  Pd  Pd25  1  0.997446  0.997446  0.346664  1
  Pd  Pd26  1  0.997446  0.997446  0.658445  1
  Pd  Pd27  1  0.658445  0.346664  0.997446  1
  Pd  Pd28  1  0.346664  0.658445  0.997446  1
