# generated using pymatgen
data_CeZnPt3Au
_symmetry_space_group_name_H-M   'P 1'
_cell_length_a   5.49369216
_cell_length_b   5.49369262
_cell_length_c   5.22817407
_cell_angle_alpha   58.30528343
_cell_angle_beta   58.30529262
_cell_angle_gamma   60.00000255
_symmetry_Int_Tables_number   1
_chemical_formula_structural   CeZnPt3Au
_chemical_formula_sum   'Ce1 Zn1 Pt3 Au1'
_cell_volume   108.63018375
_cell_formula_units_Z   1
loop_
 _symmetry_equiv_pos_site_id
 _symmetry_equiv_pos_as_xyz
  1  'x, y, z'
loop_
 _atom_site_type_symbol
 _atom_site_label
 _atom_site_symmetry_multiplicity
 _atom_site_fract_x
 _atom_site_fract_y
 _atom_site_fract_z
 _atom_site_occupancy
  Ce  Ce0  1  0.003275  0.003275  0.990173  1
  Zn  Zn1  1  0.622990  0.622990  0.131030  1
  Pt  Pt2  1  0.623100  0.125156  0.628643  1
  Pt  Pt3  1  0.125156  0.623100  0.628643  1
  Pt  Pt4  1  0.623100  0.623100  0.628643  1
  Au  Au5  1  0.252377  0.252377  0.242868  1
