# generated using pymatgen
data_Ho3Lu2Bi2Ir
_symmetry_space_group_name_H-M   'P 1'
_cell_length_a   7.88164700
_cell_length_b   8.96656300
_cell_length_c   12.46447800
_cell_angle_alpha   90.00000000
_cell_angle_beta   90.00000000
_cell_angle_gamma   90.00000000
_symmetry_Int_Tables_number   1
_chemical_formula_structural   Ho3Lu2Bi2Ir
_chemical_formula_sum   'Ho12 Lu8 Bi8 Ir4'
_cell_volume   880.88066925
_cell_formula_units_Z   4
loop_
 _symmetry_equiv_pos_site_id
 _symmetry_equiv_pos_as_xyz
  1  'x, y, z'
loop_
 _atom_site_type_symbol
 _atom_site_label
 _atom_site_symmetry_multiplicity
 _atom_site_fract_x
 _atom_site_fract_y
 _atom_site_fract_z
 _atom_site_occupancy
  Ho  Ho0  1  0.840704  0.750000  0.793479  1
  Ho  Ho1  1  0.159296  0.250000  0.206521  1
  Ho  Ho2  1  0.340704  0.250000  0.706521  1
  Ho  Ho3  1  0.659296  0.750000  0.293479  1
  Ho  Ho4  1  0.375259  0.750000  0.690757  1
  Ho  Ho5  1  0.624741  0.250000  0.309243  1
  Ho  Ho6  1  0.875259  0.250000  0.809243  1
  Ho  Ho7  1  0.124741  0.750000  0.190757  1
  Ho  Ho8  1  0.946175  0.750000  0.501950  1
  Ho  Ho9  1  0.053825  0.250000  0.498050  1
  Ho  Ho10  1  0.446175  0.250000  0.998050  1
  Ho  Ho11  1  0.553825  0.750000  0.001950  1
  Lu  Lu12  1  0.672746  0.042010  0.565550  1
  Lu  Lu13  1  0.327254  0.957990  0.434450  1
  Lu  Lu14  1  0.172746  0.957990  0.934450  1
  Lu  Lu15  1  0.327254  0.542010  0.434450  1
  Lu  Lu16  1  0.827254  0.042010  0.065550  1
  Lu  Lu17  1  0.672746  0.457990  0.565550  1
  Lu  Lu18  1  0.827254  0.457990  0.065550  1
  Lu  Lu19  1  0.172746  0.542010  0.934450  1
  Bi  Bi20  1  0.565317  0.491722  0.826769  1
  Bi  Bi21  1  0.434683  0.508278  0.173231  1
  Bi  Bi22  1  0.065317  0.508278  0.673231  1
  Bi  Bi23  1  0.434683  0.991722  0.173231  1
  Bi  Bi24  1  0.934683  0.491722  0.326769  1
  Bi  Bi25  1  0.565317  0.008278  0.826769  1
  Bi  Bi26  1  0.934683  0.008278  0.326769  1
  Bi  Bi27  1  0.065317  0.991722  0.673231  1
  Ir  Ir28  1  0.570482  0.750000  0.508095  1
  Ir  Ir29  1  0.429518  0.250000  0.491905  1
  Ir  Ir30  1  0.070482  0.250000  0.991905  1
  Ir  Ir31  1  0.929518  0.750000  0.008095  1
