# generated using pymatgen
data_Li4CaTm3Si7Ge
_symmetry_space_group_name_H-M   'P 1'
_cell_length_a   3.77614900
_cell_length_b   7.71537459
_cell_length_c   10.18859440
_cell_angle_alpha   89.57050602
_cell_angle_beta   90.00000000
_cell_angle_gamma   90.00000000
_symmetry_Int_Tables_number   1
_chemical_formula_structural   Li4CaTm3Si7Ge
_chemical_formula_sum   'Li4 Ca1 Tm3 Si7 Ge1'
_cell_volume   296.83028589
_cell_formula_units_Z   1
loop_
 _symmetry_equiv_pos_site_id
 _symmetry_equiv_pos_as_xyz
  1  'x, y, z'
loop_
 _atom_site_type_symbol
 _atom_site_label
 _atom_site_symmetry_multiplicity
 _atom_site_fract_x
 _atom_site_fract_y
 _atom_site_fract_z
 _atom_site_occupancy
  Li  Li0  1  0.250000  0.996731  0.394164  1
  Li  Li1  1  0.750000  0.013842  0.607915  1
  Li  Li2  1  0.250000  0.484707  0.109557  1
  Li  Li3  1  0.750000  0.510833  0.894731  1
  Ca  Ca4  1  0.750000  0.361861  0.363464  1
  Tm  Tm5  1  0.250000  0.129964  0.862057  1
  Tm  Tm6  1  0.750000  0.866761  0.135520  1
  Tm  Tm7  1  0.250000  0.634175  0.634861  1
  Si  Si8  1  0.750000  0.256512  0.059681  1
  Si  Si9  1  0.750000  0.773025  0.433760  1
  Si  Si10  1  0.250000  0.239186  0.573537  1
  Si  Si11  1  0.750000  0.842982  0.812859  1
  Si  Si12  1  0.250000  0.149115  0.172922  1
  Si  Si13  1  0.750000  0.344247  0.687384  1
  Si  Si14  1  0.250000  0.664386  0.320296  1
  Ge  Ge15  1  0.250000  0.731672  0.937291  1
