# generated using pymatgen
data_CaAc2LaH11
_symmetry_space_group_name_H-M   'P 1'
_cell_length_a   6.90115593
_cell_length_b   6.90115550
_cell_length_c   6.90115500
_cell_angle_alpha   133.80261503
_cell_angle_beta   131.31135691
_cell_angle_gamma   69.37030496
_symmetry_Int_Tables_number   1
_chemical_formula_structural   CaAc2LaH11
_chemical_formula_sum   'Ca1 Ac2 La1 H11'
_cell_volume   174.82988932
_cell_formula_units_Z   1
loop_
 _symmetry_equiv_pos_site_id
 _symmetry_equiv_pos_as_xyz
  1  'x, y, z'
loop_
 _atom_site_type_symbol
 _atom_site_label
 _atom_site_symmetry_multiplicity
 _atom_site_fract_x
 _atom_site_fract_y
 _atom_site_fract_z
 _atom_site_occupancy
  Ca  Ca0  1  0.000000  0.500000  0.500000  1
  Ac  Ac1  1  0.262223  0.262223  0.000000  1
  Ac  Ac2  1  0.737777  0.737777  0.000000  1
  La  La3  1  0.500000  0.000000  0.500000  1
  H  H4  1  0.659232  0.123020  0.010608  1
  H  H5  1  0.340768  0.351376  0.463788  1
  H  H6  1  0.112412  0.648624  0.989392  1
  H  H7  1  0.887588  0.876980  0.536212  1
  H  H8  1  0.887588  0.351376  0.010608  1
  H  H9  1  0.659232  0.648624  0.536212  1
  H  H10  1  0.340768  0.876980  0.989392  1
  H  H11  1  0.112412  0.123020  0.463788  1
  H  H12  1  0.731863  0.231863  0.500000  1
  H  H13  1  0.500000  0.500000  0.000000  1
  H  H14  1  0.268137  0.768137  0.500000  1
