# generated using pymatgen
data_Na8Sn11Hg4Bi
_symmetry_space_group_name_H-M   'P 1'
_cell_length_a   10.36037734
_cell_length_b   10.36057920
_cell_length_c   7.33774652
_cell_angle_alpha   89.87819204
_cell_angle_beta   90.12017938
_cell_angle_gamma   119.85088739
_symmetry_Int_Tables_number   1
_chemical_formula_structural   Na8Sn11Hg4Bi
_chemical_formula_sum   'Na8 Sn11 Hg4 Bi1'
_cell_volume   683.12824923
_cell_formula_units_Z   1
loop_
 _symmetry_equiv_pos_site_id
 _symmetry_equiv_pos_as_xyz
  1  'x, y, z'
loop_
 _atom_site_type_symbol
 _atom_site_label
 _atom_site_symmetry_multiplicity
 _atom_site_fract_x
 _atom_site_fract_y
 _atom_site_fract_z
 _atom_site_occupancy
  Na  Na0  1  0.525717  0.050195  0.250413  1
  Na  Na1  1  0.044739  0.517114  0.750586  1
  Na  Na2  1  0.475897  0.524102  0.744275  1
  Na  Na3  1  0.523917  0.476081  0.250842  1
  Na  Na4  1  0.482888  0.955262  0.750588  1
  Na  Na5  1  0.949807  0.474286  0.250413  1
  Na  Na6  1  0.999683  0.000324  0.750335  1
  Na  Na7  1  0.998283  0.001719  0.252769  1
  Sn  Sn8  1  0.830481  0.665489  0.542479  1
  Sn  Sn9  1  0.334561  0.169551  0.542445  1
  Sn  Sn10  1  0.832624  0.167332  0.954245  1
  Sn  Sn11  1  0.822122  0.660694  0.951976  1
  Sn  Sn12  1  0.832620  0.167352  0.545469  1
  Sn  Sn13  1  0.339304  0.177876  0.951938  1
  Sn  Sn14  1  0.667420  0.835780  0.044640  1
  Sn  Sn15  1  0.664427  0.834462  0.453800  1
  Sn  Sn16  1  0.165515  0.335577  0.453789  1
  Sn  Sn17  1  0.166548  0.833481  0.467822  1
  Sn  Sn18  1  0.164189  0.332571  0.044634  1
  Hg  Hg19  1  0.332988  0.667009  0.461759  1
  Hg  Hg20  1  0.667414  0.332598  0.537676  1
  Hg  Hg21  1  0.667981  0.332023  0.958809  1
  Hg  Hg22  1  0.343468  0.656523  0.041901  1
  Bi  Bi23  1  0.167407  0.832597  0.046398  1
