# generated using pymatgen
data_La3Er2TlIn2Br
_symmetry_space_group_name_H-M   'P 1'
_cell_length_a   9.58842425
_cell_length_b   9.58842348
_cell_length_c   6.82235400
_cell_angle_alpha   90.00000000
_cell_angle_beta   90.00000000
_cell_angle_gamma   119.94144276
_symmetry_Int_Tables_number   1
_chemical_formula_structural   La3Er2TlIn2Br
_chemical_formula_sum   'La6 Er4 Tl2 In4 Br2'
_cell_volume   543.51969893
_cell_formula_units_Z   2
loop_
 _symmetry_equiv_pos_site_id
 _symmetry_equiv_pos_as_xyz
  1  'x, y, z'
loop_
 _atom_site_type_symbol
 _atom_site_label
 _atom_site_symmetry_multiplicity
 _atom_site_fract_x
 _atom_site_fract_y
 _atom_site_fract_z
 _atom_site_occupancy
  La  La0  1  0.730913  0.731195  0.250000  1
  La  La1  1  0.999544  0.730809  0.750000  1
  La  La2  1  0.730472  0.000083  0.750000  1
  La  La3  1  0.268805  0.269087  0.750000  1
  La  La4  1  0.999917  0.269528  0.250000  1
  La  La5  1  0.269191  0.000456  0.250000  1
  Er  Er6  1  0.334739  0.665261  0.500000  1
  Er  Er7  1  0.666379  0.333621  0.500000  1
  Er  Er8  1  0.334739  0.665261  0.000000  1
  Er  Er9  1  0.666379  0.333621  0.000000  1
  Tl  Tl10  1  0.393016  0.999767  0.750000  1
  Tl  Tl11  1  0.000233  0.606984  0.250000  1
  In  In12  1  0.605522  0.999586  0.250000  1
  In  In13  1  0.000414  0.394478  0.750000  1
  In  In14  1  0.394646  0.394510  0.250000  1
  In  In15  1  0.605490  0.605354  0.750000  1
  Br  Br16  1  0.999800  0.000200  0.500000  1
  Br  Br17  1  0.999800  0.000200  0.000000  1
