# generated using pymatgen
data_Dy3TiCoP6Rh7
_symmetry_space_group_name_H-M   'P 1'
_cell_length_a   3.85551800
_cell_length_b   11.11470700
_cell_length_c   12.77285400
_cell_angle_alpha   90.00000000
_cell_angle_beta   90.00000000
_cell_angle_gamma   90.00000000
_symmetry_Int_Tables_number   1
_chemical_formula_structural   Dy3TiCoP6Rh7
_chemical_formula_sum   'Dy6 Ti2 Co2 P12 Rh14'
_cell_volume   547.35451090
_cell_formula_units_Z   2
loop_
 _symmetry_equiv_pos_site_id
 _symmetry_equiv_pos_as_xyz
  1  'x, y, z'
loop_
 _atom_site_type_symbol
 _atom_site_label
 _atom_site_symmetry_multiplicity
 _atom_site_fract_x
 _atom_site_fract_y
 _atom_site_fract_z
 _atom_site_occupancy
  Dy  Dy0  1  0.000000  0.500000  0.519882  1
  Dy  Dy1  1  0.500000  0.000000  0.480118  1
  Dy  Dy2  1  0.500000  0.818447  0.199484  1
  Dy  Dy3  1  0.500000  0.181553  0.199484  1
  Dy  Dy4  1  0.000000  0.681553  0.800516  1
  Dy  Dy5  1  0.000000  0.318447  0.800516  1
  Ti  Ti6  1  0.500000  0.500000  0.154315  1
  Ti  Ti7  1  0.000000  0.000000  0.845685  1
  Co  Co8  1  0.000000  0.500000  0.987099  1
  Co  Co9  1  0.500000  0.000000  0.012901  1
  P  P10  1  0.500000  0.500000  0.882054  1
  P  P11  1  0.000000  0.000000  0.117946  1
  P  P12  1  0.500000  0.500000  0.349619  1
  P  P13  1  0.000000  0.000000  0.650381  1
  P  P14  1  0.500000  0.314110  0.617817  1
  P  P15  1  0.500000  0.685890  0.617817  1
  P  P16  1  0.000000  0.185890  0.382183  1
  P  P17  1  0.000000  0.814110  0.382183  1
  P  P18  1  0.500000  0.849984  0.892399  1
  P  P19  1  0.500000  0.150016  0.892399  1
  P  P20  1  0.000000  0.650016  0.107601  1
  P  P21  1  0.000000  0.349984  0.107601  1
  Rh  Rh22  1  0.500000  0.500000  0.701588  1
  Rh  Rh23  1  0.000000  0.000000  0.298412  1
  Rh  Rh24  1  0.500000  0.334544  0.991183  1
  Rh  Rh25  1  0.500000  0.665456  0.991183  1
  Rh  Rh26  1  0.000000  0.165456  0.008817  1
  Rh  Rh27  1  0.000000  0.834544  0.008817  1
  Rh  Rh28  1  0.500000  0.292876  0.430925  1
  Rh  Rh29  1  0.500000  0.707124  0.430925  1
  Rh  Rh30  1  0.000000  0.207124  0.569075  1
  Rh  Rh31  1  0.000000  0.792876  0.569075  1
  Rh  Rh32  1  0.500000  0.874622  0.710109  1
  Rh  Rh33  1  0.500000  0.125378  0.710109  1
  Rh  Rh34  1  0.000000  0.625378  0.289891  1
  Rh  Rh35  1  0.000000  0.374622  0.289891  1
