# generated using pymatgen
data_Ho8Sc12Sn13Sb3
_symmetry_space_group_name_H-M   'P 1'
_cell_length_a   7.76192904
_cell_length_b   7.87140530
_cell_length_c   14.78774185
_cell_angle_alpha   89.96799648
_cell_angle_beta   88.88276118
_cell_angle_gamma   90.00142311
_symmetry_Int_Tables_number   1
_chemical_formula_structural   Ho8Sc12Sn13Sb3
_chemical_formula_sum   'Ho8 Sc12 Sn13 Sb3'
_cell_volume   903.31903971
_cell_formula_units_Z   1
loop_
 _symmetry_equiv_pos_site_id
 _symmetry_equiv_pos_as_xyz
  1  'x, y, z'
loop_
 _atom_site_type_symbol
 _atom_site_label
 _atom_site_symmetry_multiplicity
 _atom_site_fract_x
 _atom_site_fract_y
 _atom_site_fract_z
 _atom_site_occupancy
  Ho  Ho0  1  0.987964  0.176303  0.093651  1
  Ho  Ho1  1  0.012398  0.824133  0.906388  1
  Ho  Ho2  1  0.512287  0.676458  0.906196  1
  Ho  Ho3  1  0.016703  0.820901  0.595637  1
  Ho  Ho4  1  0.487960  0.324065  0.093496  1
  Ho  Ho5  1  0.979260  0.178944  0.403803  1
  Ho  Ho6  1  0.481301  0.318568  0.403759  1
  Ho  Ho7  1  0.520190  0.681430  0.597111  1
  Sc  Sc8  1  0.178014  0.494685  0.750195  1
  Sc  Sc9  1  0.821871  0.505004  0.249639  1
  Sc  Sc10  1  0.321748  0.994766  0.249381  1
  Sc  Sc11  1  0.677847  0.005041  0.749381  1
  Sc  Sc12  1  0.356990  0.156842  0.625567  1
  Sc  Sc13  1  0.643977  0.843263  0.374779  1
  Sc  Sc14  1  0.143875  0.656683  0.375441  1
  Sc  Sc15  1  0.652114  0.837794  0.128049  1
  Sc  Sc16  1  0.855491  0.342785  0.624258  1
  Sc  Sc17  1  0.347407  0.162228  0.872303  1
  Sc  Sc18  1  0.848207  0.338071  0.872312  1
  Sc  Sc19  1  0.152382  0.661725  0.127945  1
  Sn  Sn20  1  0.043502  0.125033  0.747546  1
  Sn  Sn21  1  0.956550  0.875221  0.252497  1
  Sn  Sn22  1  0.456125  0.623547  0.252687  1
  Sn  Sn23  1  0.543930  0.375552  0.747940  1
  Sn  Sn24  1  0.318702  0.849309  0.751345  1
  Sn  Sn25  1  0.680315  0.150704  0.248522  1
  Sn  Sn26  1  0.180176  0.349178  0.249273  1
  Sn  Sn27  1  0.820034  0.650165  0.751433  1
  Sn  Sn28  1  0.813626  0.543097  0.042163  1
  Sn  Sn29  1  0.700978  0.044043  0.542833  1
  Sn  Sn30  1  0.187206  0.457978  0.957672  1
  Sn  Sn31  1  0.687100  0.042709  0.957469  1
  Sn  Sn32  1  0.314158  0.957008  0.042394  1
  Sb  Sb33  1  0.205134  0.457039  0.543490  1
  Sb  Sb34  1  0.795804  0.543370  0.456299  1
  Sb  Sb35  1  0.298675  0.956359  0.457146  1
