# generated using pymatgen
data_DyHo5BiO12
_symmetry_space_group_name_H-M   'P 1'
_cell_length_a   6.53630441
_cell_length_b   6.53557013
_cell_length_c   6.54217481
_cell_angle_alpha   99.14172331
_cell_angle_beta   99.00941519
_cell_angle_gamma   99.09721308
_symmetry_Int_Tables_number   1
_chemical_formula_structural   DyHo5BiO12
_chemical_formula_sum   'Dy1 Ho5 Bi1 O12'
_cell_volume   267.67634669
_cell_formula_units_Z   1
loop_
 _symmetry_equiv_pos_site_id
 _symmetry_equiv_pos_as_xyz
  1  'x, y, z'
loop_
 _atom_site_type_symbol
 _atom_site_label
 _atom_site_symmetry_multiplicity
 _atom_site_fract_x
 _atom_site_fract_y
 _atom_site_fract_z
 _atom_site_occupancy
  Dy  Dy0  1  0.141190  0.307892  0.608977  1
  Ho  Ho1  1  0.391145  0.858176  0.692107  1
  Ho  Ho2  1  0.692089  0.391453  0.859440  1
  Ho  Ho3  1  0.308147  0.609104  0.140963  1
  Ho  Ho4  1  0.608822  0.141135  0.307201  1
  Ho  Ho5  1  0.859109  0.692323  0.390827  1
  Bi  Bi6  1  0.999660  0.999619  0.999816  1
  O  O7  1  0.071827  0.316896  0.949628  1
  O  O8  1  0.051821  0.927751  0.683315  1
  O  O9  1  0.416056  0.567408  0.822103  1
  O  O10  1  0.178240  0.586147  0.432755  1
  O  O11  1  0.683181  0.051782  0.927925  1
  O  O12  1  0.434522  0.177671  0.584759  1
  O  O13  1  0.566698  0.821484  0.415124  1
  O  O14  1  0.316587  0.948530  0.072130  1
  O  O15  1  0.820709  0.415652  0.566705  1
  O  O16  1  0.584922  0.433258  0.178863  1
  O  O17  1  0.947172  0.070749  0.316135  1
  O  O18  1  0.928101  0.682970  0.051227  1
