# generated using pymatgen
data_Ti13NbP8
_symmetry_space_group_name_H-M   'P 1'
_cell_length_a   7.55488222
_cell_length_b   7.55488218
_cell_length_c   13.63172812
_cell_angle_alpha   75.57431344
_cell_angle_beta   75.57431396
_cell_angle_gamma   26.02876813
_symmetry_Int_Tables_number   1
_chemical_formula_structural   Ti13NbP8
_chemical_formula_sum   'Ti13 Nb1 P8'
_cell_volume   330.07527331
_cell_formula_units_Z   1
loop_
 _symmetry_equiv_pos_site_id
 _symmetry_equiv_pos_as_xyz
  1  'x, y, z'
loop_
 _atom_site_type_symbol
 _atom_site_label
 _atom_site_symmetry_multiplicity
 _atom_site_fract_x
 _atom_site_fract_y
 _atom_site_fract_z
 _atom_site_occupancy
  Ti  Ti0  1  0.999859  0.999859  0.000760  1
  Ti  Ti1  1  0.500117  0.500117  0.500158  1
  Ti  Ti2  1  0.570197  0.570197  0.827969  1
  Ti  Ti3  1  0.197198  0.197198  0.691380  1
  Ti  Ti4  1  0.802976  0.802976  0.309093  1
  Ti  Ti5  1  0.206704  0.206704  0.206214  1
  Ti  Ti6  1  0.793726  0.793726  0.794579  1
  Ti  Ti7  1  0.340412  0.340412  0.968903  1
  Ti  Ti8  1  0.661349  0.661349  0.030345  1
  Ti  Ti9  1  0.003540  0.003540  0.336474  1
  Ti  Ti10  1  0.996367  0.996367  0.663602  1
  Ti  Ti11  1  0.177479  0.177479  0.458607  1
  Ti  Ti12  1  0.822530  0.822530  0.541470  1
  Nb  Nb13  1  0.428431  0.428431  0.171079  1
  P  P14  1  0.176522  0.176522  0.889455  1
  P  P15  1  0.819606  0.819606  0.109054  1
  P  P16  1  0.373641  0.373641  0.395351  1
  P  P17  1  0.626937  0.626937  0.604504  1
  P  P18  1  0.369849  0.369849  0.658129  1
  P  P19  1  0.630166  0.630166  0.341757  1
  P  P20  1  0.064428  0.064428  0.151196  1
  P  P21  1  0.937963  0.937963  0.849924  1
