# generated using pymatgen
data_La6Sc2HgAu9
_symmetry_space_group_name_H-M   'P 1'
_cell_length_a   8.26505436
_cell_length_b   8.26505350
_cell_length_c   8.26505400
_cell_angle_alpha   65.58719729
_cell_angle_beta   65.58719997
_cell_angle_gamma   65.58718687
_symmetry_Int_Tables_number   1
_chemical_formula_structural   La6Sc2HgAu9
_chemical_formula_sum   'La6 Sc2 Hg1 Au9'
_cell_volume   447.68330385
_cell_formula_units_Z   1
loop_
 _symmetry_equiv_pos_site_id
 _symmetry_equiv_pos_as_xyz
  1  'x, y, z'
loop_
 _atom_site_type_symbol
 _atom_site_label
 _atom_site_symmetry_multiplicity
 _atom_site_fract_x
 _atom_site_fract_y
 _atom_site_fract_z
 _atom_site_occupancy
  La  La0  1  0.897030  0.185557  0.621817  1
  La  La1  1  0.621817  0.897030  0.185557  1
  La  La2  1  0.185557  0.621817  0.897030  1
  La  La3  1  0.102970  0.814443  0.378183  1
  La  La4  1  0.378183  0.102970  0.814443  1
  La  La5  1  0.814443  0.378183  0.102970  1
  Sc  Sc6  1  0.659272  0.659272  0.659272  1
  Sc  Sc7  1  0.340728  0.340728  0.340728  1
  Hg  Hg8  1  0.500000  0.500000  0.500000  1
  Au  Au9  1  0.000000  0.000000  0.000000  1
  Au  Au10  1  0.801018  0.801018  0.801018  1
  Au  Au11  1  0.198982  0.198982  0.198982  1
  Au  Au12  1  0.937989  0.547171  0.327736  1
  Au  Au13  1  0.327736  0.937989  0.547171  1
  Au  Au14  1  0.547171  0.327736  0.937989  1
  Au  Au15  1  0.062011  0.452829  0.672264  1
  Au  Au16  1  0.672264  0.062011  0.452829  1
  Au  Au17  1  0.452829  0.672264  0.062011  1
