# generated using pymatgen
data_TbDy2Hg5
_symmetry_space_group_name_H-M   'P 1'
_cell_length_a   6.39497878
_cell_length_b   6.39497845
_cell_length_c   10.17066328
_cell_angle_alpha   89.96521674
_cell_angle_beta   89.96521631
_cell_angle_gamma   105.18254420
_symmetry_Int_Tables_number   1
_chemical_formula_structural   TbDy2Hg5
_chemical_formula_sum   'Tb2 Dy4 Hg10'
_cell_volume   401.41899251
_cell_formula_units_Z   2
loop_
 _symmetry_equiv_pos_site_id
 _symmetry_equiv_pos_as_xyz
  1  'x, y, z'
loop_
 _atom_site_type_symbol
 _atom_site_label
 _atom_site_symmetry_multiplicity
 _atom_site_fract_x
 _atom_site_fract_y
 _atom_site_fract_z
 _atom_site_occupancy
  Tb  Tb0  1  0.787742  0.212258  0.000000  1
  Tb  Tb1  1  0.212258  0.787742  0.000000  1
  Dy  Dy2  1  0.212782  0.787218  0.500000  1
  Dy  Dy3  1  0.787218  0.212782  0.500000  1
  Dy  Dy4  1  0.568694  0.568694  0.250172  1
  Dy  Dy5  1  0.431306  0.431306  0.749828  1
  Hg  Hg6  1  0.037144  0.477122  0.250586  1
  Hg  Hg7  1  0.962856  0.522878  0.749414  1
  Hg  Hg8  1  0.477122  0.037144  0.250586  1
  Hg  Hg9  1  0.522878  0.962856  0.749414  1
  Hg  Hg10  1  0.970581  0.970581  0.250429  1
  Hg  Hg11  1  0.029419  0.029419  0.749571  1
  Hg  Hg12  1  0.293463  0.293463  0.029482  1
  Hg  Hg13  1  0.706537  0.706537  0.970518  1
  Hg  Hg14  1  0.707356  0.707356  0.529143  1
  Hg  Hg15  1  0.292644  0.292644  0.470857  1
