# generated using pymatgen
data_CsK6Rb11(InSb4)2
_symmetry_space_group_name_H-M   'P 1'
_cell_length_a   11.01374800
_cell_length_b   10.99406741
_cell_length_c   11.57382341
_cell_angle_alpha   90.04907874
_cell_angle_beta   90.00000000
_cell_angle_gamma   120.05922803
_symmetry_Int_Tables_number   1
_chemical_formula_structural   CsK6Rb11(InSb4)2
_chemical_formula_sum   'Cs1 K6 Rb11 In2 Sb8'
_cell_volume   1212.94552440
_cell_formula_units_Z   1
loop_
 _symmetry_equiv_pos_site_id
 _symmetry_equiv_pos_as_xyz
  1  'x, y, z'
loop_
 _atom_site_type_symbol
 _atom_site_label
 _atom_site_symmetry_multiplicity
 _atom_site_fract_x
 _atom_site_fract_y
 _atom_site_fract_z
 _atom_site_occupancy
  Cs  Cs0  1  0.208032  0.416065  0.542639  1
  K  K1  1  0.118625  0.237249  0.249554  1
  K  K2  1  0.880904  0.118491  0.750217  1
  K  K3  1  0.237586  0.118491  0.750217  1
  K  K4  1  0.762505  0.881157  0.249990  1
  K  K5  1  0.118653  0.881157  0.249990  1
  K  K6  1  0.881189  0.762379  0.750045  1
  Rb  Rb7  1  0.792702  0.207441  0.042838  1
  Rb  Rb8  1  0.414739  0.207441  0.042838  1
  Rb  Rb9  1  0.585537  0.792846  0.542848  1
  Rb  Rb10  1  0.207309  0.792846  0.542848  1
  Rb  Rb11  1  0.792694  0.585388  0.457101  1
  Rb  Rb12  1  0.792299  0.207212  0.457051  1
  Rb  Rb13  1  0.792659  0.585318  0.042770  1
  Rb  Rb14  1  0.414913  0.207212  0.457051  1
  Rb  Rb15  1  0.585354  0.792592  0.957149  1
  Rb  Rb16  1  0.207347  0.414695  0.957430  1
  Rb  Rb17  1  0.207237  0.792592  0.957149  1
  In  In18  1  0.333409  0.666819  0.249360  1
  In  In19  1  0.666877  0.333753  0.750640  1
  Sb  Sb20  1  0.483564  0.516960  0.249495  1
  Sb  Sb21  1  0.965374  0.482984  0.750686  1
  Sb  Sb22  1  0.516706  0.033415  0.749966  1
  Sb  Sb23  1  0.483308  0.966615  0.250057  1
  Sb  Sb24  1  0.033398  0.516960  0.249495  1
  Sb  Sb25  1  0.517608  0.482984  0.750686  1
  Sb  Sb26  1  0.000092  0.000184  0.999967  1
  Sb  Sb27  1  0.999378  0.998757  0.499925  1
