# generated using pymatgen
data_DyMgCoB6
_symmetry_space_group_name_H-M   'P 1'
_cell_length_a   3.41536300
_cell_length_b   8.86584300
_cell_length_c   11.24536600
_cell_angle_alpha   90.00000000
_cell_angle_beta   90.00000000
_cell_angle_gamma   90.00000000
_symmetry_Int_Tables_number   1
_chemical_formula_structural   DyMgCoB6
_chemical_formula_sum   'Dy4 Mg4 Co4 B24'
_cell_volume   340.51049379
_cell_formula_units_Z   4
loop_
 _symmetry_equiv_pos_site_id
 _symmetry_equiv_pos_as_xyz
  1  'x, y, z'
loop_
 _atom_site_type_symbol
 _atom_site_label
 _atom_site_symmetry_multiplicity
 _atom_site_fract_x
 _atom_site_fract_y
 _atom_site_fract_z
 _atom_site_occupancy
  Dy  Dy0  1  0.000000  0.822526  0.086296  1
  Dy  Dy1  1  0.000000  0.177474  0.913704  1
  Dy  Dy2  1  0.000000  0.322526  0.413704  1
  Dy  Dy3  1  0.000000  0.677474  0.586296  1
  Mg  Mg4  1  0.000000  0.445576  0.125391  1
  Mg  Mg5  1  0.000000  0.554424  0.874609  1
  Mg  Mg6  1  0.000000  0.945576  0.374609  1
  Mg  Mg7  1  0.000000  0.054424  0.625391  1
  Co  Co8  1  0.000000  0.141767  0.181969  1
  Co  Co9  1  0.000000  0.858233  0.818031  1
  Co  Co10  1  0.000000  0.641767  0.318031  1
  Co  Co11  1  0.000000  0.358233  0.681969  1
  B  B12  1  0.500000  0.056711  0.069209  1
  B  B13  1  0.500000  0.943289  0.930791  1
  B  B14  1  0.500000  0.556711  0.430791  1
  B  B15  1  0.500000  0.443289  0.569209  1
  B  B16  1  0.500000  0.253953  0.082176  1
  B  B17  1  0.500000  0.746047  0.917824  1
  B  B18  1  0.500000  0.753953  0.417824  1
  B  B19  1  0.500000  0.246047  0.582176  1
  B  B20  1  0.500000  0.292557  0.234259  1
  B  B21  1  0.500000  0.707443  0.765741  1
  B  B22  1  0.500000  0.792557  0.265741  1
  B  B23  1  0.500000  0.207443  0.734259  1
  B  B24  1  0.500000  0.128678  0.317050  1
  B  B25  1  0.500000  0.871322  0.682950  1
  B  B26  1  0.500000  0.628678  0.182950  1
  B  B27  1  0.500000  0.371322  0.817050  1
  B  B28  1  0.500000  0.484436  0.285579  1
  B  B29  1  0.500000  0.515564  0.714421  1
  B  B30  1  0.500000  0.984436  0.214421  1
  B  B31  1  0.500000  0.015564  0.785579  1
  B  B32  1  0.500000  0.097328  0.473798  1
  B  B33  1  0.500000  0.902672  0.526202  1
  B  B34  1  0.500000  0.597328  0.026202  1
  B  B35  1  0.500000  0.402672  0.973798  1
