# generated using pymatgen
data_Lu12Al2Fe2Ru
_symmetry_space_group_name_H-M   'P 1'
_cell_length_a   8.11391588
_cell_length_b   8.11391502
_cell_length_c   8.11391500
_cell_angle_alpha   108.36176443
_cell_angle_beta   108.36177728
_cell_angle_gamma   111.71366427
_symmetry_Int_Tables_number   1
_chemical_formula_structural   Lu12Al2Fe2Ru
_chemical_formula_sum   'Lu12 Al2 Fe2 Ru1'
_cell_volume   410.74105758
_cell_formula_units_Z   1
loop_
 _symmetry_equiv_pos_site_id
 _symmetry_equiv_pos_as_xyz
  1  'x, y, z'
loop_
 _atom_site_type_symbol
 _atom_site_label
 _atom_site_symmetry_multiplicity
 _atom_site_fract_x
 _atom_site_fract_y
 _atom_site_fract_z
 _atom_site_occupancy
  Lu  Lu0  1  0.307768  0.307768  0.615537  1
  Lu  Lu1  1  0.692232  0.692232  0.384463  1
  Lu  Lu2  1  0.692232  0.307768  0.000000  1
  Lu  Lu3  1  0.307768  0.692232  0.000000  1
  Lu  Lu4  1  0.191457  0.433207  0.241751  1
  Lu  Lu5  1  0.808543  0.566793  0.758249  1
  Lu  Lu6  1  0.191457  0.949705  0.758249  1
  Lu  Lu7  1  0.949705  0.191457  0.758249  1
  Lu  Lu8  1  0.808543  0.050295  0.241751  1
  Lu  Lu9  1  0.050295  0.808543  0.241751  1
  Lu  Lu10  1  0.433207  0.191457  0.241751  1
  Lu  Lu11  1  0.566793  0.808543  0.758249  1
  Al  Al12  1  0.000000  0.500000  0.500000  1
  Al  Al13  1  0.500000  0.000000  0.500000  1
  Fe  Fe14  1  0.381278  0.381278  0.000000  1
  Fe  Fe15  1  0.618722  0.618722  0.000000  1
  Ru  Ru16  1  0.000000  0.000000  0.000000  1
