# generated using pymatgen
data_Zr2Ta4TiH16
_symmetry_space_group_name_H-M   'P 1'
_cell_length_a   6.49480095
_cell_length_b   6.33917945
_cell_length_c   6.49480027
_cell_angle_alpha   60.78950179
_cell_angle_beta   58.42099282
_cell_angle_gamma   60.78949665
_symmetry_Int_Tables_number   1
_chemical_formula_structural   Zr2Ta4TiH16
_chemical_formula_sum   'Zr2 Ta4 Ti1 H16'
_cell_volume   188.86971319
_cell_formula_units_Z   1
loop_
 _symmetry_equiv_pos_site_id
 _symmetry_equiv_pos_as_xyz
  1  'x, y, z'
loop_
 _atom_site_type_symbol
 _atom_site_label
 _atom_site_symmetry_multiplicity
 _atom_site_fract_x
 _atom_site_fract_y
 _atom_site_fract_z
 _atom_site_occupancy
  Zr  Zr0  1  0.500000  0.000000  0.500000  1
  Zr  Zr1  1  0.000000  0.500000  0.000000  1
  Ta  Ta2  1  0.000000  0.000000  0.500000  1
  Ta  Ta3  1  0.000000  0.500000  0.500000  1
  Ta  Ta4  1  0.500000  0.500000  0.000000  1
  Ta  Ta5  1  0.500000  0.000000  0.000000  1
  Ti  Ti6  1  0.000000  0.000000  0.000000  1
  H  H7  1  0.890968  0.871927  0.365178  1
  H  H8  1  0.871927  0.365178  0.871927  1
  H  H9  1  0.365178  0.871927  0.890968  1
  H  H10  1  0.871927  0.890968  0.871927  1
  H  H11  1  0.109032  0.128073  0.634822  1
  H  H12  1  0.128073  0.634822  0.128073  1
  H  H13  1  0.634822  0.128073  0.109032  1
  H  H14  1  0.128073  0.109032  0.128073  1
  H  H15  1  0.602277  0.630009  0.137707  1
  H  H16  1  0.630009  0.137707  0.630009  1
  H  H17  1  0.137707  0.630009  0.602277  1
  H  H18  1  0.630009  0.602277  0.630009  1
  H  H19  1  0.397723  0.369991  0.862293  1
  H  H20  1  0.369991  0.862293  0.369991  1
  H  H21  1  0.862293  0.369991  0.397723  1
  H  H22  1  0.369991  0.397723  0.369991  1
