# generated using pymatgen
data_Dy4Co5P12(Ir2Rh3)3
_symmetry_space_group_name_H-M   'P 1'
_cell_length_a   3.86370100
_cell_length_b   10.73317066
_cell_length_c   12.35102588
_cell_angle_alpha   89.94716273
_cell_angle_beta   90.00000000
_cell_angle_gamma   90.00000000
_symmetry_Int_Tables_number   1
_chemical_formula_structural   Dy4Co5P12(Ir2Rh3)3
_chemical_formula_sum   'Dy4 Co5 P12 Ir6 Rh9'
_cell_volume   512.19388867
_cell_formula_units_Z   1
loop_
 _symmetry_equiv_pos_site_id
 _symmetry_equiv_pos_as_xyz
  1  'x, y, z'
loop_
 _atom_site_type_symbol
 _atom_site_label
 _atom_site_symmetry_multiplicity
 _atom_site_fract_x
 _atom_site_fract_y
 _atom_site_fract_z
 _atom_site_occupancy
  Dy  Dy0  1  0.250000  0.581520  0.709359  1
  Dy  Dy1  1  0.250000  0.916684  0.207954  1
  Dy  Dy2  1  0.750000  0.416046  0.291109  1
  Dy  Dy3  1  0.750000  0.087060  0.792245  1
  Co  Co4  1  0.750000  0.383946  0.802498  1
  Co  Co5  1  0.250000  0.462817  0.930270  1
  Co  Co6  1  0.250000  0.037875  0.434917  1
  Co  Co7  1  0.750000  0.538507  0.063601  1
  Co  Co8  1  0.750000  0.962537  0.566877  1
  P  P9  1  0.250000  0.425110  0.103534  1
  P  P10  1  0.250000  0.077855  0.607207  1
  P  P11  1  0.750000  0.566070  0.887677  1
  P  P12  1  0.750000  0.925420  0.394478  1
  P  P13  1  0.250000  0.273847  0.871148  1
  P  P14  1  0.250000  0.229576  0.371118  1
  P  P15  1  0.750000  0.729039  0.127259  1
  P  P16  1  0.750000  0.770159  0.628571  1
  P  P17  1  0.250000  0.596693  0.388366  1
  P  P18  1  0.250000  0.901773  0.887748  1
  P  P19  1  0.750000  0.401494  0.621190  1
  P  P20  1  0.750000  0.100436  0.111835  1
  Ir  Ir21  1  0.250000  0.276270  0.682014  1
  Ir  Ir22  1  0.750000  0.767021  0.821215  1
  Ir  Ir23  1  0.750000  0.729525  0.321222  1
  Ir  Ir24  1  0.250000  0.887618  0.699457  1
  Ir  Ir25  1  0.250000  0.613007  0.198268  1
  Ir  Ir26  1  0.750000  0.115916  0.302831  1
  Rh  Rh27  1  0.250000  0.716470  0.984921  1
  Rh  Rh28  1  0.250000  0.782985  0.484508  1
  Rh  Rh29  1  0.750000  0.284953  0.009476  1
  Rh  Rh30  1  0.750000  0.215917  0.520035  1
  Rh  Rh31  1  0.250000  0.406326  0.479578  1
  Rh  Rh32  1  0.250000  0.092037  0.978778  1
  Rh  Rh33  1  0.750000  0.590104  0.522157  1
  Rh  Rh34  1  0.750000  0.907962  0.019964  1
  Rh  Rh35  1  0.250000  0.229421  0.176613  1
