# generated using pymatgen
data_GdErB6Ru
_symmetry_space_group_name_H-M   'P 1'
_cell_length_a   3.66142000
_cell_length_b   9.14095200
_cell_length_c   11.53537100
_cell_angle_alpha   90.00000000
_cell_angle_beta   90.00000000
_cell_angle_gamma   90.00000000
_symmetry_Int_Tables_number   1
_chemical_formula_structural   GdErB6Ru
_chemical_formula_sum   'Gd4 Er4 B24 Ru4'
_cell_volume   386.07576863
_cell_formula_units_Z   4
loop_
 _symmetry_equiv_pos_site_id
 _symmetry_equiv_pos_as_xyz
  1  'x, y, z'
loop_
 _atom_site_type_symbol
 _atom_site_label
 _atom_site_symmetry_multiplicity
 _atom_site_fract_x
 _atom_site_fract_y
 _atom_site_fract_z
 _atom_site_occupancy
  Gd  Gd0  1  0.000000  0.322867  0.414032  1
  Gd  Gd1  1  0.000000  0.677133  0.585968  1
  Gd  Gd2  1  0.000000  0.822867  0.085968  1
  Gd  Gd3  1  0.000000  0.177133  0.914032  1
  Er  Er4  1  0.000000  0.944159  0.372477  1
  Er  Er5  1  0.000000  0.055841  0.627523  1
  Er  Er6  1  0.000000  0.444159  0.127523  1
  Er  Er7  1  0.000000  0.555841  0.872477  1
  B  B8  1  0.500000  0.554952  0.432230  1
  B  B9  1  0.500000  0.445048  0.567770  1
  B  B10  1  0.500000  0.054952  0.067770  1
  B  B11  1  0.500000  0.945048  0.932230  1
  B  B12  1  0.500000  0.748860  0.419237  1
  B  B13  1  0.500000  0.251140  0.580763  1
  B  B14  1  0.500000  0.248860  0.080763  1
  B  B15  1  0.500000  0.751140  0.919237  1
  B  B16  1  0.500000  0.791608  0.266417  1
  B  B17  1  0.500000  0.208392  0.733583  1
  B  B18  1  0.500000  0.291608  0.233583  1
  B  B19  1  0.500000  0.708392  0.766417  1
  B  B20  1  0.500000  0.631799  0.185067  1
  B  B21  1  0.500000  0.368201  0.814933  1
  B  B22  1  0.500000  0.131799  0.314933  1
  B  B23  1  0.500000  0.868201  0.685067  1
  B  B24  1  0.500000  0.984371  0.213327  1
  B  B25  1  0.500000  0.015629  0.786673  1
  B  B26  1  0.500000  0.484371  0.286673  1
  B  B27  1  0.500000  0.515629  0.713327  1
  B  B28  1  0.500000  0.606123  0.029190  1
  B  B29  1  0.500000  0.393877  0.970810  1
  B  B30  1  0.500000  0.106123  0.470810  1
  B  B31  1  0.500000  0.893877  0.529190  1
  Ru  Ru32  1  0.000000  0.639064  0.320482  1
  Ru  Ru33  1  0.000000  0.360936  0.679518  1
  Ru  Ru34  1  0.000000  0.139064  0.179518  1
  Ru  Ru35  1  0.000000  0.860936  0.820482  1
