# generated using pymatgen
data_ErZr5Fe7Co16
_symmetry_space_group_name_H-M   'P 1'
_cell_length_a   8.20365301
_cell_length_b   8.18762247
_cell_length_c   8.18788129
_cell_angle_alpha   60.14493891
_cell_angle_beta   59.93820218
_cell_angle_gamma   59.94447895
_symmetry_Int_Tables_number   1
_chemical_formula_structural   ErZr5Fe7Co16
_chemical_formula_sum   'Er1 Zr5 Fe7 Co16'
_cell_volume   388.96328421
_cell_formula_units_Z   1
loop_
 _symmetry_equiv_pos_site_id
 _symmetry_equiv_pos_as_xyz
  1  'x, y, z'
loop_
 _atom_site_type_symbol
 _atom_site_label
 _atom_site_symmetry_multiplicity
 _atom_site_fract_x
 _atom_site_fract_y
 _atom_site_fract_z
 _atom_site_occupancy
  Er  Er0  1  0.705790  0.294389  0.294314  1
  Zr  Zr1  1  0.286552  0.287683  0.713902  1
  Zr  Zr2  1  0.290188  0.709632  0.709782  1
  Zr  Zr3  1  0.711493  0.714276  0.288025  1
  Zr  Zr4  1  0.286051  0.713786  0.288179  1
  Zr  Zr5  1  0.712035  0.288154  0.713756  1
  Fe  Fe6  1  0.000985  0.501453  0.998965  1
  Fe  Fe7  1  0.001060  0.998971  0.501351  1
  Fe  Fe8  1  0.999279  0.000720  0.000703  1
  Fe  Fe9  1  0.498621  0.501349  0.998999  1
  Fe  Fe10  1  0.498662  0.998959  0.501386  1
  Fe  Fe11  1  0.499837  0.000155  0.000137  1
  Fe  Fe12  1  0.999832  0.500152  0.500169  1
  Co  Co13  1  0.122027  0.120696  0.635394  1
  Co  Co14  1  0.674743  0.973790  0.676579  1
  Co  Co15  1  0.364620  0.877804  0.878337  1
  Co  Co16  1  0.026618  0.324942  0.325065  1
  Co  Co17  1  0.977021  0.674369  0.674211  1
  Co  Co18  1  0.325782  0.325580  0.022759  1
  Co  Co19  1  0.674881  0.676644  0.973592  1
  Co  Co20  1  0.633913  0.120536  0.119915  1
  Co  Co21  1  0.674368  0.674199  0.674198  1
  Co  Co22  1  0.879683  0.874358  0.366059  1
  Co  Co23  1  0.125926  0.119905  0.120219  1
  Co  Co24  1  0.880164  0.366113  0.874097  1
  Co  Co25  1  0.878868  0.878419  0.878090  1
  Co  Co26  1  0.323414  0.325053  0.325130  1
  Co  Co27  1  0.121583  0.635328  0.121086  1
  Co  Co28  1  0.326002  0.022584  0.325601  1
