# generated using pymatgen
data_Dy2ErCd3Si2Au
_symmetry_space_group_name_H-M   'P 1'
_cell_length_a   7.23589600
_cell_length_b   7.23410275
_cell_length_c   4.32099000
_cell_angle_alpha   90.00000000
_cell_angle_beta   90.00000000
_cell_angle_gamma   120.00820043
_symmetry_Int_Tables_number   1
_chemical_formula_structural   Dy2ErCd3Si2Au
_chemical_formula_sum   'Dy2 Er1 Cd3 Si2 Au1'
_cell_volume   195.86416661
_cell_formula_units_Z   1
loop_
 _symmetry_equiv_pos_site_id
 _symmetry_equiv_pos_as_xyz
  1  'x, y, z'
loop_
 _atom_site_type_symbol
 _atom_site_label
 _atom_site_symmetry_multiplicity
 _atom_site_fract_x
 _atom_site_fract_y
 _atom_site_fract_z
 _atom_site_occupancy
  Dy  Dy0  1  0.000131  0.583044  0.000000  1
  Dy  Dy1  1  0.417087  0.416956  0.000000  1
  Er  Er2  1  0.583226  0.000000  0.000000  1
  Cd  Cd3  1  0.255043  0.000000  0.500000  1
  Cd  Cd4  1  0.999824  0.254662  0.500000  1
  Cd  Cd5  1  0.745162  0.745338  0.500000  1
  Si  Si6  1  0.333652  0.667195  0.500000  1
  Si  Si7  1  0.666458  0.332805  0.500000  1
  Au  Au8  1  0.999417  0.000000  0.000000  1
