# generated using pymatgen
data_Eu2SnPdRh
_symmetry_space_group_name_H-M   'P 1'
_cell_length_a   5.90198356
_cell_length_b   5.90198337
_cell_length_c   8.29023391
_cell_angle_alpha   77.81827122
_cell_angle_beta   77.81826982
_cell_angle_gamma   59.54149727
_symmetry_Int_Tables_number   1
_chemical_formula_structural   Eu2SnPdRh
_chemical_formula_sum   'Eu4 Sn2 Pd2 Rh2'
_cell_volume   241.45759117
_cell_formula_units_Z   2
loop_
 _symmetry_equiv_pos_site_id
 _symmetry_equiv_pos_as_xyz
  1  'x, y, z'
loop_
 _atom_site_type_symbol
 _atom_site_label
 _atom_site_symmetry_multiplicity
 _atom_site_fract_x
 _atom_site_fract_y
 _atom_site_fract_z
 _atom_site_occupancy
  Eu  Eu0  1  0.794972  0.504706  0.353836  1
  Eu  Eu1  1  0.495294  0.205028  0.146164  1
  Eu  Eu2  1  0.210440  0.499734  0.649402  1
  Eu  Eu3  1  0.500266  0.789560  0.850598  1
  Sn  Sn4  1  0.146470  0.853530  0.250000  1
  Sn  Sn5  1  0.863152  0.136848  0.750000  1
  Pd  Pd6  1  0.997874  0.276611  0.999514  1
  Pd  Pd7  1  0.723389  0.002126  0.500486  1
  Rh  Rh8  1  0.003674  0.735531  0.005008  1
  Rh  Rh9  1  0.264469  0.996326  0.494992  1
