# generated using pymatgen
data_Tm8Be3Si12Ni
_symmetry_space_group_name_H-M   'P 1'
_cell_length_a   7.83051000
_cell_length_b   7.83050949
_cell_length_c   7.89797900
_cell_angle_alpha   90.00000000
_cell_angle_beta   90.00000000
_cell_angle_gamma   120.00000214
_symmetry_Int_Tables_number   1
_chemical_formula_structural   Tm8Be3Si12Ni
_chemical_formula_sum   'Tm8 Be3 Si12 Ni1'
_cell_volume   419.39830019
_cell_formula_units_Z   1
loop_
 _symmetry_equiv_pos_site_id
 _symmetry_equiv_pos_as_xyz
  1  'x, y, z'
loop_
 _atom_site_type_symbol
 _atom_site_label
 _atom_site_symmetry_multiplicity
 _atom_site_fract_x
 _atom_site_fract_y
 _atom_site_fract_z
 _atom_site_occupancy
  Tm  Tm0  1  0.500246  0.000493  0.249428  1
  Tm  Tm1  1  0.499615  0.999229  0.750533  1
  Tm  Tm2  1  0.999507  0.499754  0.249428  1
  Tm  Tm3  1  0.000771  0.500385  0.750533  1
  Tm  Tm4  1  0.500246  0.499754  0.249428  1
  Tm  Tm5  1  0.499615  0.500385  0.750533  1
  Tm  Tm6  1  0.000000  0.000000  0.249795  1
  Tm  Tm7  1  0.000000  0.000000  0.750242  1
  Be  Be8  1  0.333333  0.666667  0.001431  1
  Be  Be9  1  0.666667  0.333333  0.998909  1
  Be  Be10  1  0.666667  0.333333  0.501258  1
  Si  Si11  1  0.172414  0.344829  0.000243  1
  Si  Si12  1  0.826822  0.653644  0.999799  1
  Si  Si13  1  0.655171  0.827586  0.000243  1
  Si  Si14  1  0.828804  0.657608  0.500409  1
  Si  Si15  1  0.346356  0.173178  0.999799  1
  Si  Si16  1  0.172573  0.345145  0.499752  1
  Si  Si17  1  0.172414  0.827586  0.000243  1
  Si  Si18  1  0.342392  0.171196  0.500409  1
  Si  Si19  1  0.826822  0.173178  0.999799  1
  Si  Si20  1  0.654855  0.827427  0.499752  1
  Si  Si21  1  0.828804  0.171196  0.500409  1
  Si  Si22  1  0.172573  0.827427  0.499752  1
  Ni  Ni23  1  0.333333  0.666667  0.497874  1
