# generated using pymatgen
data_Tb2Be2GeO7
_symmetry_space_group_name_H-M   'P 1'
_cell_length_a   7.46827900
_cell_length_b   7.46827900
_cell_length_c   4.83280400
_cell_angle_alpha   90.00000000
_cell_angle_beta   90.00000000
_cell_angle_gamma   90.00000000
_symmetry_Int_Tables_number   1
_chemical_formula_structural   Tb2Be2GeO7
_chemical_formula_sum   'Tb4 Be4 Ge2 O14'
_cell_volume   269.55056724
_cell_formula_units_Z   2
loop_
 _symmetry_equiv_pos_site_id
 _symmetry_equiv_pos_as_xyz
  1  'x, y, z'
loop_
 _atom_site_type_symbol
 _atom_site_label
 _atom_site_symmetry_multiplicity
 _atom_site_fract_x
 _atom_site_fract_y
 _atom_site_fract_z
 _atom_site_occupancy
  Tb  Tb0  1  0.341692  0.158308  0.505837  1
  Tb  Tb1  1  0.841692  0.341692  0.494163  1
  Tb  Tb2  1  0.158308  0.658308  0.494163  1
  Tb  Tb3  1  0.658308  0.841692  0.505837  1
  Be  Be4  1  0.134650  0.365350  0.953184  1
  Be  Be5  1  0.634650  0.134650  0.046816  1
  Be  Be6  1  0.365350  0.865350  0.046816  1
  Be  Be7  1  0.865350  0.634650  0.953184  1
  Ge  Ge8  1  0.000000  0.000000  0.000000  1
  Ge  Ge9  1  0.500000  0.500000  0.000000  1
  O  O10  1  0.000000  0.500000  0.815803  1
  O  O11  1  0.500000  0.000000  0.184197  1
  O  O12  1  0.141958  0.358042  0.281298  1
  O  O13  1  0.641958  0.141958  0.718702  1
  O  O14  1  0.358042  0.858042  0.718702  1
  O  O15  1  0.858042  0.641958  0.281298  1
  O  O16  1  0.081270  0.171812  0.784268  1
  O  O17  1  0.828188  0.081270  0.215732  1
  O  O18  1  0.171812  0.918730  0.215732  1
  O  O19  1  0.918730  0.828188  0.784268  1
  O  O20  1  0.581270  0.328188  0.215732  1
  O  O21  1  0.418730  0.671812  0.215732  1
  O  O22  1  0.671812  0.581270  0.784268  1
  O  O23  1  0.328188  0.418730  0.784268  1
