# generated using pymatgen
data_Ho12Tm8Sn3Pb13
_symmetry_space_group_name_H-M   'P 1'
_cell_length_a   8.13743495
_cell_length_b   15.50252000
_cell_length_c   8.18272204
_cell_angle_alpha   89.99914460
_cell_angle_beta   89.87710509
_cell_angle_gamma   90.00179161
_symmetry_Int_Tables_number   1
_chemical_formula_structural   Ho12Tm8Sn3Pb13
_chemical_formula_sum   'Ho12 Tm8 Sn3 Pb13'
_cell_volume   1032.25413157
_cell_formula_units_Z   1
loop_
 _symmetry_equiv_pos_site_id
 _symmetry_equiv_pos_as_xyz
  1  'x, y, z'
loop_
 _atom_site_type_symbol
 _atom_site_label
 _atom_site_symmetry_multiplicity
 _atom_site_fract_x
 _atom_site_fract_y
 _atom_site_fract_z
 _atom_site_occupancy
  Ho  Ho0  1  0.381242  0.377668  0.837982  1
  Ho  Ho1  1  0.876838  0.121276  0.659478  1
  Ho  Ho2  1  0.620630  0.876731  0.161545  1
  Ho  Ho3  1  0.121365  0.623066  0.338142  1
  Ho  Ho4  1  0.462706  0.601559  0.672653  1
  Ho  Ho5  1  0.963084  0.898427  0.827672  1
  Ho  Ho6  1  0.537063  0.100785  0.327342  1
  Ho  Ho7  1  0.036744  0.400142  0.175938  1
  Ho  Ho8  1  0.537118  0.399289  0.327445  1
  Ho  Ho9  1  0.036800  0.099787  0.175841  1
  Ho  Ho10  1  0.462673  0.898506  0.672578  1
  Ho  Ho11  1  0.963037  0.601483  0.827761  1
  Tm  Tm12  1  0.620776  0.623273  0.161434  1
  Tm  Tm13  1  0.121508  0.876924  0.338272  1
  Tm  Tm14  1  0.381117  0.122303  0.838092  1
  Tm  Tm15  1  0.876653  0.378750  0.659310  1
  Tm  Tm16  1  0.788775  0.749991  0.492463  1
  Tm  Tm17  1  0.288483  0.750024  0.007501  1
  Tm  Tm18  1  0.212185  0.249974  0.505719  1
  Tm  Tm19  1  0.709048  0.250001  0.993193  1
  Sn  Sn20  1  0.425287  0.749936  0.375734  1
  Sn  Sn21  1  0.925515  0.750072  0.124924  1
  Sn  Sn22  1  0.574977  0.249937  0.624212  1
  Pb  Pb23  1  0.718315  0.458364  0.967716  1
  Pb  Pb24  1  0.218226  0.041642  0.533080  1
  Pb  Pb25  1  0.282226  0.958121  0.032262  1
  Pb  Pb26  1  0.781987  0.542362  0.466427  1
  Pb  Pb27  1  0.283141  0.542360  0.032170  1
  Pb  Pb28  1  0.782850  0.957185  0.466481  1
  Pb  Pb29  1  0.717381  0.042097  0.967797  1
  Pb  Pb30  1  0.217355  0.457898  0.532976  1
  Pb  Pb31  1  0.072954  0.250076  0.874837  1
  Pb  Pb32  1  0.651820  0.749860  0.847079  1
  Pb  Pb33  1  0.152118  0.750142  0.652937  1
  Pb  Pb34  1  0.349567  0.249851  0.154047  1
  Pb  Pb35  1  0.848442  0.250138  0.346960  1
