# generated using pymatgen
data_Nd2PaSn3Pt2Rh
_symmetry_space_group_name_H-M   'P 1'
_cell_length_a   7.57221555
_cell_length_b   7.58894479
_cell_length_c   4.13085200
_cell_angle_alpha   90.00000000
_cell_angle_beta   90.00000000
_cell_angle_gamma   120.07310167
_symmetry_Int_Tables_number   1
_chemical_formula_structural   Nd2PaSn3Pt2Rh
_chemical_formula_sum   'Nd2 Pa1 Sn3 Pt2 Rh1'
_cell_volume   205.42544995
_cell_formula_units_Z   1
loop_
 _symmetry_equiv_pos_site_id
 _symmetry_equiv_pos_as_xyz
  1  'x, y, z'
loop_
 _atom_site_type_symbol
 _atom_site_label
 _atom_site_symmetry_multiplicity
 _atom_site_fract_x
 _atom_site_fract_y
 _atom_site_fract_z
 _atom_site_occupancy
  Nd  Nd0  1  0.407719  0.409724  0.000000  1
  Nd  Nd1  1  0.592281  0.002006  0.000000  1
  Pa  Pa2  1  0.000000  0.592327  0.000000  1
  Sn  Sn3  1  0.740509  0.750171  0.500000  1
  Sn  Sn4  1  0.000000  0.241984  0.500000  1
  Sn  Sn5  1  0.259491  0.009662  0.500000  1
  Pt  Pt6  1  0.694682  0.357336  0.500000  1
  Pt  Pt7  1  0.305318  0.662655  0.500000  1
  Rh  Rh8  1  0.000000  0.974134  0.000000  1
