# generated using pymatgen
data_Sr8Ga2NiN8
_symmetry_space_group_name_H-M   'P 1'
_cell_length_a   9.78289261
_cell_length_b   9.78289285
_cell_length_c   7.51631946
_cell_angle_alpha   75.49058119
_cell_angle_beta   75.49058811
_cell_angle_gamma   31.92689791
_symmetry_Int_Tables_number   1
_chemical_formula_structural   Sr8Ga2NiN8
_chemical_formula_sum   'Sr8 Ga2 Ni1 N8'
_cell_volume   367.27497050
_cell_formula_units_Z   1
loop_
 _symmetry_equiv_pos_site_id
 _symmetry_equiv_pos_as_xyz
  1  'x, y, z'
loop_
 _atom_site_type_symbol
 _atom_site_label
 _atom_site_symmetry_multiplicity
 _atom_site_fract_x
 _atom_site_fract_y
 _atom_site_fract_z
 _atom_site_occupancy
  Sr  Sr0  1  0.405158  0.405158  0.950282  1
  Sr  Sr1  1  0.329084  0.329084  0.489493  1
  Sr  Sr2  1  0.967306  0.967306  0.259384  1
  Sr  Sr3  1  0.197597  0.197597  0.184015  1
  Sr  Sr4  1  0.802403  0.802403  0.815985  1
  Sr  Sr5  1  0.032694  0.032694  0.740616  1
  Sr  Sr6  1  0.670916  0.670916  0.510507  1
  Sr  Sr7  1  0.594842  0.594842  0.049718  1
  Ga  Ga8  1  0.812176  0.812176  0.206769  1
  Ga  Ga9  1  0.187824  0.187824  0.793231  1
  Ni  Ni10  1  0.500000  0.500000  0.500000  1
  N  N11  1  0.284403  0.284403  0.838038  1
  N  N12  1  0.823261  0.823261  0.450025  1
  N  N13  1  0.100962  0.100962  0.999448  1
  N  N14  1  0.899038  0.899038  0.000552  1
  N  N15  1  0.176739  0.176739  0.549975  1
  N  N16  1  0.473479  0.473479  0.291906  1
  N  N17  1  0.715597  0.715597  0.161962  1
  N  N18  1  0.526521  0.526521  0.708094  1
