# generated using pymatgen
data_Ba10Si17Ge
_symmetry_space_group_name_H-M   'P 1'
_cell_length_a   6.66370605
_cell_length_b   6.66370495
_cell_length_c   17.90334085
_cell_angle_alpha   81.62503553
_cell_angle_beta   81.62502736
_cell_angle_gamma   100.72622599
_symmetry_Int_Tables_number   1
_chemical_formula_structural   Ba10Si17Ge
_chemical_formula_sum   'Ba10 Si17 Ge1'
_cell_volume   760.47458888
_cell_formula_units_Z   1
loop_
 _symmetry_equiv_pos_site_id
 _symmetry_equiv_pos_as_xyz
  1  'x, y, z'
loop_
 _atom_site_type_symbol
 _atom_site_label
 _atom_site_symmetry_multiplicity
 _atom_site_fract_x
 _atom_site_fract_y
 _atom_site_fract_z
 _atom_site_occupancy
  Ba  Ba0  1  0.747002  0.252351  0.000524  1
  Ba  Ba1  1  0.111108  0.580632  0.790587  1
  Ba  Ba2  1  0.288734  0.711070  0.499967  1
  Ba  Ba3  1  0.758390  0.758390  0.646149  1
  Ba  Ba4  1  0.243211  0.243211  0.352451  1
  Ba  Ba5  1  0.580632  0.111108  0.790587  1
  Ba  Ba6  1  0.252351  0.747002  0.000524  1
  Ba  Ba7  1  0.711070  0.288734  0.499967  1
  Ba  Ba8  1  0.418476  0.888980  0.209488  1
  Ba  Ba9  1  0.888980  0.418476  0.209488  1
  Si  Si10  1  0.221162  0.221162  0.069092  1
  Si  Si11  1  0.926491  0.926491  0.263419  1
  Si  Si12  1  0.072567  0.072567  0.736921  1
  Si  Si13  1  0.781203  0.781203  0.932801  1
  Si  Si14  1  0.348146  0.348146  0.647936  1
  Si  Si15  1  0.287418  0.287418  0.932763  1
  Si  Si16  1  0.938698  0.938698  0.130393  1
  Si  Si17  1  0.651606  0.651606  0.352444  1
  Si  Si18  1  0.426313  0.426313  0.142082  1
  Si  Si19  1  0.060725  0.060725  0.870193  1
  Si  Si20  1  0.817143  0.817143  0.450013  1
  Si  Si21  1  0.328957  0.972318  0.643345  1
  Si  Si22  1  0.670798  0.027567  0.356674  1
  Si  Si23  1  0.182838  0.182838  0.550034  1
  Si  Si24  1  0.972318  0.328957  0.643345  1
  Si  Si25  1  0.027567  0.670798  0.356674  1
  Si  Si26  1  0.708013  0.708013  0.068841  1
  Ge  Ge27  1  0.578083  0.578083  0.853298  1
