# generated using pymatgen
data_Cs4Mn3Cr5S16
_symmetry_space_group_name_H-M   'P 1'
_cell_length_a   6.14943242
_cell_length_b   7.12156491
_cell_length_c   16.24749800
_cell_angle_alpha   89.98642742
_cell_angle_beta   89.87593144
_cell_angle_gamma   89.97430587
_symmetry_Int_Tables_number   1
_chemical_formula_structural   Cs4Mn3Cr5S16
_chemical_formula_sum   'Cs4 Mn3 Cr5 S16'
_cell_volume   711.53437879
_cell_formula_units_Z   1
loop_
 _symmetry_equiv_pos_site_id
 _symmetry_equiv_pos_as_xyz
  1  'x, y, z'
loop_
 _atom_site_type_symbol
 _atom_site_label
 _atom_site_symmetry_multiplicity
 _atom_site_fract_x
 _atom_site_fract_y
 _atom_site_fract_z
 _atom_site_occupancy
  Cs  Cs0  1  0.355251  0.002169  0.998616  1
  Cs  Cs1  1  0.644751  0.497836  0.501391  1
  Cs  Cs2  1  0.031822  0.000763  0.500653  1
  Cs  Cs3  1  0.968190  0.499243  0.999343  1
  Mn  Mn4  1  0.499998  0.250000  0.250002  1
  Mn  Mn5  1  0.500023  0.750010  0.749993  1
  Mn  Mn6  1  0.500002  0.749998  0.250000  1
  Cr  Cr7  1  0.001793  0.999935  0.249712  1
  Cr  Cr8  1  0.002160  0.996812  0.750361  1
  Cr  Cr9  1  0.998215  0.500073  0.250296  1
  Cr  Cr10  1  0.997795  0.503173  0.749619  1
  Cr  Cr11  1  0.499943  0.249955  0.749998  1
  S  S12  1  0.828823  0.249606  0.327535  1
  S  S13  1  0.826966  0.750676  0.671116  1
  S  S14  1  0.171273  0.749729  0.172355  1
  S  S15  1  0.161729  0.250297  0.827076  1
  S  S16  1  0.171176  0.250400  0.172469  1
  S  S17  1  0.173063  0.749297  0.828884  1
  S  S18  1  0.828724  0.750275  0.327650  1
  S  S19  1  0.838278  0.249739  0.672928  1
  S  S20  1  0.667157  0.999994  0.173521  1
  S  S21  1  0.668816  0.995764  0.827120  1
  S  S22  1  0.332845  0.500013  0.326484  1
  S  S23  1  0.331183  0.504232  0.672878  1
  S  S24  1  0.341337  0.999975  0.326224  1
  S  S25  1  0.340507  0.995824  0.672949  1
  S  S26  1  0.658668  0.500026  0.173778  1
  S  S27  1  0.659511  0.504187  0.827048  1
