# generated using pymatgen
data_NdSm2Er7Pt8
_symmetry_space_group_name_H-M   'P 1'
_cell_length_a   7.46544893
_cell_length_b   7.54198966
_cell_length_c   14.74929300
_cell_angle_alpha   90.01107629
_cell_angle_beta   90.02853488
_cell_angle_gamma   89.97866238
_symmetry_Int_Tables_number   1
_chemical_formula_structural   NdSm2Er7Pt8
_chemical_formula_sum   'Nd2 Sm4 Er14 Pt16'
_cell_volume   830.44901161
_cell_formula_units_Z   2
loop_
 _symmetry_equiv_pos_site_id
 _symmetry_equiv_pos_as_xyz
  1  'x, y, z'
loop_
 _atom_site_type_symbol
 _atom_site_label
 _atom_site_symmetry_multiplicity
 _atom_site_fract_x
 _atom_site_fract_y
 _atom_site_fract_z
 _atom_site_occupancy
  Nd  Nd0  1  0.498151  0.678611  0.907239  1
  Nd  Nd1  1  0.998113  0.821324  0.592947  1
  Sm  Sm2  1  0.501139  0.321788  0.093289  1
  Sm  Sm3  1  0.000908  0.178272  0.406663  1
  Sm  Sm4  1  0.501413  0.323896  0.407380  1
  Sm  Sm5  1  0.001350  0.175913  0.092274  1
  Er  Er6  1  0.654021  0.167967  0.623327  1
  Er  Er7  1  0.154202  0.332135  0.876769  1
  Er  Er8  1  0.345116  0.832930  0.122991  1
  Er  Er9  1  0.845227  0.666922  0.376899  1
  Er  Er10  1  0.347041  0.831151  0.377747  1
  Er  Er11  1  0.847042  0.668830  0.122154  1
  Er  Er12  1  0.655997  0.167237  0.877140  1
  Er  Er13  1  0.155876  0.332946  0.622994  1
  Er  Er14  1  0.500508  0.679497  0.594377  1
  Er  Er15  1  0.000498  0.820507  0.905714  1
  Er  Er16  1  0.817458  0.509956  0.749949  1
  Er  Er17  1  0.317484  0.990159  0.750296  1
  Er  Er18  1  0.182203  0.489802  0.249649  1
  Er  Er19  1  0.681986  0.010138  0.250074  1
  Pt  Pt20  1  0.680702  0.962522  0.459126  1
  Pt  Pt21  1  0.180850  0.537523  0.040810  1
  Pt  Pt22  1  0.312782  0.033280  0.957384  1
  Pt  Pt23  1  0.812935  0.466962  0.542702  1
  Pt  Pt24  1  0.320957  0.032550  0.543346  1
  Pt  Pt25  1  0.821053  0.467285  0.956842  1
  Pt  Pt26  1  0.683041  0.963657  0.040423  1
  Pt  Pt27  1  0.183331  0.536212  0.459382  1
  Pt  Pt28  1  0.451523  0.383557  0.749036  1
  Pt  Pt29  1  0.951369  0.116590  0.751297  1
  Pt  Pt30  1  0.548823  0.618664  0.249770  1
  Pt  Pt31  1  0.048579  0.881407  0.249917  1
  Pt  Pt32  1  0.680430  0.858396  0.748660  1
  Pt  Pt33  1  0.180399  0.641724  0.751907  1
  Pt  Pt34  1  0.318544  0.140564  0.249842  1
  Pt  Pt35  1  0.818950  0.359125  0.249687  1
