# generated using pymatgen
data_Cs6KRb2AlBi4
_symmetry_space_group_name_H-M   'P 1'
_cell_length_a   11.43375700
_cell_length_b   11.52040179
_cell_length_c   12.07457700
_cell_angle_alpha   90.00000000
_cell_angle_beta   90.00000000
_cell_angle_gamma   119.75151519
_symmetry_Int_Tables_number   1
_chemical_formula_structural   Cs6KRb2AlBi4
_chemical_formula_sum   'Cs12 K2 Rb4 Al2 Bi8'
_cell_volume   1380.83292373
_cell_formula_units_Z   2
loop_
 _symmetry_equiv_pos_site_id
 _symmetry_equiv_pos_as_xyz
  1  'x, y, z'
loop_
 _atom_site_type_symbol
 _atom_site_label
 _atom_site_symmetry_multiplicity
 _atom_site_fract_x
 _atom_site_fract_y
 _atom_site_fract_z
 _atom_site_occupancy
  Cs  Cs0  1  0.209489  0.791459  0.956805  1
  Cs  Cs1  1  0.208730  0.417460  0.956281  1
  Cs  Cs2  1  0.581970  0.791459  0.956805  1
  Cs  Cs3  1  0.417908  0.208954  0.458649  1
  Cs  Cs4  1  0.790645  0.581290  0.042417  1
  Cs  Cs5  1  0.791046  0.208954  0.458649  1
  Cs  Cs6  1  0.790645  0.581290  0.457583  1
  Cs  Cs7  1  0.209489  0.791459  0.543195  1
  Cs  Cs8  1  0.581970  0.791459  0.543195  1
  Cs  Cs9  1  0.417908  0.208954  0.041351  1
  Cs  Cs10  1  0.791046  0.208954  0.041351  1
  Cs  Cs11  1  0.208730  0.417460  0.543719  1
  K  K12  1  0.239162  0.120144  0.750000  1
  K  K13  1  0.880983  0.120144  0.750000  1
  Rb  Rb14  1  0.761602  0.880850  0.250000  1
  Rb  Rb15  1  0.119523  0.239047  0.250000  1
  Rb  Rb16  1  0.119248  0.880850  0.250000  1
  Rb  Rb17  1  0.881180  0.762360  0.750000  1
  Al  Al18  1  0.333643  0.667286  0.250000  1
  Al  Al19  1  0.666331  0.332662  0.750000  1
  Bi  Bi20  1  0.001250  0.002500  0.995339  1
  Bi  Bi21  1  0.052144  0.526475  0.250000  1
  Bi  Bi22  1  0.473474  0.946947  0.250000  1
  Bi  Bi23  1  0.526838  0.053677  0.750000  1
  Bi  Bi24  1  0.522395  0.469467  0.750000  1
  Bi  Bi25  1  0.001250  0.002500  0.504661  1
  Bi  Bi26  1  0.474331  0.526475  0.250000  1
  Bi  Bi27  1  0.947072  0.469467  0.750000  1
