# generated using pymatgen
data_Tb3Pr4Nd4In9Pd4
_symmetry_space_group_name_H-M   'P 1'
_cell_length_a   13.49887736
_cell_length_b   13.49887600
_cell_length_c   3.75781300
_cell_angle_alpha   90.00000000
_cell_angle_beta   90.00000000
_cell_angle_gamma   111.49476278
_symmetry_Int_Tables_number   1
_chemical_formula_structural   Tb3Pr4Nd4In9Pd4
_chemical_formula_sum   'Tb3 Pr4 Nd4 In9 Pd4'
_cell_volume   637.12399452
_cell_formula_units_Z   1
loop_
 _symmetry_equiv_pos_site_id
 _symmetry_equiv_pos_as_xyz
  1  'x, y, z'
loop_
 _atom_site_type_symbol
 _atom_site_label
 _atom_site_symmetry_multiplicity
 _atom_site_fract_x
 _atom_site_fract_y
 _atom_site_fract_z
 _atom_site_occupancy
  Tb  Tb0  1  0.627194  0.372806  0.000000  1
  Tb  Tb1  1  0.313120  0.311563  0.000000  1
  Tb  Tb2  1  0.688437  0.686880  0.000000  1
  Pr  Pr3  1  0.158839  0.841161  0.000000  1
  Pr  Pr4  1  0.840391  0.159606  0.000000  1
  Pr  Pr5  1  0.372464  0.627537  0.000000  1
  Pr  Pr6  1  0.000100  0.999897  0.000000  1
  Nd  Nd7  1  0.416973  0.070813  0.000000  1
  Nd  Nd8  1  0.584250  0.931566  0.000000  1
  Nd  Nd9  1  0.068436  0.415749  0.000000  1
  Nd  Nd10  1  0.929188  0.583027  0.000000  1
  In  In11  1  0.368543  0.839405  0.500000  1
  In  In12  1  0.631393  0.164753  0.500000  1
  In  In13  1  0.835246  0.368607  0.500000  1
  In  In14  1  0.160595  0.631458  0.500000  1
  In  In15  1  0.221516  0.081710  0.500000  1
  In  In16  1  0.779639  0.919107  0.500000  1
  In  In17  1  0.080892  0.220361  0.500000  1
  In  In18  1  0.918290  0.778484  0.500000  1
  In  In19  1  0.501794  0.498206  0.500000  1
  Pd  Pd20  1  0.451855  0.253703  0.500000  1
  Pd  Pd21  1  0.555589  0.751044  0.500000  1
  Pd  Pd22  1  0.248961  0.444411  0.500000  1
  Pd  Pd23  1  0.746298  0.548146  0.500000  1
