# generated using pymatgen
data_Dy5Ho14LuSn16
_symmetry_space_group_name_H-M   'P 1'
_cell_length_a   8.01074904
_cell_length_b   8.14520399
_cell_length_c   15.42208706
_cell_angle_alpha   90.00254627
_cell_angle_beta   89.98998868
_cell_angle_gamma   89.94550660
_symmetry_Int_Tables_number   1
_chemical_formula_structural   Dy5Ho14LuSn16
_chemical_formula_sum   'Dy5 Ho14 Lu1 Sn16'
_cell_volume   1006.27814056
_cell_formula_units_Z   1
loop_
 _symmetry_equiv_pos_site_id
 _symmetry_equiv_pos_as_xyz
  1  'x, y, z'
loop_
 _atom_site_type_symbol
 _atom_site_label
 _atom_site_symmetry_multiplicity
 _atom_site_fract_x
 _atom_site_fract_y
 _atom_site_fract_z
 _atom_site_occupancy
  Dy  Dy0  1  0.979158  0.820635  0.097415  1
  Dy  Dy1  1  0.479244  0.679330  0.097054  1
  Dy  Dy2  1  0.979163  0.820625  0.402605  1
  Dy  Dy3  1  0.520818  0.321057  0.597525  1
  Dy  Dy4  1  0.021246  0.179594  0.902408  1
  Ho  Ho5  1  0.367613  0.836912  0.877528  1
  Ho  Ho6  1  0.868137  0.662688  0.622387  1
  Ho  Ho7  1  0.632079  0.163042  0.377840  1
  Ho  Ho8  1  0.132140  0.337031  0.121662  1
  Ho  Ho9  1  0.632072  0.163072  0.122147  1
  Ho  Ho10  1  0.132130  0.337045  0.378361  1
  Ho  Ho11  1  0.367615  0.836908  0.622456  1
  Ho  Ho12  1  0.868107  0.662660  0.877606  1
  Ho  Ho13  1  0.520841  0.321051  0.902413  1
  Ho  Ho14  1  0.021286  0.179579  0.597647  1
  Ho  Ho15  1  0.479212  0.679332  0.402886  1
  Ho  Ho16  1  0.698662  0.997213  0.749990  1
  Ho  Ho17  1  0.800934  0.496701  0.250041  1
  Ho  Ho18  1  0.301013  0.003119  0.250008  1
  Lu  Lu19  1  0.198977  0.503490  0.750004  1
  Sn  Sn20  1  0.292580  0.036137  0.041471  1
  Sn  Sn21  1  0.792308  0.463649  0.458437  1
  Sn  Sn22  1  0.707778  0.963954  0.541930  1
  Sn  Sn23  1  0.207750  0.535841  0.957166  1
  Sn  Sn24  1  0.707588  0.963938  0.958088  1
  Sn  Sn25  1  0.207649  0.535914  0.542773  1
  Sn  Sn26  1  0.292539  0.036115  0.458572  1
  Sn  Sn27  1  0.792346  0.463503  0.041495  1
  Sn  Sn28  1  0.563747  0.617860  0.749999  1
  Sn  Sn29  1  0.065658  0.880330  0.749993  1
  Sn  Sn30  1  0.433927  0.380973  0.250000  1
  Sn  Sn31  1  0.934507  0.119162  0.250010  1
  Sn  Sn32  1  0.329822  0.149897  0.750041  1
  Sn  Sn33  1  0.831097  0.352535  0.749956  1
  Sn  Sn34  1  0.669884  0.851875  0.250059  1
  Sn  Sn35  1  0.170372  0.647238  0.250027  1
