# generated using pymatgen
data_Tm8Lu12Bi11Pd
_symmetry_space_group_name_H-M   'P 1'
_cell_length_a   8.08956403
_cell_length_b   9.36840100
_cell_length_c   11.84779700
_cell_angle_alpha   90.00000000
_cell_angle_beta   89.61143421
_cell_angle_gamma   90.00000000
_symmetry_Int_Tables_number   1
_chemical_formula_structural   Tm8Lu12Bi11Pd
_chemical_formula_sum   'Tm8 Lu12 Bi11 Pd1'
_cell_volume   897.87980946
_cell_formula_units_Z   1
loop_
 _symmetry_equiv_pos_site_id
 _symmetry_equiv_pos_as_xyz
  1  'x, y, z'
loop_
 _atom_site_type_symbol
 _atom_site_label
 _atom_site_symmetry_multiplicity
 _atom_site_fract_x
 _atom_site_fract_y
 _atom_site_fract_z
 _atom_site_occupancy
  Tm  Tm0  1  0.356077  0.250000  0.299724  1
  Tm  Tm1  1  0.656596  0.750000  0.716717  1
  Tm  Tm2  1  0.147575  0.750000  0.780865  1
  Tm  Tm3  1  0.846202  0.250000  0.214821  1
  Tm  Tm4  1  0.201198  0.250000  0.777954  1
  Tm  Tm5  1  0.808356  0.750000  0.216169  1
  Tm  Tm6  1  0.312961  0.750000  0.282572  1
  Tm  Tm7  1  0.660773  0.250000  0.705797  1
  Lu  Lu8  1  0.042381  0.250000  0.506697  1
  Lu  Lu9  1  0.985369  0.750000  0.492040  1
  Lu  Lu10  1  0.477853  0.750000  0.011849  1
  Lu  Lu11  1  0.524402  0.250000  0.989880  1
  Lu  Lu12  1  0.191535  0.067538  0.062971  1
  Lu  Lu13  1  0.807737  0.932768  0.941440  1
  Lu  Lu14  1  0.313058  0.959541  0.558474  1
  Lu  Lu15  1  0.807737  0.567232  0.941440  1
  Lu  Lu16  1  0.681852  0.072999  0.446848  1
  Lu  Lu17  1  0.191535  0.432462  0.062971  1
  Lu  Lu18  1  0.681852  0.427001  0.446848  1
  Lu  Lu19  1  0.313058  0.540459  0.558474  1
  Bi  Bi20  1  0.597223  0.750000  0.457698  1
  Bi  Bi21  1  0.098877  0.750000  0.042855  1
  Bi  Bi22  1  0.905627  0.250000  0.951694  1
  Bi  Bi23  1  0.057012  0.001157  0.322810  1
  Bi  Bi24  1  0.935578  0.000606  0.675063  1
  Bi  Bi25  1  0.436816  0.993201  0.827447  1
  Bi  Bi26  1  0.935578  0.499394  0.675063  1
  Bi  Bi27  1  0.562049  0.004728  0.174762  1
  Bi  Bi28  1  0.057012  0.498843  0.322810  1
  Bi  Bi29  1  0.562049  0.495272  0.174762  1
  Bi  Bi30  1  0.436816  0.506799  0.827447  1
  Pd  Pd31  1  0.407252  0.250000  0.533038  1
