# generated using pymatgen
data_Tb2Dy2Ga16Co3
_symmetry_space_group_name_H-M   'P 1'
_cell_length_a   6.03453700
_cell_length_b   6.03453700
_cell_length_c   11.12977800
_cell_angle_alpha   90.00000000
_cell_angle_beta   90.00000000
_cell_angle_gamma   90.00000000
_symmetry_Int_Tables_number   1
_chemical_formula_structural   Tb2Dy2Ga16Co3
_chemical_formula_sum   'Tb2 Dy2 Ga16 Co3'
_cell_volume   405.29795336
_cell_formula_units_Z   1
loop_
 _symmetry_equiv_pos_site_id
 _symmetry_equiv_pos_as_xyz
  1  'x, y, z'
loop_
 _atom_site_type_symbol
 _atom_site_label
 _atom_site_symmetry_multiplicity
 _atom_site_fract_x
 _atom_site_fract_y
 _atom_site_fract_z
 _atom_site_occupancy
  Tb  Tb0  1  0.500000  0.000000  0.805431  1
  Tb  Tb1  1  0.000000  0.500000  0.805431  1
  Dy  Dy2  1  0.500000  0.000000  0.194987  1
  Dy  Dy3  1  0.000000  0.500000  0.194987  1
  Ga  Ga4  1  0.249721  0.249721  0.614734  1
  Ga  Ga5  1  0.750279  0.750279  0.614734  1
  Ga  Ga6  1  0.750279  0.249721  0.614734  1
  Ga  Ga7  1  0.249721  0.750279  0.614734  1
  Ga  Ga8  1  0.750281  0.750281  0.384623  1
  Ga  Ga9  1  0.249719  0.249719  0.384623  1
  Ga  Ga10  1  0.249719  0.750281  0.384623  1
  Ga  Ga11  1  0.750281  0.249719  0.384623  1
  Ga  Ga12  1  0.280267  0.280267  0.000647  1
  Ga  Ga13  1  0.719733  0.719733  0.000647  1
  Ga  Ga14  1  0.719733  0.280267  0.000647  1
  Ga  Ga15  1  0.280267  0.719733  0.000647  1
  Ga  Ga16  1  0.500000  0.500000  0.805932  1
  Ga  Ga17  1  0.500000  0.500000  0.194452  1
  Ga  Ga18  1  0.000000  0.000000  0.782287  1
  Ga  Ga19  1  0.000000  0.000000  0.217284  1
  Co  Co20  1  0.500000  0.000000  0.499643  1
  Co  Co21  1  0.000000  0.500000  0.499643  1
  Co  Co22  1  0.000000  0.000000  0.999908  1
