# generated using pymatgen
data_Sr3MgNiO6
_symmetry_space_group_name_H-M   'P 1'
_cell_length_a   6.62009435
_cell_length_b   6.62009496
_cell_length_c   6.62009486
_cell_angle_alpha   93.11729512
_cell_angle_beta   93.11729594
_cell_angle_gamma   93.11729190
_symmetry_Int_Tables_number   1
_chemical_formula_structural   Sr3MgNiO6
_chemical_formula_sum   'Sr6 Mg2 Ni2 O12'
_cell_volume   288.79328375
_cell_formula_units_Z   2
loop_
 _symmetry_equiv_pos_site_id
 _symmetry_equiv_pos_as_xyz
  1  'x, y, z'
loop_
 _atom_site_type_symbol
 _atom_site_label
 _atom_site_symmetry_multiplicity
 _atom_site_fract_x
 _atom_site_fract_y
 _atom_site_fract_z
 _atom_site_occupancy
  Sr  Sr0  1  0.884264  0.615736  0.250000  1
  Sr  Sr1  1  0.250000  0.884264  0.615736  1
  Sr  Sr2  1  0.615736  0.250000  0.884264  1
  Sr  Sr3  1  0.750000  0.115736  0.384264  1
  Sr  Sr4  1  0.384264  0.750000  0.115736  1
  Sr  Sr5  1  0.115736  0.384264  0.750000  1
  Mg  Mg6  1  0.250000  0.250000  0.250000  1
  Mg  Mg7  1  0.750000  0.750000  0.750000  1
  Ni  Ni8  1  0.500000  0.500000  0.500000  1
  Ni  Ni9  1  0.000000  0.000000  0.000000  1
  O  O10  1  0.223000  0.536936  0.411269  1
  O  O11  1  0.411269  0.223000  0.536936  1
  O  O12  1  0.536936  0.411269  0.223000  1
  O  O13  1  0.911269  0.036936  0.723000  1
  O  O14  1  0.723000  0.911269  0.036936  1
  O  O15  1  0.036936  0.723000  0.911269  1
  O  O16  1  0.777000  0.463064  0.588731  1
  O  O17  1  0.588731  0.777000  0.463064  1
  O  O18  1  0.463064  0.588731  0.777000  1
  O  O19  1  0.088731  0.963064  0.277000  1
  O  O20  1  0.277000  0.088731  0.963064  1
  O  O21  1  0.963064  0.277000  0.088731  1
