# generated using pymatgen
data_CaLu3(B6Os)2
_symmetry_space_group_name_H-M   'P 1'
_cell_length_a   3.60128100
_cell_length_b   9.07407938
_cell_length_c   11.46591829
_cell_angle_alpha   89.85398084
_cell_angle_beta   90.00000000
_cell_angle_gamma   90.00000000
_symmetry_Int_Tables_number   1
_chemical_formula_structural   CaLu3(B6Os)2
_chemical_formula_sum   'Ca2 Lu6 B24 Os4'
_cell_volume   374.68561175
_cell_formula_units_Z   2
loop_
 _symmetry_equiv_pos_site_id
 _symmetry_equiv_pos_as_xyz
  1  'x, y, z'
loop_
 _atom_site_type_symbol
 _atom_site_label
 _atom_site_symmetry_multiplicity
 _atom_site_fract_x
 _atom_site_fract_y
 _atom_site_fract_z
 _atom_site_occupancy
  Ca  Ca0  1  0.000000  0.323392  0.414319  1
  Ca  Ca1  1  0.000000  0.676608  0.585681  1
  Lu  Lu2  1  0.000000  0.821748  0.086441  1
  Lu  Lu3  1  0.000000  0.178252  0.913559  1
  Lu  Lu4  1  0.000000  0.942972  0.370212  1
  Lu  Lu5  1  0.000000  0.057028  0.629788  1
  Lu  Lu6  1  0.000000  0.443474  0.128967  1
  Lu  Lu7  1  0.000000  0.556526  0.871033  1
  B  B8  1  0.500000  0.554502  0.431760  1
  B  B9  1  0.500000  0.445498  0.568240  1
  B  B10  1  0.500000  0.053265  0.065695  1
  B  B11  1  0.500000  0.946735  0.934305  1
  B  B12  1  0.500000  0.749920  0.417312  1
  B  B13  1  0.500000  0.250080  0.582688  1
  B  B14  1  0.500000  0.249223  0.079818  1
  B  B15  1  0.500000  0.750777  0.920182  1
  B  B16  1  0.500000  0.793058  0.263564  1
  B  B17  1  0.500000  0.206942  0.736435  1
  B  B18  1  0.500000  0.291159  0.232963  1
  B  B19  1  0.500000  0.708841  0.767038  1
  B  B20  1  0.500000  0.631803  0.183595  1
  B  B21  1  0.500000  0.368197  0.816405  1
  B  B22  1  0.500000  0.130063  0.313519  1
  B  B23  1  0.500000  0.869937  0.686481  1
  B  B24  1  0.500000  0.981858  0.211259  1
  B  B25  1  0.500000  0.018142  0.788741  1
  B  B26  1  0.500000  0.483666  0.286341  1
  B  B27  1  0.500000  0.516334  0.713659  1
  B  B28  1  0.500000  0.603204  0.028304  1
  B  B29  1  0.500000  0.396796  0.971696  1
  B  B30  1  0.500000  0.097861  0.473029  1
  B  B31  1  0.500000  0.902139  0.526971  1
  Os  Os32  1  0.000000  0.641497  0.316943  1
  Os  Os33  1  0.000000  0.358503  0.683057  1
  Os  Os34  1  0.000000  0.136515  0.176810  1
  Os  Os35  1  0.000000  0.863485  0.823190  1
