# generated using pymatgen
data_Ta12V6Rh6CN3
_symmetry_space_group_name_H-M   'P 1'
_cell_length_a   8.28240467
_cell_length_b   8.27477426
_cell_length_c   8.28240562
_cell_angle_alpha   119.74679195
_cell_angle_beta   120.23445258
_cell_angle_gamma   90.04299524
_symmetry_Int_Tables_number   1
_chemical_formula_structural   Ta12V6Rh6CN3
_chemical_formula_sum   'Ta12 V6 Rh6 C1 N3'
_cell_volume   401.33426466
_cell_formula_units_Z   1
loop_
 _symmetry_equiv_pos_site_id
 _symmetry_equiv_pos_as_xyz
  1  'x, y, z'
loop_
 _atom_site_type_symbol
 _atom_site_label
 _atom_site_symmetry_multiplicity
 _atom_site_fract_x
 _atom_site_fract_y
 _atom_site_fract_z
 _atom_site_occupancy
  Ta  Ta0  1  0.069955  0.570219  0.500264  1
  Ta  Ta1  1  0.686777  0.187307  0.500530  1
  Ta  Ta2  1  0.064353  0.179895  0.497999  1
  Ta  Ta3  1  0.682118  0.567816  0.502692  1
  Ta  Ta4  1  0.681898  0.179895  0.115543  1
  Ta  Ta5  1  0.065124  0.567816  0.885699  1
  Ta  Ta6  1  0.440329  0.439749  0.999420  1
  Ta  Ta7  1  0.814905  0.815029  0.000124  1
  Ta  Ta8  1  0.437064  0.812378  0.995880  1
  Ta  Ta9  1  0.816561  0.439660  0.003493  1
  Ta  Ta10  1  0.816498  0.812378  0.375311  1
  Ta  Ta11  1  0.436166  0.439660  0.623100  1
  V  V12  1  0.750571  0.002736  0.748403  1
  V  V13  1  0.254333  0.002736  0.252164  1
  V  V14  1  0.250807  0.500343  0.249535  1
  V  V15  1  0.250539  0.001226  0.750687  1
  V  V16  1  0.123639  0.790757  0.333107  1
  V  V17  1  0.457650  0.790757  0.667118  1
  Rh  Rh18  1  0.454172  0.116521  0.662350  1
  Rh  Rh19  1  0.454686  0.792342  0.337656  1
  Rh  Rh20  1  0.374702  0.208643  0.165843  1
  Rh  Rh21  1  0.042800  0.208643  0.833941  1
  Rh  Rh22  1  0.039055  0.865787  0.826731  1
  Rh  Rh23  1  0.039039  0.211693  0.172653  1
  C  C24  1  0.748649  0.498634  0.749985  1
  N  N25  1  0.251408  0.499420  0.751626  1
  N  N26  1  0.747795  0.499420  0.248012  1
  N  N27  1  0.748406  0.998541  0.250135  1
