# generated using pymatgen
data_LaSm2Gd3OsI10
_symmetry_space_group_name_H-M   'P 1'
_cell_length_a   7.90575665
_cell_length_b   9.94398666
_cell_length_c   9.86915355
_cell_angle_alpha   107.10598019
_cell_angle_beta   96.37226440
_cell_angle_gamma   105.48363388
_symmetry_Int_Tables_number   1
_chemical_formula_structural   LaSm2Gd3OsI10
_chemical_formula_sum   'La1 Sm2 Gd3 Os1 I10'
_cell_volume   699.33586340
_cell_formula_units_Z   1
loop_
 _symmetry_equiv_pos_site_id
 _symmetry_equiv_pos_as_xyz
  1  'x, y, z'
loop_
 _atom_site_type_symbol
 _atom_site_label
 _atom_site_symmetry_multiplicity
 _atom_site_fract_x
 _atom_site_fract_y
 _atom_site_fract_z
 _atom_site_occupancy
  La  La0  1  0.615288  0.042812  0.268578  1
  Sm  Sm1  1  0.142248  0.868282  0.326857  1
  Sm  Sm2  1  0.386800  0.958228  0.728756  1
  Gd  Gd3  1  0.471260  0.291753  0.589967  1
  Gd  Gd4  1  0.530627  0.709391  0.414031  1
  Gd  Gd5  1  0.855404  0.129752  0.670619  1
  Os  Os6  1  0.502889  0.001616  0.493339  1
  I  I7  1  0.414932  0.631732  0.680884  1
  I  I8  1  0.583978  0.378799  0.326791  1
  I  I9  1  0.284053  0.256176  0.845777  1
  I  I10  1  0.711429  0.731319  0.152047  1
  I  I11  1  0.853669  0.452007  0.772303  1
  I  I12  1  0.149478  0.544926  0.229925  1
  I  I13  1  0.052476  0.184335  0.414420  1
  I  I14  1  0.232340  0.911570  0.038474  1
  I  I15  1  0.756099  0.085915  0.954146  1
  I  I16  1  0.957033  0.821390  0.593089  1
