# generated using pymatgen
data_Y4CoAg
_symmetry_space_group_name_H-M   'P 1'
_cell_length_a   9.47218489
_cell_length_b   9.47218494
_cell_length_c   9.47218600
_cell_angle_alpha   60.00000329
_cell_angle_beta   60.00000311
_cell_angle_gamma   60.00000427
_symmetry_Int_Tables_number   1
_chemical_formula_structural   Y4CoAg
_chemical_formula_sum   'Y16 Co4 Ag4'
_cell_volume   600.94619553
_cell_formula_units_Z   4
loop_
 _symmetry_equiv_pos_site_id
 _symmetry_equiv_pos_as_xyz
  1  'x, y, z'
loop_
 _atom_site_type_symbol
 _atom_site_label
 _atom_site_symmetry_multiplicity
 _atom_site_fract_x
 _atom_site_fract_y
 _atom_site_fract_z
 _atom_site_occupancy
  Y  Y0  1  0.347800  0.347800  0.347800  1
  Y  Y1  1  0.347800  0.347800  0.956600  1
  Y  Y2  1  0.347800  0.956600  0.347800  1
  Y  Y3  1  0.956600  0.347800  0.347800  1
  Y  Y4  1  0.811264  0.188736  0.188736  1
  Y  Y5  1  0.188736  0.811264  0.811264  1
  Y  Y6  1  0.188736  0.811264  0.188736  1
  Y  Y7  1  0.811264  0.188736  0.811264  1
  Y  Y8  1  0.188736  0.188736  0.811264  1
  Y  Y9  1  0.811264  0.811264  0.188736  1
  Y  Y10  1  0.937344  0.562656  0.562656  1
  Y  Y11  1  0.562656  0.937344  0.937344  1
  Y  Y12  1  0.562656  0.937344  0.562656  1
  Y  Y13  1  0.937344  0.562656  0.937344  1
  Y  Y14  1  0.562656  0.562656  0.937344  1
  Y  Y15  1  0.937344  0.937344  0.562656  1
  Co  Co16  1  0.141128  0.141128  0.141128  1
  Co  Co17  1  0.141128  0.141128  0.576616  1
  Co  Co18  1  0.141128  0.576616  0.141128  1
  Co  Co19  1  0.576616  0.141128  0.141128  1
  Ag  Ag20  1  0.580682  0.580682  0.580682  1
  Ag  Ag21  1  0.580682  0.580682  0.257955  1
  Ag  Ag22  1  0.580682  0.257955  0.580682  1
  Ag  Ag23  1  0.257955  0.580682  0.580682  1
