# generated using pymatgen
data_SmErNp6F30
_symmetry_space_group_name_H-M   'P 1'
_cell_length_a   8.59114319
_cell_length_b   8.59114275
_cell_length_c   8.62771600
_cell_angle_alpha   79.33994261
_cell_angle_beta   79.33993638
_cell_angle_gamma   99.86171813
_symmetry_Int_Tables_number   1
_chemical_formula_structural   SmErNp6F30
_chemical_formula_sum   'Sm1 Er1 Np6 F30'
_cell_volume   600.92023105
_cell_formula_units_Z   1
loop_
 _symmetry_equiv_pos_site_id
 _symmetry_equiv_pos_as_xyz
  1  'x, y, z'
loop_
 _atom_site_type_symbol
 _atom_site_label
 _atom_site_symmetry_multiplicity
 _atom_site_fract_x
 _atom_site_fract_y
 _atom_site_fract_z
 _atom_site_occupancy
  Sm  Sm0  1  0.821943  0.178057  0.750000  1
  Er  Er1  1  0.177711  0.822289  0.250000  1
  Np  Np2  1  0.749638  0.250362  0.250000  1
  Np  Np3  1  0.250055  0.749945  0.750000  1
  Np  Np4  1  0.755590  0.678957  0.675343  1
  Np  Np5  1  0.321043  0.244410  0.824657  1
  Np  Np6  1  0.246300  0.322204  0.322421  1
  Np  Np7  1  0.677796  0.753700  0.177579  1
  F  F8  1  0.470136  0.529864  0.250000  1
  F  F9  1  0.752397  0.962283  0.970548  1
  F  F10  1  0.037717  0.247603  0.529452  1
  F  F11  1  0.247241  0.031727  0.032171  1
  F  F12  1  0.968273  0.752759  0.467829  1
  F  F13  1  0.530520  0.469480  0.750000  1
  F  F14  1  0.775370  0.281241  0.992293  1
  F  F15  1  0.014367  0.281152  0.212238  1
  F  F16  1  0.784377  0.511354  0.218215  1
  F  F17  1  0.511677  0.785878  0.717476  1
  F  F18  1  0.279269  0.014606  0.711699  1
  F  F19  1  0.277533  0.777575  0.491556  1
  F  F20  1  0.222425  0.722467  0.008444  1
  F  F21  1  0.985394  0.720731  0.788301  1
  F  F22  1  0.214122  0.488323  0.782524  1
  F  F23  1  0.488646  0.215623  0.281785  1
  F  F24  1  0.718848  0.985633  0.287762  1
  F  F25  1  0.718759  0.224630  0.507707  1
  F  F26  1  0.328094  0.344750  0.050194  1
  F  F27  1  0.945577  0.814453  0.162904  1
  F  F28  1  0.845349  0.453920  0.677124  1
  F  F29  1  0.446865  0.840516  0.181868  1
  F  F30  1  0.816674  0.943920  0.653858  1
  F  F31  1  0.344508  0.326655  0.550624  1
  F  F32  1  0.673345  0.655492  0.949376  1
  F  F33  1  0.056080  0.183326  0.846142  1
  F  F34  1  0.159484  0.553135  0.318132  1
  F  F35  1  0.546080  0.154651  0.822876  1
  F  F36  1  0.185547  0.054423  0.337096  1
  F  F37  1  0.655250  0.671906  0.449806  1
