# generated using pymatgen
data_Y6Al24Re3Pt5
_symmetry_space_group_name_H-M   'P 1'
_cell_length_a   8.87152200
_cell_length_b   8.91724860
_cell_length_c   9.58406533
_cell_angle_alpha   90.43402851
_cell_angle_beta   90.00000000
_cell_angle_gamma   119.83052291
_symmetry_Int_Tables_number   1
_chemical_formula_structural   Y6Al24Re3Pt5
_chemical_formula_sum   'Y6 Al24 Re3 Pt5'
_cell_volume   657.70628084
_cell_formula_units_Z   1
loop_
 _symmetry_equiv_pos_site_id
 _symmetry_equiv_pos_as_xyz
  1  'x, y, z'
loop_
 _atom_site_type_symbol
 _atom_site_label
 _atom_site_symmetry_multiplicity
 _atom_site_fract_x
 _atom_site_fract_y
 _atom_site_fract_z
 _atom_site_occupancy
  Y  Y0  1  0.383484  0.188670  0.248572  1
  Y  Y1  1  0.805186  0.188670  0.248572  1
  Y  Y2  1  0.809324  0.618649  0.249063  1
  Y  Y3  1  0.616516  0.811330  0.751428  1
  Y  Y4  1  0.194814  0.811330  0.751428  1
  Y  Y5  1  0.190676  0.381351  0.750937  1
  Al  Al6  1  0.436355  0.872710  0.247901  1
  Al  Al7  1  0.127519  0.564788  0.250460  1
  Al  Al8  1  0.437269  0.564788  0.250460  1
  Al  Al9  1  0.563645  0.127290  0.752099  1
  Al  Al10  1  0.872481  0.435212  0.749540  1
  Al  Al11  1  0.562731  0.435212  0.749540  1
  Al  Al12  1  0.161193  0.836452  0.420515  1
  Al  Al13  1  0.161702  0.323406  0.422798  1
  Al  Al14  1  0.675258  0.836452  0.420515  1
  Al  Al15  1  0.838807  0.163548  0.579485  1
  Al  Al16  1  0.838298  0.676594  0.577202  1
  Al  Al17  1  0.324742  0.163548  0.579485  1
  Al  Al18  1  0.831861  0.157693  0.923694  1
  Al  Al19  1  0.837535  0.675068  0.923559  1
  Al  Al20  1  0.325833  0.157693  0.923694  1
  Al  Al21  1  0.168139  0.842307  0.076306  1
  Al  Al22  1  0.162465  0.324932  0.076441  1
  Al  Al23  1  0.674167  0.842307  0.076306  1
  Al  Al24  1  0.333087  0.666175  0.532089  1
  Al  Al25  1  0.666913  0.333825  0.467911  1
  Al  Al26  1  0.664550  0.329100  0.030478  1
  Al  Al27  1  0.335450  0.670900  0.969522  1
  Al  Al28  1  0.998803  0.997606  0.249921  1
  Al  Al29  1  0.001197  0.002394  0.750079  1
  Re  Re30  1  0.000000  0.000000  0.500000  1
  Re  Re31  1  0.000000  0.000000  0.000000  1
  Re  Re32  1  0.500000  0.000000  0.000000  1
  Pt  Pt33  1  0.500000  0.000000  0.500000  1
  Pt  Pt34  1  0.000000  0.500000  0.500000  1
  Pt  Pt35  1  0.500000  0.500000  0.500000  1
  Pt  Pt36  1  0.000000  0.500000  0.000000  1
  Pt  Pt37  1  0.500000  0.500000  0.000000  1
