# generated using pymatgen
data_LuMgFe6Co6P7
_symmetry_space_group_name_H-M   'P 1'
_cell_length_a   3.55273600
_cell_length_b   8.91764022
_cell_length_c   8.91881501
_cell_angle_alpha   119.98486055
_cell_angle_beta   90.00000000
_cell_angle_gamma   90.00000000
_symmetry_Int_Tables_number   1
_chemical_formula_structural   LuMgFe6Co6P7
_chemical_formula_sum   'Lu1 Mg1 Fe6 Co6 P7'
_cell_volume   244.74673398
_cell_formula_units_Z   1
loop_
 _symmetry_equiv_pos_site_id
 _symmetry_equiv_pos_as_xyz
  1  'x, y, z'
loop_
 _atom_site_type_symbol
 _atom_site_label
 _atom_site_symmetry_multiplicity
 _atom_site_fract_x
 _atom_site_fract_y
 _atom_site_fract_z
 _atom_site_occupancy
  Lu  Lu0  1  0.000000  0.666703  0.333450  1
  Mg  Mg1  1  0.500000  0.333256  0.666575  1
  Fe  Fe2  1  0.000000  0.881173  0.724704  1
  Fe  Fe3  1  0.000000  0.275518  0.156531  1
  Fe  Fe4  1  0.000000  0.843312  0.119010  1
  Fe  Fe5  1  0.500000  0.127911  0.898281  1
  Fe  Fe6  1  0.500000  0.101482  0.228980  1
  Fe  Fe7  1  0.500000  0.770701  0.872522  1
  Co  Co8  1  0.000000  0.373737  0.935781  1
  Co  Co9  1  0.000000  0.064035  0.437769  1
  Co  Co10  1  0.000000  0.562068  0.626123  1
  Co  Co11  1  0.500000  0.948686  0.562392  1
  Co  Co12  1  0.500000  0.437503  0.386276  1
  Co  Co13  1  0.500000  0.613682  0.051313  1
  P  P14  1  0.000000  0.117516  0.707032  1
  P  P15  1  0.000000  0.292904  0.410332  1
  P  P16  1  0.000000  0.589591  0.882559  1
  P  P17  1  0.500000  0.711926  0.598138  1
  P  P18  1  0.500000  0.402077  0.113981  1
  P  P19  1  0.500000  0.886072  0.288077  1
  P  P20  1  0.000000  0.000146  0.000176  1
