# generated using pymatgen
data_RbTl(CrS)6
_symmetry_space_group_name_H-M   'P 1'
_cell_length_a   8.72530600
_cell_length_b   8.72530494
_cell_length_c   4.08583300
_cell_angle_alpha   90.00000000
_cell_angle_beta   90.00000000
_cell_angle_gamma   119.99999645
_symmetry_Int_Tables_number   1
_chemical_formula_structural   RbTl(CrS)6
_chemical_formula_sum   'Rb1 Tl1 Cr6 S6'
_cell_volume   269.38446039
_cell_formula_units_Z   1
loop_
 _symmetry_equiv_pos_site_id
 _symmetry_equiv_pos_as_xyz
  1  'x, y, z'
loop_
 _atom_site_type_symbol
 _atom_site_label
 _atom_site_symmetry_multiplicity
 _atom_site_fract_x
 _atom_site_fract_y
 _atom_site_fract_z
 _atom_site_occupancy
  Rb  Rb0  1  0.000000  0.000000  0.500000  1
  Tl  Tl1  1  0.666667  0.333333  0.000000  1
  Cr  Cr2  1  0.503077  0.818392  0.500000  1
  Cr  Cr3  1  0.181608  0.684684  0.500000  1
  Cr  Cr4  1  0.315316  0.496923  0.500000  1
  Cr  Cr5  1  0.163461  0.514860  0.000000  1
  Cr  Cr6  1  0.485140  0.648601  0.000000  1
  Cr  Cr7  1  0.351399  0.836539  0.000000  1
  S  S8  1  0.620888  0.627201  0.500000  1
  S  S9  1  0.372799  0.993688  0.500000  1
  S  S10  1  0.006312  0.379112  0.500000  1
  S  S11  1  0.042453  0.701496  0.000000  1
  S  S12  1  0.298504  0.340958  0.000000  1
  S  S13  1  0.659042  0.957547  0.000000  1
