# generated using pymatgen
data_LaPr5Ir18
_symmetry_space_group_name_H-M   'P 1'
_cell_length_a   5.39827384
_cell_length_b   5.40313035
_cell_length_c   17.70858572
_cell_angle_alpha   89.99877272
_cell_angle_beta   90.00496523
_cell_angle_gamma   120.02975337
_symmetry_Int_Tables_number   1
_chemical_formula_structural   LaPr5Ir18
_chemical_formula_sum   'La1 Pr5 Ir18'
_cell_volume   447.18227195
_cell_formula_units_Z   1
loop_
 _symmetry_equiv_pos_site_id
 _symmetry_equiv_pos_as_xyz
  1  'x, y, z'
loop_
 _atom_site_type_symbol
 _atom_site_label
 _atom_site_symmetry_multiplicity
 _atom_site_fract_x
 _atom_site_fract_y
 _atom_site_fract_z
 _atom_site_occupancy
  La  La0  1  0.333631  0.666925  0.540977  1
  Pr  Pr1  1  0.333269  0.666629  0.959381  1
  Pr  Pr2  1  0.666599  0.333292  0.040783  1
  Pr  Pr3  1  0.666670  0.333341  0.459210  1
  Pr  Pr4  1  0.333594  0.666788  0.750219  1
  Pr  Pr5  1  0.666891  0.333440  0.250044  1
  Ir  Ir6  1  0.166331  0.834341  0.371191  1
  Ir  Ir7  1  0.166335  0.331983  0.371178  1
  Ir  Ir8  1  0.667431  0.833710  0.370209  1
  Ir  Ir9  1  0.834060  0.166797  0.629652  1
  Ir  Ir10  1  0.834070  0.667261  0.629647  1
  Ir  Ir11  1  0.332506  0.166247  0.627905  1
  Ir  Ir12  1  0.834029  0.166755  0.870952  1
  Ir  Ir13  1  0.834032  0.667260  0.870958  1
  Ir  Ir14  1  0.332380  0.166181  0.872662  1
  Ir  Ir15  1  0.166552  0.834055  0.128087  1
  Ir  Ir16  1  0.166559  0.332493  0.128099  1
  Ir  Ir17  1  0.667026  0.833506  0.129138  1
  Ir  Ir18  1  0.328611  0.664348  0.249797  1
  Ir  Ir19  1  0.658329  0.329173  0.750273  1
  Ir  Ir20  1  0.004797  0.002342  0.249464  1
  Ir  Ir21  1  0.009471  0.004711  0.750385  1
  Ir  Ir22  1  0.998483  0.999245  0.499807  1
  Ir  Ir23  1  0.998345  0.999177  0.999981  1
