# generated using pymatgen
data_GdPa(Ga3Ir)3
_symmetry_space_group_name_H-M   'P 1'
_cell_length_a   7.64094200
_cell_length_b   7.64055895
_cell_length_c   9.43722300
_cell_angle_alpha   90.00000000
_cell_angle_beta   90.00000000
_cell_angle_gamma   119.83223113
_symmetry_Int_Tables_number   1
_chemical_formula_structural   GdPa(Ga3Ir)3
_chemical_formula_sum   'Gd2 Pa2 Ga18 Ir6'
_cell_volume   477.94574562
_cell_formula_units_Z   2
loop_
 _symmetry_equiv_pos_site_id
 _symmetry_equiv_pos_as_xyz
  1  'x, y, z'
loop_
 _atom_site_type_symbol
 _atom_site_label
 _atom_site_symmetry_multiplicity
 _atom_site_fract_x
 _atom_site_fract_y
 _atom_site_fract_z
 _atom_site_occupancy
  Gd  Gd0  1  0.669337  0.995303  0.750000  1
  Gd  Gd1  1  0.330663  0.004697  0.250000  1
  Pa  Pa2  1  0.000427  0.669019  0.750000  1
  Pa  Pa3  1  0.999573  0.330981  0.250000  1
  Ga  Ga4  1  0.132063  0.127916  0.750000  1
  Ga  Ga5  1  0.867937  0.872084  0.250000  1
  Ga  Ga6  1  0.999072  0.330603  0.582106  1
  Ga  Ga7  1  0.000928  0.669397  0.417894  1
  Ga  Ga8  1  0.000928  0.669397  0.082106  1
  Ga  Ga9  1  0.338768  0.002201  0.921136  1
  Ga  Ga10  1  0.999072  0.330603  0.917894  1
  Ga  Ga11  1  0.661232  0.997799  0.078864  1
  Ga  Ga12  1  0.661232  0.997799  0.421136  1
  Ga  Ga13  1  0.338768  0.002201  0.578864  1
  Ga  Ga14  1  0.333971  0.331827  0.066356  1
  Ga  Ga15  1  0.666029  0.668173  0.933644  1
  Ga  Ga16  1  0.666029  0.668173  0.566356  1
  Ga  Ga17  1  0.333971  0.331827  0.433644  1
  Ga  Ga18  1  0.341427  0.545134  0.750000  1
  Ga  Ga19  1  0.658573  0.454866  0.250000  1
  Ga  Ga20  1  0.547415  0.339714  0.750000  1
  Ga  Ga21  1  0.452585  0.660286  0.250000  1
  Ir  Ir22  1  0.677472  0.333109  0.499680  1
  Ir  Ir23  1  0.322528  0.666891  0.500320  1
  Ir  Ir24  1  0.322528  0.666891  0.999680  1
  Ir  Ir25  1  0.677472  0.333109  0.000320  1
  Ir  Ir26  1  0.000000  0.000000  0.500000  1
  Ir  Ir27  1  0.000000  0.000000  0.000000  1
