# generated using pymatgen
data_K4Mo2H11
_symmetry_space_group_name_H-M   'P 1'
_cell_length_a   6.29989200
_cell_length_b   8.77095665
_cell_length_c   10.26247666
_cell_angle_alpha   71.54398368
_cell_angle_beta   91.24777633
_cell_angle_gamma   91.01956947
_symmetry_Int_Tables_number   1
_chemical_formula_structural   K4Mo2H11
_chemical_formula_sum   'K8 Mo4 H22'
_cell_volume   537.73531590
_cell_formula_units_Z   2
loop_
 _symmetry_equiv_pos_site_id
 _symmetry_equiv_pos_as_xyz
  1  'x, y, z'
loop_
 _atom_site_type_symbol
 _atom_site_label
 _atom_site_symmetry_multiplicity
 _atom_site_fract_x
 _atom_site_fract_y
 _atom_site_fract_z
 _atom_site_occupancy
  K  K0  1  0.736704  0.357838  0.511891  1
  K  K1  1  0.263229  0.642234  0.488113  1
  K  K2  1  0.760619  0.507380  0.112496  1
  K  K3  1  0.239418  0.492575  0.887428  1
  K  K4  1  0.757476  0.966577  0.391017  1
  K  K5  1  0.242510  0.033476  0.608940  1
  K  K6  1  0.755998  0.147256  0.957839  1
  K  K7  1  0.244336  0.852676  0.042229  1
  Mo  Mo8  1  0.737013  0.862310  0.782215  1
  Mo  Mo9  1  0.263021  0.137757  0.217853  1
  Mo  Mo10  1  0.748827  0.615077  0.715608  1
  Mo  Mo11  1  0.251104  0.385047  0.284391  1
  H  H12  1  0.561337  0.793395  0.654508  1
  H  H13  1  0.438594  0.206499  0.345501  1
  H  H14  1  0.526048  0.479701  0.708637  1
  H  H15  1  0.474110  0.520259  0.291334  1
  H  H16  1  0.728558  0.040200  0.635034  1
  H  H17  1  0.271401  0.959843  0.364970  1
  H  H18  1  0.609391  0.657818  0.861117  1
  H  H19  1  0.390595  0.342106  0.138874  1
  H  H20  1  0.966582  0.765274  0.718736  1
  H  H21  1  0.033408  0.234688  0.281232  1
  H  H22  1  0.750739  0.654151  0.532919  1
  H  H23  1  0.249063  0.345933  0.467116  1
  H  H24  1  0.959379  0.981962  0.802856  1
  H  H25  1  0.040870  0.017998  0.197157  1
  H  H26  1  0.790268  0.822870  0.961390  1
  H  H27  1  0.209762  0.177100  0.038743  1
  H  H28  1  0.816949  0.453990  0.864382  1
  H  H29  1  0.183098  0.546111  0.135540  1
  H  H30  1  0.975485  0.517679  0.678587  1
  H  H31  1  0.024238  0.482323  0.321337  1
  H  H32  1  0.492615  0.937060  0.829290  1
  H  H33  1  0.507257  0.062834  0.170717  1
