# generated using pymatgen
data_Tm12TlNi6
_symmetry_space_group_name_H-M   'P 1'
_cell_length_a   8.30853297
_cell_length_b   8.30853235
_cell_length_c   8.30853300
_cell_angle_alpha   109.47122222
_cell_angle_beta   109.47122071
_cell_angle_gamma   109.47122206
_symmetry_Int_Tables_number   1
_chemical_formula_structural   Tm12TlNi6
_chemical_formula_sum   'Tm12 Tl1 Ni6'
_cell_volume   441.52073536
_cell_formula_units_Z   1
loop_
 _symmetry_equiv_pos_site_id
 _symmetry_equiv_pos_as_xyz
  1  'x, y, z'
loop_
 _atom_site_type_symbol
 _atom_site_label
 _atom_site_symmetry_multiplicity
 _atom_site_fract_x
 _atom_site_fract_y
 _atom_site_fract_z
 _atom_site_occupancy
  Tm  Tm0  1  0.812955  0.697132  0.510088  1
  Tm  Tm1  1  0.187045  0.302868  0.489912  1
  Tm  Tm2  1  0.187045  0.697132  0.884176  1
  Tm  Tm3  1  0.812955  0.302868  0.115824  1
  Tm  Tm4  1  0.697132  0.510088  0.812955  1
  Tm  Tm5  1  0.302868  0.489912  0.187045  1
  Tm  Tm6  1  0.697132  0.884176  0.187045  1
  Tm  Tm7  1  0.302868  0.115824  0.812955  1
  Tm  Tm8  1  0.510088  0.812955  0.697132  1
  Tm  Tm9  1  0.489912  0.187045  0.302868  1
  Tm  Tm10  1  0.115824  0.812955  0.302868  1
  Tm  Tm11  1  0.884176  0.187045  0.697132  1
  Tl  Tl12  1  0.000000  0.000000  0.000000  1
  Ni  Ni13  1  0.875333  0.375333  0.500000  1
  Ni  Ni14  1  0.124667  0.624667  0.500000  1
  Ni  Ni15  1  0.375333  0.500000  0.875333  1
  Ni  Ni16  1  0.624667  0.500000  0.124667  1
  Ni  Ni17  1  0.500000  0.875333  0.375333  1
  Ni  Ni18  1  0.500000  0.124667  0.624667  1
