# generated using pymatgen
data_Li4ErLu3Pt4
_symmetry_space_group_name_H-M   'P 1'
_cell_length_a   3.97105600
_cell_length_b   6.90991800
_cell_length_c   8.32858185
_cell_angle_alpha   89.83092203
_cell_angle_beta   90.00000000
_cell_angle_gamma   90.00000000
_symmetry_Int_Tables_number   1
_chemical_formula_structural   Li4ErLu3Pt4
_chemical_formula_sum   'Li4 Er1 Lu3 Pt4'
_cell_volume   228.53255356
_cell_formula_units_Z   1
loop_
 _symmetry_equiv_pos_site_id
 _symmetry_equiv_pos_as_xyz
  1  'x, y, z'
loop_
 _atom_site_type_symbol
 _atom_site_label
 _atom_site_symmetry_multiplicity
 _atom_site_fract_x
 _atom_site_fract_y
 _atom_site_fract_z
 _atom_site_occupancy
  Li  Li0  1  0.250000  0.626458  0.559521  1
  Li  Li1  1  0.750000  0.373326  0.441395  1
  Li  Li2  1  0.750000  0.873849  0.058727  1
  Li  Li3  1  0.250000  0.124852  0.940275  1
  Er  Er4  1  0.250000  0.547236  0.177758  1
  Lu  Lu5  1  0.750000  0.452448  0.822005  1
  Lu  Lu6  1  0.750000  0.953184  0.677631  1
  Lu  Lu7  1  0.250000  0.048231  0.323664  1
  Pt  Pt8  1  0.250000  0.745105  0.870241  1
  Pt  Pt9  1  0.750000  0.252435  0.126312  1
  Pt  Pt10  1  0.750000  0.757060  0.374457  1
  Pt  Pt11  1  0.250000  0.245817  0.628015  1
