# generated using pymatgen
data_Yb5Sm3(IO6)4
_symmetry_space_group_name_H-M   'P 1'
_cell_length_a   5.34292300
_cell_length_b   7.60064672
_cell_length_c   11.27230700
_cell_angle_alpha   79.23064288
_cell_angle_beta   90.00000000
_cell_angle_gamma   90.00000000
_symmetry_Int_Tables_number   1
_chemical_formula_structural   Yb5Sm3(IO6)4
_chemical_formula_sum   'Yb5 Sm3 I4 O24'
_cell_volume   449.70220906
_cell_formula_units_Z   1
loop_
 _symmetry_equiv_pos_site_id
 _symmetry_equiv_pos_as_xyz
  1  'x, y, z'
loop_
 _atom_site_type_symbol
 _atom_site_label
 _atom_site_symmetry_multiplicity
 _atom_site_fract_x
 _atom_site_fract_y
 _atom_site_fract_z
 _atom_site_occupancy
  Yb  Yb0  1  0.749588  0.000000  0.750000  1
  Yb  Yb1  1  0.190455  0.784394  0.581795  1
  Yb  Yb2  1  0.806561  0.780716  0.076462  1
  Yb  Yb3  1  0.190455  0.215606  0.918205  1
  Yb  Yb4  1  0.806561  0.219284  0.423538  1
  Sm  Sm5  1  0.247262  0.000000  0.250000  1
  Sm  Sm6  1  0.687324  0.500000  0.750000  1
  Sm  Sm7  1  0.313281  0.500000  0.250000  1
  I  I8  1  0.262794  0.737103  0.885587  1
  I  I9  1  0.737555  0.734405  0.387070  1
  I  I10  1  0.262794  0.262897  0.614413  1
  I  I11  1  0.737555  0.265595  0.112930  1
  O  O12  1  0.068171  0.942150  0.893286  1
  O  O13  1  0.539425  0.855809  0.932319  1
  O  O14  1  0.923244  0.946224  0.394163  1
  O  O15  1  0.450330  0.787683  0.735432  1
  O  O16  1  0.453890  0.846467  0.434063  1
  O  O17  1  0.987625  0.699457  0.784014  1
  O  O18  1  0.555196  0.790155  0.232861  1
  O  O19  1  0.839203  0.652008  0.546697  1
  O  O20  1  0.369307  0.501271  0.890417  1
  O  O21  1  0.016579  0.703325  0.283389  1
  O  O22  1  0.369307  0.498729  0.609583  1
  O  O23  1  0.839203  0.347992  0.953303  1
  O  O24  1  0.167718  0.655008  0.047906  1
  O  O25  1  0.633220  0.501390  0.387499  1
  O  O26  1  0.987625  0.300543  0.715986  1
  O  O27  1  0.633220  0.498610  0.112501  1
  O  O28  1  0.167718  0.344992  0.452094  1
  O  O29  1  0.450330  0.212317  0.764568  1
  O  O30  1  0.016579  0.296675  0.216611  1
  O  O31  1  0.539425  0.144191  0.567681  1
  O  O32  1  0.555196  0.209845  0.267139  1
  O  O33  1  0.068171  0.057850  0.606714  1
  O  O34  1  0.453890  0.153533  0.065937  1
  O  O35  1  0.923244  0.053776  0.105837  1
