# generated using pymatgen
data_Er16In6CuRh
_symmetry_space_group_name_H-M   'P 1'
_cell_length_a   10.41414900
_cell_length_b   10.41414774
_cell_length_c   6.85982600
_cell_angle_alpha   90.00000000
_cell_angle_beta   90.00000000
_cell_angle_gamma   119.99999448
_symmetry_Int_Tables_number   1
_chemical_formula_structural   Er16In6CuRh
_chemical_formula_sum   'Er16 In6 Cu1 Rh1'
_cell_volume   644.30466700
_cell_formula_units_Z   1
loop_
 _symmetry_equiv_pos_site_id
 _symmetry_equiv_pos_as_xyz
  1  'x, y, z'
loop_
 _atom_site_type_symbol
 _atom_site_label
 _atom_site_symmetry_multiplicity
 _atom_site_fract_x
 _atom_site_fract_y
 _atom_site_fract_z
 _atom_site_occupancy
  Er  Er0  1  0.527377  0.054755  0.796246  1
  Er  Er1  1  0.945245  0.472623  0.796246  1
  Er  Er2  1  0.527377  0.472623  0.796246  1
  Er  Er3  1  0.469125  0.938250  0.294024  1
  Er  Er4  1  0.061750  0.530875  0.294024  1
  Er  Er5  1  0.469125  0.530875  0.294024  1
  Er  Er6  1  0.824277  0.648554  0.503587  1
  Er  Er7  1  0.351446  0.175723  0.503587  1
  Er  Er8  1  0.824277  0.175723  0.503587  1
  Er  Er9  1  0.176347  0.352695  0.003704  1
  Er  Er10  1  0.647305  0.823653  0.003704  1
  Er  Er11  1  0.176347  0.823653  0.003704  1
  Er  Er12  1  0.666667  0.333333  0.166757  1
  Er  Er13  1  0.333333  0.666667  0.672190  1
  Er  Er14  1  0.000000  0.000000  0.775067  1
  Er  Er15  1  0.000000  0.000000  0.280170  1
  In  In16  1  0.835998  0.671998  0.033247  1
  In  In17  1  0.328002  0.164002  0.033247  1
  In  In18  1  0.835998  0.164002  0.033247  1
  In  In19  1  0.161946  0.323890  0.535182  1
  In  In20  1  0.676110  0.838054  0.535182  1
  In  In21  1  0.161946  0.838054  0.535182  1
  Cu  Cu22  1  0.666667  0.333333  0.571884  1
  Rh  Rh23  1  0.333333  0.666667  0.071866  1
