# generated using pymatgen
data_Dy3Tm5Cd2IrRu
_symmetry_space_group_name_H-M   'P 1'
_cell_length_a   9.54634742
_cell_length_b   9.54634783
_cell_length_c   9.59090400
_cell_angle_alpha   59.84548473
_cell_angle_beta   59.84548333
_cell_angle_gamma   59.73152668
_symmetry_Int_Tables_number   1
_chemical_formula_structural   Dy3Tm5Cd2IrRu
_chemical_formula_sum   'Dy6 Tm10 Cd4 Ir2 Ru2'
_cell_volume   615.34116206
_cell_formula_units_Z   2
loop_
 _symmetry_equiv_pos_site_id
 _symmetry_equiv_pos_as_xyz
  1  'x, y, z'
loop_
 _atom_site_type_symbol
 _atom_site_label
 _atom_site_symmetry_multiplicity
 _atom_site_fract_x
 _atom_site_fract_y
 _atom_site_fract_z
 _atom_site_occupancy
  Dy  Dy0  1  0.189350  0.809030  0.811823  1
  Dy  Dy1  1  0.809030  0.189350  0.189797  1
  Dy  Dy2  1  0.809030  0.189350  0.811823  1
  Dy  Dy3  1  0.189350  0.809030  0.189797  1
  Dy  Dy4  1  0.810594  0.810594  0.189406  1
  Dy  Dy5  1  0.189977  0.189977  0.810023  1
  Tm  Tm6  1  0.597848  0.597848  0.597735  1
  Tm  Tm7  1  0.597848  0.597848  0.206569  1
  Tm  Tm8  1  0.597308  0.208545  0.597074  1
  Tm  Tm9  1  0.208545  0.597308  0.597074  1
  Tm  Tm10  1  0.062797  0.437514  0.438831  1
  Tm  Tm11  1  0.437514  0.062797  0.060857  1
  Tm  Tm12  1  0.437514  0.062797  0.438831  1
  Tm  Tm13  1  0.062797  0.437514  0.060857  1
  Tm  Tm14  1  0.437431  0.437431  0.062569  1
  Tm  Tm15  1  0.060517  0.060517  0.439483  1
  Cd  Cd16  1  0.830308  0.830308  0.830398  1
  Cd  Cd17  1  0.830308  0.830308  0.508986  1
  Cd  Cd18  1  0.830558  0.508006  0.830718  1
  Cd  Cd19  1  0.508006  0.830558  0.830718  1
  Ir  Ir20  1  0.393195  0.826639  0.390084  1
  Ir  Ir21  1  0.826639  0.393195  0.390084  1
  Ru  Ru22  1  0.391768  0.391768  0.388435  1
  Ru  Ru23  1  0.391768  0.391768  0.828030  1
