# generated using pymatgen
data_Nb12Ni8Sb4C3N
_symmetry_space_group_name_H-M   'P 1'
_cell_length_a   8.28133775
_cell_length_b   8.30904933
_cell_length_c   8.30904900
_cell_angle_alpha   60.00000529
_cell_angle_beta   59.88924977
_cell_angle_gamma   59.88924077
_symmetry_Int_Tables_number   1
_chemical_formula_structural   Nb12Ni8Sb4C3N
_chemical_formula_sum   'Nb12 Ni8 Sb4 C3 N1'
_cell_volume   403.60738899
_cell_formula_units_Z   1
loop_
 _symmetry_equiv_pos_site_id
 _symmetry_equiv_pos_as_xyz
  1  'x, y, z'
loop_
 _atom_site_type_symbol
 _atom_site_label
 _atom_site_symmetry_multiplicity
 _atom_site_fract_x
 _atom_site_fract_y
 _atom_site_fract_z
 _atom_site_occupancy
  Nb  Nb0  1  0.431814  0.068441  0.068441  1
  Nb  Nb1  1  0.065419  0.433687  0.433687  1
  Nb  Nb2  1  0.065419  0.433687  0.067209  1
  Nb  Nb3  1  0.065419  0.067209  0.433687  1
  Nb  Nb4  1  0.431814  0.068441  0.431304  1
  Nb  Nb5  1  0.431814  0.431304  0.068441  1
  Nb  Nb6  1  0.184581  0.816313  0.182791  1
  Nb  Nb7  1  0.818186  0.181559  0.818696  1
  Nb  Nb8  1  0.818186  0.181559  0.181559  1
  Nb  Nb9  1  0.184581  0.182791  0.816313  1
  Nb  Nb10  1  0.184581  0.816313  0.816313  1
  Nb  Nb11  1  0.818186  0.818696  0.181559  1
  Ni  Ni12  1  0.834503  0.836055  0.836055  1
  Ni  Ni13  1  0.834503  0.836055  0.493385  1
  Ni  Ni14  1  0.493703  0.835432  0.835432  1
  Ni  Ni15  1  0.834503  0.493385  0.836055  1
  Ni  Ni16  1  0.415497  0.413945  0.413945  1
  Ni  Ni17  1  0.415497  0.413945  0.756615  1
  Ni  Ni18  1  0.415497  0.756615  0.413945  1
  Ni  Ni19  1  0.756297  0.414568  0.414568  1
  Sb  Sb20  1  0.625000  0.625000  0.625000  1
  Sb  Sb21  1  0.625000  0.625000  0.125000  1
  Sb  Sb22  1  0.125000  0.625000  0.625000  1
  Sb  Sb23  1  0.625000  0.125000  0.625000  1
  C  C24  1  0.125000  0.625000  0.125000  1
  C  C25  1  0.125000  0.125000  0.625000  1
  C  C26  1  0.125000  0.125000  0.125000  1
  N  N27  1  0.625000  0.125000  0.125000  1
