# generated using pymatgen
data_TbNdHo2(NiAs)4
_symmetry_space_group_name_H-M   'P 1'
_cell_length_a   4.06029100
_cell_length_b   4.06029112
_cell_length_c   15.67661400
_cell_angle_alpha   90.00000000
_cell_angle_beta   90.00000000
_cell_angle_gamma   120.00000719
_symmetry_Int_Tables_number   1
_chemical_formula_structural   TbNdHo2(NiAs)4
_chemical_formula_sum   'Tb1 Nd1 Ho2 Ni4 As4'
_cell_volume   223.81912767
_cell_formula_units_Z   1
loop_
 _symmetry_equiv_pos_site_id
 _symmetry_equiv_pos_as_xyz
  1  'x, y, z'
loop_
 _atom_site_type_symbol
 _atom_site_label
 _atom_site_symmetry_multiplicity
 _atom_site_fract_x
 _atom_site_fract_y
 _atom_site_fract_z
 _atom_site_occupancy
  Tb  Tb0  1  0.000000  0.000000  0.500000  1
  Nd  Nd1  1  0.000000  0.000000  0.000000  1
  Ho  Ho2  1  0.000000  0.000000  0.253906  1
  Ho  Ho3  1  0.000000  0.000000  0.746094  1
  Ni  Ni4  1  0.333333  0.666667  0.141085  1
  Ni  Ni5  1  0.666667  0.333333  0.858915  1
  Ni  Ni6  1  0.666667  0.333333  0.631258  1
  Ni  Ni7  1  0.333333  0.666667  0.368742  1
  As  As8  1  0.333333  0.666667  0.619708  1
  As  As9  1  0.666667  0.333333  0.380292  1
  As  As10  1  0.666667  0.333333  0.127926  1
  As  As11  1  0.333333  0.666667  0.872074  1
