# generated using pymatgen
data_K7Rb3NdSn12
_symmetry_space_group_name_H-M   'P 1'
_cell_length_a   10.65230757
_cell_length_b   10.64209455
_cell_length_c   10.64209492
_cell_angle_alpha   109.44890317
_cell_angle_beta   109.66349920
_cell_angle_gamma   109.26263640
_symmetry_Int_Tables_number   1
_chemical_formula_structural   K7Rb3NdSn12
_chemical_formula_sum   'K7 Rb3 Nd1 Sn12'
_cell_volume   929.13515690
_cell_formula_units_Z   1
loop_
 _symmetry_equiv_pos_site_id
 _symmetry_equiv_pos_as_xyz
  1  'x, y, z'
loop_
 _atom_site_type_symbol
 _atom_site_label
 _atom_site_symmetry_multiplicity
 _atom_site_fract_x
 _atom_site_fract_y
 _atom_site_fract_z
 _atom_site_occupancy
  K  K0  1  0.500000  0.749150  0.249150  1
  K  K1  1  0.601403  0.999724  0.000276  1
  K  K2  1  0.398597  0.398873  0.398321  1
  K  K3  1  0.000289  0.601511  0.000169  1
  K  K4  1  0.999711  0.999880  0.601222  1
  K  K5  1  0.749500  0.500256  0.249923  1
  K  K6  1  0.250500  0.500423  0.750756  1
  Rb  Rb7  1  0.500000  0.250722  0.750722  1
  Rb  Rb8  1  0.750412  0.250081  0.499766  1
  Rb  Rb9  1  0.249588  0.749354  0.499670  1
  Nd  Nd10  1  0.000000  0.999786  0.999786  1
  Sn  Sn11  1  0.002007  0.175124  0.345259  1
  Sn  Sn12  1  0.827743  0.170029  0.827757  1
  Sn  Sn13  1  0.654197  0.656210  0.829712  1
  Sn  Sn14  1  0.345803  0.175515  0.002014  1
  Sn  Sn15  1  0.175999  0.345936  0.000132  1
  Sn  Sn16  1  0.342791  0.998085  0.172798  1
  Sn  Sn17  1  0.657209  0.830008  0.655294  1
  Sn  Sn18  1  0.829869  0.656767  0.655035  1
  Sn  Sn19  1  0.997993  0.343252  0.173118  1
  Sn  Sn20  1  0.824001  0.824134  0.169937  1
  Sn  Sn21  1  0.170131  0.825166  0.826897  1
  Sn  Sn22  1  0.172257  0.000014  0.342286  1
