# generated using pymatgen
data_Sc4ReTc3(B4Ru3)2
_symmetry_space_group_name_H-M   'P 1'
_cell_length_a   3.03691200
_cell_length_b   8.54846672
_cell_length_c   10.00724351
_cell_angle_alpha   90.02367738
_cell_angle_beta   90.00000000
_cell_angle_gamma   90.00000000
_symmetry_Int_Tables_number   1
_chemical_formula_structural   Sc4ReTc3(B4Ru3)2
_chemical_formula_sum   'Sc4 Re1 Tc3 B8 Ru6'
_cell_volume   259.79743763
_cell_formula_units_Z   1
loop_
 _symmetry_equiv_pos_site_id
 _symmetry_equiv_pos_as_xyz
  1  'x, y, z'
loop_
 _atom_site_type_symbol
 _atom_site_label
 _atom_site_symmetry_multiplicity
 _atom_site_fract_x
 _atom_site_fract_y
 _atom_site_fract_z
 _atom_site_occupancy
  Sc  Sc0  1  0.500000  0.841275  0.181607  1
  Sc  Sc1  1  0.500000  0.158941  0.819448  1
  Sc  Sc2  1  0.500000  0.658605  0.681696  1
  Sc  Sc3  1  0.500000  0.342117  0.317562  1
  Re  Re4  1  0.000000  0.159718  0.547048  1
  Tc  Tc5  1  0.000000  0.659748  0.952675  1
  Tc  Tc6  1  0.000000  0.340400  0.047076  1
  Tc  Tc7  1  0.000000  0.839784  0.452827  1
  B  B8  1  0.500000  0.964580  0.588314  1
  B  B9  1  0.500000  0.034577  0.411605  1
  B  B10  1  0.500000  0.848851  0.900912  1
  B  B11  1  0.500000  0.151096  0.099215  1
  B  B12  1  0.500000  0.650755  0.400537  1
  B  B13  1  0.500000  0.348631  0.599179  1
  B  B14  1  0.500000  0.465188  0.912212  1
  B  B15  1  0.500000  0.535009  0.087616  1
  Ru  Ru16  1  0.000000  0.999936  0.000356  1
  Ru  Ru17  1  0.000000  0.404396  0.760643  1
  Ru  Ru18  1  0.000000  0.595627  0.239222  1
  Ru  Ru19  1  0.000000  0.499767  0.499806  1
  Ru  Ru20  1  0.000000  0.905104  0.739874  1
  Ru  Ru21  1  0.000000  0.095894  0.260575  1
