# generated using pymatgen
data_Dy4Y4Ti11Si16Tc
_symmetry_space_group_name_H-M   'P 1'
_cell_length_a   7.02656378
_cell_length_b   7.01564946
_cell_length_c   12.91649389
_cell_angle_alpha   90.14810699
_cell_angle_beta   90.13965021
_cell_angle_gamma   90.03367938
_symmetry_Int_Tables_number   1
_chemical_formula_structural   Dy4Y4Ti11Si16Tc
_chemical_formula_sum   'Dy4 Y4 Ti11 Si16 Tc1'
_cell_volume   636.72616890
_cell_formula_units_Z   1
loop_
 _symmetry_equiv_pos_site_id
 _symmetry_equiv_pos_as_xyz
  1  'x, y, z'
loop_
 _atom_site_type_symbol
 _atom_site_label
 _atom_site_symmetry_multiplicity
 _atom_site_fract_x
 _atom_site_fract_y
 _atom_site_fract_z
 _atom_site_occupancy
  Dy  Dy0  1  0.841173  0.496131  0.283391  1
  Dy  Dy1  1  0.501561  0.160665  0.218512  1
  Dy  Dy2  1  0.497044  0.839139  0.715467  1
  Dy  Dy3  1  0.340655  0.002261  0.466649  1
  Y  Y4  1  0.998250  0.658707  0.034902  1
  Y  Y5  1  0.002450  0.340971  0.531005  1
  Y  Y6  1  0.660787  0.996290  0.967151  1
  Y  Y7  1  0.158845  0.501740  0.783360  1
  Ti  Ti8  1  0.846226  0.991057  0.375994  1
  Ti  Ti9  1  0.009826  0.155264  0.126758  1
  Ti  Ti10  1  0.994252  0.844548  0.621746  1
  Ti  Ti11  1  0.507717  0.346249  0.625911  1
  Ti  Ti12  1  0.152238  0.008358  0.875166  1
  Ti  Ti13  1  0.668842  0.670446  0.498301  1
  Ti  Ti14  1  0.826429  0.172811  0.749955  1
  Ti  Ti15  1  0.177132  0.823660  0.251183  1
  Ti  Ti16  1  0.327967  0.328191  0.001011  1
  Ti  Ti17  1  0.495142  0.653844  0.124529  1
  Ti  Ti18  1  0.653118  0.493044  0.874740  1
  Si  Si19  1  0.048383  0.709776  0.435026  1
  Si  Si20  1  0.954029  0.290849  0.935870  1
  Si  Si21  1  0.708786  0.047111  0.564681  1
  Si  Si22  1  0.210511  0.455492  0.187647  1
  Si  Si23  1  0.790535  0.546380  0.684995  1
  Si  Si24  1  0.454328  0.208561  0.815061  1
  Si  Si25  1  0.543678  0.787876  0.313671  1
  Si  Si26  1  0.291793  0.953073  0.064737  1
  Si  Si27  1  0.797469  0.870317  0.184686  1
  Si  Si28  1  0.298895  0.629947  0.562949  1
  Si  Si29  1  0.701978  0.368571  0.066078  1
  Si  Si30  1  0.625277  0.301521  0.434004  1
  Si  Si31  1  0.369280  0.702476  0.934326  1
  Si  Si32  1  0.130238  0.205740  0.317199  1
  Si  Si33  1  0.201604  0.130153  0.683676  1
  Si  Si34  1  0.869456  0.797759  0.814887  1
  Tc  Tc35  1  0.344105  0.511022  0.374778  1
