# generated using pymatgen
data_Tb7HoIn2IrRh
_symmetry_space_group_name_H-M   'P 1'
_cell_length_a   9.70621524
_cell_length_b   9.71154640
_cell_length_c   9.69849784
_cell_angle_alpha   59.95163322
_cell_angle_beta   59.88947670
_cell_angle_gamma   59.92824915
_symmetry_Int_Tables_number   1
_chemical_formula_structural   Tb7HoIn2IrRh
_chemical_formula_sum   'Tb14 Ho2 In4 Ir2 Rh2'
_cell_volume   645.31162651
_cell_formula_units_Z   2
loop_
 _symmetry_equiv_pos_site_id
 _symmetry_equiv_pos_as_xyz
  1  'x, y, z'
loop_
 _atom_site_type_symbol
 _atom_site_label
 _atom_site_symmetry_multiplicity
 _atom_site_fract_x
 _atom_site_fract_y
 _atom_site_fract_z
 _atom_site_occupancy
  Tb  Tb0  1  0.189238  0.190346  0.811320  1
  Tb  Tb1  1  0.649804  0.048927  0.649645  1
  Tb  Tb2  1  0.060633  0.061132  0.439476  1
  Tb  Tb3  1  0.440043  0.437360  0.060424  1
  Tb  Tb4  1  0.651963  0.650929  0.651322  1
  Tb  Tb5  1  0.811246  0.189963  0.189250  1
  Tb  Tb6  1  0.189574  0.810110  0.810888  1
  Tb  Tb7  1  0.048988  0.649689  0.649519  1
  Tb  Tb8  1  0.440097  0.060642  0.060570  1
  Tb  Tb9  1  0.437653  0.061730  0.437037  1
  Tb  Tb10  1  0.059449  0.439595  0.059872  1
  Tb  Tb11  1  0.649545  0.649589  0.049318  1
  Tb  Tb12  1  0.189557  0.810960  0.189947  1
  Tb  Tb13  1  0.060166  0.437628  0.439688  1
  Ho  Ho14  1  0.810466  0.810265  0.189720  1
  Ho  Ho15  1  0.810096  0.190258  0.810660  1
  In  In16  1  0.417484  0.416840  0.417558  1
  In  In17  1  0.417709  0.417169  0.748140  1
  In  In18  1  0.417726  0.748220  0.417491  1
  In  In19  1  0.748317  0.417271  0.417609  1
  Ir  Ir20  1  0.858189  0.425604  0.857947  1
  Ir  Ir21  1  0.857799  0.858884  0.858854  1
  Rh  Rh22  1  0.858710  0.858303  0.425008  1
  Rh  Rh23  1  0.425547  0.858590  0.858731  1
