# generated using pymatgen
data_Li8Zr3TcCl24
_symmetry_space_group_name_H-M   'P 1'
_cell_length_a   6.43717300
_cell_length_b   6.43717382
_cell_length_c   26.13656700
_cell_angle_alpha   90.00000000
_cell_angle_beta   90.00000000
_cell_angle_gamma   120.00000095
_symmetry_Int_Tables_number   1
_chemical_formula_structural   Li8Zr3TcCl24
_chemical_formula_sum   'Li8 Zr3 Tc1 Cl24'
_cell_volume   937.92818706
_cell_formula_units_Z   1
loop_
 _symmetry_equiv_pos_site_id
 _symmetry_equiv_pos_as_xyz
  1  'x, y, z'
loop_
 _atom_site_type_symbol
 _atom_site_label
 _atom_site_symmetry_multiplicity
 _atom_site_fract_x
 _atom_site_fract_y
 _atom_site_fract_z
 _atom_site_occupancy
  Li  Li0  1  0.000000  0.000000  0.250000  1
  Li  Li1  1  0.000000  0.000000  0.750000  1
  Li  Li2  1  0.333333  0.666667  0.999925  1
  Li  Li3  1  0.333333  0.666667  0.500075  1
  Li  Li4  1  0.333333  0.666667  0.250000  1
  Li  Li5  1  0.666667  0.333333  0.750000  1
  Li  Li6  1  0.666667  0.333333  0.000070  1
  Li  Li7  1  0.666667  0.333333  0.499930  1
  Zr  Zr8  1  0.000000  0.000000  0.000038  1
  Zr  Zr9  1  0.000000  0.000000  0.499962  1
  Zr  Zr10  1  0.333333  0.666667  0.750000  1
  Tc  Tc11  1  0.666667  0.333333  0.250000  1
  Cl  Cl12  1  0.361011  0.027557  0.301621  1
  Cl  Cl13  1  0.333503  0.986858  0.803818  1
  Cl  Cl14  1  0.000606  0.320378  0.053816  1
  Cl  Cl15  1  0.999444  0.319850  0.553830  1
  Cl  Cl16  1  0.972443  0.333454  0.301621  1
  Cl  Cl17  1  0.013142  0.346645  0.803818  1
  Cl  Cl18  1  0.361011  0.333454  0.198379  1
  Cl  Cl19  1  0.333503  0.346645  0.696182  1
  Cl  Cl20  1  0.319772  0.320378  0.446184  1
  Cl  Cl21  1  0.320406  0.319850  0.946170  1
  Cl  Cl22  1  0.679622  0.999394  0.446184  1
  Cl  Cl23  1  0.319772  0.999394  0.053816  1
  Cl  Cl24  1  0.320406  0.000556  0.553830  1
  Cl  Cl25  1  0.679622  0.680228  0.053816  1
  Cl  Cl26  1  0.680150  0.679594  0.553830  1
  Cl  Cl27  1  0.666546  0.638989  0.301621  1
  Cl  Cl28  1  0.653355  0.666497  0.803818  1
  Cl  Cl29  1  0.972443  0.638989  0.198379  1
  Cl  Cl30  1  0.013142  0.666497  0.696182  1
  Cl  Cl31  1  0.000606  0.680228  0.446184  1
  Cl  Cl32  1  0.999444  0.679594  0.946170  1
  Cl  Cl33  1  0.680150  0.000556  0.946170  1
  Cl  Cl34  1  0.666546  0.027557  0.198379  1
  Cl  Cl35  1  0.653355  0.986858  0.696182  1
