# generated using pymatgen
data_TbYbAl3Ir
_symmetry_space_group_name_H-M   'P 1'
_cell_length_a   5.54655501
_cell_length_b   5.54655307
_cell_length_c   8.67304701
_cell_angle_alpha   89.99562994
_cell_angle_beta   90.00435218
_cell_angle_gamma   119.99601998
_symmetry_Int_Tables_number   1
_chemical_formula_structural   TbYbAl3Ir
_chemical_formula_sum   'Tb2 Yb2 Al6 Ir2'
_cell_volume   231.08206688
_cell_formula_units_Z   2
loop_
 _symmetry_equiv_pos_site_id
 _symmetry_equiv_pos_as_xyz
  1  'x, y, z'
loop_
 _atom_site_type_symbol
 _atom_site_label
 _atom_site_symmetry_multiplicity
 _atom_site_fract_x
 _atom_site_fract_y
 _atom_site_fract_z
 _atom_site_occupancy
  Tb  Tb0  1  0.666661  0.333340  0.051680  1
  Tb  Tb1  1  0.666678  0.333321  0.448330  1
  Yb  Yb2  1  0.333319  0.666680  0.555705  1
  Yb  Yb3  1  0.333329  0.666669  0.944284  1
  Al  Al4  1  0.161568  0.323156  0.249993  1
  Al  Al5  1  0.161581  0.838420  0.250005  1
  Al  Al6  1  0.676844  0.838432  0.249993  1
  Al  Al7  1  0.324020  0.162021  0.750007  1
  Al  Al8  1  0.837992  0.162006  0.749996  1
  Al  Al9  1  0.837978  0.675980  0.750006  1
  Ir  Ir10  1  0.000018  0.999982  0.999382  1
  Ir  Ir11  1  0.000008  0.999992  0.500618  1
