# generated using pymatgen
data_Ce2YLu(ReN3)4
_symmetry_space_group_name_H-M   'P 1'
_cell_length_a   5.43059700
_cell_length_b   5.64686400
_cell_length_c   7.72082500
_cell_angle_alpha   90.00000000
_cell_angle_beta   90.00000000
_cell_angle_gamma   89.99640806
_symmetry_Int_Tables_number   1
_chemical_formula_structural   Ce2YLu(ReN3)4
_chemical_formula_sum   'Ce2 Y1 Lu1 Re4 N12'
_cell_volume   236.76560471
_cell_formula_units_Z   1
loop_
 _symmetry_equiv_pos_site_id
 _symmetry_equiv_pos_as_xyz
  1  'x, y, z'
loop_
 _atom_site_type_symbol
 _atom_site_label
 _atom_site_symmetry_multiplicity
 _atom_site_fract_x
 _atom_site_fract_y
 _atom_site_fract_z
 _atom_site_occupancy
  Ce  Ce0  1  0.474972  0.451466  0.250000  1
  Ce  Ce1  1  0.025087  0.950442  0.250000  1
  Y  Y2  1  0.002487  0.065648  0.750000  1
  Lu  Lu3  1  0.498396  0.568825  0.750000  1
  Re  Re4  1  0.510938  0.004780  0.503523  1
  Re  Re5  1  0.988120  0.505221  0.996509  1
  Re  Re6  1  0.988120  0.505221  0.503491  1
  Re  Re7  1  0.510938  0.004780  0.996477  1
  N  N8  1  0.695746  0.297833  0.547320  1
  N  N9  1  0.302138  0.697879  0.043116  1
  N  N10  1  0.196625  0.197055  0.043478  1
  N  N11  1  0.415874  0.970741  0.750000  1
  N  N12  1  0.929365  0.510887  0.250000  1
  N  N13  1  0.302138  0.697879  0.456884  1
  N  N14  1  0.798463  0.792705  0.956928  1
  N  N15  1  0.695746  0.297833  0.952680  1
  N  N16  1  0.798463  0.792705  0.543072  1
  N  N17  1  0.096826  0.476927  0.750000  1
  N  N18  1  0.196625  0.197055  0.456522  1
  N  N19  1  0.572935  0.014117  0.250000  1
