# generated using pymatgen
data_Tb10Co2SiSb3
_symmetry_space_group_name_H-M   'P 1'
_cell_length_a   7.85488400
_cell_length_b   8.71354349
_cell_length_c   12.08488575
_cell_angle_alpha   90.15988696
_cell_angle_beta   90.00000000
_cell_angle_gamma   90.00000000
_symmetry_Int_Tables_number   1
_chemical_formula_structural   Tb10Co2SiSb3
_chemical_formula_sum   'Tb20 Co4 Si2 Sb6'
_cell_volume   827.13316924
_cell_formula_units_Z   2
loop_
 _symmetry_equiv_pos_site_id
 _symmetry_equiv_pos_as_xyz
  1  'x, y, z'
loop_
 _atom_site_type_symbol
 _atom_site_label
 _atom_site_symmetry_multiplicity
 _atom_site_fract_x
 _atom_site_fract_y
 _atom_site_fract_z
 _atom_site_occupancy
  Tb  Tb0  1  0.158878  0.768087  0.210553  1
  Tb  Tb1  1  0.658878  0.231913  0.289447  1
  Tb  Tb2  1  0.845477  0.250962  0.798013  1
  Tb  Tb3  1  0.345477  0.749038  0.701987  1
  Tb  Tb4  1  0.452494  0.759374  0.004259  1
  Tb  Tb5  1  0.952494  0.240626  0.495741  1
  Tb  Tb6  1  0.536981  0.240898  0.009175  1
  Tb  Tb7  1  0.036981  0.759102  0.490825  1
  Tb  Tb8  1  0.629550  0.765846  0.300253  1
  Tb  Tb9  1  0.129550  0.234154  0.199747  1
  Tb  Tb10  1  0.376751  0.250050  0.694542  1
  Tb  Tb11  1  0.876751  0.749950  0.805458  1
  Tb  Tb12  1  0.817553  0.962579  0.073852  1
  Tb  Tb13  1  0.317553  0.037421  0.426148  1
  Tb  Tb14  1  0.181246  0.468808  0.936452  1
  Tb  Tb15  1  0.681246  0.531192  0.563548  1
  Tb  Tb16  1  0.179096  0.036888  0.937558  1
  Tb  Tb17  1  0.679096  0.963112  0.562442  1
  Tb  Tb18  1  0.820265  0.531495  0.066375  1
  Tb  Tb19  1  0.320265  0.468505  0.433625  1
  Co  Co20  1  0.433643  0.751722  0.486366  1
  Co  Co21  1  0.933643  0.248278  0.013634  1
  Co  Co22  1  0.567364  0.249765  0.508267  1
  Co  Co23  1  0.067364  0.750235  0.991733  1
  Si  Si24  1  0.929959  0.994309  0.329727  1
  Si  Si25  1  0.429959  0.005691  0.170273  1
  Sb  Sb26  1  0.071820  0.492072  0.668952  1
  Sb  Sb27  1  0.571820  0.507928  0.831048  1
  Sb  Sb28  1  0.072818  0.008520  0.673047  1
  Sb  Sb29  1  0.572818  0.991480  0.826953  1
  Sb  Sb30  1  0.926106  0.506046  0.324666  1
  Sb  Sb31  1  0.426106  0.493954  0.175334  1
