# generated using pymatgen
data_Sr2GaRuI
_symmetry_space_group_name_H-M   'P 1'
_cell_length_a   4.35275100
_cell_length_b   4.35275130
_cell_length_c   18.58565100
_cell_angle_alpha   90.00000000
_cell_angle_beta   90.00000000
_cell_angle_gamma   120.00000532
_symmetry_Int_Tables_number   1
_chemical_formula_structural   Sr2GaRuI
_chemical_formula_sum   'Sr4 Ga2 Ru2 I2'
_cell_volume   304.95521460
_cell_formula_units_Z   2
loop_
 _symmetry_equiv_pos_site_id
 _symmetry_equiv_pos_as_xyz
  1  'x, y, z'
loop_
 _atom_site_type_symbol
 _atom_site_label
 _atom_site_symmetry_multiplicity
 _atom_site_fract_x
 _atom_site_fract_y
 _atom_site_fract_z
 _atom_site_occupancy
  Sr  Sr0  1  0.000000  0.000000  0.112716  1
  Sr  Sr1  1  0.000000  0.000000  0.387284  1
  Sr  Sr2  1  0.000000  0.000000  0.612049  1
  Sr  Sr3  1  0.000000  0.000000  0.887951  1
  Ga  Ga4  1  0.666667  0.333334  0.500246  1
  Ga  Ga5  1  0.666667  0.333334  0.999754  1
  Ru  Ru6  1  0.333333  0.666665  0.000450  1
  Ru  Ru7  1  0.333333  0.666665  0.499550  1
  I  I8  1  0.666667  0.333334  0.250000  1
  I  I9  1  0.333333  0.666665  0.750000  1
