# generated using pymatgen
data_PmZnGe2Pd
_symmetry_space_group_name_H-M   'P 1'
_cell_length_a   5.94109145
_cell_length_b   5.94109199
_cell_length_c   5.94109100
_cell_angle_alpha   137.02289002
_cell_angle_beta   137.02289569
_cell_angle_gamma   62.40281944
_symmetry_Int_Tables_number   1
_chemical_formula_structural   PmZnGe2Pd
_chemical_formula_sum   'Pm1 Zn1 Ge2 Pd1'
_cell_volume   96.27500649
_cell_formula_units_Z   1
loop_
 _symmetry_equiv_pos_site_id
 _symmetry_equiv_pos_as_xyz
  1  'x, y, z'
loop_
 _atom_site_type_symbol
 _atom_site_label
 _atom_site_symmetry_multiplicity
 _atom_site_fract_x
 _atom_site_fract_y
 _atom_site_fract_z
 _atom_site_occupancy
  Pm  Pm0  1  0.000000  0.000000  0.000000  1
  Zn  Zn1  1  0.250000  0.750000  0.500000  1
  Ge  Ge2  1  0.379609  0.379609  0.000000  1
  Ge  Ge3  1  0.620390  0.620390  0.000000  1
  Pd  Pd4  1  0.750000  0.250000  0.500000  1
