# generated using pymatgen
data_Zr2Ta7NbN12
_symmetry_space_group_name_H-M   'P 1'
_cell_length_a   5.27842300
_cell_length_b   5.28543665
_cell_length_c   10.50999801
_cell_angle_alpha   90.00308383
_cell_angle_beta   90.00000000
_cell_angle_gamma   119.95611990
_symmetry_Int_Tables_number   1
_chemical_formula_structural   Zr2Ta7NbN12
_chemical_formula_sum   'Zr2 Ta7 Nb1 N12'
_cell_volume   254.04472833
_cell_formula_units_Z   1
loop_
 _symmetry_equiv_pos_site_id
 _symmetry_equiv_pos_as_xyz
  1  'x, y, z'
loop_
 _atom_site_type_symbol
 _atom_site_label
 _atom_site_symmetry_multiplicity
 _atom_site_fract_x
 _atom_site_fract_y
 _atom_site_fract_z
 _atom_site_occupancy
  Zr  Zr0  1  0.333259  0.668061  0.500264  1
  Zr  Zr1  1  0.665200  0.331939  0.999736  1
  Ta  Ta2  1  0.665469  0.332187  0.499967  1
  Ta  Ta3  1  0.333282  0.667813  0.000033  1
  Ta  Ta4  1  0.676379  0.000000  0.750000  1
  Ta  Ta5  1  0.676366  0.676468  0.250004  1
  Ta  Ta6  1  0.999897  0.323532  0.249996  1
  Ta  Ta7  1  0.000056  0.675993  0.750062  1
  Ta  Ta8  1  0.324063  0.324007  0.749938  1
  Nb  Nb9  1  0.324660  0.000000  0.250000  1
  N  N10  1  0.347009  0.340940  0.376058  1
  N  N11  1  0.668111  0.009663  0.376684  1
  N  N12  1  0.986047  0.648661  0.376134  1
  N  N13  1  0.010029  0.346744  0.875767  1
  N  N14  1  0.658447  0.990337  0.123316  1
  N  N15  1  0.653556  0.663209  0.875696  1
  N  N16  1  0.335701  0.990316  0.875767  1
  N  N17  1  0.663285  0.653256  0.624233  1
  N  N18  1  0.990348  0.336791  0.624304  1
  N  N19  1  0.006067  0.659060  0.123942  1
  N  N20  1  0.345386  0.009684  0.624233  1
  N  N21  1  0.337384  0.351339  0.123866  1
