# generated using pymatgen
data_Y5Co19(SiP5)2
_symmetry_space_group_name_H-M   'P 1'
_cell_length_a   12.03384719
_cell_length_b   12.02443336
_cell_length_c   3.68595000
_cell_angle_alpha   90.00000000
_cell_angle_beta   90.00000000
_cell_angle_gamma   119.97411886
_symmetry_Int_Tables_number   1
_chemical_formula_structural   Y5Co19(SiP5)2
_chemical_formula_sum   'Y5 Co19 Si2 P10'
_cell_volume   462.02171383
_cell_formula_units_Z   1
loop_
 _symmetry_equiv_pos_site_id
 _symmetry_equiv_pos_as_xyz
  1  'x, y, z'
loop_
 _atom_site_type_symbol
 _atom_site_label
 _atom_site_symmetry_multiplicity
 _atom_site_fract_x
 _atom_site_fract_y
 _atom_site_fract_z
 _atom_site_occupancy
  Y  Y0  1  0.665619  0.332894  0.000000  1
  Y  Y1  1  0.334381  0.667276  0.000000  1
  Y  Y2  1  0.185048  0.185330  0.500000  1
  Y  Y3  1  0.814952  0.000283  0.500000  1
  Y  Y4  1  0.000000  0.811809  0.500000  1
  Co  Co5  1  0.559196  0.556224  0.000000  1
  Co  Co6  1  0.440804  0.997029  0.000000  1
  Co  Co7  1  0.000000  0.447885  0.000000  1
  Co  Co8  1  0.824963  0.203994  0.000000  1
  Co  Co9  1  0.801496  0.622353  0.000000  1
  Co  Co10  1  0.377302  0.174380  0.000000  1
  Co  Co11  1  0.198504  0.820857  0.000000  1
  Co  Co12  1  0.622698  0.797078  0.000000  1
  Co  Co13  1  0.175037  0.379031  0.000000  1
  Co  Co14  1  0.640744  0.126647  0.500000  1
  Co  Co15  1  0.875070  0.516509  0.500000  1
  Co  Co16  1  0.485574  0.358310  0.500000  1
  Co  Co17  1  0.124930  0.641440  0.500000  1
  Co  Co18  1  0.514426  0.872737  0.500000  1
  Co  Co19  1  0.359256  0.485903  0.500000  1
  Co  Co20  1  0.716767  0.715304  0.500000  1
  Co  Co21  1  0.283233  0.998537  0.500000  1
  Co  Co22  1  0.000000  0.286302  0.500000  1
  Co  Co23  1  0.000000  0.000419  0.000000  1
  Si  Si24  1  0.369881  0.369971  0.000000  1
  Si  Si25  1  0.630119  0.000090  0.000000  1
  P  P26  1  0.000000  0.630914  0.000000  1
  P  P27  1  0.833092  0.313429  0.500000  1
  P  P28  1  0.686227  0.520546  0.500000  1
  P  P29  1  0.478324  0.164959  0.500000  1
  P  P30  1  0.313773  0.834318  0.500000  1
  P  P31  1  0.521676  0.686635  0.500000  1
  P  P32  1  0.166908  0.480336  0.500000  1
  P  P33  1  0.818931  0.818205  0.000000  1
  P  P34  1  0.181069  0.999274  0.000000  1
  P  P35  1  0.000000  0.182792  0.000000  1
