# generated using pymatgen
data_LiGeF3
_symmetry_space_group_name_H-M   'P 1'
_cell_length_a   7.34028274
_cell_length_b   7.34028316
_cell_length_c   7.34028337
_cell_angle_alpha   39.57270620
_cell_angle_beta   39.57270425
_cell_angle_gamma   39.57270887
_symmetry_Int_Tables_number   1
_chemical_formula_structural   LiGeF3
_chemical_formula_sum   'Li2 Ge2 F6'
_cell_volume   144.50327140
_cell_formula_units_Z   2
loop_
 _symmetry_equiv_pos_site_id
 _symmetry_equiv_pos_as_xyz
  1  'x, y, z'
loop_
 _atom_site_type_symbol
 _atom_site_label
 _atom_site_symmetry_multiplicity
 _atom_site_fract_x
 _atom_site_fract_y
 _atom_site_fract_z
 _atom_site_occupancy
  Li  Li0  1  0.166799  0.166799  0.166799  1
  Li  Li1  1  0.833201  0.833201  0.833201  1
  Ge  Ge2  1  0.392480  0.392480  0.392480  1
  Ge  Ge3  1  0.607520  0.607520  0.607520  1
  F  F4  1  0.122258  0.441321  0.765472  1
  F  F5  1  0.441321  0.765472  0.122258  1
  F  F6  1  0.234528  0.877742  0.558679  1
  F  F7  1  0.765472  0.122258  0.441321  1
  F  F8  1  0.558679  0.234528  0.877742  1
  F  F9  1  0.877742  0.558679  0.234528  1
