# generated using pymatgen
data_NdMn3Bi5O18
_symmetry_space_group_name_H-M   'P 1'
_cell_length_a   9.02220317
_cell_length_b   9.03495020
_cell_length_c   5.19257215
_cell_angle_alpha   90.00079977
_cell_angle_beta   89.97640267
_cell_angle_gamma   120.04645243
_symmetry_Int_Tables_number   1
_chemical_formula_structural   NdMn3Bi5O18
_chemical_formula_sum   'Nd1 Mn3 Bi5 O18'
_cell_volume   366.39371226
_cell_formula_units_Z   1
loop_
 _symmetry_equiv_pos_site_id
 _symmetry_equiv_pos_as_xyz
  1  'x, y, z'
loop_
 _atom_site_type_symbol
 _atom_site_label
 _atom_site_symmetry_multiplicity
 _atom_site_fract_x
 _atom_site_fract_y
 _atom_site_fract_z
 _atom_site_occupancy
  Nd  Nd0  1  0.000015  0.386710  0.500000  1
  Mn  Mn1  1  0.000002  0.000387  0.499999  1
  Mn  Mn2  1  0.333468  0.666386  0.001722  1
  Mn  Mn3  1  0.666534  0.332916  0.998304  1
  Bi  Bi4  1  0.290646  0.290970  0.997962  1
  Bi  Bi5  1  0.000011  0.710006  0.999995  1
  Bi  Bi6  1  0.621372  0.621203  0.498911  1
  Bi  Bi7  1  0.378616  0.999804  0.501088  1
  Bi  Bi8  1  0.709343  0.000301  0.002029  1
  O  O9  1  0.087577  0.200202  0.715855  1
  O  O10  1  0.232283  0.459315  0.211685  1
  O  O11  1  0.136893  0.604020  0.794524  1
  O  O12  1  0.395570  0.533544  0.784781  1
  O  O13  1  0.224576  0.762294  0.223827  1
  O  O14  1  0.113967  0.911834  0.716152  1
  O  O15  1  0.540186  0.771005  0.215277  1
  O  O16  1  0.200976  0.087194  0.281540  1
  O  O17  1  0.465735  0.865137  0.793208  1
  O  O18  1  0.799031  0.886223  0.718451  1
  O  O19  1  0.459798  0.230814  0.784716  1
  O  O20  1  0.604426  0.137951  0.215232  1
  O  O21  1  0.534249  0.399406  0.206808  1
  O  O22  1  0.767719  0.227016  0.788314  1
  O  O23  1  0.912424  0.112628  0.284138  1
  O  O24  1  0.775434  0.537735  0.776167  1
  O  O25  1  0.863116  0.467138  0.205473  1
  O  O26  1  0.886032  0.797863  0.283840  1
