# generated using pymatgen
data_Dy11Ho(In4Hg)4
_symmetry_space_group_name_H-M   'P 1'
_cell_length_a   6.47179928
_cell_length_b   10.46639987
_cell_length_c   12.26840300
_cell_angle_alpha   89.96188821
_cell_angle_beta   90.03605001
_cell_angle_gamma   90.03128199
_symmetry_Int_Tables_number   1
_chemical_formula_structural   Dy11Ho(In4Hg)4
_chemical_formula_sum   'Dy11 Ho1 In16 Hg4'
_cell_volume   831.01746156
_cell_formula_units_Z   1
loop_
 _symmetry_equiv_pos_site_id
 _symmetry_equiv_pos_as_xyz
  1  'x, y, z'
loop_
 _atom_site_type_symbol
 _atom_site_label
 _atom_site_symmetry_multiplicity
 _atom_site_fract_x
 _atom_site_fract_y
 _atom_site_fract_z
 _atom_site_occupancy
  Dy  Dy0  1  0.346389  0.750031  0.055413  1
  Dy  Dy1  1  0.152757  0.749968  0.555510  1
  Dy  Dy2  1  0.652996  0.250166  0.944164  1
  Dy  Dy3  1  0.846071  0.249372  0.444564  1
  Dy  Dy4  1  0.891046  0.499242  0.142152  1
  Dy  Dy5  1  0.609273  0.000739  0.642079  1
  Dy  Dy6  1  0.108839  0.000189  0.857999  1
  Dy  Dy7  1  0.390772  0.500599  0.357985  1
  Dy  Dy8  1  0.108722  0.499972  0.857573  1
  Dy  Dy9  1  0.391554  0.999575  0.358154  1
  Dy  Dy10  1  0.891163  0.001012  0.142105  1
  Ho  Ho11  1  0.610218  0.499411  0.642541  1
  In  In12  1  0.648725  0.749780  0.247899  1
  In  In13  1  0.851576  0.750512  0.748428  1
  In  In14  1  0.351018  0.250346  0.751900  1
  In  In15  1  0.147961  0.250159  0.252120  1
  In  In16  1  0.127285  0.750110  0.285384  1
  In  In17  1  0.372143  0.750148  0.785858  1
  In  In18  1  0.873220  0.249656  0.714490  1
  In  In19  1  0.627570  0.249962  0.214310  1
  In  In20  1  0.873677  0.543671  0.402257  1
  In  In21  1  0.626017  0.956320  0.902303  1
  In  In22  1  0.126143  0.043795  0.597996  1
  In  In23  1  0.374338  0.455813  0.097775  1
  In  In24  1  0.126742  0.455685  0.597317  1
  In  In25  1  0.374296  0.044111  0.097830  1
  In  In26  1  0.874853  0.955658  0.401979  1
  In  In27  1  0.625841  0.543969  0.902213  1
  Hg  Hg28  1  0.612295  0.750135  0.504931  1
  Hg  Hg29  1  0.886682  0.750166  0.005568  1
  Hg  Hg30  1  0.386928  0.249761  0.494289  1
  Hg  Hg31  1  0.112892  0.249966  0.994909  1
