# generated using pymatgen
data_Sr2CrSnF9
_symmetry_space_group_name_H-M   'P 1'
_cell_length_a   5.74873840
_cell_length_b   5.74617200
_cell_length_c   12.90416300
_cell_angle_alpha   91.49165883
_cell_angle_beta   100.83565493
_cell_angle_gamma   92.56706093
_symmetry_Int_Tables_number   1
_chemical_formula_structural   Sr2CrSnF9
_chemical_formula_sum   'Sr4 Cr2 Sn2 F18'
_cell_volume   417.98813823
_cell_formula_units_Z   2
loop_
 _symmetry_equiv_pos_site_id
 _symmetry_equiv_pos_as_xyz
  1  'x, y, z'
loop_
 _atom_site_type_symbol
 _atom_site_label
 _atom_site_symmetry_multiplicity
 _atom_site_fract_x
 _atom_site_fract_y
 _atom_site_fract_z
 _atom_site_occupancy
  Sr  Sr0  1  0.955265  0.240502  0.383461  1
  Sr  Sr1  1  0.044735  0.759498  0.616539  1
  Sr  Sr2  1  0.550238  0.263933  0.617474  1
  Sr  Sr3  1  0.449762  0.736067  0.382526  1
  Cr  Cr4  1  0.796805  0.792253  0.179145  1
  Cr  Cr5  1  0.203195  0.207747  0.820855  1
  Sn  Sn6  1  0.763548  0.685457  0.895041  1
  Sn  Sn7  1  0.236452  0.314543  0.104959  1
  F  F8  1  0.124582  0.950049  0.904813  1
  F  F9  1  0.875418  0.049951  0.095187  1
  F  F10  1  0.258548  0.448881  0.722214  1
  F  F11  1  0.741452  0.551119  0.277786  1
  F  F12  1  0.630841  0.998776  0.261218  1
  F  F13  1  0.369159  0.001224  0.738782  1
  F  F14  1  0.966933  0.583541  0.096172  1
  F  F15  1  0.033067  0.416459  0.903828  1
  F  F16  1  0.084658  0.892710  0.280700  1
  F  F17  1  0.915342  0.107290  0.719300  1
  F  F18  1  0.499836  0.678353  0.092251  1
  F  F19  1  0.500164  0.321647  0.907749  1
  F  F20  1  0.747385  0.995028  0.499322  1
  F  F21  1  0.252615  0.004972  0.500678  1
  F  F22  1  0.749013  0.493018  0.497705  1
  F  F23  1  0.250987  0.506982  0.502295  1
  F  F24  1  0.755310  0.610782  0.726235  1
  F  F25  1  0.244690  0.389218  0.273765  1
