# generated using pymatgen
data_Pr4TeC4I
_symmetry_space_group_name_H-M   'P 1'
_cell_length_a   7.84139002
_cell_length_b   7.84138940
_cell_length_c   7.07595502
_cell_angle_alpha   99.55162150
_cell_angle_beta   99.55161950
_cell_angle_gamma   33.13195237
_symmetry_Int_Tables_number   1
_chemical_formula_structural   Pr4TeC4I
_chemical_formula_sum   'Pr4 Te1 C4 I1'
_cell_volume   234.21164184
_cell_formula_units_Z   1
loop_
 _symmetry_equiv_pos_site_id
 _symmetry_equiv_pos_as_xyz
  1  'x, y, z'
loop_
 _atom_site_type_symbol
 _atom_site_label
 _atom_site_symmetry_multiplicity
 _atom_site_fract_x
 _atom_site_fract_y
 _atom_site_fract_z
 _atom_site_occupancy
  Pr  Pr0  1  0.860628  0.448239  0.157313  1
  Pr  Pr1  1  0.551761  0.139373  0.342688  1
  Pr  Pr2  1  0.453687  0.862682  0.642265  1
  Pr  Pr3  1  0.137318  0.546313  0.857735  1
  Te  Te4  1  0.215321  0.784679  0.250001  1
  C  C5  1  0.354200  0.101202  0.025709  1
  C  C6  1  0.898798  0.645801  0.474290  1
  C  C7  1  0.103973  0.360764  0.527650  1
  C  C8  1  0.639236  0.896027  0.972349  1
  I  I9  1  0.785078  0.214922  0.750000  1
