# generated using pymatgen
data_Dy8Ta11Si16Ir
_symmetry_space_group_name_H-M   'P 1'
_cell_length_a   7.02891776
_cell_length_b   7.02891704
_cell_length_c   12.95350119
_cell_angle_alpha   89.81151130
_cell_angle_beta   90.18849101
_cell_angle_gamma   89.67889180
_symmetry_Int_Tables_number   1
_chemical_formula_structural   Dy8Ta11Si16Ir
_chemical_formula_sum   'Dy8 Ta11 Si16 Ir1'
_cell_volume   639.95951620
_cell_formula_units_Z   1
loop_
 _symmetry_equiv_pos_site_id
 _symmetry_equiv_pos_as_xyz
  1  'x, y, z'
loop_
 _atom_site_type_symbol
 _atom_site_label
 _atom_site_symmetry_multiplicity
 _atom_site_fract_x
 _atom_site_fract_y
 _atom_site_fract_z
 _atom_site_occupancy
  Dy  Dy0  1  0.995873  0.659320  0.031817  1
  Dy  Dy1  1  0.002862  0.342737  0.531351  1
  Dy  Dy2  1  0.659320  0.995873  0.968183  1
  Dy  Dy3  1  0.158712  0.504945  0.780452  1
  Dy  Dy4  1  0.841056  0.498276  0.283234  1
  Dy  Dy5  1  0.504945  0.158712  0.219548  1
  Dy  Dy6  1  0.498276  0.841056  0.716766  1
  Dy  Dy7  1  0.342737  0.002862  0.468649  1
  Ta  Ta8  1  0.341126  0.504914  0.375511  1
  Ta  Ta9  1  0.850590  0.996938  0.375276  1
  Ta  Ta10  1  0.006042  0.152105  0.125825  1
  Ta  Ta11  1  0.996938  0.850590  0.624724  1
  Ta  Ta12  1  0.504914  0.341126  0.624489  1
  Ta  Ta13  1  0.152105  0.006042  0.874175  1
  Ta  Ta14  1  0.825696  0.171268  0.747337  1
  Ta  Ta15  1  0.171268  0.825696  0.252663  1
  Ta  Ta16  1  0.328926  0.328926  0.000000  1
  Ta  Ta17  1  0.495076  0.652479  0.126101  1
  Ta  Ta18  1  0.652479  0.495076  0.873899  1
  Si  Si19  1  0.045209  0.709498  0.438493  1
  Si  Si20  1  0.954512  0.294521  0.935137  1
  Si  Si21  1  0.709498  0.045209  0.561507  1
  Si  Si22  1  0.205260  0.454794  0.186056  1
  Si  Si23  1  0.791567  0.550457  0.682366  1
  Si  Si24  1  0.454794  0.205260  0.813944  1
  Si  Si25  1  0.550457  0.791567  0.317634  1
  Si  Si26  1  0.294521  0.954512  0.064863  1
  Si  Si27  1  0.797620  0.864462  0.183590  1
  Si  Si28  1  0.298415  0.631283  0.566802  1
  Si  Si29  1  0.703438  0.364985  0.067407  1
  Si  Si30  1  0.631283  0.298415  0.433198  1
  Si  Si31  1  0.364985  0.703438  0.932593  1
  Si  Si32  1  0.134383  0.203687  0.317120  1
  Si  Si33  1  0.203687  0.134383  0.682880  1
  Si  Si34  1  0.864462  0.797620  0.816410  1
  Ir  Ir35  1  0.666970  0.666970  0.500000  1
