# generated using pymatgen
data_Y3Ho5MgCdPd2
_symmetry_space_group_name_H-M   'P 1'
_cell_length_a   9.71927209
_cell_length_b   9.71927251
_cell_length_c   9.74063400
_cell_angle_alpha   59.92726907
_cell_angle_beta   59.92726765
_cell_angle_gamma   59.86210919
_symmetry_Int_Tables_number   1
_chemical_formula_structural   Y3Ho5MgCdPd2
_chemical_formula_sum   'Y6 Ho10 Mg2 Cd2 Pd4'
_cell_volume   649.24375734
_cell_formula_units_Z   2
loop_
 _symmetry_equiv_pos_site_id
 _symmetry_equiv_pos_as_xyz
  1  'x, y, z'
loop_
 _atom_site_type_symbol
 _atom_site_label
 _atom_site_symmetry_multiplicity
 _atom_site_fract_x
 _atom_site_fract_y
 _atom_site_fract_z
 _atom_site_occupancy
  Y  Y0  1  0.936500  0.564761  0.565068  1
  Y  Y1  1  0.564761  0.936500  0.933671  1
  Y  Y2  1  0.564761  0.936500  0.565068  1
  Y  Y3  1  0.936500  0.564761  0.933671  1
  Y  Y4  1  0.566710  0.566710  0.933290  1
  Y  Y5  1  0.936008  0.936008  0.563992  1
  Ho  Ho6  1  0.352477  0.352477  0.351129  1
  Ho  Ho7  1  0.352477  0.352477  0.943916  1
  Ho  Ho8  1  0.353319  0.942497  0.352091  1
  Ho  Ho9  1  0.942497  0.353319  0.352091  1
  Ho  Ho10  1  0.811438  0.188768  0.188799  1
  Ho  Ho11  1  0.188768  0.811438  0.810995  1
  Ho  Ho12  1  0.188768  0.811438  0.188799  1
  Ho  Ho13  1  0.811438  0.188768  0.810995  1
  Ho  Ho14  1  0.190945  0.190945  0.809055  1
  Ho  Ho15  1  0.812913  0.812913  0.187087  1
  Mg  Mg16  1  0.577462  0.577462  0.581173  1
  Mg  Mg17  1  0.577462  0.577462  0.263905  1
  Cd  Cd18  1  0.581639  0.253800  0.582281  1
  Cd  Cd19  1  0.253800  0.581639  0.582281  1
  Pd  Pd20  1  0.144171  0.144171  0.144931  1
  Pd  Pd21  1  0.144171  0.144171  0.566725  1
  Pd  Pd22  1  0.143723  0.567290  0.144492  1
  Pd  Pd23  1  0.567290  0.143723  0.144492  1
