# generated using pymatgen
data_Zr2TaNb(PO4)6
_symmetry_space_group_name_H-M   'P 1'
_cell_length_a   8.87628604
_cell_length_b   8.87585709
_cell_length_c   9.17589707
_cell_angle_alpha   90.12004773
_cell_angle_beta   118.77763979
_cell_angle_gamma   119.99471255
_symmetry_Int_Tables_number   1
_chemical_formula_structural   Zr2TaNb(PO4)6
_chemical_formula_sum   'Zr2 Ta1 Nb1 P6 O24'
_cell_volume   519.95468339
_cell_formula_units_Z   1
loop_
 _symmetry_equiv_pos_site_id
 _symmetry_equiv_pos_as_xyz
  1  'x, y, z'
loop_
 _atom_site_type_symbol
 _atom_site_label
 _atom_site_symmetry_multiplicity
 _atom_site_fract_x
 _atom_site_fract_y
 _atom_site_fract_z
 _atom_site_occupancy
  Zr  Zr0  1  0.216663  0.859642  0.075851  1
  Zr  Zr1  1  0.784234  0.640938  0.425742  1
  Ta  Ta2  1  0.213541  0.357772  0.570625  1
  Nb  Nb3  1  0.784535  0.141187  0.926206  1
  P  P4  1  0.997933  0.970464  0.248729  1
  P  P5  1  0.278184  0.528250  0.251335  1
  P  P6  1  0.284953  0.750378  0.747352  1
  P  P7  1  0.722040  0.249367  0.252546  1
  P  P8  1  0.714817  0.464776  0.748866  1
  P  P9  1  0.002434  0.036940  0.751853  1
  O  O10  1  0.285698  0.700797  0.224044  1
  O  O11  1  0.866763  0.999888  0.079041  1
  O  O12  1  0.856347  0.863175  0.594951  1
  O  O13  1  0.847251  0.807601  0.276328  1
  O  O14  1  0.142628  0.937684  0.231266  1
  O  O15  1  0.470546  0.543500  0.280451  1
  O  O16  1  0.103062  0.735627  0.584116  1
  O  O17  1  0.898969  0.633185  0.911031  1
  O  O18  1  0.280365  0.774263  0.909465  1
  O  O19  1  0.494535  0.917377  0.780793  1
  O  O20  1  0.727662  0.483267  0.589255  1
  O  O21  1  0.729438  0.424480  0.272203  1
  O  O22  1  0.282579  0.575644  0.715535  1
  O  O23  1  0.266839  0.499895  0.413649  1
  O  O24  1  0.525930  0.084544  0.231034  1
  O  O25  1  0.723750  0.211299  0.088350  1
  O  O26  1  0.080119  0.360416  0.086689  1
  O  O27  1  0.916795  0.275844  0.417916  1
  O  O28  1  0.505873  0.431701  0.707793  1
  O  O29  1  0.866370  0.080016  0.780678  1
  O  O30  1  0.139608  0.204498  0.711884  1
  O  O31  1  0.135655  0.145669  0.407720  1
  O  O32  1  0.146261  0.019214  0.919149  1
  O  O33  1  0.707623  0.290701  0.787554  1
