# generated using pymatgen
data_LaPuRe6(Si2Tc)2
_symmetry_space_group_name_H-M   'P 1'
_cell_length_a   4.16984300
_cell_length_b   7.33597070
_cell_length_c   15.47039852
_cell_angle_alpha   89.73297439
_cell_angle_beta   90.00000000
_cell_angle_gamma   90.00000000
_symmetry_Int_Tables_number   1
_chemical_formula_structural   LaPuRe6(Si2Tc)2
_chemical_formula_sum   'La2 Pu2 Re12 Si8 Tc4'
_cell_volume   473.23196996
_cell_formula_units_Z   2
loop_
 _symmetry_equiv_pos_site_id
 _symmetry_equiv_pos_as_xyz
  1  'x, y, z'
loop_
 _atom_site_type_symbol
 _atom_site_label
 _atom_site_symmetry_multiplicity
 _atom_site_fract_x
 _atom_site_fract_y
 _atom_site_fract_z
 _atom_site_occupancy
  La  La0  1  0.000000  0.578261  0.119979  1
  La  La1  1  0.000000  0.421739  0.880021  1
  Pu  Pu2  1  0.500000  0.074973  0.384865  1
  Pu  Pu3  1  0.500000  0.925027  0.615135  1
  Re  Re4  1  0.000000  0.739592  0.323618  1
  Re  Re5  1  0.000000  0.260408  0.676382  1
  Re  Re6  1  0.500000  0.229251  0.183204  1
  Re  Re7  1  0.500000  0.770749  0.816796  1
  Re  Re8  1  0.000000  0.436365  0.418840  1
  Re  Re9  1  0.000000  0.563635  0.581160  1
  Re  Re10  1  0.500000  0.936288  0.082129  1
  Re  Re11  1  0.500000  0.063712  0.917871  1
  Re  Re12  1  0.000000  0.994070  0.207787  1
  Re  Re13  1  0.000000  0.005930  0.792213  1
  Re  Re14  1  0.500000  0.488763  0.297491  1
  Re  Re15  1  0.500000  0.511237  0.702509  1
  Si  Si16  1  0.000000  0.832322  0.478062  1
  Si  Si17  1  0.000000  0.167678  0.521938  1
  Si  Si18  1  0.500000  0.322095  0.025730  1
  Si  Si19  1  0.500000  0.677905  0.974270  1
  Si  Si20  1  0.000000  0.287721  0.278203  1
  Si  Si21  1  0.000000  0.712279  0.721797  1
  Si  Si22  1  0.500000  0.794606  0.229837  1
  Si  Si23  1  0.500000  0.205394  0.770163  1
  Tc  Tc24  1  0.000000  0.138222  0.051562  1
  Tc  Tc25  1  0.000000  0.861778  0.948438  1
  Tc  Tc26  1  0.500000  0.645753  0.450668  1
  Tc  Tc27  1  0.500000  0.354247  0.549332  1
