# generated using pymatgen
data_Sm3HfIn2Ir3
_symmetry_space_group_name_H-M   'P 1'
_cell_length_a   7.48945708
_cell_length_b   7.33240921
_cell_length_c   4.23721100
_cell_angle_alpha   90.00000000
_cell_angle_beta   90.00000000
_cell_angle_gamma   119.30872942
_symmetry_Int_Tables_number   1
_chemical_formula_structural   Sm3HfIn2Ir3
_chemical_formula_sum   'Sm3 Hf1 In2 Ir3'
_cell_volume   202.90416774
_cell_formula_units_Z   1
loop_
 _symmetry_equiv_pos_site_id
 _symmetry_equiv_pos_as_xyz
  1  'x, y, z'
loop_
 _atom_site_type_symbol
 _atom_site_label
 _atom_site_symmetry_multiplicity
 _atom_site_fract_x
 _atom_site_fract_y
 _atom_site_fract_z
 _atom_site_occupancy
  Sm  Sm0  1  0.581623  0.586438  0.000000  1
  Sm  Sm1  1  0.418377  0.004815  0.000000  1
  Sm  Sm2  1  0.000000  0.396163  0.000000  1
  Hf  Hf3  1  0.000000  0.756032  0.500000  1
  In  In4  1  0.253229  0.251241  0.500000  1
  In  In5  1  0.746771  0.998012  0.500000  1
  Ir  Ir6  1  0.000000  0.975214  0.000000  1
  Ir  Ir7  1  0.685577  0.358831  0.500000  1
  Ir  Ir8  1  0.314423  0.673255  0.500000  1
