# generated using pymatgen
data_Li2La2Si2Bi
_symmetry_space_group_name_H-M   'P 1'
_cell_length_a   10.02325732
_cell_length_b   10.02325687
_cell_length_c   7.00853100
_cell_angle_alpha   90.00000000
_cell_angle_beta   90.00000000
_cell_angle_gamma   153.12677667
_symmetry_Int_Tables_number   1
_chemical_formula_structural   Li2La2Si2Bi
_chemical_formula_sum   'Li4 La4 Si4 Bi2'
_cell_volume   318.27341125
_cell_formula_units_Z   2
loop_
 _symmetry_equiv_pos_site_id
 _symmetry_equiv_pos_as_xyz
  1  'x, y, z'
loop_
 _atom_site_type_symbol
 _atom_site_label
 _atom_site_symmetry_multiplicity
 _atom_site_fract_x
 _atom_site_fract_y
 _atom_site_fract_z
 _atom_site_occupancy
  Li  Li0  1  0.816858  0.183142  0.442446  1
  Li  Li1  1  0.183142  0.816858  0.557554  1
  Li  Li2  1  0.816858  0.183142  0.057554  1
  Li  Li3  1  0.183142  0.816858  0.942446  1
  La  La4  1  0.545037  0.454963  0.750000  1
  La  La5  1  0.454963  0.545037  0.250000  1
  La  La6  1  0.352187  0.647813  0.750000  1
  La  La7  1  0.647813  0.352187  0.250000  1
  Si  Si8  1  0.943519  0.056481  0.923752  1
  Si  Si9  1  0.056481  0.943519  0.076248  1
  Si  Si10  1  0.943519  0.056481  0.576248  1
  Si  Si11  1  0.056481  0.943519  0.423752  1
  Bi  Bi12  1  0.719190  0.280810  0.750000  1
  Bi  Bi13  1  0.280810  0.719190  0.250000  1
