# generated using pymatgen
data_CaYb12(SmSb4)3
_symmetry_space_group_name_H-M   'P 1'
_cell_length_a   9.46718359
_cell_length_b   9.46718922
_cell_length_c   9.46718043
_cell_angle_alpha   90.29187540
_cell_angle_beta   90.29194839
_cell_angle_gamma   89.70813279
_symmetry_Int_Tables_number   1
_chemical_formula_structural   CaYb12(SmSb4)3
_chemical_formula_sum   'Ca1 Yb12 Sm3 Sb12'
_cell_volume   848.48791244
_cell_formula_units_Z   1
loop_
 _symmetry_equiv_pos_site_id
 _symmetry_equiv_pos_as_xyz
  1  'x, y, z'
loop_
 _atom_site_type_symbol
 _atom_site_label
 _atom_site_symmetry_multiplicity
 _atom_site_fract_x
 _atom_site_fract_y
 _atom_site_fract_z
 _atom_site_occupancy
  Ca  Ca0  1  0.073007  0.573006  0.926993  1
  Yb  Yb1  1  0.824841  0.324841  0.175159  1
  Yb  Yb2  1  0.931259  0.927440  0.930759  1
  Yb  Yb3  1  0.826879  0.673814  0.325671  1
  Yb  Yb4  1  0.176835  0.822251  0.322438  1
  Yb  Yb5  1  0.173814  0.174329  0.173121  1
  Yb  Yb6  1  0.325042  0.825042  0.674959  1
  Yb  Yb7  1  0.069242  0.431259  0.572560  1
  Yb  Yb8  1  0.322251  0.177562  0.823165  1
  Yb  Yb9  1  0.674329  0.326879  0.826186  1
  Yb  Yb10  1  0.677562  0.676835  0.677749  1
  Yb  Yb11  1  0.569086  0.069086  0.430914  1
  Yb  Yb12  1  0.427440  0.569241  0.068741  1
  Sm  Sm13  1  0.929568  0.072065  0.572546  1
  Sm  Sm14  1  0.427453  0.429568  0.427935  1
  Sm  Sm15  1  0.572065  0.927454  0.070432  1
  Sb  Sb16  1  0.747058  0.369597  0.500042  1
  Sb  Sb17  1  0.869597  0.999958  0.252942  1
  Sb  Sb18  1  0.999238  0.755406  0.626004  1
  Sb  Sb19  1  0.247075  0.128779  0.499220  1
  Sb  Sb20  1  0.130071  0.498448  0.251079  1
  Sb  Sb21  1  0.998448  0.248921  0.869928  1
  Sb  Sb22  1  0.255406  0.873996  0.000762  1
  Sb  Sb23  1  0.373996  0.499238  0.744594  1
  Sb  Sb24  1  0.499958  0.247058  0.130403  1
  Sb  Sb25  1  0.748921  0.630071  0.001552  1
  Sb  Sb26  1  0.628779  0.000780  0.752925  1
  Sb  Sb27  1  0.500780  0.747075  0.371221  1
