# generated using pymatgen
data_ErPa3(Co7B3)2
_symmetry_space_group_name_H-M   'P 1'
_cell_length_a   4.94486900
_cell_length_b   4.94486997
_cell_length_c   13.08958100
_cell_angle_alpha   90.00000000
_cell_angle_beta   90.00000000
_cell_angle_gamma   120.00000022
_symmetry_Int_Tables_number   1
_chemical_formula_structural   ErPa3(Co7B3)2
_chemical_formula_sum   'Er1 Pa3 Co14 B6'
_cell_volume   277.18264965
_cell_formula_units_Z   1
loop_
 _symmetry_equiv_pos_site_id
 _symmetry_equiv_pos_as_xyz
  1  'x, y, z'
loop_
 _atom_site_type_symbol
 _atom_site_label
 _atom_site_symmetry_multiplicity
 _atom_site_fract_x
 _atom_site_fract_y
 _atom_site_fract_z
 _atom_site_occupancy
  Er  Er0  1  0.000000  0.000000  0.500000  1
  Pa  Pa1  1  0.000000  0.000000  0.257283  1
  Pa  Pa2  1  0.000000  0.000000  0.000000  1
  Pa  Pa3  1  0.000000  0.000000  0.742717  1
  Co  Co4  1  0.500000  0.000000  0.617057  1
  Co  Co5  1  0.500000  0.000000  0.845248  1
  Co  Co6  1  0.500000  0.500000  0.845248  1
  Co  Co7  1  0.500000  0.500000  0.382943  1
  Co  Co8  1  0.000000  0.500000  0.617057  1
  Co  Co9  1  0.000000  0.500000  0.154752  1
  Co  Co10  1  0.000000  0.500000  0.845248  1
  Co  Co11  1  0.500000  0.500000  0.154752  1
  Co  Co12  1  0.500000  0.000000  0.382943  1
  Co  Co13  1  0.500000  0.000000  0.154752  1
  Co  Co14  1  0.500000  0.500000  0.617057  1
  Co  Co15  1  0.333333  0.666667  0.000000  1
  Co  Co16  1  0.666667  0.333333  0.000000  1
  Co  Co17  1  0.000000  0.500000  0.382943  1
  B  B18  1  0.666667  0.333333  0.732290  1
  B  B19  1  0.333333  0.666667  0.732290  1
  B  B20  1  0.333333  0.666667  0.267710  1
  B  B21  1  0.666667  0.333333  0.500000  1
  B  B22  1  0.666667  0.333333  0.267710  1
  B  B23  1  0.333333  0.666667  0.500000  1
