# generated using pymatgen
data_Nd3CdPd(PtPb)2
_symmetry_space_group_name_H-M   'P 1'
_cell_length_a   7.91594216
_cell_length_b   7.91594072
_cell_length_c   4.00633400
_cell_angle_alpha   90.00000000
_cell_angle_beta   90.00000000
_cell_angle_gamma   120.28309160
_symmetry_Int_Tables_number   1
_chemical_formula_structural   Nd3CdPd(PtPb)2
_chemical_formula_sum   'Nd3 Cd1 Pd1 Pt2 Pb2'
_cell_volume   216.78886502
_cell_formula_units_Z   1
loop_
 _symmetry_equiv_pos_site_id
 _symmetry_equiv_pos_as_xyz
  1  'x, y, z'
loop_
 _atom_site_type_symbol
 _atom_site_label
 _atom_site_symmetry_multiplicity
 _atom_site_fract_x
 _atom_site_fract_y
 _atom_site_fract_z
 _atom_site_occupancy
  Nd  Nd0  1  0.588734  0.993915  0.000000  1
  Nd  Nd1  1  0.993915  0.588734  0.000000  1
  Nd  Nd2  1  0.417841  0.417841  0.000000  1
  Cd  Cd3  1  0.742536  0.742536  0.500000  1
  Pd  Pd4  1  0.998064  0.998064  0.000000  1
  Pt  Pt5  1  0.338802  0.668251  0.500000  1
  Pt  Pt6  1  0.668251  0.338802  0.500000  1
  Pb  Pb7  1  0.253252  0.998606  0.500000  1
  Pb  Pb8  1  0.998606  0.253252  0.500000  1
