# generated using pymatgen
data_V4SbW3O16
_symmetry_space_group_name_H-M   'P 1'
_cell_length_a   5.64347357
_cell_length_b   5.64213235
_cell_length_c   9.84503840
_cell_angle_alpha   80.22625468
_cell_angle_beta   78.74486187
_cell_angle_gamma   111.27216206
_symmetry_Int_Tables_number   1
_chemical_formula_structural   V4SbW3O16
_chemical_formula_sum   'V4 Sb1 W3 O16'
_cell_volume   276.39874049
_cell_formula_units_Z   1
loop_
 _symmetry_equiv_pos_site_id
 _symmetry_equiv_pos_as_xyz
  1  'x, y, z'
loop_
 _atom_site_type_symbol
 _atom_site_label
 _atom_site_symmetry_multiplicity
 _atom_site_fract_x
 _atom_site_fract_y
 _atom_site_fract_z
 _atom_site_occupancy
  V  V0  1  0.499491  0.501930  0.999847  1
  V  V1  1  0.250512  0.248048  0.500169  1
  V  V2  1  0.751847  0.749216  0.500156  1
  V  V3  1  0.998121  0.000754  0.999860  1
  Sb  Sb4  1  0.874956  0.374881  0.250062  1
  W  W5  1  0.624226  0.125454  0.750389  1
  W  W6  1  0.374933  0.875017  0.249958  1
  W  W7  1  0.125864  0.624592  0.749633  1
  O  O8  1  0.403235  0.198525  0.898451  1
  O  O9  1  0.153625  0.949044  0.397458  1
  O  O10  1  0.901267  0.699612  0.899338  1
  O  O11  1  0.645973  0.452087  0.402015  1
  O  O12  1  0.848829  0.050422  0.600646  1
  O  O13  1  0.596315  0.801049  0.102508  1
  O  O14  1  0.346847  0.551489  0.601548  1
  O  O15  1  0.103912  0.297860  0.097983  1
  O  O16  1  0.826056  0.521686  0.652997  1
  O  O17  1  0.579781  0.273181  0.152467  1
  O  O18  1  0.325422  0.021040  0.652992  1
  O  O19  1  0.074323  0.767610  0.152461  1
  O  O20  1  0.924082  0.228405  0.846963  1
  O  O21  1  0.675505  0.982229  0.347565  1
  O  O22  1  0.424715  0.729047  0.846979  1
  O  O23  1  0.170164  0.476821  0.347555  1
