# generated using pymatgen
data_ErCuAg5NO11
_symmetry_space_group_name_H-M   'P 1'
_cell_length_a   6.90638620
_cell_length_b   7.11064462
_cell_length_c   7.11064457
_cell_angle_alpha   60.07686992
_cell_angle_beta   60.99669058
_cell_angle_gamma   60.99669096
_symmetry_Int_Tables_number   1
_chemical_formula_structural   ErCuAg5NO11
_chemical_formula_sum   'Er1 Cu1 Ag5 N1 O11'
_cell_volume   250.72273979
_cell_formula_units_Z   1
loop_
 _symmetry_equiv_pos_site_id
 _symmetry_equiv_pos_as_xyz
  1  'x, y, z'
loop_
 _atom_site_type_symbol
 _atom_site_label
 _atom_site_symmetry_multiplicity
 _atom_site_fract_x
 _atom_site_fract_y
 _atom_site_fract_z
 _atom_site_occupancy
  Er  Er0  1  0.002639  0.997146  0.997146  1
  Cu  Cu1  1  0.501808  0.997896  0.997896  1
  Ag  Ag2  1  0.500931  0.496854  0.999863  1
  Ag  Ag3  1  0.500931  0.999863  0.496854  1
  Ag  Ag4  1  0.002316  0.999854  0.496749  1
  Ag  Ag5  1  0.999769  0.500174  0.500174  1
  Ag  Ag6  1  0.002316  0.496749  0.999854  1
  N  N7  1  0.494283  0.506036  0.506036  1
  O  O8  1  0.582456  0.125817  0.125817  1
  O  O9  1  0.133607  0.591074  0.141975  1
  O  O10  1  0.166021  0.125686  0.125686  1
  O  O11  1  0.133607  0.141975  0.591074  1
  O  O12  1  0.557088  0.598065  0.290009  1
  O  O13  1  0.557088  0.290009  0.598065  1
  O  O14  1  0.368053  0.630715  0.630715  1
  O  O15  1  0.868160  0.860292  0.402852  1
  O  O16  1  0.868160  0.402852  0.860292  1
  O  O17  1  0.840066  0.869491  0.869491  1
  O  O18  1  0.420699  0.869450  0.869450  1
