# generated using pymatgen
data_Dy5Co14Si3P9Ru5
_symmetry_space_group_name_H-M   'P 1'
_cell_length_a   12.20298044
_cell_length_b   12.15627893
_cell_length_c   3.72518800
_cell_angle_alpha   90.00000000
_cell_angle_beta   90.00000000
_cell_angle_gamma   119.99039046
_symmetry_Int_Tables_number   1
_chemical_formula_structural   Dy5Co14Si3P9Ru5
_chemical_formula_sum   'Dy5 Co14 Si3 P9 Ru5'
_cell_volume   478.61625500
_cell_formula_units_Z   1
loop_
 _symmetry_equiv_pos_site_id
 _symmetry_equiv_pos_as_xyz
  1  'x, y, z'
loop_
 _atom_site_type_symbol
 _atom_site_label
 _atom_site_symmetry_multiplicity
 _atom_site_fract_x
 _atom_site_fract_y
 _atom_site_fract_z
 _atom_site_occupancy
  Dy  Dy0  1  0.661276  0.334098  0.000000  1
  Dy  Dy1  1  0.334299  0.666726  0.000000  1
  Dy  Dy2  1  0.183000  0.181705  0.500000  1
  Dy  Dy3  1  0.819767  0.002779  0.500000  1
  Dy  Dy4  1  0.998840  0.817859  0.500000  1
  Co  Co5  1  0.830591  0.198061  0.000000  1
  Co  Co6  1  0.800154  0.630911  0.000000  1
  Co  Co7  1  0.373102  0.172156  0.000000  1
  Co  Co8  1  0.192547  0.819619  0.000000  1
  Co  Co9  1  0.623425  0.798524  0.000000  1
  Co  Co10  1  0.179337  0.377157  0.000000  1
  Co  Co11  1  0.479898  0.354985  0.500000  1
  Co  Co12  1  0.132661  0.645756  0.500000  1
  Co  Co13  1  0.512835  0.866316  0.500000  1
  Co  Co14  1  0.357908  0.484284  0.500000  1
  Co  Co15  1  0.716747  0.719731  0.500000  1
  Co  Co16  1  0.278148  0.996606  0.500000  1
  Co  Co17  1  0.008712  0.284240  0.500000  1
  Co  Co18  1  0.999753  0.999618  0.000000  1
  Si  Si19  1  0.363464  0.362949  0.000000  1
  Si  Si20  1  0.632994  0.995258  0.000000  1
  Si  Si21  1  0.842386  0.317642  0.500000  1
  P  P22  1  0.004126  0.638575  0.000000  1
  P  P23  1  0.680678  0.522897  0.500000  1
  P  P24  1  0.473094  0.163973  0.500000  1
  P  P25  1  0.314451  0.835267  0.500000  1
  P  P26  1  0.520757  0.684979  0.500000  1
  P  P27  1  0.168840  0.479742  0.500000  1
  P  P28  1  0.818535  0.822199  0.000000  1
  P  P29  1  0.178351  0.998538  0.000000  1
  P  P30  1  0.003745  0.182324  0.000000  1
  Ru  Ru31  1  0.554786  0.554169  0.000000  1
  Ru  Ru32  1  0.434938  0.987577  0.000000  1
  Ru  Ru33  1  0.007249  0.449338  0.000000  1
  Ru  Ru34  1  0.640865  0.125120  0.500000  1
  Ru  Ru35  1  0.877740  0.528321  0.500000  1
