# generated using pymatgen
data_Yb3LuIr2(RuO7)2
_symmetry_space_group_name_H-M   'P 1'
_cell_length_a   7.19988429
_cell_length_b   7.17387324
_cell_length_c   7.19988512
_cell_angle_alpha   60.03220291
_cell_angle_beta   60.22895215
_cell_angle_gamma   60.03221066
_symmetry_Int_Tables_number   1
_chemical_formula_structural   Yb3LuIr2(RuO7)2
_chemical_formula_sum   'Yb3 Lu1 Ir2 Ru2 O14'
_cell_volume   263.54063962
_cell_formula_units_Z   1
loop_
 _symmetry_equiv_pos_site_id
 _symmetry_equiv_pos_as_xyz
  1  'x, y, z'
loop_
 _atom_site_type_symbol
 _atom_site_label
 _atom_site_symmetry_multiplicity
 _atom_site_fract_x
 _atom_site_fract_y
 _atom_site_fract_z
 _atom_site_occupancy
  Yb  Yb0  1  0.125000  0.125000  0.125000  1
  Yb  Yb1  1  0.625000  0.125000  0.125000  1
  Yb  Yb2  1  0.125000  0.125000  0.625000  1
  Lu  Lu3  1  0.125000  0.625000  0.125000  1
  Ir  Ir4  1  0.625000  0.625000  0.625000  1
  Ir  Ir5  1  0.625000  0.125000  0.625000  1
  Ru  Ru6  1  0.125000  0.625000  0.625000  1
  Ru  Ru7  1  0.625000  0.625000  0.125000  1
  O  O8  1  0.005441  0.984247  0.005441  1
  O  O9  1  0.244559  0.265753  0.244559  1
  O  O10  1  0.297340  0.299348  0.703337  1
  O  O11  1  0.537416  0.554963  0.954029  1
  O  O12  1  0.705284  0.295598  0.705284  1
  O  O13  1  0.703337  0.299348  0.297340  1
  O  O14  1  0.295971  0.695037  0.712584  1
  O  O15  1  0.303168  0.694006  0.303168  1
  O  O16  1  0.712584  0.695037  0.295971  1
  O  O17  1  0.954029  0.554963  0.537416  1
  O  O18  1  0.546663  0.950652  0.952660  1
  O  O19  1  0.952660  0.950652  0.546663  1
  O  O20  1  0.946832  0.555994  0.946832  1
  O  O21  1  0.544716  0.954402  0.544716  1
