# generated using pymatgen
data_SmY9(Pb3Se)2
_symmetry_space_group_name_H-M   'P 1'
_cell_length_a   9.15772700
_cell_length_b   9.15772730
_cell_length_c   6.74557700
_cell_angle_alpha   90.00000000
_cell_angle_beta   90.00000000
_cell_angle_gamma   120.00907683
_symmetry_Int_Tables_number   1
_chemical_formula_structural   SmY9(Pb3Se)2
_chemical_formula_sum   'Sm1 Y9 Pb6 Se2'
_cell_volume   489.87514595
_cell_formula_units_Z   1
loop_
 _symmetry_equiv_pos_site_id
 _symmetry_equiv_pos_as_xyz
  1  'x, y, z'
loop_
 _atom_site_type_symbol
 _atom_site_label
 _atom_site_symmetry_multiplicity
 _atom_site_fract_x
 _atom_site_fract_y
 _atom_site_fract_z
 _atom_site_occupancy
  Sm  Sm0  1  0.748132  0.748132  0.750000  1
  Y  Y1  1  0.250581  0.999866  0.750000  1
  Y  Y2  1  0.999866  0.250581  0.750000  1
  Y  Y3  1  0.252108  0.252108  0.250000  1
  Y  Y4  1  0.748911  0.999858  0.250000  1
  Y  Y5  1  0.999858  0.748911  0.250000  1
  Y  Y6  1  0.666401  0.332894  0.000250  1
  Y  Y7  1  0.332894  0.666401  0.000250  1
  Y  Y8  1  0.332894  0.666401  0.499750  1
  Y  Y9  1  0.666401  0.332894  0.499750  1
  Pb  Pb10  1  0.395324  0.395324  0.750000  1
  Pb  Pb11  1  0.602071  0.001224  0.750000  1
  Pb  Pb12  1  0.001224  0.602071  0.750000  1
  Pb  Pb13  1  0.602794  0.602794  0.250000  1
  Pb  Pb14  1  0.396910  0.999540  0.250000  1
  Pb  Pb15  1  0.999540  0.396910  0.250000  1
  Se  Se16  1  0.002044  0.002044  0.001737  1
  Se  Se17  1  0.002044  0.002044  0.498263  1
