# generated using pymatgen
data_Dy5Lu3P12Ir11Rh5
_symmetry_space_group_name_H-M   'P 1'
_cell_length_a   12.95678652
_cell_length_b   12.94376465
_cell_length_c   3.97695200
_cell_angle_alpha   90.00000000
_cell_angle_beta   90.00000000
_cell_angle_gamma   119.92738618
_symmetry_Int_Tables_number   1
_chemical_formula_structural   Dy5Lu3P12Ir11Rh5
_chemical_formula_sum   'Dy5 Lu3 P12 Ir11 Rh5'
_cell_volume   578.03775133
_cell_formula_units_Z   1
loop_
 _symmetry_equiv_pos_site_id
 _symmetry_equiv_pos_as_xyz
  1  'x, y, z'
loop_
 _atom_site_type_symbol
 _atom_site_label
 _atom_site_symmetry_multiplicity
 _atom_site_fract_x
 _atom_site_fract_y
 _atom_site_fract_z
 _atom_site_occupancy
  Dy  Dy0  1  0.333325  0.666486  0.500000  1
  Dy  Dy1  1  0.666244  0.332655  0.500000  1
  Dy  Dy2  1  0.999998  0.813632  0.000000  1
  Dy  Dy3  1  0.186505  0.186546  0.000000  1
  Dy  Dy4  1  0.813536  0.000090  0.000000  1
  Lu  Lu5  1  0.000208  0.446217  0.500000  1
  Lu  Lu6  1  0.553731  0.553894  0.500000  1
  Lu  Lu7  1  0.446220  0.000039  0.500000  1
  P  P8  1  0.000137  0.651729  0.500000  1
  P  P9  1  0.348423  0.348223  0.500000  1
  P  P10  1  0.651776  0.000443  0.500000  1
  P  P11  1  0.517248  0.689238  0.000000  1
  P  P12  1  0.310304  0.827793  0.000000  1
  P  P13  1  0.172131  0.482783  0.000000  1
  P  P14  1  0.482968  0.171532  0.000000  1
  P  P15  1  0.689196  0.517299  0.000000  1
  P  P16  1  0.828246  0.311470  0.000000  1
  P  P17  1  0.000354  0.176522  0.500000  1
  P  P18  1  0.823432  0.823483  0.500000  1
  P  P19  1  0.176644  0.000200  0.500000  1
  Ir  Ir20  1  0.642855  0.132567  0.000000  1
  Ir  Ir21  1  0.000018  0.275388  0.000000  1
  Ir  Ir22  1  0.724563  0.724592  0.000000  1
  Ir  Ir23  1  0.275279  0.999752  0.000000  1
  Ir  Ir24  1  0.628662  0.807660  0.500000  1
  Ir  Ir25  1  0.192817  0.821301  0.500000  1
  Ir  Ir26  1  0.178573  0.371753  0.500000  1
  Ir  Ir27  1  0.371478  0.178449  0.500000  1
  Ir  Ir28  1  0.807203  0.628405  0.500000  1
  Ir  Ir29  1  0.821767  0.192567  0.500000  1
  Ir  Ir30  1  0.999969  0.999857  0.500000  1
  Rh  Rh31  1  0.510641  0.867705  0.000000  1
  Rh  Rh32  1  0.131896  0.643316  0.000000  1
  Rh  Rh33  1  0.356616  0.488748  0.000000  1
  Rh  Rh34  1  0.489182  0.356397  0.000000  1
  Rh  Rh35  1  0.867856  0.511268  0.000000  1
