# generated using pymatgen
data_Dy2Al8GaIr3
_symmetry_space_group_name_H-M   'P 1'
_cell_length_a   7.53991371
_cell_length_b   7.53991100
_cell_length_c   9.52282100
_cell_angle_alpha   90.00000000
_cell_angle_beta   90.00000000
_cell_angle_gamma   119.37945080
_symmetry_Int_Tables_number   1
_chemical_formula_structural   Dy2Al8GaIr3
_chemical_formula_sum   'Dy4 Al16 Ga2 Ir6'
_cell_volume   471.74868418
_cell_formula_units_Z   2
loop_
 _symmetry_equiv_pos_site_id
 _symmetry_equiv_pos_as_xyz
  1  'x, y, z'
loop_
 _atom_site_type_symbol
 _atom_site_label
 _atom_site_symmetry_multiplicity
 _atom_site_fract_x
 _atom_site_fract_y
 _atom_site_fract_z
 _atom_site_occupancy
  Dy  Dy0  1  0.994162  0.674939  0.750000  1
  Dy  Dy1  1  0.005838  0.325061  0.250000  1
  Dy  Dy2  1  0.674938  0.994162  0.750000  1
  Dy  Dy3  1  0.325062  0.005838  0.250000  1
  Al  Al4  1  0.001602  0.336061  0.572898  1
  Al  Al5  1  0.998398  0.663939  0.427102  1
  Al  Al6  1  0.998398  0.663939  0.072898  1
  Al  Al7  1  0.336060  0.001602  0.927102  1
  Al  Al8  1  0.001602  0.336061  0.927102  1
  Al  Al9  1  0.663940  0.998398  0.072898  1
  Al  Al10  1  0.663940  0.998398  0.427102  1
  Al  Al11  1  0.336060  0.001602  0.572898  1
  Al  Al12  1  0.334234  0.334234  0.053373  1
  Al  Al13  1  0.665766  0.665766  0.946627  1
  Al  Al14  1  0.665766  0.665766  0.553373  1
  Al  Al15  1  0.334234  0.334234  0.446627  1
  Al  Al16  1  0.337847  0.549267  0.750000  1
  Al  Al17  1  0.662153  0.450733  0.250000  1
  Al  Al18  1  0.549267  0.337846  0.750000  1
  Al  Al19  1  0.450733  0.662154  0.250000  1
  Ga  Ga20  1  0.135403  0.135403  0.750000  1
  Ga  Ga21  1  0.864597  0.864597  0.250000  1
  Ir  Ir22  1  0.671592  0.328408  0.500000  1
  Ir  Ir23  1  0.328408  0.671592  0.500000  1
  Ir  Ir24  1  0.328408  0.671592  0.000000  1
  Ir  Ir25  1  0.671592  0.328408  0.000000  1
  Ir  Ir26  1  0.000000  0.000000  0.500000  1
  Ir  Ir27  1  0.000000  0.000000  0.000000  1
