# generated using pymatgen
data_Er4Al18CuRe2Pd3
_symmetry_space_group_name_H-M   'P 1'
_cell_length_a   7.57239427
_cell_length_b   7.57229444
_cell_length_c   9.47458494
_cell_angle_alpha   89.94075030
_cell_angle_beta   89.93954550
_cell_angle_gamma   118.47538952
_symmetry_Int_Tables_number   1
_chemical_formula_structural   Er4Al18CuRe2Pd3
_chemical_formula_sum   'Er4 Al18 Cu1 Re2 Pd3'
_cell_volume   477.55097587
_cell_formula_units_Z   1
loop_
 _symmetry_equiv_pos_site_id
 _symmetry_equiv_pos_as_xyz
  1  'x, y, z'
loop_
 _atom_site_type_symbol
 _atom_site_label
 _atom_site_symmetry_multiplicity
 _atom_site_fract_x
 _atom_site_fract_y
 _atom_site_fract_z
 _atom_site_occupancy
  Er  Er0  1  0.993661  0.683756  0.249657  1
  Er  Er1  1  0.005799  0.316055  0.750436  1
  Er  Er2  1  0.683956  0.994234  0.249563  1
  Er  Er3  1  0.316218  0.006288  0.750348  1
  Al  Al4  1  0.135337  0.135257  0.249631  1
  Al  Al5  1  0.864732  0.864651  0.750369  1
  Al  Al6  1  0.999624  0.336357  0.077503  1
  Al  Al7  1  0.998442  0.663441  0.922256  1
  Al  Al8  1  0.998832  0.663404  0.577495  1
  Al  Al9  1  0.336609  0.001146  0.422517  1
  Al  Al10  1  0.001263  0.336391  0.422079  1
  Al  Al11  1  0.663583  0.998748  0.577913  1
  Al  Al12  1  0.663616  0.000384  0.922506  1
  Al  Al13  1  0.336565  0.001536  0.077742  1
  Al  Al14  1  0.329429  0.329365  0.548619  1
  Al  Al15  1  0.670603  0.670603  0.451383  1
  Al  Al16  1  0.669576  0.668494  0.049159  1
  Al  Al17  1  0.331529  0.330385  0.950843  1
  Al  Al18  1  0.345971  0.555426  0.250177  1
  Al  Al19  1  0.653911  0.443193  0.751513  1
  Al  Al20  1  0.556736  0.346139  0.248491  1
  Al  Al21  1  0.444634  0.653978  0.749821  1
  Cu  Cu22  1  0.672179  0.328204  0.999987  1
  Re  Re23  1  0.999491  0.000497  0.000005  1
  Re  Re24  1  0.999987  0.000008  0.500000  1
  Pd  Pd25  1  0.327741  0.672052  0.999988  1
  Pd  Pd26  1  0.327705  0.672087  0.500010  1
  Pd  Pd27  1  0.672269  0.327923  0.499989  1
