# generated using pymatgen
data_Sr(Tc2Ge)2
_symmetry_space_group_name_H-M   'P 1'
_cell_length_a   7.65871498
_cell_length_b   7.65871432
_cell_length_c   4.19046100
_cell_angle_alpha   90.00000000
_cell_angle_beta   90.00000000
_cell_angle_gamma   148.17878222
_symmetry_Int_Tables_number   1
_chemical_formula_structural   Sr(Tc2Ge)2
_chemical_formula_sum   'Sr1 Tc4 Ge2'
_cell_volume   129.60061063
_cell_formula_units_Z   1
loop_
 _symmetry_equiv_pos_site_id
 _symmetry_equiv_pos_as_xyz
  1  'x, y, z'
loop_
 _atom_site_type_symbol
 _atom_site_label
 _atom_site_symmetry_multiplicity
 _atom_site_fract_x
 _atom_site_fract_y
 _atom_site_fract_z
 _atom_site_occupancy
  Sr  Sr0  1  0.000000  0.000000  0.000000  1
  Tc  Tc1  1  0.701524  0.298478  0.000000  1
  Tc  Tc2  1  0.298478  0.701524  0.000000  1
  Tc  Tc3  1  0.802582  0.197419  0.499999  1
  Tc  Tc4  1  0.197419  0.802582  0.499999  1
  Ge  Ge5  1  0.593044  0.406958  0.499999  1
  Ge  Ge6  1  0.406958  0.593044  0.499999  1
