# generated using pymatgen
data_K2NiMoS4
_symmetry_space_group_name_H-M   'P 1'
_cell_length_a   13.64398218
_cell_length_b   12.14099650
_cell_length_c   7.21889300
_cell_angle_alpha   85.62951274
_cell_angle_beta   62.53031808
_cell_angle_gamma   31.84015822
_symmetry_Int_Tables_number   1
_chemical_formula_structural   K2NiMoS4
_chemical_formula_sum   'K4 Ni2 Mo2 S8'
_cell_volume   413.29322176
_cell_formula_units_Z   2
loop_
 _symmetry_equiv_pos_site_id
 _symmetry_equiv_pos_as_xyz
  1  'x, y, z'
loop_
 _atom_site_type_symbol
 _atom_site_label
 _atom_site_symmetry_multiplicity
 _atom_site_fract_x
 _atom_site_fract_y
 _atom_site_fract_z
 _atom_site_occupancy
  K  K0  1  0.572574  0.572574  0.927426  1
  K  K1  1  0.927426  0.927426  0.572574  1
  K  K2  1  0.322574  0.322574  0.677426  1
  K  K3  1  0.677426  0.677426  0.322574  1
  Ni  Ni4  1  0.000000  0.000000  0.000000  1
  Ni  Ni5  1  0.250000  0.250000  0.250000  1
  Mo  Mo6  1  0.750000  0.750000  0.750000  1
  Mo  Mo7  1  0.500000  0.500000  0.500000  1
  S  S8  1  0.206042  0.902903  0.601667  1
  S  S9  1  0.289389  0.601667  0.902903  1
  S  S10  1  0.601667  0.289389  0.206042  1
  S  S11  1  0.902903  0.206042  0.289389  1
  S  S12  1  0.347097  0.043958  0.960611  1
  S  S13  1  0.960611  0.648333  0.347097  1
  S  S14  1  0.648333  0.960611  0.043958  1
  S  S15  1  0.043958  0.347097  0.648333  1
