# generated using pymatgen
data_MnNb3Fe3B7
_symmetry_space_group_name_H-M   'P 1'
_cell_length_a   9.36794556
_cell_length_b   9.36794592
_cell_length_c   9.00661500
_cell_angle_alpha   90.00000000
_cell_angle_beta   90.00000000
_cell_angle_gamma   160.39174670
_symmetry_Int_Tables_number   1
_chemical_formula_structural   MnNb3Fe3B7
_chemical_formula_sum   'Mn2 Nb6 Fe6 B14'
_cell_volume   265.25025264
_cell_formula_units_Z   2
loop_
 _symmetry_equiv_pos_site_id
 _symmetry_equiv_pos_as_xyz
  1  'x, y, z'
loop_
 _atom_site_type_symbol
 _atom_site_label
 _atom_site_symmetry_multiplicity
 _atom_site_fract_x
 _atom_site_fract_y
 _atom_site_fract_z
 _atom_site_occupancy
  Mn  Mn0  1  0.541609  0.458391  0.250000  1
  Mn  Mn1  1  0.458391  0.541609  0.750000  1
  Nb  Nb2  1  0.696949  0.303051  0.250000  1
  Nb  Nb3  1  0.303051  0.696949  0.750000  1
  Nb  Nb4  1  0.580907  0.419093  0.551848  1
  Nb  Nb5  1  0.419093  0.580907  0.448152  1
  Nb  Nb6  1  0.419093  0.580907  0.051848  1
  Nb  Nb7  1  0.580907  0.419093  0.948152  1
  Fe  Fe8  1  0.844968  0.155032  0.250000  1
  Fe  Fe9  1  0.155032  0.844968  0.750000  1
  Fe  Fe10  1  0.799766  0.200234  0.502534  1
  Fe  Fe11  1  0.200234  0.799766  0.497466  1
  Fe  Fe12  1  0.200234  0.799766  0.002534  1
  Fe  Fe13  1  0.799766  0.200234  0.997466  1
  B  B14  1  0.955642  0.044358  0.250000  1
  B  B15  1  0.044358  0.955642  0.750000  1
  B  B16  1  0.891280  0.108720  0.649409  1
  B  B17  1  0.108720  0.891280  0.350591  1
  B  B18  1  0.108720  0.891280  0.149409  1
  B  B19  1  0.891280  0.108720  0.850591  1
  B  B20  1  0.709131  0.290869  0.649703  1
  B  B21  1  0.290869  0.709131  0.350297  1
  B  B22  1  0.290869  0.709131  0.149703  1
  B  B23  1  0.709131  0.290869  0.850297  1
  B  B24  1  0.985405  0.014595  0.592759  1
  B  B25  1  0.014595  0.985405  0.407241  1
  B  B26  1  0.014595  0.985405  0.092759  1
  B  B27  1  0.985405  0.014595  0.907241  1
