# generated using pymatgen
data_HoEr11Tm8(CoSb2)4
_symmetry_space_group_name_H-M   'P 1'
_cell_length_a   7.79263902
_cell_length_b   8.74684300
_cell_length_c   12.10696903
_cell_angle_alpha   90.00000000
_cell_angle_beta   90.00840073
_cell_angle_gamma   90.00000000
_symmetry_Int_Tables_number   1
_chemical_formula_structural   HoEr11Tm8(CoSb2)4
_chemical_formula_sum   'Ho1 Er11 Tm8 Co4 Sb8'
_cell_volume   825.22298716
_cell_formula_units_Z   1
loop_
 _symmetry_equiv_pos_site_id
 _symmetry_equiv_pos_as_xyz
  1  'x, y, z'
loop_
 _atom_site_type_symbol
 _atom_site_label
 _atom_site_symmetry_multiplicity
 _atom_site_fract_x
 _atom_site_fract_y
 _atom_site_fract_z
 _atom_site_occupancy
  Ho  Ho0  1  0.876811  0.750000  0.807906  1
  Er  Er1  1  0.155992  0.750000  0.203893  1
  Er  Er2  1  0.655912  0.250000  0.296179  1
  Er  Er3  1  0.844031  0.250000  0.795972  1
  Er  Er4  1  0.344008  0.750000  0.704008  1
  Er  Er5  1  0.451588  0.750000  0.997929  1
  Er  Er6  1  0.951776  0.250000  0.502069  1
  Er  Er7  1  0.548102  0.250000  0.002094  1
  Er  Er8  1  0.048175  0.750000  0.497920  1
  Er  Er9  1  0.623065  0.750000  0.308110  1
  Er  Er10  1  0.122901  0.250000  0.191875  1
  Er  Er11  1  0.377118  0.250000  0.691783  1
  Tm  Tm12  1  0.823672  0.963665  0.065580  1
  Tm  Tm13  1  0.323690  0.036406  0.434516  1
  Tm  Tm14  1  0.176455  0.463394  0.934571  1
  Tm  Tm15  1  0.676297  0.536447  0.565451  1
  Tm  Tm16  1  0.176455  0.036606  0.934571  1
  Tm  Tm17  1  0.676297  0.963553  0.565451  1
  Tm  Tm18  1  0.823672  0.536335  0.065580  1
  Tm  Tm19  1  0.323690  0.463594  0.434516  1
  Co  Co20  1  0.433481  0.750000  0.490977  1
  Co  Co21  1  0.933492  0.250000  0.009028  1
  Co  Co22  1  0.566544  0.250000  0.509025  1
  Co  Co23  1  0.066718  0.750000  0.991137  1
  Sb  Sb24  1  0.930882  0.991960  0.327203  1
  Sb  Sb25  1  0.430882  0.008036  0.172796  1
  Sb  Sb26  1  0.069349  0.491765  0.672713  1
  Sb  Sb27  1  0.568917  0.507891  0.827216  1
  Sb  Sb28  1  0.069349  0.008235  0.672713  1
  Sb  Sb29  1  0.568917  0.992109  0.827216  1
  Sb  Sb30  1  0.930882  0.508040  0.327203  1
  Sb  Sb31  1  0.430882  0.491964  0.172796  1
