# generated using pymatgen
data_YbEuCo4(SiC)2
_symmetry_space_group_name_H-M   'P 1'
_cell_length_a   5.54171521
_cell_length_b   5.54171592
_cell_length_c   6.66809300
_cell_angle_alpha   90.00000000
_cell_angle_beta   90.00000000
_cell_angle_gamma   139.97348652
_symmetry_Int_Tables_number   1
_chemical_formula_structural   YbEuCo4(SiC)2
_chemical_formula_sum   'Yb1 Eu1 Co4 Si2 C2'
_cell_volume   131.70340415
_cell_formula_units_Z   1
loop_
 _symmetry_equiv_pos_site_id
 _symmetry_equiv_pos_as_xyz
  1  'x, y, z'
loop_
 _atom_site_type_symbol
 _atom_site_label
 _atom_site_symmetry_multiplicity
 _atom_site_fract_x
 _atom_site_fract_y
 _atom_site_fract_z
 _atom_site_occupancy
  Yb  Yb0  1  0.446413  0.553587  0.750000  1
  Eu  Eu1  1  0.551853  0.448147  0.250000  1
  Co  Co2  1  0.836020  0.163980  0.055741  1
  Co  Co3  1  0.164533  0.835467  0.938624  1
  Co  Co4  1  0.164533  0.835467  0.561376  1
  Co  Co5  1  0.836020  0.163980  0.444259  1
  Si  Si6  1  0.273462  0.726538  0.250000  1
  Si  Si7  1  0.726555  0.273445  0.750000  1
  C  C8  1  0.000305  0.999695  0.996765  1
  C  C9  1  0.000305  0.999695  0.503235  1
