# generated using pymatgen
data_AcBiS
_symmetry_space_group_name_H-M   'P 1'
_cell_length_a   4.39625900
_cell_length_b   4.39625900
_cell_length_c   9.45913200
_cell_angle_alpha   90.00000000
_cell_angle_beta   90.00000000
_cell_angle_gamma   90.00000000
_symmetry_Int_Tables_number   1
_chemical_formula_structural   AcBiS
_chemical_formula_sum   'Ac2 Bi2 S2'
_cell_volume   182.81752571
_cell_formula_units_Z   2
loop_
 _symmetry_equiv_pos_site_id
 _symmetry_equiv_pos_as_xyz
  1  'x, y, z'
loop_
 _atom_site_type_symbol
 _atom_site_label
 _atom_site_symmetry_multiplicity
 _atom_site_fract_x
 _atom_site_fract_y
 _atom_site_fract_z
 _atom_site_occupancy
  Ac  Ac0  1  0.499999  0.000000  0.311766  1
  Ac  Ac1  1  0.000000  0.499999  0.688234  1
  Bi  Bi2  1  0.000000  0.000000  0.000000  1
  Bi  Bi3  1  0.499999  0.499999  0.000000  1
  S  S4  1  0.000000  0.499999  0.371355  1
  S  S5  1  0.499999  0.000000  0.628645  1
