# generated using pymatgen
data_Ho6LuFeO12
_symmetry_space_group_name_H-M   'P 1'
_cell_length_a   6.57710381
_cell_length_b   6.57710382
_cell_length_c   6.57710360
_cell_angle_alpha   92.99682387
_cell_angle_beta   92.99682505
_cell_angle_gamma   92.99681194
_symmetry_Int_Tables_number   1
_chemical_formula_structural   Ho6LuFeO12
_chemical_formula_sum   'Ho6 Lu1 Fe1 O12'
_cell_volume   283.30458297
_cell_formula_units_Z   1
loop_
 _symmetry_equiv_pos_site_id
 _symmetry_equiv_pos_as_xyz
  1  'x, y, z'
loop_
 _atom_site_type_symbol
 _atom_site_label
 _atom_site_symmetry_multiplicity
 _atom_site_fract_x
 _atom_site_fract_y
 _atom_site_fract_z
 _atom_site_occupancy
  Ho  Ho0  1  0.741148  0.925863  0.436469  1
  Ho  Ho1  1  0.925863  0.436469  0.741148  1
  Ho  Ho2  1  0.436469  0.741148  0.925863  1
  Ho  Ho3  1  0.258852  0.074137  0.563531  1
  Ho  Ho4  1  0.074137  0.563531  0.258852  1
  Ho  Ho5  1  0.563531  0.258852  0.074137  1
  Lu  Lu6  1  0.000000  0.000000  0.000000  1
  Fe  Fe7  1  0.500000  0.500000  0.500000  1
  O  O8  1  0.589391  0.461910  0.801021  1
  O  O9  1  0.461910  0.801021  0.589391  1
  O  O10  1  0.801021  0.589391  0.461910  1
  O  O11  1  0.410609  0.538090  0.198979  1
  O  O12  1  0.538090  0.198979  0.410609  1
  O  O13  1  0.198979  0.410609  0.538090  1
  O  O14  1  0.068816  0.910113  0.315111  1
  O  O15  1  0.910113  0.315111  0.068816  1
  O  O16  1  0.684889  0.931184  0.089887  1
  O  O17  1  0.089887  0.684889  0.931184  1
  O  O18  1  0.931184  0.089887  0.684889  1
  O  O19  1  0.315111  0.068816  0.910113  1
