# generated using pymatgen
data_CaDy3Ir8
_symmetry_space_group_name_H-M   'P 1'
_cell_length_a   5.36544500
_cell_length_b   5.36544503
_cell_length_c   8.72155300
_cell_angle_alpha   90.00000000
_cell_angle_beta   90.00000000
_cell_angle_gamma   119.99999363
_symmetry_Int_Tables_number   1
_chemical_formula_structural   CaDy3Ir8
_chemical_formula_sum   'Ca1 Dy3 Ir8'
_cell_volume   217.43826865
_cell_formula_units_Z   1
loop_
 _symmetry_equiv_pos_site_id
 _symmetry_equiv_pos_as_xyz
  1  'x, y, z'
loop_
 _atom_site_type_symbol
 _atom_site_label
 _atom_site_symmetry_multiplicity
 _atom_site_fract_x
 _atom_site_fract_y
 _atom_site_fract_z
 _atom_site_occupancy
  Ca  Ca0  1  0.333333  0.666667  0.435766  1
  Dy  Dy1  1  0.333333  0.666667  0.073664  1
  Dy  Dy2  1  0.666667  0.333333  0.562692  1
  Dy  Dy3  1  0.666667  0.333333  0.930812  1
  Ir  Ir4  1  0.000000  0.000000  0.999595  1
  Ir  Ir5  1  0.000000  0.000000  0.499096  1
  Ir  Ir6  1  0.830206  0.660411  0.248216  1
  Ir  Ir7  1  0.169732  0.830268  0.751243  1
  Ir  Ir8  1  0.660536  0.830268  0.751243  1
  Ir  Ir9  1  0.339589  0.169794  0.248216  1
  Ir  Ir10  1  0.830206  0.169794  0.248216  1
  Ir  Ir11  1  0.169732  0.339464  0.751243  1
