# generated using pymatgen
data_CaPrTaFeO6
_symmetry_space_group_name_H-M   'P 1'
_cell_length_a   5.59193621
_cell_length_b   7.87083511
_cell_length_c   11.66203876
_cell_angle_alpha   89.96650866
_cell_angle_beta   89.91940862
_cell_angle_gamma   89.25398498
_symmetry_Int_Tables_number   1
_chemical_formula_structural   CaPrTaFeO6
_chemical_formula_sum   'Ca4 Pr4 Ta4 Fe4 O24'
_cell_volume   513.23963764
_cell_formula_units_Z   4
loop_
 _symmetry_equiv_pos_site_id
 _symmetry_equiv_pos_as_xyz
  1  'x, y, z'
loop_
 _atom_site_type_symbol
 _atom_site_label
 _atom_site_symmetry_multiplicity
 _atom_site_fract_x
 _atom_site_fract_y
 _atom_site_fract_z
 _atom_site_occupancy
  Ca  Ca0  1  0.514516  0.251579  0.278230  1
  Ca  Ca1  1  0.514199  0.251779  0.778275  1
  Ca  Ca2  1  0.015328  0.751620  0.471685  1
  Ca  Ca3  1  0.015538  0.751837  0.971622  1
  Pr  Pr4  1  0.983145  0.247604  0.031072  1
  Pr  Pr5  1  0.982792  0.247424  0.531103  1
  Pr  Pr6  1  0.483954  0.747429  0.218964  1
  Pr  Pr7  1  0.484401  0.747366  0.719050  1
  Ta  Ta8  1  0.000318  0.499002  0.253176  1
  Ta  Ta9  1  0.000537  0.499013  0.753171  1
  Ta  Ta10  1  0.500028  0.998991  0.496876  1
  Ta  Ta11  1  0.500239  0.998974  0.996760  1
  Fe  Fe12  1  0.999566  0.999980  0.751212  1
  Fe  Fe13  1  0.499663  0.499906  0.998876  1
  Fe  Fe14  1  0.999541  0.999898  0.251173  1
  Fe  Fe15  1  0.499505  0.499778  0.498745  1
  O  O16  1  0.603524  0.755637  0.015981  1
  O  O17  1  0.603249  0.755491  0.516070  1
  O  O18  1  0.102500  0.255394  0.234127  1
  O  O19  1  0.102104  0.255294  0.734288  1
  O  O20  1  0.210902  0.949855  0.092975  1
  O  O21  1  0.210710  0.949602  0.593031  1
  O  O22  1  0.710965  0.450236  0.157265  1
  O  O23  1  0.710947  0.450397  0.657288  1
  O  O24  1  0.184879  0.554715  0.108233  1
  O  O25  1  0.184798  0.554563  0.608256  1
  O  O26  1  0.684263  0.055149  0.141560  1
  O  O27  1  0.683888  0.055332  0.641494  1
  O  O28  1  0.897673  0.744737  0.268005  1
  O  O29  1  0.898345  0.744835  0.767810  1
  O  O30  1  0.396602  0.244579  0.481832  1
  O  O31  1  0.396857  0.244476  0.981837  1
  O  O32  1  0.289905  0.551190  0.344572  1
  O  O33  1  0.290340  0.550982  0.844440  1
  O  O34  1  0.789905  0.051642  0.405275  1
  O  O35  1  0.790234  0.051887  0.905242  1
  O  O36  1  0.316061  0.945260  0.355258  1
  O  O37  1  0.316574  0.944942  0.855274  1
  O  O38  1  0.815676  0.445607  0.394901  1
  O  O39  1  0.815820  0.446009  0.894996  1
