# generated using pymatgen
data_YbDy3HfRh5
_symmetry_space_group_name_H-M   'P 1'
_cell_length_a   3.40479100
_cell_length_b   3.40479100
_cell_length_c   16.95087300
_cell_angle_alpha   90.00000000
_cell_angle_beta   90.00000000
_cell_angle_gamma   90.00000000
_symmetry_Int_Tables_number   1
_chemical_formula_structural   YbDy3HfRh5
_chemical_formula_sum   'Yb1 Dy3 Hf1 Rh5'
_cell_volume   196.50472007
_cell_formula_units_Z   1
loop_
 _symmetry_equiv_pos_site_id
 _symmetry_equiv_pos_as_xyz
  1  'x, y, z'
loop_
 _atom_site_type_symbol
 _atom_site_label
 _atom_site_symmetry_multiplicity
 _atom_site_fract_x
 _atom_site_fract_y
 _atom_site_fract_z
 _atom_site_occupancy
  Yb  Yb0  1  0.000000  0.000000  0.801308  1
  Dy  Dy1  1  0.000000  0.000000  0.197824  1
  Dy  Dy2  1  0.000000  0.000000  0.400069  1
  Dy  Dy3  1  0.000000  0.000000  0.604163  1
  Hf  Hf4  1  0.000000  0.000000  0.997614  1
  Rh  Rh5  1  0.500000  0.500000  0.089757  1
  Rh  Rh6  1  0.500000  0.500000  0.296044  1
  Rh  Rh7  1  0.500000  0.500000  0.499070  1
  Rh  Rh8  1  0.500000  0.500000  0.701016  1
  Rh  Rh9  1  0.500000  0.500000  0.913135  1
