# generated using pymatgen
data_Dy10AlGaSb4
_symmetry_space_group_name_H-M   'P 1'
_cell_length_a   6.44882300
_cell_length_b   8.87943732
_cell_length_c   8.86086603
_cell_angle_alpha   120.06936120
_cell_angle_beta   90.00001535
_cell_angle_gamma   89.99997495
_symmetry_Int_Tables_number   1
_chemical_formula_structural   Dy10AlGaSb4
_chemical_formula_sum   'Dy10 Al1 Ga1 Sb4'
_cell_volume   439.10536091
_cell_formula_units_Z   1
loop_
 _symmetry_equiv_pos_site_id
 _symmetry_equiv_pos_as_xyz
  1  'x, y, z'
loop_
 _atom_site_type_symbol
 _atom_site_label
 _atom_site_symmetry_multiplicity
 _atom_site_fract_x
 _atom_site_fract_y
 _atom_site_fract_z
 _atom_site_occupancy
  Dy  Dy0  1  0.500296  0.341432  0.681578  1
  Dy  Dy1  1  0.500296  0.659854  0.318422  1
  Dy  Dy2  1  0.999704  0.659854  0.318424  1
  Dy  Dy3  1  0.999704  0.341431  0.681576  1
  Dy  Dy4  1  0.750000  0.245604  0.000000  1
  Dy  Dy5  1  0.750001  0.753990  0.766357  1
  Dy  Dy6  1  0.750001  0.987634  0.233643  1
  Dy  Dy7  1  0.249999  0.755820  0.000000  1
  Dy  Dy8  1  0.250000  0.244560  0.234565  1
  Dy  Dy9  1  0.250000  0.009995  0.765435  1
  Al  Al10  1  0.249999  0.397878  0.000000  1
  Ga  Ga11  1  0.750004  0.602824  0.000000  1
  Sb  Sb12  1  0.750000  0.388007  0.392732  1
  Sb  Sb13  1  0.750000  0.995276  0.607268  1
  Sb  Sb14  1  0.250000  0.610986  0.606131  1
  Sb  Sb15  1  0.250000  0.004855  0.393869  1
