# generated using pymatgen
data_Tm11LuIn2FeTc2
_symmetry_space_group_name_H-M   'P 1'
_cell_length_a   8.29353184
_cell_length_b   8.28895193
_cell_length_c   8.28895077
_cell_angle_alpha   108.82366829
_cell_angle_beta   108.74781371
_cell_angle_gamma   110.82811963
_symmetry_Int_Tables_number   1
_chemical_formula_structural   Tm11LuIn2FeTc2
_chemical_formula_sum   'Tm11 Lu1 In2 Fe1 Tc2'
_cell_volume   438.58445913
_cell_formula_units_Z   1
loop_
 _symmetry_equiv_pos_site_id
 _symmetry_equiv_pos_as_xyz
  1  'x, y, z'
loop_
 _atom_site_type_symbol
 _atom_site_label
 _atom_site_symmetry_multiplicity
 _atom_site_fract_x
 _atom_site_fract_y
 _atom_site_fract_z
 _atom_site_occupancy
  Tm  Tm0  1  0.304701  0.305059  0.611591  1
  Tm  Tm1  1  0.692921  0.693295  0.388942  1
  Tm  Tm2  1  0.692921  0.303979  0.999625  1
  Tm  Tm3  1  0.304701  0.693110  0.999642  1
  Tm  Tm4  1  0.190645  0.431364  0.241063  1
  Tm  Tm5  1  0.806802  0.570096  0.762543  1
  Tm  Tm6  1  0.190645  0.949581  0.759281  1
  Tm  Tm7  1  0.949386  0.189841  0.759546  1
  Tm  Tm8  1  0.806802  0.044260  0.236706  1
  Tm  Tm9  1  0.044760  0.807264  0.237495  1
  Tm  Tm10  1  0.430997  0.190313  0.240683  1
  Lu  Lu11  1  0.570700  0.807609  0.763091  1
  In  In12  1  0.997857  0.497887  0.499970  1
  In  In13  1  0.497742  0.997428  0.500314  1
  Fe  Fe14  1  0.631241  0.631491  0.999750  1
  Tc  Tc15  1  0.386903  0.386920  0.999983  1
  Tc  Tc16  1  0.000276  0.000503  0.999774  1
