# generated using pymatgen
data_Li2TbLu5(Co4P3)4
_symmetry_space_group_name_H-M   'P 1'
_cell_length_a   3.68244900
_cell_length_b   10.51002300
_cell_length_c   12.08856700
_cell_angle_alpha   90.00000000
_cell_angle_beta   90.00000000
_cell_angle_gamma   90.00000000
_symmetry_Int_Tables_number   1
_chemical_formula_structural   Li2TbLu5(Co4P3)4
_chemical_formula_sum   'Li2 Tb1 Lu5 Co16 P12'
_cell_volume   467.85925951
_cell_formula_units_Z   1
loop_
 _symmetry_equiv_pos_site_id
 _symmetry_equiv_pos_as_xyz
  1  'x, y, z'
loop_
 _atom_site_type_symbol
 _atom_site_label
 _atom_site_symmetry_multiplicity
 _atom_site_fract_x
 _atom_site_fract_y
 _atom_site_fract_z
 _atom_site_occupancy
  Li  Li0  1  0.500000  0.500000  0.153318  1
  Li  Li1  1  0.000000  0.000000  0.845063  1
  Tb  Tb2  1  0.000000  0.500000  0.523812  1
  Lu  Lu3  1  0.500000  0.000000  0.476109  1
  Lu  Lu4  1  0.500000  0.820773  0.206119  1
  Lu  Lu5  1  0.500000  0.179227  0.206119  1
  Lu  Lu6  1  0.000000  0.679558  0.794355  1
  Lu  Lu7  1  0.000000  0.320442  0.794355  1
  Co  Co8  1  0.500000  0.500000  0.705840  1
  Co  Co9  1  0.000000  0.000000  0.296132  1
  Co  Co10  1  0.000000  0.500000  0.987350  1
  Co  Co11  1  0.500000  0.000000  0.013254  1
  Co  Co12  1  0.500000  0.332450  0.997130  1
  Co  Co13  1  0.500000  0.667550  0.997130  1
  Co  Co14  1  0.000000  0.167029  0.003005  1
  Co  Co15  1  0.000000  0.832971  0.003005  1
  Co  Co16  1  0.500000  0.294920  0.430790  1
  Co  Co17  1  0.500000  0.705080  0.430790  1
  Co  Co18  1  0.000000  0.202045  0.568925  1
  Co  Co19  1  0.000000  0.797955  0.568925  1
  Co  Co20  1  0.500000  0.878131  0.706923  1
  Co  Co21  1  0.500000  0.121869  0.706923  1
  Co  Co22  1  0.000000  0.622777  0.292572  1
  Co  Co23  1  0.000000  0.377223  0.292572  1
  P  P24  1  0.500000  0.500000  0.884775  1
  P  P25  1  0.000000  0.000000  0.116182  1
  P  P26  1  0.500000  0.500000  0.345585  1
  P  P27  1  0.000000  0.000000  0.651677  1
  P  P28  1  0.500000  0.309881  0.617523  1
  P  P29  1  0.500000  0.690119  0.617523  1
  P  P30  1  0.000000  0.188152  0.383142  1
  P  P31  1  0.000000  0.811848  0.383142  1
  P  P32  1  0.500000  0.842577  0.891964  1
  P  P33  1  0.500000  0.157423  0.891964  1
  P  P34  1  0.000000  0.658065  0.108003  1
  P  P35  1  0.000000  0.341935  0.108003  1
