# generated using pymatgen
data_Pr8Zn8Ir5Rh3
_symmetry_space_group_name_H-M   'P 1'
_cell_length_a   4.07186700
_cell_length_b   7.34110421
_cell_length_c   16.64672717
_cell_angle_alpha   90.20236308
_cell_angle_beta   90.00000000
_cell_angle_gamma   90.00000000
_symmetry_Int_Tables_number   1
_chemical_formula_structural   Pr8Zn8Ir5Rh3
_chemical_formula_sum   'Pr8 Zn8 Ir5 Rh3'
_cell_volume   497.60086406
_cell_formula_units_Z   1
loop_
 _symmetry_equiv_pos_site_id
 _symmetry_equiv_pos_as_xyz
  1  'x, y, z'
loop_
 _atom_site_type_symbol
 _atom_site_label
 _atom_site_symmetry_multiplicity
 _atom_site_fract_x
 _atom_site_fract_y
 _atom_site_fract_z
 _atom_site_occupancy
  Pr  Pr0  1  0.250000  0.166646  0.939339  1
  Pr  Pr1  1  0.250000  0.665837  0.560499  1
  Pr  Pr2  1  0.750000  0.334016  0.439835  1
  Pr  Pr3  1  0.750000  0.953593  0.283611  1
  Pr  Pr4  1  0.750000  0.832862  0.060143  1
  Pr  Pr5  1  0.750000  0.451835  0.217278  1
  Pr  Pr6  1  0.250000  0.047061  0.716523  1
  Pr  Pr7  1  0.250000  0.546729  0.783103  1
  Zn  Zn8  1  0.750000  0.001019  0.560183  1
  Zn  Zn9  1  0.250000  0.624037  0.349822  1
  Zn  Zn10  1  0.750000  0.375594  0.650482  1
  Zn  Zn11  1  0.250000  0.497988  0.060550  1
  Zn  Zn12  1  0.750000  0.501448  0.939215  1
  Zn  Zn13  1  0.250000  0.998990  0.439773  1
  Zn  Zn14  1  0.250000  0.125131  0.150895  1
  Zn  Zn15  1  0.750000  0.875818  0.849046  1
  Ir  Ir16  1  0.750000  0.757653  0.434759  1
  Ir  Ir17  1  0.250000  0.244634  0.311687  1
  Ir  Ir18  1  0.750000  0.254960  0.814440  1
  Ir  Ir19  1  0.750000  0.754304  0.687627  1
  Ir  Ir20  1  0.250000  0.242378  0.564864  1
  Rh  Rh21  1  0.250000  0.745809  0.185457  1
  Rh  Rh22  1  0.750000  0.257093  0.064774  1
  Rh  Rh23  1  0.250000  0.744565  0.936098  1
