# generated using pymatgen
data_Pr3Dy8In9Ru4
_symmetry_space_group_name_H-M   'P 1'
_cell_length_a   13.06422986
_cell_length_b   13.06206719
_cell_length_c   3.81748200
_cell_angle_alpha   90.00000000
_cell_angle_beta   90.00000000
_cell_angle_gamma   112.33131954
_symmetry_Int_Tables_number   1
_chemical_formula_structural   Pr3Dy8In9Ru4
_chemical_formula_sum   'Pr3 Dy8 In9 Ru4'
_cell_volume   602.58105071
_cell_formula_units_Z   1
loop_
 _symmetry_equiv_pos_site_id
 _symmetry_equiv_pos_as_xyz
  1  'x, y, z'
loop_
 _atom_site_type_symbol
 _atom_site_label
 _atom_site_symmetry_multiplicity
 _atom_site_fract_x
 _atom_site_fract_y
 _atom_site_fract_z
 _atom_site_occupancy
  Pr  Pr0  1  0.500000  0.500000  0.500000  1
  Pr  Pr1  1  0.338279  0.661700  0.500000  1
  Pr  Pr2  1  0.661721  0.338300  0.500000  1
  Dy  Dy3  1  0.813434  0.813435  0.500000  1
  Dy  Dy4  1  0.186566  0.186565  0.500000  1
  Dy  Dy5  1  0.584681  0.918752  0.500000  1
  Dy  Dy6  1  0.415319  0.081248  0.500000  1
  Dy  Dy7  1  0.918784  0.584694  0.500000  1
  Dy  Dy8  1  0.081216  0.415306  0.500000  1
  Dy  Dy9  1  0.124549  0.875475  0.500000  1
  Dy  Dy10  1  0.875451  0.124525  0.500000  1
  In  In11  1  0.340049  0.871446  0.000000  1
  In  In12  1  0.659951  0.128554  0.000000  1
  In  In13  1  0.871424  0.340038  0.000000  1
  In  In14  1  0.128576  0.659962  0.000000  1
  In  In15  1  0.581351  0.724601  0.000000  1
  In  In16  1  0.418649  0.275399  0.000000  1
  In  In17  1  0.724595  0.581336  0.000000  1
  In  In18  1  0.275405  0.418664  0.000000  1
  In  In19  1  0.000000  0.000000  0.000000  1
  Ru  Ru20  1  0.753339  0.948264  0.000000  1
  Ru  Ru21  1  0.246661  0.051736  0.000000  1
  Ru  Ru22  1  0.948293  0.753359  0.000000  1
  Ru  Ru23  1  0.051707  0.246641  0.000000  1
