# generated using pymatgen
data_Pr9NdSn20(PdRh)4
_symmetry_space_group_name_H-M   'P 1'
_cell_length_a   14.29253408
_cell_length_b   14.28561208
_cell_length_c   4.67077200
_cell_angle_alpha   90.00000000
_cell_angle_beta   90.00000000
_cell_angle_gamma   89.98787849
_symmetry_Int_Tables_number   1
_chemical_formula_structural   Pr9NdSn20(PdRh)4
_chemical_formula_sum   'Pr9 Nd1 Sn20 Pd4 Rh4'
_cell_volume   953.66698411
_cell_formula_units_Z   1
loop_
 _symmetry_equiv_pos_site_id
 _symmetry_equiv_pos_as_xyz
  1  'x, y, z'
loop_
 _atom_site_type_symbol
 _atom_site_label
 _atom_site_symmetry_multiplicity
 _atom_site_fract_x
 _atom_site_fract_y
 _atom_site_fract_z
 _atom_site_occupancy
  Pr  Pr0  1  0.500015  0.499960  0.000000  1
  Pr  Pr1  1  0.999941  0.000074  0.000000  1
  Pr  Pr2  1  0.321655  0.819198  0.500000  1
  Pr  Pr3  1  0.178534  0.319057  0.500000  1
  Pr  Pr4  1  0.821504  0.681003  0.500000  1
  Pr  Pr5  1  0.892318  0.390689  0.500000  1
  Pr  Pr6  1  0.107532  0.609104  0.500000  1
  Pr  Pr7  1  0.392656  0.109131  0.500000  1
  Pr  Pr8  1  0.607524  0.891069  0.500000  1
  Nd  Nd9  1  0.678033  0.180659  0.500000  1
  Sn  Sn10  1  0.567081  0.072010  0.000000  1
  Sn  Sn11  1  0.433520  0.928510  0.000000  1
  Sn  Sn12  1  0.066735  0.428241  0.000000  1
  Sn  Sn13  1  0.933199  0.571673  0.000000  1
  Sn  Sn14  1  0.651398  0.703521  0.000000  1
  Sn  Sn15  1  0.348729  0.296428  0.000000  1
  Sn  Sn16  1  0.151436  0.796431  0.000000  1
  Sn  Sn17  1  0.848145  0.203405  0.000000  1
  Sn  Sn18  1  0.300798  0.652156  0.000000  1
  Sn  Sn19  1  0.699199  0.347310  0.000000  1
  Sn  Sn20  1  0.199261  0.152140  0.000000  1
  Sn  Sn21  1  0.800656  0.848033  0.000000  1
  Sn  Sn22  1  0.663378  0.502346  0.500000  1
  Sn  Sn23  1  0.336579  0.497816  0.500000  1
  Sn  Sn24  1  0.163468  0.997823  0.500000  1
  Sn  Sn25  1  0.836209  0.002770  0.500000  1
  Sn  Sn26  1  0.496871  0.663883  0.500000  1
  Sn  Sn27  1  0.503785  0.335805  0.500000  1
  Sn  Sn28  1  0.003301  0.163829  0.500000  1
  Sn  Sn29  1  0.996855  0.836092  0.500000  1
  Pd  Pd30  1  0.745888  0.532095  0.000000  1
  Pd  Pd31  1  0.254067  0.467611  0.000000  1
  Pd  Pd32  1  0.246002  0.967530  0.000000  1
  Pd  Pd33  1  0.753807  0.032810  0.000000  1
  Rh  Rh34  1  0.468250  0.742635  0.000000  1
  Rh  Rh35  1  0.531988  0.257194  0.000000  1
  Rh  Rh36  1  0.031461  0.242494  0.000000  1
  Rh  Rh37  1  0.968220  0.757466  0.000000  1
