# generated using pymatgen
data_ErTcI18
_symmetry_space_group_name_H-M   'P 1'
_cell_length_a   10.23352448
_cell_length_b   10.28392715
_cell_length_c   10.22167533
_cell_angle_alpha   93.53363239
_cell_angle_beta   93.57916838
_cell_angle_gamma   93.48923879
_symmetry_Int_Tables_number   1
_chemical_formula_structural   ErTcI18
_chemical_formula_sum   'Er1 Tc1 I18'
_cell_volume   1069.33478251
_cell_formula_units_Z   1
loop_
 _symmetry_equiv_pos_site_id
 _symmetry_equiv_pos_as_xyz
  1  'x, y, z'
loop_
 _atom_site_type_symbol
 _atom_site_label
 _atom_site_symmetry_multiplicity
 _atom_site_fract_x
 _atom_site_fract_y
 _atom_site_fract_z
 _atom_site_occupancy
  Er  Er0  1  0.500000  0.500000  0.500000  1
  Tc  Tc1  1  0.000000  0.000000  0.000000  1
  I  I2  1  0.793072  0.478652  0.523039  1
  I  I3  1  0.522650  0.791421  0.477926  1
  I  I4  1  0.479011  0.523807  0.793545  1
  I  I5  1  0.206928  0.521348  0.476961  1
  I  I6  1  0.477350  0.208579  0.522074  1
  I  I7  1  0.520989  0.476193  0.206455  1
  I  I8  1  0.899125  0.363977  0.765981  1
  I  I9  1  0.765491  0.897733  0.364557  1
  I  I10  1  0.364626  0.765762  0.899022  1
  I  I11  1  0.100875  0.636023  0.234019  1
  I  I12  1  0.234509  0.102267  0.635443  1
  I  I13  1  0.635374  0.234238  0.100978  1
  I  I14  1  0.002847  0.968095  0.733013  1
  I  I15  1  0.733576  0.003114  0.967046  1
  I  I16  1  0.966956  0.734953  0.001924  1
  I  I17  1  0.997153  0.031905  0.266987  1
  I  I18  1  0.266424  0.996886  0.032954  1
  I  I19  1  0.033044  0.265047  0.998076  1
