# generated using pymatgen
data_Dy3Er4TmPt4
_symmetry_space_group_name_H-M   'P 1'
_cell_length_a   4.75021900
_cell_length_b   7.10842382
_cell_length_c   8.73275801
_cell_angle_alpha   89.97465282
_cell_angle_beta   90.00000000
_cell_angle_gamma   90.00000000
_symmetry_Int_Tables_number   1
_chemical_formula_structural   Dy3Er4TmPt4
_chemical_formula_sum   'Dy3 Er4 Tm1 Pt4'
_cell_volume   294.87525452
_cell_formula_units_Z   1
loop_
 _symmetry_equiv_pos_site_id
 _symmetry_equiv_pos_as_xyz
  1  'x, y, z'
loop_
 _atom_site_type_symbol
 _atom_site_label
 _atom_site_symmetry_multiplicity
 _atom_site_fract_x
 _atom_site_fract_y
 _atom_site_fract_z
 _atom_site_occupancy
  Dy  Dy0  1  0.250000  0.510320  0.170417  1
  Dy  Dy1  1  0.750000  0.989560  0.669394  1
  Dy  Dy2  1  0.750000  0.489428  0.830028  1
  Er  Er3  1  0.250000  0.144237  0.921182  1
  Er  Er4  1  0.250000  0.644480  0.578688  1
  Er  Er5  1  0.750000  0.855881  0.080067  1
  Er  Er6  1  0.250000  0.010751  0.331306  1
  Tm  Tm7  1  0.750000  0.355104  0.420806  1
  Pt  Pt8  1  0.250000  0.242648  0.591720  1
  Pt  Pt9  1  0.250000  0.742718  0.906658  1
  Pt  Pt10  1  0.750000  0.757924  0.406110  1
  Pt  Pt11  1  0.750000  0.256950  0.093624  1
