# generated using pymatgen
data_NaTb(ThIr4)2
_symmetry_space_group_name_H-M   'P 1'
_cell_length_a   9.33908934
_cell_length_b   9.33908919
_cell_length_c   9.33909075
_cell_angle_alpha   33.63506010
_cell_angle_beta   33.63506292
_cell_angle_gamma   33.63506187
_symmetry_Int_Tables_number   1
_chemical_formula_structural   NaTb(ThIr4)2
_chemical_formula_sum   'Na1 Tb1 Th2 Ir8'
_cell_volume   222.62641514
_cell_formula_units_Z   1
loop_
 _symmetry_equiv_pos_site_id
 _symmetry_equiv_pos_as_xyz
  1  'x, y, z'
loop_
 _atom_site_type_symbol
 _atom_site_label
 _atom_site_symmetry_multiplicity
 _atom_site_fract_x
 _atom_site_fract_y
 _atom_site_fract_z
 _atom_site_occupancy
  Na  Na0  1  0.127409  0.127409  0.127409  1
  Tb  Tb1  1  0.622904  0.622904  0.622904  1
  Th  Th2  1  0.005010  0.005010  0.005010  1
  Th  Th3  1  0.495262  0.495262  0.495262  1
  Ir  Ir4  1  0.563525  0.563525  0.058694  1
  Ir  Ir5  1  0.063059  0.063059  0.563023  1
  Ir  Ir6  1  0.563525  0.058694  0.563525  1
  Ir  Ir7  1  0.063059  0.563023  0.063059  1
  Ir  Ir8  1  0.812312  0.812312  0.812312  1
  Ir  Ir9  1  0.312219  0.312219  0.312219  1
  Ir  Ir10  1  0.058694  0.563525  0.563525  1
  Ir  Ir11  1  0.563023  0.063059  0.063059  1
