# generated using pymatgen
data_Tm5Zr5Pb6
_symmetry_space_group_name_H-M   'P 1'
_cell_length_a   8.84762020
_cell_length_b   8.84762145
_cell_length_c   6.07648300
_cell_angle_alpha   90.00000000
_cell_angle_beta   90.00000000
_cell_angle_gamma   119.86441050
_symmetry_Int_Tables_number   1
_chemical_formula_structural   Tm5Zr5Pb6
_chemical_formula_sum   'Tm5 Zr5 Pb6'
_cell_volume   412.50353550
_cell_formula_units_Z   1
loop_
 _symmetry_equiv_pos_site_id
 _symmetry_equiv_pos_as_xyz
  1  'x, y, z'
loop_
 _atom_site_type_symbol
 _atom_site_label
 _atom_site_symmetry_multiplicity
 _atom_site_fract_x
 _atom_site_fract_y
 _atom_site_fract_z
 _atom_site_occupancy
  Tm  Tm0  1  0.757528  0.757528  0.250000  1
  Tm  Tm1  1  0.001098  0.238666  0.250000  1
  Tm  Tm2  1  0.764133  0.002042  0.750000  1
  Tm  Tm3  1  0.238666  0.001098  0.250000  1
  Tm  Tm4  1  0.002042  0.764133  0.750000  1
  Zr  Zr5  1  0.333025  0.663938  0.500081  1
  Zr  Zr6  1  0.663938  0.333025  0.500081  1
  Zr  Zr7  1  0.333025  0.663938  0.999919  1
  Zr  Zr8  1  0.244029  0.244029  0.750000  1
  Zr  Zr9  1  0.663938  0.333025  0.999919  1
  Pb  Pb10  1  0.602577  0.602577  0.750000  1
  Pb  Pb11  1  0.394910  0.001447  0.750000  1
  Pb  Pb12  1  0.603667  0.000560  0.250000  1
  Pb  Pb13  1  0.001447  0.394910  0.750000  1
  Pb  Pb14  1  0.395419  0.395419  0.250000  1
  Pb  Pb15  1  0.000560  0.603667  0.250000  1
