# generated using pymatgen
data_HoTm4Fe18CoP12
_symmetry_space_group_name_H-M   'P 1'
_cell_length_a   11.89956600
_cell_length_b   11.89956648
_cell_length_c   3.68030100
_cell_angle_alpha   90.00000000
_cell_angle_beta   90.00000000
_cell_angle_gamma   119.99999868
_symmetry_Int_Tables_number   1
_chemical_formula_structural   HoTm4Fe18CoP12
_chemical_formula_sum   'Ho1 Tm4 Fe18 Co1 P12'
_cell_volume   451.31133244
_cell_formula_units_Z   1
loop_
 _symmetry_equiv_pos_site_id
 _symmetry_equiv_pos_as_xyz
  1  'x, y, z'
loop_
 _atom_site_type_symbol
 _atom_site_label
 _atom_site_symmetry_multiplicity
 _atom_site_fract_x
 _atom_site_fract_y
 _atom_site_fract_z
 _atom_site_occupancy
  Ho  Ho0  1  0.666667  0.333333  0.000000  1
  Tm  Tm1  1  0.333333  0.666667  0.000000  1
  Tm  Tm2  1  0.184390  0.184408  0.500000  1
  Tm  Tm3  1  0.815592  0.999983  0.500000  1
  Tm  Tm4  1  0.000017  0.815610  0.500000  1
  Fe  Fe5  1  0.818523  0.197450  0.000000  1
  Fe  Fe6  1  0.802550  0.621073  0.000000  1
  Fe  Fe7  1  0.378927  0.181477  0.000000  1
  Fe  Fe8  1  0.197708  0.818248  0.000000  1
  Fe  Fe9  1  0.620539  0.802292  0.000000  1
  Fe  Fe10  1  0.181752  0.379461  0.000000  1
  Fe  Fe11  1  0.557188  0.557186  0.000000  1
  Fe  Fe12  1  0.442814  0.000002  0.000000  1
  Fe  Fe13  1  0.999998  0.442812  0.000000  1
  Fe  Fe14  1  0.639568  0.121795  0.500000  1
  Fe  Fe15  1  0.878205  0.517772  0.500000  1
  Fe  Fe16  1  0.482228  0.360432  0.500000  1
  Fe  Fe17  1  0.122336  0.639590  0.500000  1
  Fe  Fe18  1  0.517254  0.877664  0.500000  1
  Fe  Fe19  1  0.360410  0.482746  0.500000  1
  Fe  Fe20  1  0.715366  0.715637  0.500000  1
  Fe  Fe21  1  0.284363  0.999729  0.500000  1
  Fe  Fe22  1  0.000271  0.284634  0.500000  1
  Co  Co23  1  0.000000  0.000000  0.000000  1
  P  P24  1  0.369972  0.369959  0.000000  1
  P  P25  1  0.630041  0.000013  0.000000  1
  P  P26  1  0.999987  0.630028  0.000000  1
  P  P27  1  0.833915  0.312312  0.500000  1
  P  P28  1  0.687688  0.521603  0.500000  1
  P  P29  1  0.478397  0.166085  0.500000  1
  P  P30  1  0.312397  0.833392  0.500000  1
  P  P31  1  0.520995  0.687603  0.500000  1
  P  P32  1  0.166608  0.479005  0.500000  1
  P  P33  1  0.815818  0.815886  0.000000  1
  P  P34  1  0.184114  0.999932  0.000000  1
  P  P35  1  0.000068  0.184182  0.000000  1
