# generated using pymatgen
data_Li2Hf4As3(PO8)3
_symmetry_space_group_name_H-M   'P 1'
_cell_length_a   9.09633500
_cell_length_b   9.02850581
_cell_length_c   15.44884270
_cell_angle_alpha   55.64841690
_cell_angle_beta   90.00000000
_cell_angle_gamma   90.00000000
_symmetry_Int_Tables_number   1
_chemical_formula_structural   Li2Hf4As3(PO8)3
_chemical_formula_sum   'Li4 Hf8 As6 P6 O48'
_cell_volume   1047.47346347
_cell_formula_units_Z   2
loop_
 _symmetry_equiv_pos_site_id
 _symmetry_equiv_pos_as_xyz
  1  'x, y, z'
loop_
 _atom_site_type_symbol
 _atom_site_label
 _atom_site_symmetry_multiplicity
 _atom_site_fract_x
 _atom_site_fract_y
 _atom_site_fract_z
 _atom_site_occupancy
  Li  Li0  1  0.980196  0.985881  0.813937  1
  Li  Li1  1  0.019804  0.985881  0.313937  1
  Li  Li2  1  0.530128  0.038023  0.177522  1
  Li  Li3  1  0.469872  0.038023  0.677522  1
  Hf  Hf4  1  0.768739  0.354576  0.885418  1
  Hf  Hf5  1  0.231261  0.354576  0.385418  1
  Hf  Hf6  1  0.724526  0.640353  0.116432  1
  Hf  Hf7  1  0.275474  0.640353  0.616432  1
  Hf  Hf8  1  0.210212  0.143342  0.115017  1
  Hf  Hf9  1  0.789788  0.143342  0.615017  1
  Hf  Hf10  1  0.298503  0.853441  0.885244  1
  Hf  Hf11  1  0.701497  0.853441  0.385244  1
  As  As12  1  0.132613  0.249471  0.852243  1
  As  As13  1  0.867387  0.249471  0.352243  1
  As  As14  1  0.366862  0.749232  0.148863  1
  As  As15  1  0.633138  0.749232  0.648863  1
  As  As16  1  0.004482  0.543734  0.988201  1
  As  As17  1  0.995518  0.543734  0.488201  1
  P  P18  1  0.499739  0.455844  0.011396  1
  P  P19  1  0.500261  0.455844  0.511396  1
  P  P20  1  0.849813  0.972006  0.143390  1
  P  P21  1  0.150187  0.972006  0.643390  1
  P  P22  1  0.649951  0.025747  0.856191  1
  P  P23  1  0.350049  0.025747  0.356191  1
  O  O24  1  0.798343  0.140438  0.039249  1
  O  O25  1  0.201657  0.140438  0.539249  1
  O  O26  1  0.693905  0.858389  0.962708  1
  O  O27  1  0.306095  0.858389  0.462708  1
  O  O28  1  0.178975  0.176751  0.977661  1
  O  O29  1  0.821025  0.176751  0.477661  1
  O  O30  1  0.322411  0.822457  0.023332  1
  O  O31  1  0.677589  0.822457  0.523332  1
  O  O32  1  0.002953  0.010263  0.174077  1
  O  O33  1  0.997047  0.010263  0.674077  1
  O  O34  1  0.498103  0.993018  0.821489  1
  O  O35  1  0.501897  0.993018  0.321489  1
  O  O36  1  0.231638  0.058049  0.273820  1
  O  O37  1  0.768362  0.058049  0.773820  1
  O  O38  1  0.267334  0.935605  0.727870  1
  O  O39  1  0.732666  0.935605  0.227870  1
  O  O40  1  0.130163  0.384587  0.067530  1
  O  O41  1  0.869837  0.384587  0.567530  1
  O  O42  1  0.388836  0.609080  0.941318  1
  O  O43  1  0.611164  0.609080  0.441318  1
  O  O44  1  0.418194  0.271018  0.080999  1
  O  O45  1  0.581806  0.271018  0.580999  1
  O  O46  1  0.085585  0.751244  0.911357  1
  O  O47  1  0.914415  0.751244  0.411357  1
  O  O48  1  0.946822  0.272170  0.837292  1
  O  O49  1  0.053178  0.272170  0.337292  1
  O  O50  1  0.549317  0.707003  0.170358  1
  O  O51  1  0.450683  0.707003  0.670358  1
  O  O52  1  0.605387  0.439871  0.939033  1
  O  O53  1  0.394613  0.439871  0.439033  1
  O  O54  1  0.889494  0.550641  0.071350  1
  O  O55  1  0.110506  0.550641  0.571350  1
  O  O56  1  0.738482  0.570211  0.733159  1
  O  O57  1  0.261518  0.570211  0.233159  1
  O  O58  1  0.766572  0.434782  0.269603  1
  O  O59  1  0.233428  0.434782  0.769603  1
  O  O60  1  0.343356  0.921599  0.164504  1
  O  O61  1  0.656644  0.921599  0.664504  1
  O  O62  1  0.171346  0.084632  0.832368  1
  O  O63  1  0.828654  0.084632  0.332368  1
  O  O64  1  0.922026  0.500823  0.906537  1
  O  O65  1  0.077974  0.500823  0.406537  1
  O  O66  1  0.581241  0.495025  0.083501  1
  O  O67  1  0.418759  0.495025  0.583501  1
  O  O68  1  0.639512  0.191069  0.860852  1
  O  O69  1  0.360488  0.191069  0.360852  1
  O  O70  1  0.858266  0.809620  0.136181  1
  O  O71  1  0.141734  0.809620  0.636181  1
