# generated using pymatgen
data_Ho6Cd22AgP
_symmetry_space_group_name_H-M   'P 1'
_cell_length_a   9.90863644
_cell_length_b   9.90863734
_cell_length_c   9.90863800
_cell_angle_alpha   60.00000448
_cell_angle_beta   60.00000147
_cell_angle_gamma   60.00000399
_symmetry_Int_Tables_number   1
_chemical_formula_structural   Ho6Cd22AgP
_chemical_formula_sum   'Ho6 Cd22 Ag1 P1'
_cell_volume   687.90239962
_cell_formula_units_Z   1
loop_
 _symmetry_equiv_pos_site_id
 _symmetry_equiv_pos_as_xyz
  1  'x, y, z'
loop_
 _atom_site_type_symbol
 _atom_site_label
 _atom_site_symmetry_multiplicity
 _atom_site_fract_x
 _atom_site_fract_y
 _atom_site_fract_z
 _atom_site_occupancy
  Ho  Ho0  1  0.802434  0.802434  0.197566  1
  Ho  Ho1  1  0.197566  0.802434  0.197566  1
  Ho  Ho2  1  0.802434  0.197566  0.197566  1
  Ho  Ho3  1  0.197566  0.197566  0.802434  1
  Ho  Ho4  1  0.802434  0.197566  0.802434  1
  Ho  Ho5  1  0.197566  0.802434  0.802434  1
  Cd  Cd6  1  0.835949  0.835949  0.492154  1
  Cd  Cd7  1  0.835949  0.492154  0.835949  1
  Cd  Cd8  1  0.492154  0.835949  0.835949  1
  Cd  Cd9  1  0.835949  0.835949  0.835949  1
  Cd  Cd10  1  0.164051  0.164051  0.507846  1
  Cd  Cd11  1  0.164051  0.507846  0.164051  1
  Cd  Cd12  1  0.507846  0.164051  0.164051  1
  Cd  Cd13  1  0.164051  0.164051  0.164051  1
  Cd  Cd14  1  0.618795  0.618795  0.143616  1
  Cd  Cd15  1  0.618795  0.143616  0.618795  1
  Cd  Cd16  1  0.143616  0.618795  0.618795  1
  Cd  Cd17  1  0.618795  0.618795  0.618795  1
  Cd  Cd18  1  0.381205  0.381205  0.856384  1
  Cd  Cd19  1  0.381205  0.856384  0.381205  1
  Cd  Cd20  1  0.856384  0.381205  0.381205  1
  Cd  Cd21  1  0.381205  0.381205  0.381205  1
  Cd  Cd22  1  0.000000  0.000000  0.500000  1
  Cd  Cd23  1  0.500000  0.000000  0.500000  1
  Cd  Cd24  1  0.000000  0.500000  0.500000  1
  Cd  Cd25  1  0.500000  0.500000  0.000000  1
  Cd  Cd26  1  0.000000  0.500000  0.000000  1
  Cd  Cd27  1  0.500000  0.000000  0.000000  1
  Ag  Ag28  1  0.500000  0.500000  0.500000  1
  P  P29  1  0.000000  0.000000  0.000000  1
