# generated using pymatgen
data_Tb7Ho5GaNi2SnRu2
_symmetry_space_group_name_H-M   'P 1'
_cell_length_a   8.35111710
_cell_length_b   8.35095681
_cell_length_c   8.35544200
_cell_angle_alpha   113.02189435
_cell_angle_beta   110.13915422
_cell_angle_gamma   105.32025812
_symmetry_Int_Tables_number   1
_chemical_formula_structural   Tb7Ho5GaNi2SnRu2
_chemical_formula_sum   'Tb7 Ho5 Ga1 Ni2 Sn1 Ru2'
_cell_volume   446.65495845
_cell_formula_units_Z   1
loop_
 _symmetry_equiv_pos_site_id
 _symmetry_equiv_pos_as_xyz
  1  'x, y, z'
loop_
 _atom_site_type_symbol
 _atom_site_label
 _atom_site_symmetry_multiplicity
 _atom_site_fract_x
 _atom_site_fract_y
 _atom_site_fract_z
 _atom_site_occupancy
  Tb  Tb0  1  0.434541  0.237822  0.195749  1
  Tb  Tb1  1  0.566262  0.762468  0.804450  1
  Tb  Tb2  1  0.041945  0.238275  0.804523  1
  Tb  Tb3  1  0.957977  0.761124  0.195668  1
  Tb  Tb4  1  0.179718  0.279375  0.459123  1
  Tb  Tb5  1  0.819643  0.720829  0.540440  1
  Tb  Tb6  1  0.180267  0.720688  0.900838  1
  Ho  Ho7  1  0.819740  0.278978  0.098821  1
  Ho  Ho8  1  0.327603  0.641015  0.313549  1
  Ho  Ho9  1  0.672274  0.358464  0.686885  1
  Ho  Ho10  1  0.328561  0.014670  0.686868  1
  Ho  Ho11  1  0.672384  0.985862  0.313552  1
  Ga  Ga12  1  0.999647  0.000811  0.000455  1
  Ni  Ni13  1  0.117303  0.617240  0.498845  1
  Ni  Ni14  1  0.881631  0.381503  0.498863  1
  Sn  Sn15  1  0.500049  0.500068  0.000121  1
  Ru  Ru16  1  0.331598  0.000113  0.331689  1
  Ru  Ru17  1  0.668855  0.000695  0.669561  1
