# generated using pymatgen
data_MnZn22Pd3
_symmetry_space_group_name_H-M   'P 1'
_cell_length_a   7.95857060
_cell_length_b   7.85998779
_cell_length_c   7.95857120
_cell_angle_alpha   109.22049055
_cell_angle_beta   109.72078498
_cell_angle_gamma   109.22049351
_symmetry_Int_Tables_number   1
_chemical_formula_structural   MnZn22Pd3
_chemical_formula_sum   'Mn1 Zn22 Pd3'
_cell_volume   384.41882148
_cell_formula_units_Z   1
loop_
 _symmetry_equiv_pos_site_id
 _symmetry_equiv_pos_as_xyz
  1  'x, y, z'
loop_
 _atom_site_type_symbol
 _atom_site_label
 _atom_site_symmetry_multiplicity
 _atom_site_fract_x
 _atom_site_fract_y
 _atom_site_fract_z
 _atom_site_occupancy
  Mn  Mn0  1  0.000000  0.344639  0.000000  1
  Zn  Zn1  1  0.000000  0.778253  0.000000  1
  Zn  Zn2  1  0.786339  0.004538  0.000000  1
  Zn  Zn3  1  0.000000  0.004538  0.786339  1
  Zn  Zn4  1  0.213661  0.218199  0.213661  1
  Zn  Zn5  1  0.346379  0.620791  0.346379  1
  Zn  Zn6  1  0.272273  0.999247  0.649159  1
  Zn  Zn7  1  0.649159  0.999247  0.272273  1
  Zn  Zn8  1  0.268293  0.645570  0.000000  1
  Zn  Zn9  1  0.727727  0.726975  0.376886  1
  Zn  Zn10  1  0.376886  0.726975  0.727727  1
  Zn  Zn11  1  0.000000  0.645570  0.268293  1
  Zn  Zn12  1  0.000000  0.274412  0.653621  1
  Zn  Zn13  1  0.653621  0.274412  0.000000  1
  Zn  Zn14  1  0.350841  0.350088  0.623114  1
  Zn  Zn15  1  0.623114  0.350088  0.350841  1
  Zn  Zn16  1  0.731707  0.377277  0.731707  1
  Zn  Zn17  1  0.355826  0.358128  0.000000  1
  Zn  Zn18  1  0.000000  0.642958  0.643010  1
  Zn  Zn19  1  0.000000  0.358128  0.355826  1
  Zn  Zn20  1  0.356990  0.999948  0.356990  1
  Zn  Zn21  1  0.644174  0.002303  0.644174  1
  Zn  Zn22  1  0.643010  0.642958  0.000000  1
  Pd  Pd23  1  0.346302  0.000353  0.000000  1
  Pd  Pd24  1  0.000000  0.000353  0.346302  1
  Pd  Pd25  1  0.653698  0.654051  0.653698  1
