# generated using pymatgen
data_HoEr5(LuIn2)4
_symmetry_space_group_name_H-M   'P 1'
_cell_length_a   9.18138400
_cell_length_b   9.18540890
_cell_length_c   6.61134400
_cell_angle_alpha   90.00000000
_cell_angle_beta   90.00000000
_cell_angle_gamma   119.98550605
_symmetry_Int_Tables_number   1
_chemical_formula_structural   HoEr5(LuIn2)4
_chemical_formula_sum   'Ho1 Er5 Lu4 In8'
_cell_volume   482.93695874
_cell_formula_units_Z   1
loop_
 _symmetry_equiv_pos_site_id
 _symmetry_equiv_pos_as_xyz
  1  'x, y, z'
loop_
 _atom_site_type_symbol
 _atom_site_label
 _atom_site_symmetry_multiplicity
 _atom_site_fract_x
 _atom_site_fract_y
 _atom_site_fract_z
 _atom_site_occupancy
  Ho  Ho0  1  0.289815  0.000000  0.750000  1
  Er  Er1  1  0.710112  0.000000  0.250000  1
  Er  Er2  1  0.000010  0.289810  0.750000  1
  Er  Er3  1  0.000051  0.710225  0.250000  1
  Er  Er4  1  0.710200  0.710190  0.750000  1
  Er  Er5  1  0.289826  0.289775  0.250000  1
  Lu  Lu6  1  0.333327  0.666576  0.499960  1
  Lu  Lu7  1  0.666752  0.333424  0.499960  1
  Lu  Lu8  1  0.666752  0.333424  0.000040  1
  Lu  Lu9  1  0.333327  0.666576  0.000040  1
  In  In10  1  0.999920  0.000000  0.499869  1
  In  In11  1  0.999920  0.000000  0.000131  1
  In  In12  1  0.628141  0.000000  0.750000  1
  In  In13  1  0.371981  0.000000  0.250000  1
  In  In14  1  0.999868  0.627784  0.750000  1
  In  In15  1  0.999984  0.372056  0.250000  1
  In  In16  1  0.372085  0.372216  0.750000  1
  In  In17  1  0.627928  0.627944  0.250000  1
