# generated using pymatgen
data_Ho8MoOsI8
_symmetry_space_group_name_H-M   'P 1'
_cell_length_a   11.09726685
_cell_length_b   11.09726735
_cell_length_c   6.18133018
_cell_angle_alpha   89.26501785
_cell_angle_beta   89.26502024
_cell_angle_gamma   88.55379831
_symmetry_Int_Tables_number   1
_chemical_formula_structural   Ho8MoOsI8
_chemical_formula_sum   'Ho8 Mo1 Os1 I8'
_cell_volume   760.86209224
_cell_formula_units_Z   1
loop_
 _symmetry_equiv_pos_site_id
 _symmetry_equiv_pos_as_xyz
  1  'x, y, z'
loop_
 _atom_site_type_symbol
 _atom_site_label
 _atom_site_symmetry_multiplicity
 _atom_site_fract_x
 _atom_site_fract_y
 _atom_site_fract_z
 _atom_site_occupancy
  Ho  Ho0  1  0.203012  0.915335  0.995741  1
  Ho  Ho1  1  0.796928  0.084684  0.003456  1
  Ho  Ho2  1  0.084665  0.796988  0.504259  1
  Ho  Ho3  1  0.915316  0.203072  0.496544  1
  Ho  Ho4  1  0.799054  0.920509  0.508465  1
  Ho  Ho5  1  0.201081  0.079562  0.492327  1
  Ho  Ho6  1  0.079491  0.200946  0.991535  1
  Ho  Ho7  1  0.920438  0.798919  0.007673  1
  Mo  Mo8  1  0.000089  0.999911  0.250000  1
  Os  Os9  1  0.999927  0.000073  0.750000  1
  I  I10  1  0.363965  0.840512  0.504685  1
  I  I11  1  0.635992  0.159397  0.495844  1
  I  I12  1  0.159488  0.636035  0.995315  1
  I  I13  1  0.840603  0.364008  0.004156  1
  I  I14  1  0.359718  0.150517  0.002831  1
  I  I15  1  0.640256  0.849504  0.996694  1
  I  I16  1  0.849483  0.640282  0.497169  1
  I  I17  1  0.150496  0.359744  0.503306  1
