# generated using pymatgen
data_Hf2NiBRh5
_symmetry_space_group_name_H-M   'P 1'
_cell_length_a   5.69563423
_cell_length_b   5.62855574
_cell_length_c   5.62855556
_cell_angle_alpha   60.79003778
_cell_angle_beta   59.60497670
_cell_angle_gamma   59.60497596
_symmetry_Int_Tables_number   1
_chemical_formula_structural   Hf2NiBRh5
_chemical_formula_sum   'Hf2 Ni1 B1 Rh5'
_cell_volume   127.55459723
_cell_formula_units_Z   1
loop_
 _symmetry_equiv_pos_site_id
 _symmetry_equiv_pos_as_xyz
  1  'x, y, z'
loop_
 _atom_site_type_symbol
 _atom_site_label
 _atom_site_symmetry_multiplicity
 _atom_site_fract_x
 _atom_site_fract_y
 _atom_site_fract_z
 _atom_site_occupancy
  Hf  Hf0  1  0.249372  0.250630  0.250630  1
  Hf  Hf1  1  0.749371  0.750629  0.750629  1
  Ni  Ni2  1  0.758640  0.241360  0.241360  1
  B  B3  1  0.508117  0.491883  0.491883  1
  Rh  Rh4  1  0.241317  0.758683  0.245453  1
  Rh  Rh5  1  0.754547  0.758683  0.245453  1
  Rh  Rh6  1  0.241317  0.245453  0.758683  1
  Rh  Rh7  1  0.754547  0.245453  0.758683  1
  Rh  Rh8  1  0.242773  0.757227  0.757227  1
