# generated using pymatgen
data_Dy3HoGa4(NiIr)2
_symmetry_space_group_name_H-M   'P 1'
_cell_length_a   4.31699500
_cell_length_b   6.78736825
_cell_length_c   7.60208189
_cell_angle_alpha   89.87090198
_cell_angle_beta   90.00000000
_cell_angle_gamma   90.00000000
_symmetry_Int_Tables_number   1
_chemical_formula_structural   Dy3HoGa4(NiIr)2
_chemical_formula_sum   'Dy3 Ho1 Ga4 Ni2 Ir2'
_cell_volume   222.74830054
_cell_formula_units_Z   1
loop_
 _symmetry_equiv_pos_site_id
 _symmetry_equiv_pos_as_xyz
  1  'x, y, z'
loop_
 _atom_site_type_symbol
 _atom_site_label
 _atom_site_symmetry_multiplicity
 _atom_site_fract_x
 _atom_site_fract_y
 _atom_site_fract_z
 _atom_site_occupancy
  Dy  Dy0  1  0.250000  0.523961  0.688307  1
  Dy  Dy1  1  0.250000  0.024422  0.811425  1
  Dy  Dy2  1  0.750000  0.980305  0.191296  1
  Ho  Ho3  1  0.750000  0.480294  0.308795  1
  Ga  Ga4  1  0.750000  0.340493  0.921033  1
  Ga  Ga5  1  0.250000  0.164477  0.438095  1
  Ga  Ga6  1  0.750000  0.839878  0.579153  1
  Ga  Ga7  1  0.250000  0.664156  0.061867  1
  Ni  Ni8  1  0.750000  0.717390  0.890922  1
  Ni  Ni9  1  0.750000  0.217723  0.608468  1
  Ir  Ir10  1  0.250000  0.274158  0.108794  1
  Ir  Ir11  1  0.250000  0.772742  0.391846  1
