# generated using pymatgen
data_Tm5P12Ir16Rh3
_symmetry_space_group_name_H-M   'P 1'
_cell_length_a   12.70526600
_cell_length_b   12.70526540
_cell_length_c   3.94692400
_cell_angle_alpha   90.00000000
_cell_angle_beta   90.00000000
_cell_angle_gamma   119.99999636
_symmetry_Int_Tables_number   1
_chemical_formula_structural   Tm5P12Ir16Rh3
_chemical_formula_sum   'Tm5 P12 Ir16 Rh3'
_cell_volume   551.76851466
_cell_formula_units_Z   1
loop_
 _symmetry_equiv_pos_site_id
 _symmetry_equiv_pos_as_xyz
  1  'x, y, z'
loop_
 _atom_site_type_symbol
 _atom_site_label
 _atom_site_symmetry_multiplicity
 _atom_site_fract_x
 _atom_site_fract_y
 _atom_site_fract_z
 _atom_site_occupancy
  Tm  Tm0  1  0.333333  0.666667  0.500000  1
  Tm  Tm1  1  0.666667  0.333333  0.500000  1
  Tm  Tm2  1  0.000000  0.814505  0.000000  1
  Tm  Tm3  1  0.185495  0.185495  0.000000  1
  Tm  Tm4  1  0.814505  0.000000  0.000000  1
  P  P5  1  0.000000  0.641420  0.500000  1
  P  P6  1  0.358580  0.358580  0.500000  1
  P  P7  1  0.641420  0.000000  0.500000  1
  P  P8  1  0.515997  0.686682  0.000000  1
  P  P9  1  0.313318  0.829314  0.000000  1
  P  P10  1  0.170686  0.484003  0.000000  1
  P  P11  1  0.484003  0.170686  0.000000  1
  P  P12  1  0.686682  0.515997  0.000000  1
  P  P13  1  0.829314  0.313318  0.000000  1
  P  P14  1  0.000000  0.178123  0.500000  1
  P  P15  1  0.821877  0.821877  0.500000  1
  P  P16  1  0.178123  0.000000  0.500000  1
  Ir  Ir17  1  0.507025  0.866023  0.000000  1
  Ir  Ir18  1  0.133977  0.641003  0.000000  1
  Ir  Ir19  1  0.358997  0.492975  0.000000  1
  Ir  Ir20  1  0.492975  0.358997  0.000000  1
  Ir  Ir21  1  0.866023  0.507025  0.000000  1
  Ir  Ir22  1  0.641003  0.133977  0.000000  1
  Ir  Ir23  1  0.000000  0.282528  0.000000  1
  Ir  Ir24  1  0.717472  0.717472  0.000000  1
  Ir  Ir25  1  0.282528  0.000000  0.000000  1
  Ir  Ir26  1  0.626395  0.806800  0.500000  1
  Ir  Ir27  1  0.193200  0.819595  0.500000  1
  Ir  Ir28  1  0.180405  0.373605  0.500000  1
  Ir  Ir29  1  0.373605  0.180405  0.500000  1
  Ir  Ir30  1  0.806800  0.626395  0.500000  1
  Ir  Ir31  1  0.819595  0.193200  0.500000  1
  Ir  Ir32  1  0.000000  0.000000  0.500000  1
  Rh  Rh33  1  0.000000  0.461436  0.500000  1
  Rh  Rh34  1  0.538564  0.538564  0.500000  1
  Rh  Rh35  1  0.461436  0.000000  0.500000  1
