# generated using pymatgen
data_Lu16Cd4NiRu3
_symmetry_space_group_name_H-M   'P 1'
_cell_length_a   9.37607483
_cell_length_b   9.42926642
_cell_length_c   9.42931800
_cell_angle_alpha   60.00077283
_cell_angle_beta   59.81249827
_cell_angle_gamma   59.81192046
_symmetry_Int_Tables_number   1
_chemical_formula_structural   Lu16Cd4NiRu3
_chemical_formula_sum   'Lu16 Cd4 Ni1 Ru3'
_cell_volume   587.79813489
_cell_formula_units_Z   1
loop_
 _symmetry_equiv_pos_site_id
 _symmetry_equiv_pos_as_xyz
  1  'x, y, z'
loop_
 _atom_site_type_symbol
 _atom_site_label
 _atom_site_symmetry_multiplicity
 _atom_site_fract_x
 _atom_site_fract_y
 _atom_site_fract_z
 _atom_site_occupancy
  Lu  Lu0  1  0.351099  0.346151  0.346157  1
  Lu  Lu1  1  0.351086  0.346168  0.956577  1
  Lu  Lu2  1  0.351098  0.956582  0.346163  1
  Lu  Lu3  1  0.955306  0.348229  0.348235  1
  Lu  Lu4  1  0.810649  0.188668  0.188666  1
  Lu  Lu5  1  0.188433  0.811447  0.811451  1
  Lu  Lu6  1  0.188432  0.811443  0.188677  1
  Lu  Lu7  1  0.810662  0.188666  0.812012  1
  Lu  Lu8  1  0.188438  0.188674  0.811445  1
  Lu  Lu9  1  0.810649  0.812015  0.188674  1
  Lu  Lu10  1  0.939386  0.560420  0.560423  1
  Lu  Lu11  1  0.560245  0.937146  0.937150  1
  Lu  Lu12  1  0.560242  0.937141  0.565481  1
  Lu  Lu13  1  0.939376  0.560431  0.939776  1
  Lu  Lu14  1  0.560245  0.565466  0.937142  1
  Lu  Lu15  1  0.939385  0.939784  0.560421  1
  Cd  Cd16  1  0.579626  0.581485  0.581493  1
  Cd  Cd17  1  0.579623  0.581497  0.257387  1
  Cd  Cd18  1  0.579622  0.257396  0.581498  1
  Cd  Cd19  1  0.256061  0.581311  0.581318  1
  Ni  Ni20  1  0.575988  0.141346  0.141290  1
  Ru  Ru21  1  0.141449  0.141437  0.141446  1
  Ru  Ru22  1  0.141456  0.141432  0.575672  1
  Ru  Ru23  1  0.141443  0.575666  0.141446  1
