# generated using pymatgen
data_Hf4Zr(Re3Tc5)3
_symmetry_space_group_name_H-M   'P 1'
_cell_length_a   8.41597445
_cell_length_b   8.45319505
_cell_length_c   8.45319600
_cell_angle_alpha   109.56024547
_cell_angle_beta   109.38203904
_cell_angle_gamma   109.38205707
_symmetry_Int_Tables_number   1
_chemical_formula_structural   Hf4Zr(Re3Tc5)3
_chemical_formula_sum   'Hf4 Zr1 Re9 Tc15'
_cell_volume   463.44810476
_cell_formula_units_Z   1
loop_
 _symmetry_equiv_pos_site_id
 _symmetry_equiv_pos_as_xyz
  1  'x, y, z'
loop_
 _atom_site_type_symbol
 _atom_site_label
 _atom_site_symmetry_multiplicity
 _atom_site_fract_x
 _atom_site_fract_y
 _atom_site_fract_z
 _atom_site_occupancy
  Hf  Hf0  1  0.623164  0.000000  0.000000  1
  Hf  Hf1  1  0.000868  0.625648  0.000000  1
  Hf  Hf2  1  0.000868  0.000000  0.625648  1
  Hf  Hf3  1  0.375221  0.374352  0.374352  1
  Zr  Zr4  1  0.999589  0.000000  0.000000  1
  Re  Re5  1  0.196439  0.374523  0.000000  1
  Re  Re6  1  0.999071  0.375452  0.192971  1
  Re  Re7  1  0.806101  0.182480  0.807029  1
  Re  Re8  1  0.806101  0.807029  0.182480  1
  Re  Re9  1  0.999071  0.192971  0.375452  1
  Re  Re10  1  0.196439  0.000000  0.374523  1
  Re  Re11  1  0.623620  0.624548  0.817520  1
  Re  Re12  1  0.821917  0.625477  0.625477  1
  Re  Re13  1  0.623620  0.817520  0.624548  1
  Tc  Tc14  1  0.397133  0.674701  0.000000  1
  Tc  Tc15  1  0.722434  0.325299  0.325299  1
  Tc  Tc16  1  0.397133  0.000000  0.674701  1
  Tc  Tc17  1  0.674577  0.396929  0.000000  1
  Tc  Tc18  1  0.998884  0.394399  0.676732  1
  Tc  Tc19  1  0.322152  0.717668  0.323268  1
  Tc  Tc20  1  0.322152  0.323268  0.717668  1
  Tc  Tc21  1  0.998884  0.676732  0.394399  1
  Tc  Tc22  1  0.674577  0.000000  0.396929  1
  Tc  Tc23  1  0.604485  0.605601  0.282332  1
  Tc  Tc24  1  0.277646  0.603071  0.603071  1
  Tc  Tc25  1  0.604485  0.282332  0.605601  1
  Tc  Tc26  1  0.375614  0.193473  0.000000  1
  Tc  Tc27  1  0.182142  0.806527  0.806527  1
  Tc  Tc28  1  0.375614  0.000000  0.193473  1
