# generated using pymatgen
data_TbThWC2
_symmetry_space_group_name_H-M   'P 1'
_cell_length_a   5.28779700
_cell_length_b   6.80566500
_cell_length_c   10.01739600
_cell_angle_alpha   90.00000000
_cell_angle_beta   90.00000000
_cell_angle_gamma   90.00000000
_symmetry_Int_Tables_number   1
_chemical_formula_structural   TbThWC2
_chemical_formula_sum   'Tb4 Th4 W4 C8'
_cell_volume   360.49577912
_cell_formula_units_Z   4
loop_
 _symmetry_equiv_pos_site_id
 _symmetry_equiv_pos_as_xyz
  1  'x, y, z'
loop_
 _atom_site_type_symbol
 _atom_site_label
 _atom_site_symmetry_multiplicity
 _atom_site_fract_x
 _atom_site_fract_y
 _atom_site_fract_z
 _atom_site_occupancy
  Tb  Tb0  1  0.250000  0.825613  0.054566  1
  Tb  Tb1  1  0.750000  0.674387  0.554566  1
  Tb  Tb2  1  0.250000  0.325613  0.445434  1
  Tb  Tb3  1  0.750000  0.174387  0.945434  1
  Th  Th4  1  0.250000  0.465403  0.786669  1
  Th  Th5  1  0.750000  0.034597  0.286669  1
  Th  Th6  1  0.250000  0.965403  0.713331  1
  Th  Th7  1  0.750000  0.534597  0.213331  1
  W  W8  1  0.250000  0.278071  0.132972  1
  W  W9  1  0.750000  0.221929  0.632972  1
  W  W10  1  0.250000  0.778071  0.367028  1
  W  W11  1  0.750000  0.721929  0.867028  1
  C  C12  1  0.250000  0.171436  0.946397  1
  C  C13  1  0.750000  0.828564  0.053603  1
  C  C14  1  0.250000  0.671436  0.553603  1
  C  C15  1  0.750000  0.328564  0.446397  1
  C  C16  1  0.250000  0.045569  0.260294  1
  C  C17  1  0.750000  0.454431  0.760294  1
  C  C18  1  0.250000  0.545569  0.239706  1
  C  C19  1  0.750000  0.954431  0.739706  1
