# generated using pymatgen
data_Nd2Ti3FeO10
_symmetry_space_group_name_H-M   'P 1'
_cell_length_a   5.87447600
_cell_length_b   7.71497500
_cell_length_c   8.83151500
_cell_angle_alpha   90.00000000
_cell_angle_beta   90.00000000
_cell_angle_gamma   90.00000000
_symmetry_Int_Tables_number   1
_chemical_formula_structural   Nd2Ti3FeO10
_chemical_formula_sum   'Nd4 Ti6 Fe2 O20'
_cell_volume   400.25693725
_cell_formula_units_Z   2
loop_
 _symmetry_equiv_pos_site_id
 _symmetry_equiv_pos_as_xyz
  1  'x, y, z'
loop_
 _atom_site_type_symbol
 _atom_site_label
 _atom_site_symmetry_multiplicity
 _atom_site_fract_x
 _atom_site_fract_y
 _atom_site_fract_z
 _atom_site_occupancy
  Nd  Nd0  1  0.997929  0.360111  0.671467  1
  Nd  Nd1  1  0.997929  0.639889  0.328533  1
  Nd  Nd2  1  0.002071  0.860111  0.828533  1
  Nd  Nd3  1  0.002071  0.139889  0.171467  1
  Ti  Ti4  1  0.506340  0.117155  0.856285  1
  Ti  Ti5  1  0.506340  0.882845  0.143715  1
  Ti  Ti6  1  0.493660  0.617155  0.643715  1
  Ti  Ti7  1  0.493660  0.382845  0.356285  1
  Ti  Ti8  1  0.766974  0.500000  0.000000  1
  Ti  Ti9  1  0.233026  0.000000  0.500000  1
  Fe  Fe10  1  0.257347  0.500000  0.000000  1
  Fe  Fe11  1  0.742653  0.000000  0.500000  1
  O  O12  1  0.255567  0.898377  0.292214  1
  O  O13  1  0.255567  0.101623  0.707786  1
  O  O14  1  0.744433  0.398377  0.207786  1
  O  O15  1  0.744433  0.601623  0.792214  1
  O  O16  1  0.750190  0.102529  0.716963  1
  O  O17  1  0.750190  0.897471  0.283037  1
  O  O18  1  0.249810  0.602529  0.783037  1
  O  O19  1  0.249810  0.397471  0.216963  1
  O  O20  1  0.511846  0.334752  0.918851  1
  O  O21  1  0.511846  0.665248  0.081149  1
  O  O22  1  0.488154  0.834752  0.581149  1
  O  O23  1  0.488154  0.165248  0.418851  1
  O  O24  1  0.282012  0.000000  0.000000  1
  O  O25  1  0.717988  0.500000  0.500000  1
  O  O26  1  0.716970  0.000000  0.000000  1
  O  O27  1  0.283030  0.500000  0.500000  1
  O  O28  1  0.020426  0.169426  0.445377  1
  O  O29  1  0.020426  0.830574  0.554623  1
  O  O30  1  0.979574  0.669426  0.054623  1
  O  O31  1  0.979574  0.330574  0.945377  1
