# generated using pymatgen
data_Ta9BeCoS6
_symmetry_space_group_name_H-M   'P 1'
_cell_length_a   10.16892500
_cell_length_b   10.16892442
_cell_length_c   3.38658900
_cell_angle_alpha   90.00000000
_cell_angle_beta   90.00000000
_cell_angle_gamma   119.99999863
_symmetry_Int_Tables_number   1
_chemical_formula_structural   Ta9BeCoS6
_chemical_formula_sum   'Ta9 Be1 Co1 S6'
_cell_volume   303.27959740
_cell_formula_units_Z   1
loop_
 _symmetry_equiv_pos_site_id
 _symmetry_equiv_pos_as_xyz
  1  'x, y, z'
loop_
 _atom_site_type_symbol
 _atom_site_label
 _atom_site_symmetry_multiplicity
 _atom_site_fract_x
 _atom_site_fract_y
 _atom_site_fract_z
 _atom_site_occupancy
  Ta  Ta0  1  0.550657  0.539217  0.000000  1
  Ta  Ta1  1  0.460783  0.011439  0.000000  1
  Ta  Ta2  1  0.988561  0.449343  0.000000  1
  Ta  Ta3  1  0.798514  0.533477  0.500000  1
  Ta  Ta4  1  0.466523  0.265036  0.500000  1
  Ta  Ta5  1  0.734964  0.201486  0.500000  1
  Ta  Ta6  1  0.536608  0.802958  0.500000  1
  Ta  Ta7  1  0.266349  0.463392  0.500000  1
  Ta  Ta8  1  0.197042  0.733651  0.500000  1
  Be  Be9  1  0.666667  0.333333  0.000000  1
  Co  Co10  1  0.333333  0.666667  0.000000  1
  S  S11  1  0.727975  0.728905  0.500000  1
  S  S12  1  0.271095  0.999070  0.500000  1
  S  S13  1  0.000930  0.272025  0.500000  1
  S  S14  1  0.296411  0.293433  0.000000  1
  S  S15  1  0.706567  0.002978  0.000000  1
  S  S16  1  0.997022  0.703589  0.000000  1
