# generated using pymatgen
data_Dy9Er6Tm(In3Co)2
_symmetry_space_group_name_H-M   'P 1'
_cell_length_a   10.26828600
_cell_length_b   10.26828814
_cell_length_c   7.05881700
_cell_angle_alpha   90.00000000
_cell_angle_beta   90.00000000
_cell_angle_gamma   119.99999311
_symmetry_Int_Tables_number   1
_chemical_formula_structural   Dy9Er6Tm(In3Co)2
_chemical_formula_sum   'Dy9 Er6 Tm1 In6 Co2'
_cell_volume   644.55293190
_cell_formula_units_Z   1
loop_
 _symmetry_equiv_pos_site_id
 _symmetry_equiv_pos_as_xyz
  1  'x, y, z'
loop_
 _atom_site_type_symbol
 _atom_site_label
 _atom_site_symmetry_multiplicity
 _atom_site_fract_x
 _atom_site_fract_y
 _atom_site_fract_z
 _atom_site_occupancy
  Dy  Dy0  1  0.666667  0.333333  0.321543  1
  Dy  Dy1  1  0.463625  0.536375  0.212871  1
  Dy  Dy2  1  0.072748  0.536375  0.212871  1
  Dy  Dy3  1  0.463625  0.927252  0.212871  1
  Dy  Dy4  1  0.535864  0.464136  0.713920  1
  Dy  Dy5  1  0.928271  0.464136  0.713920  1
  Dy  Dy6  1  0.535864  0.071729  0.713920  1
  Dy  Dy7  1  0.000000  0.000000  0.226885  1
  Dy  Dy8  1  0.000000  0.000000  0.725668  1
  Er  Er9  1  0.178591  0.821409  0.508519  1
  Er  Er10  1  0.642815  0.821409  0.508519  1
  Er  Er11  1  0.178591  0.357185  0.508519  1
  Er  Er12  1  0.822059  0.177941  0.007781  1
  Er  Er13  1  0.355882  0.177941  0.007781  1
  Er  Er14  1  0.822059  0.644118  0.007781  1
  Tm  Tm15  1  0.333333  0.666667  0.818475  1
  In  In16  1  0.163692  0.836308  0.961458  1
  In  In17  1  0.672618  0.836308  0.961458  1
  In  In18  1  0.163692  0.327382  0.961458  1
  In  In19  1  0.837304  0.162696  0.462950  1
  In  In20  1  0.325391  0.162696  0.462950  1
  In  In21  1  0.837304  0.674609  0.462950  1
  Co  Co22  1  0.333333  0.666667  0.439103  1
  Co  Co23  1  0.666667  0.333333  0.940665  1
