# generated using pymatgen
data_Tb3TmLuPb3
_symmetry_space_group_name_H-M   'P 1'
_cell_length_a   6.56665700
_cell_length_b   9.05112408
_cell_length_c   9.05262702
_cell_angle_alpha   119.99450212
_cell_angle_beta   89.99986057
_cell_angle_gamma   90.00027995
_symmetry_Int_Tables_number   1
_chemical_formula_structural   Tb3TmLuPb3
_chemical_formula_sum   'Tb6 Tm2 Lu2 Pb6'
_cell_volume   465.98953859
_cell_formula_units_Z   2
loop_
 _symmetry_equiv_pos_site_id
 _symmetry_equiv_pos_as_xyz
  1  'x, y, z'
loop_
 _atom_site_type_symbol
 _atom_site_label
 _atom_site_symmetry_multiplicity
 _atom_site_fract_x
 _atom_site_fract_y
 _atom_site_fract_z
 _atom_site_occupancy
  Tb  Tb0  1  0.749936  0.238748  0.000000  1
  Tb  Tb1  1  0.749930  0.761149  0.761208  1
  Tb  Tb2  1  0.749930  0.999940  0.238792  1
  Tb  Tb3  1  0.250069  0.761249  0.000000  1
  Tb  Tb4  1  0.250065  0.238851  0.238793  1
  Tb  Tb5  1  0.250065  0.000059  0.761207  1
  Tm  Tm6  1  0.000000  0.666668  0.333293  1
  Tm  Tm7  1  0.000000  0.333375  0.666707  1
  Lu  Lu8  1  0.500000  0.333333  0.666702  1
  Lu  Lu9  1  0.500000  0.666632  0.333298  1
  Pb  Pb10  1  0.749834  0.604419  0.000000  1
  Pb  Pb11  1  0.749843  0.395517  0.395492  1
  Pb  Pb12  1  0.749843  0.000025  0.604508  1
  Pb  Pb13  1  0.250158  0.395581  0.000000  1
  Pb  Pb14  1  0.250164  0.604480  0.604507  1
  Pb  Pb15  1  0.250164  0.999974  0.395493  1
