# generated using pymatgen
data_CeTmNbB2Ru5
_symmetry_space_group_name_H-M   'P 1'
_cell_length_a   9.67945031
_cell_length_b   9.67945031
_cell_length_c   3.14581100
_cell_angle_alpha   90.00000000
_cell_angle_beta   90.00000000
_cell_angle_gamma   90.29608480
_symmetry_Int_Tables_number   1
_chemical_formula_structural   CeTmNbB2Ru5
_chemical_formula_sum   'Ce2 Tm2 Nb2 B4 Ru10'
_cell_volume   294.73262852
_cell_formula_units_Z   2
loop_
 _symmetry_equiv_pos_site_id
 _symmetry_equiv_pos_as_xyz
  1  'x, y, z'
loop_
 _atom_site_type_symbol
 _atom_site_label
 _atom_site_symmetry_multiplicity
 _atom_site_fract_x
 _atom_site_fract_y
 _atom_site_fract_z
 _atom_site_occupancy
  Ce  Ce0  1  0.824027  0.675973  0.000000  1
  Ce  Ce1  1  0.175973  0.324027  0.000000  1
  Tm  Tm2  1  0.325439  0.825439  0.000000  1
  Tm  Tm3  1  0.674561  0.174561  0.000000  1
  Nb  Nb4  1  0.500000  0.500000  0.000000  1
  Nb  Nb5  1  0.000000  0.000000  0.000000  1
  B  B6  1  0.618318  0.881682  0.000000  1
  B  B7  1  0.381682  0.118318  0.000000  1
  B  B8  1  0.123989  0.623989  0.000000  1
  B  B9  1  0.876011  0.376011  0.000000  1
  Ru  Ru10  1  0.571021  0.719145  0.500000  1
  Ru  Ru11  1  0.428979  0.280855  0.500000  1
  Ru  Ru12  1  0.070751  0.781184  0.500000  1
  Ru  Ru13  1  0.929249  0.218816  0.500000  1
  Ru  Ru14  1  0.281184  0.570751  0.500000  1
  Ru  Ru15  1  0.718816  0.429249  0.500000  1
  Ru  Ru16  1  0.219145  0.071021  0.500000  1
  Ru  Ru17  1  0.780855  0.928979  0.500000  1
  Ru  Ru18  1  0.500000  0.000000  0.500000  1
  Ru  Ru19  1  0.000000  0.500000  0.500000  1
