# generated using pymatgen
data_Sr4TlV6InO22
_symmetry_space_group_name_H-M   'P 1'
_cell_length_a   7.07682859
_cell_length_b   7.11804149
_cell_length_c   10.18817719
_cell_angle_alpha   100.54098895
_cell_angle_beta   94.64840031
_cell_angle_gamma   95.29335681
_symmetry_Int_Tables_number   1
_chemical_formula_structural   Sr4TlV6InO22
_chemical_formula_sum   'Sr4 Tl1 V6 In1 O22'
_cell_volume   499.87859293
_cell_formula_units_Z   1
loop_
 _symmetry_equiv_pos_site_id
 _symmetry_equiv_pos_as_xyz
  1  'x, y, z'
loop_
 _atom_site_type_symbol
 _atom_site_label
 _atom_site_symmetry_multiplicity
 _atom_site_fract_x
 _atom_site_fract_y
 _atom_site_fract_z
 _atom_site_occupancy
  Sr  Sr0  1  0.650746  0.248348  0.974622  1
  Sr  Sr1  1  0.347166  0.752516  0.025014  1
  Sr  Sr2  1  0.328943  0.399409  0.633154  1
  Sr  Sr3  1  0.678109  0.595996  0.366594  1
  Tl  Tl4  1  0.871652  0.040051  0.640419  1
  V  V5  1  0.621070  0.118255  0.350775  1
  V  V6  1  0.373982  0.877667  0.645804  1
  V  V7  1  0.161828  0.236129  0.966179  1
  V  V8  1  0.838328  0.767124  0.037140  1
  V  V9  1  0.145666  0.447103  0.268576  1
  V  V10  1  0.858784  0.555385  0.734157  1
  In  In11  1  0.123654  0.962569  0.356605  1
  O  O12  1  0.971796  0.362645  0.657504  1
  O  O13  1  0.039737  0.646187  0.344099  1
  O  O14  1  0.026276  0.349011  0.100634  1
  O  O15  1  0.975006  0.657501  0.902551  1
  O  O16  1  0.429635  0.699464  0.524715  1
  O  O17  1  0.579223  0.296773  0.476675  1
  O  O18  1  0.693099  0.238452  0.231572  1
  O  O19  1  0.294459  0.758609  0.763825  1
  O  O20  1  0.974555  0.108617  0.855447  1
  O  O21  1  0.023184  0.895000  0.149879  1
  O  O22  1  0.675564  0.906466  0.986461  1
  O  O23  1  0.322515  0.094112  0.015548  1
  O  O24  1  0.572969  0.047780  0.710958  1
  O  O25  1  0.414707  0.954677  0.294352  1
  O  O26  1  0.191575  0.013107  0.573681  1
  O  O27  1  0.812861  0.981521  0.412646  1
  O  O28  1  0.298756  0.397903  0.898290  1
  O  O29  1  0.702553  0.603011  0.103509  1
  O  O30  1  0.644693  0.470373  0.773631  1
  O  O31  1  0.361084  0.525477  0.228017  1
  O  O32  1  0.838650  0.714943  0.624497  1
  O  O33  1  0.157174  0.277820  0.372469  1
