# generated using pymatgen
data_Sc5(Co2Si7)2
_symmetry_space_group_name_H-M   'P 1'
_cell_length_a   7.49721590
_cell_length_b   7.56800500
_cell_length_c   11.94134500
_cell_angle_alpha   90.00000000
_cell_angle_beta   98.85927403
_cell_angle_gamma   90.00000000
_symmetry_Int_Tables_number   1
_chemical_formula_structural   Sc5(Co2Si7)2
_chemical_formula_sum   'Sc10 Co8 Si28'
_cell_volume   669.45625618
_cell_formula_units_Z   2
loop_
 _symmetry_equiv_pos_site_id
 _symmetry_equiv_pos_as_xyz
  1  'x, y, z'
loop_
 _atom_site_type_symbol
 _atom_site_label
 _atom_site_symmetry_multiplicity
 _atom_site_fract_x
 _atom_site_fract_y
 _atom_site_fract_z
 _atom_site_occupancy
  Sc  Sc0  1  0.657413  0.748991  0.632696  1
  Sc  Sc1  1  0.842587  0.248991  0.367304  1
  Sc  Sc2  1  0.157413  0.751009  0.632696  1
  Sc  Sc3  1  0.342587  0.251009  0.367304  1
  Sc  Sc4  1  0.840719  0.748914  0.367551  1
  Sc  Sc5  1  0.659281  0.248914  0.632449  1
  Sc  Sc6  1  0.159281  0.251086  0.632449  1
  Sc  Sc7  1  0.340719  0.751086  0.367551  1
  Sc  Sc8  1  0.500000  0.000000  0.000000  1
  Sc  Sc9  1  0.000000  0.500000  0.000000  1
  Co  Co10  1  0.873206  0.874291  0.000456  1
  Co  Co11  1  0.373206  0.625709  0.000456  1
  Co  Co12  1  0.626794  0.374291  0.999544  1
  Co  Co13  1  0.126794  0.125709  0.999544  1
  Co  Co14  1  0.437726  0.000134  0.745622  1
  Co  Co15  1  0.062274  0.500134  0.254378  1
  Co  Co16  1  0.562274  0.999866  0.254378  1
  Co  Co17  1  0.937726  0.499866  0.745622  1
  Si  Si18  1  0.182287  0.005355  0.818120  1
  Si  Si19  1  0.387643  0.999510  0.557672  1
  Si  Si20  1  0.112357  0.499510  0.442328  1
  Si  Si21  1  0.612357  0.000490  0.442328  1
  Si  Si22  1  0.668709  0.668681  0.999894  1
  Si  Si23  1  0.831291  0.168681  0.000106  1
  Si  Si24  1  0.331291  0.331319  0.000106  1
  Si  Si25  1  0.168709  0.831319  0.999894  1
  Si  Si26  1  0.949402  0.771833  0.818560  1
  Si  Si27  1  0.550598  0.271833  0.181440  1
  Si  Si28  1  0.050598  0.228167  0.181440  1
  Si  Si29  1  0.449402  0.728167  0.818560  1
  Si  Si30  1  0.960688  0.228245  0.818571  1
  Si  Si31  1  0.539312  0.728245  0.181429  1
  Si  Si32  1  0.039312  0.771755  0.181429  1
  Si  Si33  1  0.460688  0.271755  0.818571  1
  Si  Si34  1  0.728799  0.995025  0.818294  1
  Si  Si35  1  0.771201  0.495025  0.181706  1
  Si  Si36  1  0.271201  0.004975  0.181706  1
  Si  Si37  1  0.228799  0.504975  0.818294  1
  Si  Si38  1  0.682287  0.494645  0.818120  1
  Si  Si39  1  0.817713  0.994645  0.181880  1
  Si  Si40  1  0.317713  0.505355  0.181880  1
  Si  Si41  1  0.892156  0.999845  0.566240  1
  Si  Si42  1  0.392156  0.500155  0.566240  1
  Si  Si43  1  0.107844  0.000155  0.433760  1
  Si  Si44  1  0.607844  0.499845  0.433760  1
  Si  Si45  1  0.887643  0.500490  0.557672  1
