# generated using pymatgen
data_Gd3Cr(SO4)6
_symmetry_space_group_name_H-M   'P 1'
_cell_length_a   9.06249683
_cell_length_b   9.06249686
_cell_length_c   9.67076900
_cell_angle_alpha   117.94028011
_cell_angle_beta   62.05971981
_cell_angle_gamma   120.00000284
_symmetry_Int_Tables_number   1
_chemical_formula_structural   Gd3Cr(SO4)6
_chemical_formula_sum   'Gd3 Cr1 S6 O24'
_cell_volume   578.47292776
_cell_formula_units_Z   1
loop_
 _symmetry_equiv_pos_site_id
 _symmetry_equiv_pos_as_xyz
  1  'x, y, z'
loop_
 _atom_site_type_symbol
 _atom_site_label
 _atom_site_symmetry_multiplicity
 _atom_site_fract_x
 _atom_site_fract_y
 _atom_site_fract_z
 _atom_site_occupancy
  Gd  Gd0  1  0.646021  0.353980  0.061940  1
  Gd  Gd1  1  0.852471  0.147530  0.442588  1
  Gd  Gd2  1  0.139635  0.860366  0.581096  1
  Cr  Cr3  1  0.346723  0.653278  0.959833  1
  S  S4  1  0.240261  0.012392  0.239367  1
  S  S5  1  0.987607  0.467236  0.239367  1
  S  S6  1  0.532764  0.759738  0.239367  1
  S  S7  1  0.464862  0.281480  0.758799  1
  S  S8  1  0.057818  0.535138  0.758799  1
  S  S9  1  0.718520  0.942182  0.758799  1
  O  O10  1  0.159984  0.491603  0.101434  1
  O  O11  1  0.508396  0.769814  0.101434  1
  O  O12  1  0.230186  0.840015  0.101434  1
  O  O13  1  0.417629  0.153234  0.198257  1
  O  O14  1  0.846766  0.462653  0.198257  1
  O  O15  1  0.537347  0.582371  0.198257  1
  O  O16  1  0.097787  0.065470  0.262635  1
  O  O17  1  0.934529  0.294952  0.262635  1
  O  O18  1  0.705048  0.902213  0.262635  1
  O  O19  1  0.209667  0.990960  0.394225  1
  O  O20  1  0.009041  0.612933  0.394225  1
  O  O21  1  0.387067  0.790333  0.394225  1
  O  O22  1  0.619998  0.258254  0.608242  1
  O  O23  1  0.030015  0.380002  0.608242  1
  O  O24  1  0.741745  0.969984  0.608242  1
  O  O25  1  0.296438  0.139517  0.723848  1
  O  O26  1  0.119230  0.703562  0.723848  1
  O  O27  1  0.860485  0.880770  0.723848  1
  O  O28  1  0.463367  0.461980  0.804561  1
  O  O29  1  0.194052  0.536633  0.804561  1
  O  O30  1  0.538019  0.805946  0.804561  1
  O  O31  1  0.737396  0.114856  0.893482  1
  O  O32  1  0.483976  0.262604  0.893482  1
  O  O33  1  0.885144  0.516025  0.893482  1
