# generated using pymatgen
data_Y17Tm(LuPb8)2
_symmetry_space_group_name_H-M   'P 1'
_cell_length_a   8.19848940
_cell_length_b   8.28210140
_cell_length_c   15.66724700
_cell_angle_alpha   90.00000000
_cell_angle_beta   90.00000000
_cell_angle_gamma   89.96431658
_symmetry_Int_Tables_number   1
_chemical_formula_structural   Y17Tm(LuPb8)2
_chemical_formula_sum   'Y17 Tm1 Lu2 Pb16'
_cell_volume   1063.81715370
_cell_formula_units_Z   1
loop_
 _symmetry_equiv_pos_site_id
 _symmetry_equiv_pos_as_xyz
  1  'x, y, z'
loop_
 _atom_site_type_symbol
 _atom_site_label
 _atom_site_symmetry_multiplicity
 _atom_site_fract_x
 _atom_site_fract_y
 _atom_site_fract_z
 _atom_site_occupancy
  Y  Y0  1  0.467182  0.823653  0.400350  1
  Y  Y1  1  0.032577  0.323940  0.900487  1
  Y  Y2  1  0.032577  0.323940  0.599513  1
  Y  Y3  1  0.874961  0.840652  0.879252  1
  Y  Y4  1  0.467182  0.823653  0.099650  1
  Y  Y5  1  0.376257  0.658478  0.878970  1
  Y  Y6  1  0.624633  0.340991  0.120893  1
  Y  Y7  1  0.624633  0.340991  0.379107  1
  Y  Y8  1  0.207311  0.996493  0.750000  1
  Y  Y9  1  0.533260  0.177219  0.599202  1
  Y  Y10  1  0.376257  0.658478  0.621030  1
  Y  Y11  1  0.533260  0.177219  0.900798  1
  Y  Y12  1  0.966952  0.677002  0.400703  1
  Y  Y13  1  0.966952  0.677002  0.099297  1
  Y  Y14  1  0.124026  0.158728  0.121251  1
  Y  Y15  1  0.874961  0.840652  0.620748  1
  Y  Y16  1  0.124026  0.158728  0.378749  1
  Tm  Tm17  1  0.292488  0.496373  0.250000  1
  Lu  Lu18  1  0.792092  0.004065  0.250000  1
  Lu  Lu19  1  0.708013  0.504122  0.750000  1
  Pb  Pb20  1  0.843765  0.154137  0.750000  1
  Pb  Pb21  1  0.717642  0.532531  0.543567  1
  Pb  Pb22  1  0.929102  0.373827  0.250000  1
  Pb  Pb23  1  0.217870  0.966818  0.957245  1
  Pb  Pb24  1  0.282131  0.466886  0.043139  1
  Pb  Pb25  1  0.571940  0.873458  0.750000  1
  Pb  Pb26  1  0.345986  0.347885  0.750000  1
  Pb  Pb27  1  0.069736  0.624693  0.750000  1
  Pb  Pb28  1  0.782392  0.032501  0.456358  1
  Pb  Pb29  1  0.282131  0.466886  0.456861  1
  Pb  Pb30  1  0.154073  0.846710  0.250000  1
  Pb  Pb31  1  0.217870  0.966818  0.542755  1
  Pb  Pb32  1  0.782392  0.032501  0.043642  1
  Pb  Pb33  1  0.655447  0.654112  0.250000  1
  Pb  Pb34  1  0.717642  0.532531  0.956433  1
  Pb  Pb35  1  0.430280  0.125330  0.250000  1
