# generated using pymatgen
data_Tb4Co5Si5Ir4
_symmetry_space_group_name_H-M   'P 1'
_cell_length_a   5.43955794
_cell_length_b   5.37047156
_cell_length_c   22.33675823
_cell_angle_alpha   90.05628055
_cell_angle_beta   89.79113711
_cell_angle_gamma   121.89137846
_symmetry_Int_Tables_number   1
_chemical_formula_structural   Tb4Co5Si5Ir4
_chemical_formula_sum   'Tb8 Co10 Si10 Ir8'
_cell_volume   554.02185187
_cell_formula_units_Z   2
loop_
 _symmetry_equiv_pos_site_id
 _symmetry_equiv_pos_as_xyz
  1  'x, y, z'
loop_
 _atom_site_type_symbol
 _atom_site_label
 _atom_site_symmetry_multiplicity
 _atom_site_fract_x
 _atom_site_fract_y
 _atom_site_fract_z
 _atom_site_occupancy
  Tb  Tb0  1  0.332561  0.665726  0.527376  1
  Tb  Tb1  1  0.667439  0.334274  0.472624  1
  Tb  Tb2  1  0.666075  0.334406  0.026775  1
  Tb  Tb3  1  0.333925  0.665594  0.973225  1
  Tb  Tb4  1  0.333864  0.669612  0.675040  1
  Tb  Tb5  1  0.666136  0.330388  0.324960  1
  Tb  Tb6  1  0.668443  0.330645  0.172677  1
  Tb  Tb7  1  0.331557  0.669355  0.827323  1
  Co  Co8  1  0.167127  0.328851  0.085802  1
  Co  Co9  1  0.832873  0.671149  0.914198  1
  Co  Co10  1  0.671684  0.832701  0.085920  1
  Co  Co11  1  0.833366  0.671894  0.587235  1
  Co  Co12  1  0.328316  0.167299  0.914080  1
  Co  Co13  1  0.166634  0.328106  0.412765  1
  Co  Co14  1  0.167450  0.332709  0.246506  1
  Co  Co15  1  0.832550  0.667291  0.753494  1
  Co  Co16  1  0.665996  0.830363  0.249012  1
  Co  Co17  1  0.334004  0.169637  0.750988  1
  Si  Si18  1  0.000000  0.000000  0.000000  1
  Si  Si19  1  0.000000  0.000000  0.500000  1
  Si  Si20  1  0.354156  0.650737  0.166297  1
  Si  Si21  1  0.645844  0.349263  0.833703  1
  Si  Si22  1  0.670989  0.363916  0.671975  1
  Si  Si23  1  0.329011  0.636084  0.328025  1
  Si  Si24  1  0.983828  0.010579  0.166976  1
  Si  Si25  1  0.016172  0.989421  0.833024  1
  Si  Si26  1  0.997105  0.976232  0.672233  1
  Si  Si27  1  0.002895  0.023768  0.327767  1
  Ir  Ir28  1  0.170544  0.829633  0.090379  1
  Ir  Ir29  1  0.335825  0.170530  0.588973  1
  Ir  Ir30  1  0.829456  0.170367  0.909621  1
  Ir  Ir31  1  0.664175  0.829470  0.411027  1
  Ir  Ir32  1  0.833574  0.170785  0.592678  1
  Ir  Ir33  1  0.166426  0.829215  0.407322  1
  Ir  Ir34  1  0.167955  0.831162  0.247167  1
  Ir  Ir35  1  0.832045  0.168838  0.752833  1
