# generated using pymatgen
data_Tb6Ho2AlPd24
_symmetry_space_group_name_H-M   'P 1'
_cell_length_a   8.35455901
_cell_length_b   8.35455901
_cell_length_c   8.35455901
_cell_angle_alpha   89.99683155
_cell_angle_beta   90.00316845
_cell_angle_gamma   90.00316845
_symmetry_Int_Tables_number   1
_chemical_formula_structural   Tb6Ho2AlPd24
_chemical_formula_sum   'Tb6 Ho2 Al1 Pd24'
_cell_volume   583.13698904
_cell_formula_units_Z   1
loop_
 _symmetry_equiv_pos_site_id
 _symmetry_equiv_pos_as_xyz
  1  'x, y, z'
loop_
 _atom_site_type_symbol
 _atom_site_label
 _atom_site_symmetry_multiplicity
 _atom_site_fract_x
 _atom_site_fract_y
 _atom_site_fract_z
 _atom_site_occupancy
  Tb  Tb0  1  0.251536  0.251571  0.251571  1
  Tb  Tb1  1  0.748464  0.748429  0.748429  1
  Tb  Tb2  1  0.748429  0.748464  0.251571  1
  Tb  Tb3  1  0.748429  0.251571  0.748464  1
  Tb  Tb4  1  0.251571  0.251536  0.748429  1
  Tb  Tb5  1  0.251571  0.748429  0.251536  1
  Ho  Ho6  1  0.251573  0.748427  0.748427  1
  Ho  Ho7  1  0.748427  0.251573  0.251573  1
  Al  Al8  1  0.000000  0.000000  0.000000  1
  Pd  Pd9  1  0.259740  0.500324  0.999648  1
  Pd  Pd10  1  0.740260  0.499676  0.000352  1
  Pd  Pd11  1  0.999648  0.259740  0.499676  1
  Pd  Pd12  1  0.500324  0.259740  0.000352  1
  Pd  Pd13  1  0.000352  0.740260  0.500324  1
  Pd  Pd14  1  0.499676  0.740260  0.999648  1
  Pd  Pd15  1  0.500324  0.000352  0.259740  1
  Pd  Pd16  1  0.259740  0.999648  0.500324  1
  Pd  Pd17  1  0.499676  0.999648  0.740260  1
  Pd  Pd18  1  0.740260  0.000352  0.499676  1
  Pd  Pd19  1  0.999648  0.499676  0.259740  1
  Pd  Pd20  1  0.000352  0.500324  0.740260  1
  Pd  Pd21  1  0.252678  0.500362  0.500362  1
  Pd  Pd22  1  0.747322  0.499638  0.499638  1
  Pd  Pd23  1  0.500362  0.252678  0.499638  1
  Pd  Pd24  1  0.499638  0.747322  0.500362  1
  Pd  Pd25  1  0.500362  0.499638  0.252678  1
  Pd  Pd26  1  0.499638  0.500362  0.747322  1
  Pd  Pd27  1  0.289372  0.999689  0.999689  1
  Pd  Pd28  1  0.710628  0.000311  0.000311  1
  Pd  Pd29  1  0.999689  0.289372  0.000311  1
  Pd  Pd30  1  0.000311  0.710628  0.999689  1
  Pd  Pd31  1  0.999689  0.000311  0.289372  1
  Pd  Pd32  1  0.000311  0.999689  0.710628  1
