# generated using pymatgen
data_Yb2Dy2ErZnPb3
_symmetry_space_group_name_H-M   'P 1'
_cell_length_a   9.20253157
_cell_length_b   9.20253183
_cell_length_c   6.89763100
_cell_angle_alpha   90.00000000
_cell_angle_beta   90.00000000
_cell_angle_gamma   119.92707956
_symmetry_Int_Tables_number   1
_chemical_formula_structural   Yb2Dy2ErZnPb3
_chemical_formula_sum   'Yb4 Dy4 Er2 Zn2 Pb6'
_cell_volume   506.24865434
_cell_formula_units_Z   2
loop_
 _symmetry_equiv_pos_site_id
 _symmetry_equiv_pos_as_xyz
  1  'x, y, z'
loop_
 _atom_site_type_symbol
 _atom_site_label
 _atom_site_symmetry_multiplicity
 _atom_site_fract_x
 _atom_site_fract_y
 _atom_site_fract_z
 _atom_site_occupancy
  Yb  Yb0  1  0.333496  0.666504  0.000000  1
  Yb  Yb1  1  0.666504  0.333496  0.000000  1
  Yb  Yb2  1  0.666504  0.333496  0.500000  1
  Yb  Yb3  1  0.333496  0.666504  0.500000  1
  Dy  Dy4  1  0.261488  0.000661  0.250000  1
  Dy  Dy5  1  0.738512  0.999339  0.750000  1
  Dy  Dy6  1  0.000661  0.261488  0.250000  1
  Dy  Dy7  1  0.999339  0.738512  0.750000  1
  Er  Er8  1  0.740397  0.740397  0.250000  1
  Er  Er9  1  0.259603  0.259603  0.750000  1
  Zn  Zn10  1  0.000000  0.000000  0.000000  1
  Zn  Zn11  1  0.000000  0.000000  0.500000  1
  Pb  Pb12  1  0.615479  0.999367  0.250000  1
  Pb  Pb13  1  0.384521  0.000633  0.750000  1
  Pb  Pb14  1  0.999367  0.615479  0.250000  1
  Pb  Pb15  1  0.000633  0.384521  0.750000  1
  Pb  Pb16  1  0.386332  0.386332  0.250000  1
  Pb  Pb17  1  0.613668  0.613668  0.750000  1
