# generated using pymatgen
data_Ba2Mn3Co(PO4)4
_symmetry_space_group_name_H-M   'P 1'
_cell_length_a   5.15800540
_cell_length_b   8.28916724
_cell_length_c   9.53226412
_cell_angle_alpha   91.83590870
_cell_angle_beta   89.84446390
_cell_angle_gamma   89.81477982
_symmetry_Int_Tables_number   1
_chemical_formula_structural   Ba2Mn3Co(PO4)4
_chemical_formula_sum   'Ba2 Mn3 Co1 P4 O16'
_cell_volume   407.34442412
_cell_formula_units_Z   1
loop_
 _symmetry_equiv_pos_site_id
 _symmetry_equiv_pos_as_xyz
  1  'x, y, z'
loop_
 _atom_site_type_symbol
 _atom_site_label
 _atom_site_symmetry_multiplicity
 _atom_site_fract_x
 _atom_site_fract_y
 _atom_site_fract_z
 _atom_site_occupancy
  Ba  Ba0  1  0.496557  0.002912  0.496032  1
  Ba  Ba1  1  0.006647  0.001246  0.000490  1
  Mn  Mn2  1  0.068228  0.340248  0.704090  1
  Mn  Mn3  1  0.927180  0.655154  0.298361  1
  Mn  Mn4  1  0.575961  0.661862  0.797920  1
  Co  Co5  1  0.429074  0.345961  0.202773  1
  P  P6  1  0.486805  0.734766  0.139113  1
  P  P7  1  0.991723  0.257047  0.356255  1
  P  P8  1  0.505660  0.266069  0.867190  1
  P  P9  1  0.014450  0.740473  0.637411  1
  O  O10  1  0.865795  0.853772  0.742554  1
  O  O11  1  0.356303  0.149041  0.765730  1
  O  O12  1  0.145866  0.136864  0.260643  1
  O  O13  1  0.631559  0.845712  0.246764  1
  O  O14  1  0.556963  0.789650  0.989249  1
  O  O15  1  0.042756  0.214391  0.511633  1
  O  O16  1  0.438078  0.220624  0.020383  1
  O  O17  1  0.949867  0.790616  0.485685  1
  O  O18  1  0.595696  0.560872  0.166866  1
  O  O19  1  0.108136  0.427275  0.321116  1
  O  O20  1  0.401021  0.438104  0.832480  1
  O  O21  1  0.907499  0.567219  0.666042  1
  O  O22  1  0.311778  0.749837  0.654921  1
  O  O23  1  0.802770  0.254224  0.848564  1
  O  O24  1  0.694487  0.252859  0.333427  1
  O  O25  1  0.189138  0.743202  0.154310  1
