# generated using pymatgen
data_Mn2Co(MoO4)3
_symmetry_space_group_name_H-M   'P 1'
_cell_length_a   7.18047517
_cell_length_b   8.63520523
_cell_length_c   10.04059300
_cell_angle_alpha   96.59710861
_cell_angle_beta   106.46034821
_cell_angle_gamma   101.82641895
_symmetry_Int_Tables_number   1
_chemical_formula_structural   Mn2Co(MoO4)3
_chemical_formula_sum   'Mn4 Co2 Mo6 O24'
_cell_volume   574.37074281
_cell_formula_units_Z   2
loop_
 _symmetry_equiv_pos_site_id
 _symmetry_equiv_pos_as_xyz
  1  'x, y, z'
loop_
 _atom_site_type_symbol
 _atom_site_label
 _atom_site_symmetry_multiplicity
 _atom_site_fract_x
 _atom_site_fract_y
 _atom_site_fract_z
 _atom_site_occupancy
  Mn  Mn0  1  0.251646  0.691877  0.909752  1
  Mn  Mn1  1  0.748354  0.308123  0.090248  1
  Mn  Mn2  1  0.534934  0.697864  0.488845  1
  Mn  Mn3  1  0.465066  0.302136  0.511155  1
  Co  Co4  1  0.975214  0.884684  0.712020  1
  Co  Co5  1  0.024786  0.115316  0.287980  1
  Mo  Mo6  1  0.505717  0.989409  0.757112  1
  Mo  Mo7  1  0.494283  0.010591  0.242888  1
  Mo  Mo8  1  0.700097  0.606508  0.836456  1
  Mo  Mo9  1  0.299903  0.393492  0.163544  1
  Mo  Mo10  1  0.978968  0.711671  0.376153  1
  Mo  Mo11  1  0.021032  0.288329  0.623847  1
  O  O12  1  0.265324  0.870446  0.763608  1
  O  O13  1  0.734676  0.129554  0.236392  1
  O  O14  1  0.558721  0.709551  0.918376  1
  O  O15  1  0.441279  0.290449  0.081624  1
  O  O16  1  0.558139  0.526285  0.650952  1
  O  O17  1  0.441861  0.473715  0.349048  1
  O  O18  1  0.549581  0.868771  0.352103  1
  O  O19  1  0.450419  0.131229  0.647897  1
  O  O20  1  0.655564  0.097440  0.926061  1
  O  O21  1  0.344436  0.902560  0.073939  1
  O  O22  1  0.651288  0.868330  0.685321  1
  O  O23  1  0.348712  0.131670  0.314679  1
  O  O24  1  0.017729  0.117423  0.711010  1
  O  O25  1  0.982271  0.882577  0.288990  1
  O  O26  1  0.052612  0.265505  0.148883  1
  O  O27  1  0.947388  0.734495  0.851117  1
  O  O28  1  0.147094  0.469974  0.748864  1
  O  O29  1  0.852906  0.530026  0.251136  1
  O  O30  1  0.139032  0.262347  0.483614  1
  O  O31  1  0.860968  0.737653  0.516386  1
  O  O32  1  0.254234  0.554358  0.075564  1
  O  O33  1  0.745766  0.445642  0.924436  1
  O  O34  1  0.230886  0.706662  0.458899  1
  O  O35  1  0.769114  0.293338  0.541101  1
