# generated using pymatgen
data_Dy12Pd3Ru
_symmetry_space_group_name_H-M   'P 1'
_cell_length_a   6.42288810
_cell_length_b   7.11599015
_cell_length_c   9.57095300
_cell_angle_alpha   90.00000000
_cell_angle_beta   90.00000000
_cell_angle_gamma   90.02226349
_symmetry_Int_Tables_number   1
_chemical_formula_structural   Dy12Pd3Ru
_chemical_formula_sum   'Dy12 Pd3 Ru1'
_cell_volume   437.44236951
_cell_formula_units_Z   1
loop_
 _symmetry_equiv_pos_site_id
 _symmetry_equiv_pos_as_xyz
  1  'x, y, z'
loop_
 _atom_site_type_symbol
 _atom_site_label
 _atom_site_symmetry_multiplicity
 _atom_site_fract_x
 _atom_site_fract_y
 _atom_site_fract_z
 _atom_site_occupancy
  Dy  Dy0  1  0.329995  0.683941  0.055273  1
  Dy  Dy1  1  0.170734  0.181724  0.440133  1
  Dy  Dy2  1  0.671331  0.322312  0.563824  1
  Dy  Dy3  1  0.821452  0.814500  0.937026  1
  Dy  Dy4  1  0.671331  0.322312  0.936176  1
  Dy  Dy5  1  0.821452  0.814500  0.562974  1
  Dy  Dy6  1  0.329995  0.683941  0.444727  1
  Dy  Dy7  1  0.170734  0.181724  0.059867  1
  Dy  Dy8  1  0.868897  0.525589  0.250000  1
  Dy  Dy9  1  0.633654  0.028518  0.250000  1
  Dy  Dy10  1  0.136273  0.475103  0.750000  1
  Dy  Dy11  1  0.374269  0.961804  0.750000  1
  Pd  Pd12  1  0.059986  0.887945  0.250000  1
  Pd  Pd13  1  0.438982  0.391664  0.250000  1
  Pd  Pd14  1  0.949222  0.111938  0.750000  1
  Ru  Ru15  1  0.551692  0.612485  0.750000  1
