# generated using pymatgen
data_SmY2Ta(Co4P3)2
_symmetry_space_group_name_H-M   'P 1'
_cell_length_a   3.72542500
_cell_length_b   10.65186100
_cell_length_c   12.36134600
_cell_angle_alpha   90.00000000
_cell_angle_beta   90.00000000
_cell_angle_gamma   90.00000000
_symmetry_Int_Tables_number   1
_chemical_formula_structural   SmY2Ta(Co4P3)2
_chemical_formula_sum   'Sm2 Y4 Ta2 Co16 P12'
_cell_volume   490.53169945
_cell_formula_units_Z   2
loop_
 _symmetry_equiv_pos_site_id
 _symmetry_equiv_pos_as_xyz
  1  'x, y, z'
loop_
 _atom_site_type_symbol
 _atom_site_label
 _atom_site_symmetry_multiplicity
 _atom_site_fract_x
 _atom_site_fract_y
 _atom_site_fract_z
 _atom_site_occupancy
  Sm  Sm0  1  0.000000  0.500000  0.526988  1
  Sm  Sm1  1  0.500000  0.000000  0.473012  1
  Y  Y2  1  0.500000  0.820217  0.204640  1
  Y  Y3  1  0.500000  0.179783  0.204640  1
  Y  Y4  1  0.000000  0.679783  0.795360  1
  Y  Y5  1  0.000000  0.320217  0.795360  1
  Ta  Ta6  1  0.500000  0.500000  0.155228  1
  Ta  Ta7  1  0.000000  0.000000  0.844772  1
  Co  Co8  1  0.500000  0.500000  0.703560  1
  Co  Co9  1  0.000000  0.000000  0.296440  1
  Co  Co10  1  0.000000  0.500000  0.986981  1
  Co  Co11  1  0.500000  0.000000  0.013019  1
  Co  Co12  1  0.500000  0.332681  0.992218  1
  Co  Co13  1  0.500000  0.667319  0.992218  1
  Co  Co14  1  0.000000  0.167319  0.007782  1
  Co  Co15  1  0.000000  0.832681  0.007782  1
  Co  Co16  1  0.500000  0.295062  0.431594  1
  Co  Co17  1  0.500000  0.704938  0.431594  1
  Co  Co18  1  0.000000  0.204938  0.568406  1
  Co  Co19  1  0.000000  0.795062  0.568406  1
  Co  Co20  1  0.500000  0.878143  0.706566  1
  Co  Co21  1  0.500000  0.121857  0.706566  1
  Co  Co22  1  0.000000  0.621857  0.293434  1
  Co  Co23  1  0.000000  0.378143  0.293434  1
  P  P24  1  0.500000  0.500000  0.882481  1
  P  P25  1  0.000000  0.000000  0.117519  1
  P  P26  1  0.500000  0.500000  0.353890  1
  P  P27  1  0.000000  0.000000  0.646110  1
  P  P28  1  0.500000  0.308924  0.616080  1
  P  P29  1  0.500000  0.691076  0.616080  1
  P  P30  1  0.000000  0.191076  0.383920  1
  P  P31  1  0.000000  0.808924  0.383920  1
  P  P32  1  0.500000  0.841549  0.893483  1
  P  P33  1  0.500000  0.158451  0.893483  1
  P  P34  1  0.000000  0.658451  0.106517  1
  P  P35  1  0.000000  0.341549  0.106517  1
