# generated using pymatgen
data_Ho3Tm5Tl2InOs
_symmetry_space_group_name_H-M   'P 1'
_cell_length_a   10.25787101
_cell_length_b   10.26050696
_cell_length_c   7.12873101
_cell_angle_alpha   89.99294247
_cell_angle_beta   89.99951321
_cell_angle_gamma   119.99643886
_symmetry_Int_Tables_number   1
_chemical_formula_structural   Ho3Tm5Tl2InOs
_chemical_formula_sum   'Ho6 Tm10 Tl4 In2 Os2'
_cell_volume   649.80715699
_cell_formula_units_Z   2
loop_
 _symmetry_equiv_pos_site_id
 _symmetry_equiv_pos_as_xyz
  1  'x, y, z'
loop_
 _atom_site_type_symbol
 _atom_site_label
 _atom_site_symmetry_multiplicity
 _atom_site_fract_x
 _atom_site_fract_y
 _atom_site_fract_z
 _atom_site_occupancy
  Ho  Ho0  1  0.534025  0.068055  0.514467  1
  Ho  Ho1  1  0.931087  0.466524  0.515593  1
  Ho  Ho2  1  0.535420  0.466533  0.515577  1
  Ho  Ho3  1  0.465094  0.930179  0.017047  1
  Ho  Ho4  1  0.070185  0.534953  0.016573  1
  Ho  Ho5  1  0.464777  0.534952  0.016540  1
  Tm  Tm6  1  0.177000  0.354004  0.716298  1
  Tm  Tm7  1  0.646057  0.823282  0.718156  1
  Tm  Tm8  1  0.177235  0.823279  0.718160  1
  Tm  Tm9  1  0.822680  0.645361  0.216061  1
  Tm  Tm10  1  0.354255  0.177451  0.216537  1
  Tm  Tm11  1  0.823186  0.177444  0.216544  1
  Tm  Tm12  1  0.666506  0.333042  0.897443  1
  Tm  Tm13  1  0.333456  0.666904  0.398009  1
  Tm  Tm14  1  0.999197  0.998389  0.496859  1
  Tm  Tm15  1  0.999338  0.998673  0.000036  1
  Tl  Tl16  1  0.836628  0.673269  0.765739  1
  Tl  Tl17  1  0.326915  0.163559  0.765531  1
  Tl  Tl18  1  0.836641  0.163545  0.765555  1
  Tl  Tl19  1  0.163405  0.326789  0.266163  1
  In  In20  1  0.673812  0.836957  0.265293  1
  In  In21  1  0.163151  0.836973  0.265320  1
  Os  Os22  1  0.666652  0.333284  0.287306  1
  Os  Os23  1  0.333298  0.666600  0.787193  1
