# generated using pymatgen
data_Si4Mo4Ir3Rh
_symmetry_space_group_name_H-M   'P 1'
_cell_length_a   3.88167700
_cell_length_b   6.22378568
_cell_length_c   7.14535362
_cell_angle_alpha   90.14826241
_cell_angle_beta   90.00000000
_cell_angle_gamma   90.00000000
_symmetry_Int_Tables_number   1
_chemical_formula_structural   Si4Mo4Ir3Rh
_chemical_formula_sum   'Si4 Mo4 Ir3 Rh1'
_cell_volume   172.62206038
_cell_formula_units_Z   1
loop_
 _symmetry_equiv_pos_site_id
 _symmetry_equiv_pos_as_xyz
  1  'x, y, z'
loop_
 _atom_site_type_symbol
 _atom_site_label
 _atom_site_symmetry_multiplicity
 _atom_site_fract_x
 _atom_site_fract_y
 _atom_site_fract_z
 _atom_site_occupancy
  Si  Si0  1  0.250000  0.261423  0.121274  1
  Si  Si1  1  0.750000  0.739054  0.879387  1
  Si  Si2  1  0.250000  0.760836  0.374837  1
  Si  Si3  1  0.750000  0.238667  0.623874  1
  Mo  Mo4  1  0.250000  0.528737  0.666673  1
  Mo  Mo5  1  0.750000  0.471118  0.333561  1
  Mo  Mo6  1  0.250000  0.026585  0.829344  1
  Mo  Mo7  1  0.750000  0.973325  0.170788  1
  Ir  Ir8  1  0.750000  0.853333  0.562315  1
  Ir  Ir9  1  0.250000  0.146646  0.437228  1
  Ir  Ir10  1  0.750000  0.354084  0.938110  1
  Rh  Rh11  1  0.250000  0.646192  0.062608  1
