# generated using pymatgen
data_LaPr3HgRh
_symmetry_space_group_name_H-M   'P 1'
_cell_length_a   10.03802109
_cell_length_b   10.03802027
_cell_length_c   10.03802000
_cell_angle_alpha   59.99999429
_cell_angle_beta   59.99999699
_cell_angle_gamma   60.00000101
_symmetry_Int_Tables_number   1
_chemical_formula_structural   LaPr3HgRh
_chemical_formula_sum   'La4 Pr12 Hg4 Rh4'
_cell_volume   715.20279894
_cell_formula_units_Z   4
loop_
 _symmetry_equiv_pos_site_id
 _symmetry_equiv_pos_as_xyz
  1  'x, y, z'
loop_
 _atom_site_type_symbol
 _atom_site_label
 _atom_site_symmetry_multiplicity
 _atom_site_fract_x
 _atom_site_fract_y
 _atom_site_fract_z
 _atom_site_occupancy
  La  La0  1  0.349601  0.349601  0.349601  1
  La  La1  1  0.349601  0.349601  0.951196  1
  La  La2  1  0.349601  0.951196  0.349601  1
  La  La3  1  0.951196  0.349601  0.349601  1
  Pr  Pr4  1  0.809789  0.190211  0.190211  1
  Pr  Pr5  1  0.190211  0.809790  0.809789  1
  Pr  Pr6  1  0.190211  0.809789  0.190210  1
  Pr  Pr7  1  0.809789  0.190211  0.809789  1
  Pr  Pr8  1  0.190211  0.190211  0.809789  1
  Pr  Pr9  1  0.809790  0.809790  0.190210  1
  Pr  Pr10  1  0.937331  0.562669  0.562669  1
  Pr  Pr11  1  0.562669  0.937331  0.937331  1
  Pr  Pr12  1  0.562669  0.937331  0.562669  1
  Pr  Pr13  1  0.937331  0.562669  0.937331  1
  Pr  Pr14  1  0.562669  0.562669  0.937331  1
  Pr  Pr15  1  0.937331  0.937331  0.562669  1
  Hg  Hg16  1  0.583820  0.583820  0.583820  1
  Hg  Hg17  1  0.583820  0.583820  0.248540  1
  Hg  Hg18  1  0.583820  0.248540  0.583820  1
  Hg  Hg19  1  0.248540  0.583820  0.583820  1
  Rh  Rh20  1  0.142906  0.142906  0.142906  1
  Rh  Rh21  1  0.142906  0.142906  0.571281  1
  Rh  Rh22  1  0.142906  0.571281  0.142906  1
  Rh  Rh23  1  0.571281  0.142906  0.142906  1
