# generated using pymatgen
data_Sc12Be(NiI8)2
_symmetry_space_group_name_H-M   'P 1'
_cell_length_a   8.99931923
_cell_length_b   11.97352145
_cell_length_c   12.63671600
_cell_angle_alpha   117.23427782
_cell_angle_beta   100.98074376
_cell_angle_gamma   100.44297337
_symmetry_Int_Tables_number   1
_chemical_formula_structural   Sc12Be(NiI8)2
_chemical_formula_sum   'Sc12 Be1 Ni2 I16'
_cell_volume   1130.93989957
_cell_formula_units_Z   1
loop_
 _symmetry_equiv_pos_site_id
 _symmetry_equiv_pos_as_xyz
  1  'x, y, z'
loop_
 _atom_site_type_symbol
 _atom_site_label
 _atom_site_symmetry_multiplicity
 _atom_site_fract_x
 _atom_site_fract_y
 _atom_site_fract_z
 _atom_site_occupancy
  Sc  Sc0  1  0.090352  0.277490  0.363769  1
  Sc  Sc1  1  0.909648  0.722510  0.636231  1
  Sc  Sc2  1  0.782732  0.534727  0.334985  1
  Sc  Sc3  1  0.217268  0.465273  0.665015  1
  Sc  Sc4  1  0.271531  0.723046  0.636362  1
  Sc  Sc5  1  0.728469  0.276954  0.363638  1
  Sc  Sc6  1  0.144693  0.535069  0.335234  1
  Sc  Sc7  1  0.855307  0.464931  0.664766  1
  Sc  Sc8  1  0.409501  0.365017  0.283545  1
  Sc  Sc9  1  0.590499  0.634983  0.716455  1
  Sc  Sc10  1  0.460774  0.315952  0.520413  1
  Sc  Sc11  1  0.539226  0.684048  0.479587  1
  Be  Be12  1  0.000000  0.500000  0.500000  1
  Ni  Ni13  1  0.343692  0.499957  0.500068  1
  Ni  Ni14  1  0.656309  0.500043  0.499932  1
  I  I15  1  0.392748  0.737271  0.879995  1
  I  I16  1  0.607252  0.262729  0.120005  1
  I  I17  1  0.185538  0.959247  0.779490  1
  I  I18  1  0.814462  0.040753  0.220510  1
  I  I19  1  0.339422  0.100699  0.255123  1
  I  I20  1  0.660578  0.899301  0.744877  1
  I  I21  1  0.560831  0.437949  0.795850  1
  I  I22  1  0.439169  0.562051  0.204150  1
  I  I23  1  0.304509  0.824230  0.462928  1
  I  I24  1  0.695491  0.175770  0.537072  1
  I  I25  1  0.166751  0.175442  0.535418  1
  I  I26  1  0.833249  0.824558  0.464582  1
  I  I27  1  0.926486  0.574712  0.162631  1
  I  I28  1  0.073514  0.425288  0.837369  1
  I  I29  1  0.924464  0.736158  0.879741  1
  I  I30  1  0.075536  0.263842  0.120259  1
