# generated using pymatgen
data_KLu(NbCl3)6
_symmetry_space_group_name_H-M   'P 1'
_cell_length_a   10.14435729
_cell_length_b   10.14435770
_cell_length_c   10.14435777
_cell_angle_alpha   55.38771433
_cell_angle_beta   55.38771205
_cell_angle_gamma   55.38771483
_symmetry_Int_Tables_number   1
_chemical_formula_structural   KLu(NbCl3)6
_chemical_formula_sum   'K1 Lu1 Nb6 Cl18'
_cell_volume   659.08554316
_cell_formula_units_Z   1
loop_
 _symmetry_equiv_pos_site_id
 _symmetry_equiv_pos_as_xyz
  1  'x, y, z'
loop_
 _atom_site_type_symbol
 _atom_site_label
 _atom_site_symmetry_multiplicity
 _atom_site_fract_x
 _atom_site_fract_y
 _atom_site_fract_z
 _atom_site_occupancy
  K  K0  1  0.221349  0.221349  0.221349  1
  Lu  Lu1  1  0.498603  0.498603  0.498603  1
  Nb  Nb2  1  0.799302  0.150568  0.910790  1
  Nb  Nb3  1  0.910790  0.799302  0.150568  1
  Nb  Nb4  1  0.150568  0.910790  0.799302  1
  Nb  Nb5  1  0.201960  0.849777  0.088086  1
  Nb  Nb6  1  0.088086  0.201960  0.849777  1
  Nb  Nb7  1  0.849777  0.088086  0.201960  1
  Cl  Cl8  1  0.863093  0.416310  0.724034  1
  Cl  Cl9  1  0.724034  0.863093  0.416310  1
  Cl  Cl10  1  0.416310  0.724034  0.863093  1
  Cl  Cl11  1  0.136731  0.583021  0.277132  1
  Cl  Cl12  1  0.277132  0.136731  0.583021  1
  Cl  Cl13  1  0.583021  0.277132  0.136731  1
  Cl  Cl14  1  0.530032  0.345295  0.799976  1
  Cl  Cl15  1  0.799976  0.530032  0.345295  1
  Cl  Cl16  1  0.345295  0.799976  0.530032  1
  Cl  Cl17  1  0.466043  0.655911  0.203018  1
  Cl  Cl18  1  0.203018  0.466043  0.655911  1
  Cl  Cl19  1  0.655911  0.203018  0.466043  1
  Cl  Cl20  1  0.658583  0.939614  0.071939  1
  Cl  Cl21  1  0.071939  0.658583  0.939614  1
  Cl  Cl22  1  0.939614  0.071939  0.658583  1
  Cl  Cl23  1  0.341813  0.061095  0.927064  1
  Cl  Cl24  1  0.927064  0.341813  0.061095  1
  Cl  Cl25  1  0.061095  0.927064  0.341813  1
