# generated using pymatgen
data_Re(PtRh)4
_symmetry_space_group_name_H-M   'P 1'
_cell_length_a   6.19050991
_cell_length_b   6.19050998
_cell_length_c   6.19051052
_cell_angle_alpha   95.65753245
_cell_angle_beta   95.65752537
_cell_angle_gamma   143.40176899
_symmetry_Int_Tables_number   1
_chemical_formula_structural   Re(PtRh)4
_chemical_formula_sum   'Re1 Pt4 Rh4'
_cell_volume   134.28713834
_cell_formula_units_Z   1
loop_
 _symmetry_equiv_pos_site_id
 _symmetry_equiv_pos_as_xyz
  1  'x, y, z'
loop_
 _atom_site_type_symbol
 _atom_site_label
 _atom_site_symmetry_multiplicity
 _atom_site_fract_x
 _atom_site_fract_y
 _atom_site_fract_z
 _atom_site_occupancy
  Re  Re0  1  0.000000  0.000000  0.000000  1
  Pt  Pt1  1  0.000000  0.326501  0.326501  1
  Pt  Pt2  1  0.000000  0.673499  0.673499  1
  Pt  Pt3  1  0.673499  0.000000  0.673499  1
  Pt  Pt4  1  0.326501  0.000000  0.326501  1
  Rh  Rh5  1  0.340474  0.340474  0.680950  1
  Rh  Rh6  1  0.659526  0.659526  0.319050  1
  Rh  Rh7  1  0.659526  0.340474  0.000000  1
  Rh  Rh8  1  0.340474  0.659526  0.000000  1
