# generated using pymatgen
data_La2MnZnNi8
_symmetry_space_group_name_H-M   'P 1'
_cell_length_a   5.01674924
_cell_length_b   5.01674953
_cell_length_c   8.07131400
_cell_angle_alpha   90.00000000
_cell_angle_beta   90.00000000
_cell_angle_gamma   119.24736887
_symmetry_Int_Tables_number   1
_chemical_formula_structural   La2MnZnNi8
_chemical_formula_sum   'La2 Mn1 Zn1 Ni8'
_cell_volume   177.24078790
_cell_formula_units_Z   1
loop_
 _symmetry_equiv_pos_site_id
 _symmetry_equiv_pos_as_xyz
  1  'x, y, z'
loop_
 _atom_site_type_symbol
 _atom_site_label
 _atom_site_symmetry_multiplicity
 _atom_site_fract_x
 _atom_site_fract_y
 _atom_site_fract_z
 _atom_site_occupancy
  La  La0  1  0.000000  0.000000  0.747259  1
  La  La1  1  0.000000  0.000000  0.252741  1
  Mn  Mn2  1  0.500000  0.500000  0.500000  1
  Zn  Zn3  1  0.500000  0.500000  0.000000  1
  Ni  Ni4  1  0.671969  0.328031  0.749093  1
  Ni  Ni5  1  0.671969  0.328031  0.250907  1
  Ni  Ni6  1  0.328031  0.671969  0.749093  1
  Ni  Ni7  1  0.500000  0.000000  0.500000  1
  Ni  Ni8  1  0.000000  0.500000  0.000000  1
  Ni  Ni9  1  0.500000  0.000000  0.000000  1
  Ni  Ni10  1  0.328031  0.671969  0.250907  1
  Ni  Ni11  1  0.000000  0.500000  0.500000  1
