# generated using pymatgen
data_Ac5AsS4
_symmetry_space_group_name_H-M   'P 1'
_cell_length_a   7.55369027
_cell_length_b   7.55369214
_cell_length_c   7.55369201
_cell_angle_alpha   99.61203321
_cell_angle_beta   99.61203969
_cell_angle_gamma   131.76279402
_symmetry_Int_Tables_number   1
_chemical_formula_structural   Ac5AsS4
_chemical_formula_sum   'Ac5 As1 S4'
_cell_volume   293.42166004
_cell_formula_units_Z   1
loop_
 _symmetry_equiv_pos_site_id
 _symmetry_equiv_pos_as_xyz
  1  'x, y, z'
loop_
 _atom_site_type_symbol
 _atom_site_label
 _atom_site_symmetry_multiplicity
 _atom_site_fract_x
 _atom_site_fract_y
 _atom_site_fract_z
 _atom_site_occupancy
  Ac  Ac0  1  0.399891  0.802622  0.202512  1
  Ac  Ac1  1  0.000000  0.000000  0.000000  1
  Ac  Ac2  1  0.600109  0.197378  0.797488  1
  Ac  Ac3  1  0.197378  0.399891  0.597269  1
  Ac  Ac4  1  0.802622  0.600109  0.402731  1
  As  As5  1  0.500000  0.500000  0.000000  1
  S  S6  1  0.102378  0.700481  0.802858  1
  S  S7  1  0.700481  0.897622  0.598102  1
  S  S8  1  0.299519  0.102378  0.401898  1
  S  S9  1  0.897622  0.299519  0.197142  1
