# generated using pymatgen
data_MnClO2F5
_symmetry_space_group_name_H-M   'P 1'
_cell_length_a   8.57279553
_cell_length_b   8.57242773
_cell_length_c   8.99576800
_cell_angle_alpha   90.00000000
_cell_angle_beta   90.00000000
_cell_angle_gamma   127.02525783
_symmetry_Int_Tables_number   1
_chemical_formula_structural   MnClO2F5
_chemical_formula_sum   'Mn4 Cl4 O8 F20'
_cell_volume   527.79931919
_cell_formula_units_Z   4
loop_
 _symmetry_equiv_pos_site_id
 _symmetry_equiv_pos_as_xyz
  1  'x, y, z'
loop_
 _atom_site_type_symbol
 _atom_site_label
 _atom_site_symmetry_multiplicity
 _atom_site_fract_x
 _atom_site_fract_y
 _atom_site_fract_z
 _atom_site_occupancy
  Mn  Mn0  1  0.996140  0.772004  0.931869  1
  Mn  Mn1  1  0.003860  0.227996  0.431869  1
  Mn  Mn2  1  0.772012  0.996175  0.068089  1
  Mn  Mn3  1  0.227988  0.003825  0.568089  1
  Cl  Cl4  1  0.387901  0.612104  0.749999  1
  Cl  Cl5  1  0.274360  0.725618  0.249997  1
  Cl  Cl6  1  0.612099  0.387896  0.249999  1
  Cl  Cl7  1  0.725640  0.274382  0.749997  1
  O  O8  1  0.658022  0.526576  0.362341  1
  O  O9  1  0.341978  0.473424  0.862341  1
  O  O10  1  0.252507  0.609815  0.126639  1
  O  O11  1  0.473428  0.341981  0.137650  1
  O  O12  1  0.390190  0.747494  0.373357  1
  O  O13  1  0.609810  0.252506  0.873357  1
  O  O14  1  0.747493  0.390185  0.626639  1
  O  O15  1  0.526572  0.658019  0.637650  1
  F  F16  1  0.924435  0.243446  0.997500  1
  F  F17  1  0.398533  0.966579  0.647739  1
  F  F18  1  0.031164  0.031164  0.500005  1
  F  F19  1  0.075565  0.756554  0.497500  1
  F  F20  1  0.370466  0.251299  0.636591  1
  F  F21  1  0.966590  0.398525  0.352279  1
  F  F22  1  0.601467  0.033421  0.147739  1
  F  F23  1  0.629534  0.748701  0.136591  1
  F  F24  1  0.914210  0.639943  0.110037  1
  F  F25  1  0.033410  0.601475  0.852279  1
  F  F26  1  0.968836  0.968836  0.000005  1
  F  F27  1  0.079419  0.920576  0.750002  1
  F  F28  1  0.251278  0.370467  0.363414  1
  F  F29  1  0.748722  0.629533  0.863414  1
  F  F30  1  0.756541  0.075581  0.502525  1
  F  F31  1  0.639950  0.914211  0.889967  1
  F  F32  1  0.085790  0.360057  0.610037  1
  F  F33  1  0.360050  0.085789  0.389967  1
  F  F34  1  0.243459  0.924419  0.002525  1
  F  F35  1  0.920581  0.079424  0.250002  1
