# generated using pymatgen
data_Na2In2S3
_symmetry_space_group_name_H-M   'P 1'
_cell_length_a   7.02360084
_cell_length_b   7.02359944
_cell_length_c   8.79891600
_cell_angle_alpha   82.28379365
_cell_angle_beta   82.28379520
_cell_angle_gamma   119.99264024
_symmetry_Int_Tables_number   1
_chemical_formula_structural   Na2In2S3
_chemical_formula_sum   'Na4 In4 S6'
_cell_volume   362.12922845
_cell_formula_units_Z   2
loop_
 _symmetry_equiv_pos_site_id
 _symmetry_equiv_pos_as_xyz
  1  'x, y, z'
loop_
 _atom_site_type_symbol
 _atom_site_label
 _atom_site_symmetry_multiplicity
 _atom_site_fract_x
 _atom_site_fract_y
 _atom_site_fract_z
 _atom_site_occupancy
  Na  Na0  1  0.500000  0.500000  0.500000  1
  Na  Na1  1  0.661670  0.338330  0.000000  1
  Na  Na2  1  0.338330  0.661670  0.000000  1
  Na  Na3  1  0.000000  0.000000  0.000000  1
  In  In4  1  0.886908  0.219887  0.336961  1
  In  In5  1  0.780113  0.113092  0.663039  1
  In  In6  1  0.219887  0.886908  0.336961  1
  In  In7  1  0.113092  0.780113  0.663039  1
  S  S8  1  0.406022  0.069632  0.784016  1
  S  S9  1  0.069632  0.406022  0.784016  1
  S  S10  1  0.930368  0.593978  0.215984  1
  S  S11  1  0.742572  0.742572  0.785980  1
  S  S12  1  0.593978  0.930368  0.215984  1
  S  S13  1  0.257428  0.257428  0.214020  1
