# generated using pymatgen
data_Er3Sn3Hg2
_symmetry_space_group_name_H-M   'P 1'
_cell_length_a   6.38687140
_cell_length_b   6.38687052
_cell_length_c   10.17118200
_cell_angle_alpha   90.00000000
_cell_angle_beta   90.00000000
_cell_angle_gamma   102.79412001
_symmetry_Int_Tables_number   1
_chemical_formula_structural   Er3Sn3Hg2
_chemical_formula_sum   'Er6 Sn6 Hg4'
_cell_volume   404.60287996
_cell_formula_units_Z   2
loop_
 _symmetry_equiv_pos_site_id
 _symmetry_equiv_pos_as_xyz
  1  'x, y, z'
loop_
 _atom_site_type_symbol
 _atom_site_label
 _atom_site_symmetry_multiplicity
 _atom_site_fract_x
 _atom_site_fract_y
 _atom_site_fract_z
 _atom_site_occupancy
  Er  Er0  1  0.605676  0.605676  0.250000  1
  Er  Er1  1  0.394324  0.394324  0.750000  1
  Er  Er2  1  0.208818  0.791182  0.500000  1
  Er  Er3  1  0.208818  0.791182  0.000000  1
  Er  Er4  1  0.791182  0.208818  0.500000  1
  Er  Er5  1  0.791182  0.208818  0.000000  1
  Sn  Sn6  1  0.002150  0.002150  0.250000  1
  Sn  Sn7  1  0.997850  0.997850  0.750000  1
  Sn  Sn8  1  0.493581  0.055384  0.250000  1
  Sn  Sn9  1  0.944616  0.506419  0.750000  1
  Sn  Sn10  1  0.506419  0.944616  0.750000  1
  Sn  Sn11  1  0.055384  0.493581  0.250000  1
  Hg  Hg12  1  0.302781  0.302781  0.034977  1
  Hg  Hg13  1  0.697219  0.697219  0.965023  1
  Hg  Hg14  1  0.302781  0.302781  0.465023  1
  Hg  Hg15  1  0.697219  0.697219  0.534977  1
