# generated using pymatgen
data_Ho10Co4IrAu
_symmetry_space_group_name_H-M   'P 1'
_cell_length_a   8.65552598
_cell_length_b   8.65552529
_cell_length_c   8.65578786
_cell_angle_alpha   130.78141862
_cell_angle_beta   130.78141654
_cell_angle_gamma   72.15950265
_symmetry_Int_Tables_number   1
_chemical_formula_structural   Ho10Co4IrAu
_chemical_formula_sum   'Ho10 Co4 Ir1 Au1'
_cell_volume   363.53951159
_cell_formula_units_Z   1
loop_
 _symmetry_equiv_pos_site_id
 _symmetry_equiv_pos_as_xyz
  1  'x, y, z'
loop_
 _atom_site_type_symbol
 _atom_site_label
 _atom_site_symmetry_multiplicity
 _atom_site_fract_x
 _atom_site_fract_y
 _atom_site_fract_z
 _atom_site_occupancy
  Ho  Ho0  1  0.674392  0.523984  0.476290  1
  Ho  Ho1  1  0.452285  0.976023  0.150384  1
  Ho  Ho2  1  0.825610  0.301940  0.849633  1
  Ho  Ho3  1  0.523977  0.047715  0.849616  1
  Ho  Ho4  1  0.987044  0.987058  0.999965  1
  Ho  Ho5  1  0.047730  0.198113  0.523681  1
  Ho  Ho6  1  0.301887  0.452270  0.476319  1
  Ho  Ho7  1  0.198060  0.674390  0.150367  1
  Ho  Ho8  1  0.976016  0.825608  0.523710  1
  Ho  Ho9  1  0.512942  0.512956  0.000035  1
  Co  Co10  1  0.113037  0.613038  0.726071  1
  Co  Co11  1  0.886962  0.386963  0.273929  1
  Co  Co12  1  0.613057  0.886943  0.500000  1
  Co  Co13  1  0.387019  0.112981  0.500000  1
  Ir  Ir14  1  0.249998  0.250002  0.000000  1
  Au  Au15  1  0.749982  0.750018  0.000000  1
