# generated using pymatgen
data_Na5Co15(P3Rh)4
_symmetry_space_group_name_H-M   'P 1'
_cell_length_a   12.02856500
_cell_length_b   12.02856574
_cell_length_c   3.66894500
_cell_angle_alpha   90.00000000
_cell_angle_beta   90.00000000
_cell_angle_gamma   119.99999522
_symmetry_Int_Tables_number   1
_chemical_formula_structural   Na5Co15(P3Rh)4
_chemical_formula_sum   'Na5 Co15 P12 Rh4'
_cell_volume   459.72647976
_cell_formula_units_Z   1
loop_
 _symmetry_equiv_pos_site_id
 _symmetry_equiv_pos_as_xyz
  1  'x, y, z'
loop_
 _atom_site_type_symbol
 _atom_site_label
 _atom_site_symmetry_multiplicity
 _atom_site_fract_x
 _atom_site_fract_y
 _atom_site_fract_z
 _atom_site_occupancy
  Na  Na0  1  0.000000  0.183841  0.500000  1
  Na  Na1  1  0.816159  0.816159  0.500000  1
  Na  Na2  1  0.183841  0.000000  0.500000  1
  Na  Na3  1  0.666667  0.333333  0.000000  1
  Na  Na4  1  0.333333  0.666667  0.000000  1
  Co  Co5  1  0.803431  0.181168  0.000000  1
  Co  Co6  1  0.377738  0.196569  0.000000  1
  Co  Co7  1  0.644148  0.519024  0.500000  1
  Co  Co8  1  0.874876  0.355852  0.500000  1
  Co  Co9  1  0.355852  0.874876  0.500000  1
  Co  Co10  1  0.519024  0.644148  0.500000  1
  Co  Co11  1  0.125124  0.480976  0.500000  1
  Co  Co12  1  0.818832  0.622262  0.000000  1
  Co  Co13  1  0.622262  0.818832  0.000000  1
  Co  Co14  1  0.181168  0.803431  0.000000  1
  Co  Co15  1  0.196569  0.377738  0.000000  1
  Co  Co16  1  0.000000  0.713403  0.500000  1
  Co  Co17  1  0.286597  0.286597  0.500000  1
  Co  Co18  1  0.713403  0.000000  0.500000  1
  Co  Co19  1  0.480976  0.125124  0.500000  1
  P  P20  1  0.481754  0.312817  0.500000  1
  P  P21  1  0.812260  0.000000  0.000000  1
  P  P22  1  0.187740  0.187740  0.000000  1
  P  P23  1  0.000000  0.812260  0.000000  1
  P  P24  1  0.361493  0.000000  0.000000  1
  P  P25  1  0.687183  0.168937  0.500000  1
  P  P26  1  0.831063  0.518246  0.500000  1
  P  P27  1  0.518246  0.831063  0.500000  1
  P  P28  1  0.168937  0.687183  0.500000  1
  P  P29  1  0.312817  0.481754  0.500000  1
  P  P30  1  0.000000  0.361493  0.000000  1
  P  P31  1  0.638507  0.638507  0.000000  1
  Rh  Rh32  1  0.000000  0.550476  0.000000  1
  Rh  Rh33  1  0.449524  0.449524  0.000000  1
  Rh  Rh34  1  0.550476  0.000000  0.000000  1
  Rh  Rh35  1  0.000000  0.000000  0.000000  1
