# generated using pymatgen
data_Dy2Tm8Cd3Co
_symmetry_space_group_name_H-M   'P 1'
_cell_length_a   9.48791601
_cell_length_b   9.48724236
_cell_length_c   9.62783600
_cell_angle_alpha   90.00000000
_cell_angle_beta   90.00000000
_cell_angle_gamma   119.99764964
_symmetry_Int_Tables_number   1
_chemical_formula_structural   Dy2Tm8Cd3Co
_chemical_formula_sum   'Dy4 Tm16 Cd6 Co2'
_cell_volume   750.55137940
_cell_formula_units_Z   2
loop_
 _symmetry_equiv_pos_site_id
 _symmetry_equiv_pos_as_xyz
  1  'x, y, z'
loop_
 _atom_site_type_symbol
 _atom_site_label
 _atom_site_symmetry_multiplicity
 _atom_site_fract_x
 _atom_site_fract_y
 _atom_site_fract_z
 _atom_site_occupancy
  Dy  Dy0  1  0.915008  0.457504  0.250000  1
  Dy  Dy1  1  0.457955  0.542049  0.750000  1
  Dy  Dy2  1  0.457955  0.915907  0.750000  1
  Dy  Dy3  1  0.083937  0.541969  0.750000  1
  Tm  Tm4  1  0.999987  0.999993  0.500152  1
  Tm  Tm5  1  0.999987  0.999993  0.999848  1
  Tm  Tm6  1  0.541854  0.457530  0.250000  1
  Tm  Tm7  1  0.541854  0.084323  0.250000  1
  Tm  Tm8  1  0.212519  0.788564  0.436015  1
  Tm  Tm9  1  0.212519  0.423957  0.436015  1
  Tm  Tm10  1  0.576063  0.788033  0.435862  1
  Tm  Tm11  1  0.787603  0.211840  0.563359  1
  Tm  Tm12  1  0.787603  0.575761  0.563359  1
  Tm  Tm13  1  0.424238  0.212118  0.563133  1
  Tm  Tm14  1  0.787603  0.211840  0.936641  1
  Tm  Tm15  1  0.787603  0.575761  0.936641  1
  Tm  Tm16  1  0.424238  0.212118  0.936867  1
  Tm  Tm17  1  0.212519  0.788564  0.063985  1
  Tm  Tm18  1  0.212519  0.423957  0.063985  1
  Tm  Tm19  1  0.576063  0.788033  0.064138  1
  Cd  Cd20  1  0.885049  0.114130  0.250000  1
  Cd  Cd21  1  0.885049  0.770918  0.250000  1
  Cd  Cd22  1  0.229677  0.114838  0.250000  1
  Cd  Cd23  1  0.114215  0.886025  0.750000  1
  Cd  Cd24  1  0.114215  0.228190  0.750000  1
  Cd  Cd25  1  0.771708  0.885854  0.750000  1
  Co  Co26  1  0.333513  0.666757  0.250000  1
  Co  Co27  1  0.666949  0.333474  0.750000  1
