# generated using pymatgen
data_CaNd6SeBr12
_symmetry_space_group_name_H-M   'P 1'
_cell_length_a   9.39335633
_cell_length_b   9.39214028
_cell_length_c   9.39368709
_cell_angle_alpha   106.88250580
_cell_angle_beta   106.93733209
_cell_angle_gamma   106.90477415
_symmetry_Int_Tables_number   1
_chemical_formula_structural   CaNd6SeBr12
_chemical_formula_sum   'Ca1 Nd6 Se1 Br12'
_cell_volume   691.90851332
_cell_formula_units_Z   1
loop_
 _symmetry_equiv_pos_site_id
 _symmetry_equiv_pos_as_xyz
  1  'x, y, z'
loop_
 _atom_site_type_symbol
 _atom_site_label
 _atom_site_symmetry_multiplicity
 _atom_site_fract_x
 _atom_site_fract_y
 _atom_site_fract_z
 _atom_site_occupancy
  Ca  Ca0  1  0.500000  0.500000  0.500000  1
  Nd  Nd1  1  0.321279  0.105097  0.026142  1
  Nd  Nd2  1  0.026205  0.321117  0.105033  1
  Nd  Nd3  1  0.105143  0.026261  0.321285  1
  Nd  Nd4  1  0.894857  0.973739  0.678716  1
  Nd  Nd5  1  0.973795  0.678884  0.894968  1
  Nd  Nd6  1  0.678722  0.894903  0.973859  1
  Se  Se7  1  0.000000  0.000000  0.000000  1
  Br  Br8  1  0.681478  0.227989  0.072016  1
  Br  Br9  1  0.378751  0.460047  0.159315  1
  Br  Br10  1  0.072008  0.681442  0.227963  1
  Br  Br11  1  0.772118  0.927995  0.318589  1
  Br  Br12  1  0.460040  0.159248  0.378732  1
  Br  Br13  1  0.159287  0.378790  0.460008  1
  Br  Br14  1  0.840713  0.621211  0.539992  1
  Br  Br15  1  0.539960  0.840753  0.621268  1
  Br  Br16  1  0.227883  0.072006  0.681411  1
  Br  Br17  1  0.927992  0.318558  0.772038  1
  Br  Br18  1  0.621250  0.539953  0.840685  1
  Br  Br19  1  0.318523  0.772011  0.927984  1
