# generated using pymatgen
data_Sm2BeCoI
_symmetry_space_group_name_H-M   'P 1'
_cell_length_a   3.95829300
_cell_length_b   3.95829386
_cell_length_c   17.36321100
_cell_angle_alpha   90.00000000
_cell_angle_beta   90.00000000
_cell_angle_gamma   120.00000116
_symmetry_Int_Tables_number   1
_chemical_formula_structural   Sm2BeCoI
_chemical_formula_sum   'Sm4 Be2 Co2 I2'
_cell_volume   235.60073486
_cell_formula_units_Z   2
loop_
 _symmetry_equiv_pos_site_id
 _symmetry_equiv_pos_as_xyz
  1  'x, y, z'
loop_
 _atom_site_type_symbol
 _atom_site_label
 _atom_site_symmetry_multiplicity
 _atom_site_fract_x
 _atom_site_fract_y
 _atom_site_fract_z
 _atom_site_occupancy
  Sm  Sm0  1  0.000000  0.000000  0.602857  1
  Sm  Sm1  1  0.000000  0.000000  0.396169  1
  Sm  Sm2  1  0.000000  0.000000  0.102857  1
  Sm  Sm3  1  0.000000  0.000000  0.896169  1
  Be  Be4  1  0.666667  0.333333  0.500100  1
  Be  Be5  1  0.333333  0.666667  0.000100  1
  Co  Co6  1  0.666667  0.333333  0.000331  1
  Co  Co7  1  0.333333  0.666667  0.500331  1
  I  I8  1  0.666667  0.333333  0.250544  1
  I  I9  1  0.333333  0.666667  0.750544  1
