# generated using pymatgen
data_Y3Mg2ZnSi2Au
_symmetry_space_group_name_H-M   'P 1'
_cell_length_a   7.08608600
_cell_length_b   7.11852861
_cell_length_c   4.33788400
_cell_angle_alpha   90.00000000
_cell_angle_beta   90.00000000
_cell_angle_gamma   119.84936296
_symmetry_Int_Tables_number   1
_chemical_formula_structural   Y3Mg2ZnSi2Au
_chemical_formula_sum   'Y3 Mg2 Zn1 Si2 Au1'
_cell_volume   189.78524461
_cell_formula_units_Z   1
loop_
 _symmetry_equiv_pos_site_id
 _symmetry_equiv_pos_as_xyz
  1  'x, y, z'
loop_
 _atom_site_type_symbol
 _atom_site_label
 _atom_site_symmetry_multiplicity
 _atom_site_fract_x
 _atom_site_fract_y
 _atom_site_fract_z
 _atom_site_occupancy
  Y  Y0  1  0.571775  0.000000  0.000000  1
  Y  Y1  1  0.001756  0.581988  0.000000  1
  Y  Y2  1  0.419768  0.418012  0.000000  1
  Mg  Mg3  1  0.003193  0.242010  0.500000  1
  Mg  Mg4  1  0.761183  0.757990  0.500000  1
  Zn  Zn5  1  0.251803  0.000000  0.500000  1
  Si  Si6  1  0.331097  0.672067  0.500000  1
  Si  Si7  1  0.659031  0.327933  0.500000  1
  Au  Au8  1  0.000394  0.000000  0.000000  1
