# generated using pymatgen
data_Sc4Ge2B4Ru3Rh7
_symmetry_space_group_name_H-M   'P 1'
_cell_length_a   9.39155664
_cell_length_b   3.03818200
_cell_length_c   9.37672264
_cell_angle_alpha   90.00000000
_cell_angle_beta   90.04242783
_cell_angle_gamma   90.00000000
_symmetry_Int_Tables_number   1
_chemical_formula_structural   Sc4Ge2B4Ru3Rh7
_chemical_formula_sum   'Sc4 Ge2 B4 Ru3 Rh7'
_cell_volume   267.54837626
_cell_formula_units_Z   1
loop_
 _symmetry_equiv_pos_site_id
 _symmetry_equiv_pos_as_xyz
  1  'x, y, z'
loop_
 _atom_site_type_symbol
 _atom_site_label
 _atom_site_symmetry_multiplicity
 _atom_site_fract_x
 _atom_site_fract_y
 _atom_site_fract_z
 _atom_site_occupancy
  Sc  Sc0  1  0.328039  0.000000  0.173327  1
  Sc  Sc1  1  0.827247  0.000000  0.322858  1
  Sc  Sc2  1  0.172877  0.000000  0.672844  1
  Sc  Sc3  1  0.675736  0.000000  0.831728  1
  Ge  Ge4  1  0.995865  0.000000  0.000904  1
  Ge  Ge5  1  0.499946  0.000000  0.499877  1
  B  B6  1  0.626340  0.000000  0.120183  1
  B  B7  1  0.121879  0.000000  0.377070  1
  B  B8  1  0.877780  0.000000  0.622500  1
  B  B9  1  0.377194  0.000000  0.878795  1
  Ru  Ru10  1  0.497902  0.500001  0.000387  1
  Ru  Ru11  1  0.786554  0.500001  0.072391  1
  Ru  Ru12  1  0.000003  0.500001  0.499589  1
  Rh  Rh13  1  0.075154  0.500001  0.214166  1
  Rh  Rh14  1  0.570606  0.500001  0.287201  1
  Rh  Rh15  1  0.286110  0.500001  0.428010  1
  Rh  Rh16  1  0.713564  0.500001  0.573100  1
  Rh  Rh17  1  0.426591  0.500001  0.713882  1
  Rh  Rh18  1  0.928532  0.500001  0.784354  1
  Rh  Rh19  1  0.212080  0.500001  0.926831  1
