# generated using pymatgen
data_KRb2Fe3F12
_symmetry_space_group_name_H-M   'P 1'
_cell_length_a   7.60366600
_cell_length_b   7.58814254
_cell_length_c   10.56681772
_cell_angle_alpha   89.78866830
_cell_angle_beta   90.00000000
_cell_angle_gamma   90.00000000
_symmetry_Int_Tables_number   1
_chemical_formula_structural   KRb2Fe3F12
_chemical_formula_sum   'K2 Rb4 Fe6 F24'
_cell_volume   609.67694612
_cell_formula_units_Z   2
loop_
 _symmetry_equiv_pos_site_id
 _symmetry_equiv_pos_as_xyz
  1  'x, y, z'
loop_
 _atom_site_type_symbol
 _atom_site_label
 _atom_site_symmetry_multiplicity
 _atom_site_fract_x
 _atom_site_fract_y
 _atom_site_fract_z
 _atom_site_occupancy
  K  K0  1  0.750000  0.224967  0.755785  1
  K  K1  1  0.250000  0.775033  0.244215  1
  Rb  Rb2  1  0.750000  0.986974  0.107824  1
  Rb  Rb3  1  0.250000  0.013026  0.892176  1
  Rb  Rb4  1  0.250000  0.476855  0.646807  1
  Rb  Rb5  1  0.750000  0.523145  0.353193  1
  Fe  Fe6  1  0.500000  0.000000  0.500000  1
  Fe  Fe7  1  0.000000  0.000000  0.500000  1
  Fe  Fe8  1  0.000000  0.500000  0.000000  1
  Fe  Fe9  1  0.500000  0.500000  0.000000  1
  Fe  Fe10  1  0.750000  0.702009  0.723775  1
  Fe  Fe11  1  0.250000  0.297991  0.276225  1
  F  F12  1  0.750000  0.083108  0.506890  1
  F  F13  1  0.250000  0.916892  0.493110  1
  F  F14  1  0.750000  0.509532  0.609399  1
  F  F15  1  0.250000  0.490468  0.390601  1
  F  F16  1  0.250000  0.488788  0.939562  1
  F  F17  1  0.750000  0.511212  0.060438  1
  F  F18  1  0.250000  0.107659  0.162303  1
  F  F19  1  0.750000  0.892341  0.837697  1
  F  F20  1  0.947333  0.849331  0.361278  1
  F  F21  1  0.447333  0.150669  0.638722  1
  F  F22  1  0.052667  0.150669  0.638722  1
  F  F23  1  0.552667  0.849331  0.361278  1
  F  F24  1  0.946752  0.806947  0.623785  1
  F  F25  1  0.446752  0.193053  0.376215  1
  F  F26  1  0.053248  0.193053  0.376215  1
  F  F27  1  0.553248  0.806947  0.623785  1
  F  F28  1  0.029527  0.741068  0.044629  1
  F  F29  1  0.529527  0.258932  0.955371  1
  F  F30  1  0.970473  0.258932  0.955371  1
  F  F31  1  0.470473  0.741068  0.044629  1
  F  F32  1  0.434567  0.431195  0.176418  1
  F  F33  1  0.934567  0.568805  0.823582  1
  F  F34  1  0.565433  0.568805  0.823582  1
  F  F35  1  0.065433  0.431195  0.176418  1
