# generated using pymatgen
data_CuBi3(Pd2O7)2
_symmetry_space_group_name_H-M   'P 1'
_cell_length_a   7.36314372
_cell_length_b   7.36314261
_cell_length_c   7.17742600
_cell_angle_alpha   59.14030565
_cell_angle_beta   59.14031082
_cell_angle_gamma   60.00000332
_symmetry_Int_Tables_number   1
_chemical_formula_structural   CuBi3(Pd2O7)2
_chemical_formula_sum   'Cu1 Bi3 Pd4 O14'
_cell_volume   271.52695552
_cell_formula_units_Z   1
loop_
 _symmetry_equiv_pos_site_id
 _symmetry_equiv_pos_as_xyz
  1  'x, y, z'
loop_
 _atom_site_type_symbol
 _atom_site_label
 _atom_site_symmetry_multiplicity
 _atom_site_fract_x
 _atom_site_fract_y
 _atom_site_fract_z
 _atom_site_occupancy
  Cu  Cu0  1  0.125000  0.125000  0.625000  1
  Bi  Bi1  1  0.625000  0.125000  0.125000  1
  Bi  Bi2  1  0.125000  0.625000  0.125000  1
  Bi  Bi3  1  0.125000  0.125000  0.125000  1
  Pd  Pd4  1  0.125000  0.625000  0.625000  1
  Pd  Pd5  1  0.625000  0.125000  0.625000  1
  Pd  Pd6  1  0.625000  0.625000  0.125000  1
  Pd  Pd7  1  0.625000  0.625000  0.625000  1
  O  O8  1  0.712096  0.712096  0.285676  1
  O  O9  1  0.292971  0.292971  0.702865  1
  O  O10  1  0.711194  0.292971  0.702865  1
  O  O11  1  0.290132  0.712096  0.285676  1
  O  O12  1  0.292971  0.711194  0.702865  1
  O  O13  1  0.712096  0.290132  0.285676  1
  O  O14  1  0.537904  0.537904  0.964324  1
  O  O15  1  0.957029  0.957029  0.547135  1
  O  O16  1  0.538806  0.957029  0.547135  1
  O  O17  1  0.959868  0.537904  0.964324  1
  O  O18  1  0.957029  0.538806  0.547135  1
  O  O19  1  0.537904  0.959868  0.964324  1
  O  O20  1  0.235257  0.235257  0.294232  1
  O  O21  1  0.014743  0.014743  0.955768  1
