# generated using pymatgen
data_Ce3MnSi4Ir3
_symmetry_space_group_name_H-M   'P 1'
_cell_length_a   3.92312893
_cell_length_b   4.16897836
_cell_length_c   12.78355938
_cell_angle_alpha   80.61541877
_cell_angle_beta   81.17342547
_cell_angle_gamma   89.99998917
_symmetry_Int_Tables_number   1
_chemical_formula_structural   Ce3MnSi4Ir3
_chemical_formula_sum   'Ce3 Mn1 Si4 Ir3'
_cell_volume   203.77233762
_cell_formula_units_Z   1
loop_
 _symmetry_equiv_pos_site_id
 _symmetry_equiv_pos_as_xyz
  1  'x, y, z'
loop_
 _atom_site_type_symbol
 _atom_site_label
 _atom_site_symmetry_multiplicity
 _atom_site_fract_x
 _atom_site_fract_y
 _atom_site_fract_z
 _atom_site_occupancy
  Ce  Ce0  1  0.999831  0.999831  0.000339  1
  Ce  Ce1  1  0.855375  0.355375  0.289250  1
  Ce  Ce2  1  0.145106  0.645106  0.709787  1
  Mn  Mn3  1  0.748925  0.748925  0.502149  1
  Si  Si4  1  0.695133  0.195133  0.609734  1
  Si  Si5  1  0.304774  0.804774  0.390451  1
  Si  Si6  1  0.452170  0.452170  0.095660  1
  Si  Si7  1  0.547990  0.547990  0.904018  1
  Ir  Ir8  1  0.596114  0.096114  0.807771  1
  Ir  Ir9  1  0.404043  0.904043  0.191914  1
  Ir  Ir10  1  0.250538  0.250538  0.498925  1
