# generated using pymatgen
data_Pr4Ho6GaPb7
_symmetry_space_group_name_H-M   'P 1'
_cell_length_a   8.08678200
_cell_length_b   8.49734100
_cell_length_c   15.79679200
_cell_angle_alpha   90.00000000
_cell_angle_beta   90.00000000
_cell_angle_gamma   90.00000000
_symmetry_Int_Tables_number   1
_chemical_formula_structural   Pr4Ho6GaPb7
_chemical_formula_sum   'Pr8 Ho12 Ga2 Pb14'
_cell_volume   1085.49463771
_cell_formula_units_Z   2
loop_
 _symmetry_equiv_pos_site_id
 _symmetry_equiv_pos_as_xyz
  1  'x, y, z'
loop_
 _atom_site_type_symbol
 _atom_site_label
 _atom_site_symmetry_multiplicity
 _atom_site_fract_x
 _atom_site_fract_y
 _atom_site_fract_z
 _atom_site_occupancy
  Pr  Pr0  1  0.489050  0.680028  0.596835  1
  Pr  Pr1  1  0.989050  0.819972  0.903165  1
  Pr  Pr2  1  0.514254  0.320651  0.094780  1
  Pr  Pr3  1  0.014254  0.179349  0.405220  1
  Pr  Pr4  1  0.514254  0.320651  0.405220  1
  Pr  Pr5  1  0.014254  0.179349  0.094780  1
  Pr  Pr6  1  0.489050  0.680028  0.903165  1
  Pr  Pr7  1  0.989050  0.819972  0.596835  1
  Ho  Ho8  1  0.649677  0.168517  0.629808  1
  Ho  Ho9  1  0.149677  0.331483  0.870192  1
  Ho  Ho10  1  0.349693  0.838857  0.122755  1
  Ho  Ho11  1  0.849693  0.661143  0.377245  1
  Ho  Ho12  1  0.349693  0.838857  0.377245  1
  Ho  Ho13  1  0.849693  0.661143  0.122755  1
  Ho  Ho14  1  0.649677  0.168517  0.870192  1
  Ho  Ho15  1  0.149677  0.331483  0.629808  1
  Ho  Ho16  1  0.798676  0.490254  0.750000  1
  Ho  Ho17  1  0.298676  0.009746  0.750000  1
  Ho  Ho18  1  0.187500  0.501768  0.250000  1
  Ho  Ho19  1  0.687500  0.998232  0.250000  1
  Ga  Ga20  1  0.447277  0.366064  0.750000  1
  Ga  Ga21  1  0.947277  0.133936  0.750000  1
  Pb  Pb22  1  0.693488  0.960112  0.459983  1
  Pb  Pb23  1  0.193488  0.539888  0.040017  1
  Pb  Pb24  1  0.306386  0.040470  0.956594  1
  Pb  Pb25  1  0.806386  0.459530  0.543406  1
  Pb  Pb26  1  0.306386  0.040470  0.543406  1
  Pb  Pb27  1  0.806386  0.459530  0.956594  1
  Pb  Pb28  1  0.693488  0.960112  0.040017  1
  Pb  Pb29  1  0.193488  0.539888  0.459983  1
  Pb  Pb30  1  0.546761  0.628243  0.250000  1
  Pb  Pb31  1  0.046761  0.871757  0.250000  1
  Pb  Pb32  1  0.690372  0.862836  0.750000  1
  Pb  Pb33  1  0.190372  0.637164  0.750000  1
  Pb  Pb34  1  0.324316  0.149914  0.250000  1
  Pb  Pb35  1  0.824316  0.350086  0.250000  1
