# generated using pymatgen
data_ErLu(Th2Fe)6
_symmetry_space_group_name_H-M   'P 1'
_cell_length_a   9.68524200
_cell_length_b   9.68524233
_cell_length_c   6.18754800
_cell_angle_alpha   90.00000000
_cell_angle_beta   90.00000000
_cell_angle_gamma   119.99999886
_symmetry_Int_Tables_number   1
_chemical_formula_structural   ErLu(Th2Fe)6
_chemical_formula_sum   'Er1 Lu1 Th12 Fe6'
_cell_volume   502.65520732
_cell_formula_units_Z   1
loop_
 _symmetry_equiv_pos_site_id
 _symmetry_equiv_pos_as_xyz
  1  'x, y, z'
loop_
 _atom_site_type_symbol
 _atom_site_label
 _atom_site_symmetry_multiplicity
 _atom_site_fract_x
 _atom_site_fract_y
 _atom_site_fract_z
 _atom_site_occupancy
  Er  Er0  1  0.666667  0.333333  0.535838  1
  Lu  Lu1  1  0.333333  0.666667  0.035452  1
  Th  Th2  1  0.126374  0.873626  0.249262  1
  Th  Th3  1  0.251950  0.125975  0.749545  1
  Th  Th4  1  0.874025  0.748050  0.749545  1
  Th  Th5  1  0.126374  0.252749  0.249262  1
  Th  Th6  1  0.747251  0.873626  0.249262  1
  Th  Th7  1  0.874025  0.125975  0.749545  1
  Th  Th8  1  0.540988  0.459012  0.067656  1
  Th  Th9  1  0.082614  0.541307  0.568220  1
  Th  Th10  1  0.458693  0.917386  0.568220  1
  Th  Th11  1  0.540988  0.081976  0.067656  1
  Th  Th12  1  0.918024  0.459012  0.067656  1
  Th  Th13  1  0.458693  0.541307  0.568220  1
  Fe  Fe14  1  0.819276  0.180724  0.280697  1
  Fe  Fe15  1  0.638232  0.819116  0.780857  1
  Fe  Fe16  1  0.180884  0.361768  0.780857  1
  Fe  Fe17  1  0.819276  0.638550  0.280697  1
  Fe  Fe18  1  0.361450  0.180724  0.280697  1
  Fe  Fe19  1  0.180884  0.819116  0.780857  1
