# generated using pymatgen
data_K7Hf3ZrTlTe12
_symmetry_space_group_name_H-M   'P 1'
_cell_length_a   14.33206076
_cell_length_b   6.97715939
_cell_length_c   9.37136124
_cell_angle_alpha   73.92921506
_cell_angle_beta   90.35944690
_cell_angle_gamma   90.52066111
_symmetry_Int_Tables_number   1
_chemical_formula_structural   K7Hf3ZrTlTe12
_chemical_formula_sum   'K7 Hf3 Zr1 Tl1 Te12'
_cell_volume   900.44281868
_cell_formula_units_Z   1
loop_
 _symmetry_equiv_pos_site_id
 _symmetry_equiv_pos_as_xyz
  1  'x, y, z'
loop_
 _atom_site_type_symbol
 _atom_site_label
 _atom_site_symmetry_multiplicity
 _atom_site_fract_x
 _atom_site_fract_y
 _atom_site_fract_z
 _atom_site_occupancy
  K  K0  1  0.467804  0.839653  0.347535  1
  K  K1  1  0.032086  0.332892  0.353155  1
  K  K2  1  0.537839  0.164839  0.652014  1
  K  K3  1  0.865177  0.057021  0.896696  1
  K  K4  1  0.362205  0.438666  0.098382  1
  K  K5  1  0.136700  0.937954  0.101289  1
  K  K6  1  0.640403  0.559609  0.899242  1
  Hf  Hf7  1  0.748709  0.691336  0.295539  1
  Hf  Hf8  1  0.248457  0.806328  0.708767  1
  Hf  Hf9  1  0.250708  0.304686  0.706341  1
  Zr  Zr10  1  0.750060  0.194985  0.295092  1
  Tl  Tl11  1  0.972121  0.679512  0.633204  1
  Te  Te12  1  0.914819  0.924038  0.275952  1
  Te  Te13  1  0.412248  0.577049  0.720820  1
  Te  Te14  1  0.085538  0.071036  0.727577  1
  Te  Te15  1  0.584035  0.426891  0.272332  1
  Te  Te16  1  0.809587  0.334999  0.537886  1
  Te  Te17  1  0.311346  0.166434  0.467914  1
  Te  Te18  1  0.179550  0.665961  0.472615  1
  Te  Te19  1  0.688773  0.829086  0.534490  1
  Te  Te20  1  0.850321  0.502129  0.087402  1
  Te  Te21  1  0.348399  0.000826  0.918908  1
  Te  Te22  1  0.150329  0.498476  0.916413  1
  Te  Te23  1  0.652789  0.995592  0.080438  1
