# generated using pymatgen
data_Tb15Ho(In3Os)2
_symmetry_space_group_name_H-M   'P 1'
_cell_length_a   10.45469800
_cell_length_b   10.45469795
_cell_length_c   7.10091700
_cell_angle_alpha   90.00000000
_cell_angle_beta   90.00000000
_cell_angle_gamma   120.00000016
_symmetry_Int_Tables_number   1
_chemical_formula_structural   Tb15Ho(In3Os)2
_chemical_formula_sum   'Tb15 Ho1 In6 Os2'
_cell_volume   672.15285782
_cell_formula_units_Z   1
loop_
 _symmetry_equiv_pos_site_id
 _symmetry_equiv_pos_as_xyz
  1  'x, y, z'
loop_
 _atom_site_type_symbol
 _atom_site_label
 _atom_site_symmetry_multiplicity
 _atom_site_fract_x
 _atom_site_fract_y
 _atom_site_fract_z
 _atom_site_occupancy
  Tb  Tb0  1  0.533396  0.066792  0.507461  1
  Tb  Tb1  1  0.933208  0.466604  0.507461  1
  Tb  Tb2  1  0.533396  0.466604  0.507461  1
  Tb  Tb3  1  0.466615  0.933231  0.007480  1
  Tb  Tb4  1  0.066769  0.533385  0.007480  1
  Tb  Tb5  1  0.466615  0.533385  0.007480  1
  Tb  Tb6  1  0.176962  0.353924  0.713253  1
  Tb  Tb7  1  0.646076  0.823038  0.713253  1
  Tb  Tb8  1  0.176962  0.823038  0.713253  1
  Tb  Tb9  1  0.823034  0.646069  0.212892  1
  Tb  Tb10  1  0.353931  0.176966  0.212892  1
  Tb  Tb11  1  0.823034  0.176966  0.212892  1
  Tb  Tb12  1  0.666667  0.333333  0.883547  1
  Tb  Tb13  1  0.333333  0.666667  0.383418  1
  Tb  Tb14  1  0.000000  0.000000  0.493538  1
  Ho  Ho15  1  0.000000  0.000000  0.993218  1
  In  In16  1  0.837367  0.674735  0.752809  1
  In  In17  1  0.325265  0.162633  0.752809  1
  In  In18  1  0.837367  0.162633  0.752809  1
  In  In19  1  0.162618  0.325237  0.252289  1
  In  In20  1  0.674763  0.837382  0.252289  1
  In  In21  1  0.162618  0.837382  0.252289  1
  Os  Os22  1  0.666667  0.333333  0.283016  1
  Os  Os23  1  0.333333  0.666667  0.782762  1
