# generated using pymatgen
data_ZrMnSeCl12
_symmetry_space_group_name_H-M   'P 1'
_cell_length_a   8.80695180
_cell_length_b   8.80695107
_cell_length_c   6.62246400
_cell_angle_alpha   71.84351821
_cell_angle_beta   71.84351978
_cell_angle_gamma   80.61949154
_symmetry_Int_Tables_number   1
_chemical_formula_structural   ZrMnSeCl12
_chemical_formula_sum   'Zr1 Mn1 Se1 Cl12'
_cell_volume   462.54040192
_cell_formula_units_Z   1
loop_
 _symmetry_equiv_pos_site_id
 _symmetry_equiv_pos_as_xyz
  1  'x, y, z'
loop_
 _atom_site_type_symbol
 _atom_site_label
 _atom_site_symmetry_multiplicity
 _atom_site_fract_x
 _atom_site_fract_y
 _atom_site_fract_z
 _atom_site_occupancy
  Zr  Zr0  1  0.272841  0.272841  0.733341  1
  Mn  Mn1  1  0.998511  0.998511  0.003442  1
  Se  Se2  1  0.722779  0.722779  0.270185  1
  Cl  Cl3  1  0.967473  0.246376  0.757564  1
  Cl  Cl4  1  0.246376  0.967473  0.757564  1
  Cl  Cl5  1  0.041136  0.760224  0.239967  1
  Cl  Cl6  1  0.760224  0.041136  0.239967  1
  Cl  Cl7  1  0.203951  0.525790  0.799749  1
  Cl  Cl8  1  0.525790  0.203951  0.799749  1
  Cl  Cl9  1  0.777925  0.484413  0.212772  1
  Cl  Cl10  1  0.484413  0.777925  0.212772  1
  Cl  Cl11  1  0.125421  0.125421  0.156129  1
  Cl  Cl12  1  0.881893  0.881893  0.837325  1
  Cl  Cl13  1  0.648732  0.648732  0.635617  1
  Cl  Cl14  1  0.342537  0.342537  0.343859  1
