# generated using pymatgen
data_Ni8Bi8P
_symmetry_space_group_name_H-M   'P 1'
_cell_length_a   4.26096000
_cell_length_b   10.12277300
_cell_length_c   17.77373300
_cell_angle_alpha   90.00000000
_cell_angle_beta   90.00000000
_cell_angle_gamma   90.00000000
_symmetry_Int_Tables_number   1
_chemical_formula_structural   Ni8Bi8P
_chemical_formula_sum   'Ni16 Bi16 P2'
_cell_volume   766.62964155
_cell_formula_units_Z   2
loop_
 _symmetry_equiv_pos_site_id
 _symmetry_equiv_pos_as_xyz
  1  'x, y, z'
loop_
 _atom_site_type_symbol
 _atom_site_label
 _atom_site_symmetry_multiplicity
 _atom_site_fract_x
 _atom_site_fract_y
 _atom_site_fract_z
 _atom_site_occupancy
  Ni  Ni0  1  0.498176  0.814520  0.968110  1
  Ni  Ni1  1  0.498176  0.185480  0.031890  1
  Ni  Ni2  1  0.501824  0.685480  0.468110  1
  Ni  Ni3  1  0.501824  0.314520  0.531890  1
  Ni  Ni4  1  0.002910  0.910093  0.904585  1
  Ni  Ni5  1  0.002910  0.089907  0.095415  1
  Ni  Ni6  1  0.997090  0.589907  0.404585  1
  Ni  Ni7  1  0.997090  0.410093  0.595415  1
  Ni  Ni8  1  0.998283  0.826509  0.051965  1
  Ni  Ni9  1  0.998283  0.173491  0.948035  1
  Ni  Ni10  1  0.001717  0.673491  0.551965  1
  Ni  Ni11  1  0.001717  0.326509  0.448035  1
  Ni  Ni12  1  0.497181  0.941991  0.105483  1
  Ni  Ni13  1  0.497181  0.058009  0.894517  1
  Ni  Ni14  1  0.502819  0.558009  0.605483  1
  Ni  Ni15  1  0.502819  0.441991  0.394517  1
  Bi  Bi16  1  0.502582  0.830350  0.815394  1
  Bi  Bi17  1  0.502582  0.169650  0.184606  1
  Bi  Bi18  1  0.497418  0.669650  0.315394  1
  Bi  Bi19  1  0.497418  0.330350  0.684606  1
  Bi  Bi20  1  0.499694  0.674544  0.097015  1
  Bi  Bi21  1  0.499694  0.325456  0.902985  1
  Bi  Bi22  1  0.500306  0.825456  0.597015  1
  Bi  Bi23  1  0.500306  0.174544  0.402985  1
  Bi  Bi24  1  0.996779  0.648780  0.937144  1
  Bi  Bi25  1  0.996779  0.351220  0.062856  1
  Bi  Bi26  1  0.003221  0.851220  0.437144  1
  Bi  Bi27  1  0.003221  0.148780  0.562856  1
  Bi  Bi28  1  0.997941  0.897552  0.200119  1
  Bi  Bi29  1  0.997941  0.102448  0.799881  1
  Bi  Bi30  1  0.002059  0.602448  0.700119  1
  Bi  Bi31  1  0.002059  0.397552  0.299881  1
  P  P32  1  0.746703  0.000000  0.000000  1
  P  P33  1  0.253297  0.500000  0.500000  1
