# generated using pymatgen
data_Tb3(PrSb2)2
_symmetry_space_group_name_H-M   'P 1'
_cell_length_a   8.17361100
_cell_length_b   8.35276300
_cell_length_c   15.75908700
_cell_angle_alpha   90.00000000
_cell_angle_beta   90.00000000
_cell_angle_gamma   90.00000000
_symmetry_Int_Tables_number   1
_chemical_formula_structural   Tb3(PrSb2)2
_chemical_formula_sum   'Tb12 Pr8 Sb16'
_cell_volume   1075.90809952
_cell_formula_units_Z   4
loop_
 _symmetry_equiv_pos_site_id
 _symmetry_equiv_pos_as_xyz
  1  'x, y, z'
loop_
 _atom_site_type_symbol
 _atom_site_label
 _atom_site_symmetry_multiplicity
 _atom_site_fract_x
 _atom_site_fract_y
 _atom_site_fract_z
 _atom_site_occupancy
  Tb  Tb0  1  0.351477  0.849501  0.877661  1
  Tb  Tb1  1  0.851477  0.650499  0.622339  1
  Tb  Tb2  1  0.648523  0.150499  0.377661  1
  Tb  Tb3  1  0.148523  0.349501  0.122339  1
  Tb  Tb4  1  0.648523  0.150499  0.122339  1
  Tb  Tb5  1  0.148523  0.349501  0.377661  1
  Tb  Tb6  1  0.351477  0.849501  0.622339  1
  Tb  Tb7  1  0.851477  0.650499  0.877661  1
  Tb  Tb8  1  0.191914  0.497512  0.750000  1
  Tb  Tb9  1  0.691914  0.002488  0.750000  1
  Tb  Tb10  1  0.808086  0.502488  0.250000  1
  Tb  Tb11  1  0.308086  0.997512  0.250000  1
  Pr  Pr12  1  0.519943  0.319466  0.905883  1
  Pr  Pr13  1  0.019943  0.180534  0.594117  1
  Pr  Pr14  1  0.480057  0.680534  0.405883  1
  Pr  Pr15  1  0.980057  0.819466  0.094117  1
  Pr  Pr16  1  0.480057  0.680534  0.094117  1
  Pr  Pr17  1  0.980057  0.819466  0.405883  1
  Pr  Pr18  1  0.519943  0.319466  0.594117  1
  Pr  Pr19  1  0.019943  0.180534  0.905883  1
  Sb  Sb20  1  0.294669  0.040775  0.046513  1
  Sb  Sb21  1  0.794669  0.459225  0.453487  1
  Sb  Sb22  1  0.705331  0.959225  0.546513  1
  Sb  Sb23  1  0.205331  0.540775  0.953487  1
  Sb  Sb24  1  0.705331  0.959225  0.953487  1
  Sb  Sb25  1  0.205331  0.540775  0.546513  1
  Sb  Sb26  1  0.294669  0.040775  0.453487  1
  Sb  Sb27  1  0.794669  0.459225  0.046513  1
  Sb  Sb28  1  0.550482  0.637989  0.750000  1
  Sb  Sb29  1  0.050482  0.862011  0.750000  1
  Sb  Sb30  1  0.449518  0.362011  0.250000  1
  Sb  Sb31  1  0.949518  0.137989  0.250000  1
  Sb  Sb32  1  0.338417  0.150642  0.750000  1
  Sb  Sb33  1  0.838417  0.349358  0.750000  1
  Sb  Sb34  1  0.661583  0.849358  0.250000  1
  Sb  Sb35  1  0.161583  0.650642  0.250000  1
