# generated using pymatgen
data_Ce4Ho6TcRu3
_symmetry_space_group_name_H-M   'P 1'
_cell_length_a   6.36726736
_cell_length_b   7.06366060
_cell_length_c   8.80559100
_cell_angle_alpha   95.49743421
_cell_angle_beta   111.29636176
_cell_angle_gamma   89.88714042
_symmetry_Int_Tables_number   1
_chemical_formula_structural   Ce4Ho6TcRu3
_chemical_formula_sum   'Ce4 Ho6 Tc1 Ru3'
_cell_volume   367.07080509
_cell_formula_units_Z   1
loop_
 _symmetry_equiv_pos_site_id
 _symmetry_equiv_pos_as_xyz
  1  'x, y, z'
loop_
 _atom_site_type_symbol
 _atom_site_label
 _atom_site_symmetry_multiplicity
 _atom_site_fract_x
 _atom_site_fract_y
 _atom_site_fract_z
 _atom_site_occupancy
  Ce  Ce0  1  0.979099  0.902062  0.190427  1
  Ce  Ce1  1  0.793099  0.596210  0.811078  1
  Ce  Ce2  1  0.017914  0.095547  0.810591  1
  Ce  Ce3  1  0.205440  0.405331  0.191312  1
  Ho  Ho4  1  0.641565  0.815698  0.431946  1
  Ho  Ho5  1  0.208377  0.683218  0.566850  1
  Ho  Ho6  1  0.358848  0.184497  0.568148  1
  Ho  Ho7  1  0.789357  0.314768  0.433755  1
  Ho  Ho8  1  0.419567  0.750276  0.999015  1
  Ho  Ho9  1  0.578845  0.250435  0.000634  1
  Tc  Tc10  1  0.858235  0.595527  0.218221  1
  Ru  Ru11  1  0.628360  0.907196  0.779027  1
  Ru  Ru12  1  0.150458  0.405316  0.778664  1
  Ru  Ru13  1  0.370836  0.093920  0.220331  1
