# generated using pymatgen
data_Li6ZrNb5Ir12
_symmetry_space_group_name_H-M   'P 1'
_cell_length_a   4.39248200
_cell_length_b   6.18437300
_cell_length_c   13.15644100
_cell_angle_alpha   90.00000000
_cell_angle_beta   90.00035682
_cell_angle_gamma   90.00000000
_symmetry_Int_Tables_number   1
_chemical_formula_structural   Li6ZrNb5Ir12
_chemical_formula_sum   'Li6 Zr1 Nb5 Ir12'
_cell_volume   357.39139228
_cell_formula_units_Z   1
loop_
 _symmetry_equiv_pos_site_id
 _symmetry_equiv_pos_as_xyz
  1  'x, y, z'
loop_
 _atom_site_type_symbol
 _atom_site_label
 _atom_site_symmetry_multiplicity
 _atom_site_fract_x
 _atom_site_fract_y
 _atom_site_fract_z
 _atom_site_occupancy
  Li  Li0  1  0.000002  0.500000  0.000220  1
  Li  Li1  1  0.499901  0.000000  0.167105  1
  Li  Li2  1  0.999902  0.500000  0.333363  1
  Li  Li3  1  0.499998  0.000000  0.499542  1
  Li  Li4  1  0.000111  0.500000  0.666424  1
  Li  Li5  1  0.500098  0.000000  0.833360  1
  Zr  Zr6  1  0.500098  0.500000  0.833339  1
  Nb  Nb7  1  0.000002  0.000000  0.000332  1
  Nb  Nb8  1  0.499901  0.500000  0.166877  1
  Nb  Nb9  1  0.999907  0.000000  0.333330  1
  Nb  Nb10  1  0.499999  0.500000  0.499784  1
  Nb  Nb11  1  0.000094  0.000000  0.666336  1
  Ir  Ir12  1  0.499993  0.245784  0.003961  1
  Ir  Ir13  1  0.499993  0.754214  0.003961  1
  Ir  Ir14  1  0.999904  0.251178  0.167493  1
  Ir  Ir15  1  0.999904  0.748822  0.167493  1
  Ir  Ir16  1  0.499905  0.248843  0.333333  1
  Ir  Ir17  1  0.499905  0.751156  0.333333  1
  Ir  Ir18  1  0.000001  0.251161  0.499172  1
  Ir  Ir19  1  0.000001  0.748840  0.499172  1
  Ir  Ir20  1  0.500096  0.245779  0.662699  1
  Ir  Ir21  1  0.500096  0.754220  0.662699  1
  Ir  Ir22  1  0.000099  0.242276  0.833336  1
  Ir  Ir23  1  0.000099  0.757724  0.833336  1
