# generated using pymatgen
data_Tb4DyZn2Bi
_symmetry_space_group_name_H-M   'P 1'
_cell_length_a   8.64251437
_cell_length_b   8.64251394
_cell_length_c   8.64251345
_cell_angle_alpha   122.96210390
_cell_angle_beta   122.96209478
_cell_angle_gamma   84.94175793
_symmetry_Int_Tables_number   1
_chemical_formula_structural   Tb4DyZn2Bi
_chemical_formula_sum   'Tb8 Dy2 Zn4 Bi2'
_cell_volume   434.17818892
_cell_formula_units_Z   2
loop_
 _symmetry_equiv_pos_site_id
 _symmetry_equiv_pos_as_xyz
  1  'x, y, z'
loop_
 _atom_site_type_symbol
 _atom_site_label
 _atom_site_symmetry_multiplicity
 _atom_site_fract_x
 _atom_site_fract_y
 _atom_site_fract_z
 _atom_site_occupancy
  Tb  Tb0  1  0.510464  0.010464  0.804394  1
  Tb  Tb1  1  0.206072  0.706072  0.195606  1
  Tb  Tb2  1  0.010464  0.206072  0.500000  1
  Tb  Tb3  1  0.706072  0.510464  0.500000  1
  Tb  Tb4  1  0.489536  0.989536  0.195606  1
  Tb  Tb5  1  0.793928  0.293928  0.804394  1
  Tb  Tb6  1  0.989536  0.793928  0.500000  1
  Tb  Tb7  1  0.293928  0.489536  0.500000  1
  Dy  Dy8  1  0.500000  0.500000  0.000000  1
  Dy  Dy9  1  0.000000  0.000000  0.000000  1
  Zn  Zn10  1  0.141185  0.641185  0.782368  1
  Zn  Zn11  1  0.858815  0.358815  0.217632  1
  Zn  Zn12  1  0.641185  0.858815  0.500000  1
  Zn  Zn13  1  0.358815  0.141185  0.500000  1
  Bi  Bi14  1  0.250000  0.250000  0.000000  1
  Bi  Bi15  1  0.750000  0.750000  0.000000  1
