# generated using pymatgen
data_Dy3ErV4F28
_symmetry_space_group_name_H-M   'P 1'
_cell_length_a   5.51038703
_cell_length_b   8.80635112
_cell_length_c   11.78465973
_cell_angle_alpha   63.44951793
_cell_angle_beta   89.98896802
_cell_angle_gamma   89.99949495
_symmetry_Int_Tables_number   1
_chemical_formula_structural   Dy3ErV4F28
_chemical_formula_sum   'Dy3 Er1 V4 F28'
_cell_volume   511.55852901
_cell_formula_units_Z   1
loop_
 _symmetry_equiv_pos_site_id
 _symmetry_equiv_pos_as_xyz
  1  'x, y, z'
loop_
 _atom_site_type_symbol
 _atom_site_label
 _atom_site_symmetry_multiplicity
 _atom_site_fract_x
 _atom_site_fract_y
 _atom_site_fract_z
 _atom_site_occupancy
  Dy  Dy0  1  0.758097  0.807016  0.770935  1
  Dy  Dy1  1  0.258198  0.192453  0.729267  1
  Dy  Dy2  1  0.241994  0.190836  0.229609  1
  Er  Er3  1  0.741571  0.806856  0.270991  1
  V  V4  1  0.753800  0.272812  0.954806  1
  V  V5  1  0.254045  0.726826  0.544689  1
  V  V6  1  0.245533  0.726717  0.046568  1
  V  V7  1  0.745708  0.274105  0.454045  1
  F  F8  1  0.450211  0.705805  0.925131  1
  F  F9  1  0.950149  0.294783  0.575569  1
  F  F10  1  0.549455  0.294214  0.075909  1
  F  F11  1  0.048160  0.706068  0.423560  1
  F  F12  1  0.461983  0.284436  0.544344  1
  F  F13  1  0.962378  0.716111  0.955850  1
  F  F14  1  0.538325  0.716754  0.453841  1
  F  F15  1  0.038127  0.283735  0.044919  1
  F  F16  1  0.767747  0.505958  0.862397  1
  F  F17  1  0.268178  0.494094  0.637179  1
  F  F18  1  0.232376  0.493820  0.138462  1
  F  F19  1  0.732751  0.507551  0.361856  1
  F  F20  1  0.756250  0.042689  0.045326  1
  F  F21  1  0.256332  0.957331  0.454253  1
  F  F22  1  0.243663  0.956882  0.955397  1
  F  F23  1  0.743607  0.043956  0.544804  1
  F  F24  1  0.979714  0.731133  0.640702  1
  F  F25  1  0.479178  0.269148  0.858899  1
  F  F26  1  0.020492  0.268843  0.358469  1
  F  F27  1  0.520590  0.731742  0.142566  1
  F  F28  1  0.040689  0.748753  0.170157  1
  F  F29  1  0.542867  0.252646  0.330135  1
  F  F30  1  0.956818  0.252315  0.830311  1
  F  F31  1  0.457100  0.747849  0.668882  1
  F  F32  1  0.425893  0.971954  0.232003  1
  F  F33  1  0.921882  0.024173  0.268066  1
  F  F34  1  0.578129  0.026892  0.768520  1
  F  F35  1  0.078008  0.972746  0.731583  1
