# generated using pymatgen
data_Er3TmZn4IrRh3
_symmetry_space_group_name_H-M   'P 1'
_cell_length_a   4.01680900
_cell_length_b   6.94375866
_cell_length_c   8.07265216
_cell_angle_alpha   90.03862915
_cell_angle_beta   90.00000000
_cell_angle_gamma   90.00000000
_symmetry_Int_Tables_number   1
_chemical_formula_structural   Er3TmZn4IrRh3
_chemical_formula_sum   'Er3 Tm1 Zn4 Ir1 Rh3'
_cell_volume   225.16036331
_cell_formula_units_Z   1
loop_
 _symmetry_equiv_pos_site_id
 _symmetry_equiv_pos_as_xyz
  1  'x, y, z'
loop_
 _atom_site_type_symbol
 _atom_site_label
 _atom_site_symmetry_multiplicity
 _atom_site_fract_x
 _atom_site_fract_y
 _atom_site_fract_z
 _atom_site_occupancy
  Er  Er0  1  0.250000  0.540199  0.184120  1
  Er  Er1  1  0.750000  0.461905  0.816839  1
  Er  Er2  1  0.750000  0.960972  0.682284  1
  Tm  Tm3  1  0.250000  0.035951  0.316954  1
  Zn  Zn4  1  0.250000  0.135905  0.935884  1
  Zn  Zn5  1  0.750000  0.864910  0.064650  1
  Zn  Zn6  1  0.250000  0.635962  0.565268  1
  Zn  Zn7  1  0.750000  0.363110  0.435414  1
  Ir  Ir8  1  0.750000  0.745135  0.376284  1
  Rh  Rh9  1  0.250000  0.254330  0.623267  1
  Rh  Rh10  1  0.750000  0.246514  0.121901  1
  Rh  Rh11  1  0.250000  0.755108  0.877136  1
