# generated using pymatgen
data_Tb2Ho3Ru2
_symmetry_space_group_name_H-M   'P 1'
_cell_length_a   6.35531441
_cell_length_b   7.27211978
_cell_length_c   8.47237246
_cell_angle_alpha   96.67597694
_cell_angle_beta   112.02808873
_cell_angle_gamma   89.99999930
_symmetry_Int_Tables_number   1
_chemical_formula_structural   Tb2Ho3Ru2
_chemical_formula_sum   'Tb4 Ho6 Ru4'
_cell_volume   360.11446667
_cell_formula_units_Z   2
loop_
 _symmetry_equiv_pos_site_id
 _symmetry_equiv_pos_as_xyz
  1  'x, y, z'
loop_
 _atom_site_type_symbol
 _atom_site_label
 _atom_site_symmetry_multiplicity
 _atom_site_fract_x
 _atom_site_fract_y
 _atom_site_fract_z
 _atom_site_occupancy
  Tb  Tb0  1  0.977772  0.915895  0.187316  1
  Tb  Tb1  1  0.790455  0.584105  0.812684  1
  Tb  Tb2  1  0.022228  0.084105  0.812684  1
  Tb  Tb3  1  0.209545  0.415895  0.187316  1
  Ho  Ho4  1  0.640188  0.814846  0.434212  1
  Ho  Ho5  1  0.205976  0.685154  0.565788  1
  Ho  Ho6  1  0.359812  0.185154  0.565788  1
  Ho  Ho7  1  0.794024  0.314846  0.434212  1
  Ho  Ho8  1  0.420282  0.750000  0.000000  1
  Ho  Ho9  1  0.579718  0.250000  0.000000  1
  Ru  Ru10  1  0.822750  0.575638  0.221010  1
  Ru  Ru11  1  0.601740  0.924362  0.778990  1
  Ru  Ru12  1  0.177250  0.424362  0.778990  1
  Ru  Ru13  1  0.398260  0.075638  0.221010  1
