# generated using pymatgen
data_Zr4TiGaSb2
_symmetry_space_group_name_H-M   'P 1'
_cell_length_a   5.43561990
_cell_length_b   8.27543508
_cell_length_c   8.27543417
_cell_angle_alpha   83.80809585
_cell_angle_beta   70.82717358
_cell_angle_gamma   70.82716949
_symmetry_Int_Tables_number   1
_chemical_formula_structural   Zr4TiGaSb2
_chemical_formula_sum   'Zr8 Ti2 Ga2 Sb4'
_cell_volume   332.09647186
_cell_formula_units_Z   2
loop_
 _symmetry_equiv_pos_site_id
 _symmetry_equiv_pos_as_xyz
  1  'x, y, z'
loop_
 _atom_site_type_symbol
 _atom_site_label
 _atom_site_symmetry_multiplicity
 _atom_site_fract_x
 _atom_site_fract_y
 _atom_site_fract_z
 _atom_site_occupancy
  Zr  Zr0  1  0.714692  0.864380  0.706237  1
  Zr  Zr1  1  0.285308  0.135620  0.293763  1
  Zr  Zr2  1  0.785308  0.293763  0.135620  1
  Zr  Zr3  1  0.214692  0.706237  0.864380  1
  Zr  Zr4  1  0.579071  0.706237  0.135620  1
  Zr  Zr5  1  0.420929  0.293763  0.864380  1
  Zr  Zr6  1  0.079071  0.135620  0.706237  1
  Zr  Zr7  1  0.920929  0.864380  0.293763  1
  Ti  Ti8  1  0.750000  0.500000  0.500000  1
  Ti  Ti9  1  0.250000  0.500000  0.500000  1
  Ga  Ga10  1  0.250000  0.000000  0.000000  1
  Ga  Ga11  1  0.750000  0.000000  0.000000  1
  Sb  Sb12  1  0.156830  0.500000  0.186340  1
  Sb  Sb13  1  0.843170  0.500000  0.813660  1
  Sb  Sb14  1  0.343170  0.813660  0.500000  1
  Sb  Sb15  1  0.656830  0.186340  0.500000  1
