# generated using pymatgen
data_Cs3FeSe2S
_symmetry_space_group_name_H-M   'P 1'
_cell_length_a   10.95557265
_cell_length_b   10.95557306
_cell_length_c   13.85463300
_cell_angle_alpha   90.00000000
_cell_angle_beta   90.00000000
_cell_angle_gamma   139.24774821
_symmetry_Int_Tables_number   1
_chemical_formula_structural   Cs3FeSe2S
_chemical_formula_sum   'Cs12 Fe4 Se8 S4'
_cell_volume   1085.52139002
_cell_formula_units_Z   4
loop_
 _symmetry_equiv_pos_site_id
 _symmetry_equiv_pos_as_xyz
  1  'x, y, z'
loop_
 _atom_site_type_symbol
 _atom_site_label
 _atom_site_symmetry_multiplicity
 _atom_site_fract_x
 _atom_site_fract_y
 _atom_site_fract_z
 _atom_site_occupancy
  Cs  Cs0  1  0.882996  0.882996  0.674116  1
  Cs  Cs1  1  0.117004  0.117004  0.325884  1
  Cs  Cs2  1  0.617004  0.617004  0.174116  1
  Cs  Cs3  1  0.382996  0.382996  0.825884  1
  Cs  Cs4  1  0.152835  0.505494  0.126018  1
  Cs  Cs5  1  0.494506  0.847165  0.873982  1
  Cs  Cs6  1  0.994506  0.347165  0.626018  1
  Cs  Cs7  1  0.652835  0.005494  0.373982  1
  Cs  Cs8  1  0.847165  0.494506  0.873982  1
  Cs  Cs9  1  0.505494  0.152835  0.126018  1
  Cs  Cs10  1  0.005494  0.652835  0.373982  1
  Cs  Cs11  1  0.347165  0.994506  0.626018  1
  Fe  Fe12  1  0.924545  0.075455  0.000000  1
  Fe  Fe13  1  0.424545  0.575455  0.500000  1
  Fe  Fe14  1  0.075455  0.924545  0.000000  1
  Fe  Fe15  1  0.575455  0.424545  0.500000  1
  Se  Se16  1  0.711333  0.998091  0.116597  1
  Se  Se17  1  0.001909  0.288667  0.883403  1
  Se  Se18  1  0.501909  0.788667  0.616597  1
  Se  Se19  1  0.211333  0.498091  0.383403  1
  Se  Se20  1  0.288667  0.001909  0.883403  1
  Se  Se21  1  0.998091  0.711333  0.116597  1
  Se  Se22  1  0.498091  0.211333  0.383403  1
  Se  Se23  1  0.788667  0.501909  0.616597  1
  S  S24  1  0.306145  0.306145  0.569214  1
  S  S25  1  0.693855  0.693855  0.430786  1
  S  S26  1  0.193855  0.193855  0.069214  1
  S  S27  1  0.806145  0.806145  0.930786  1
