# generated using pymatgen
data_CsTcF6
_symmetry_space_group_name_H-M   'P 1'
_cell_length_a   5.45888178
_cell_length_b   5.45888184
_cell_length_c   5.45888113
_cell_angle_alpha   97.04091684
_cell_angle_beta   97.04091896
_cell_angle_gamma   97.04092467
_symmetry_Int_Tables_number   1
_chemical_formula_structural   CsTcF6
_chemical_formula_sum   'Cs1 Tc1 F6'
_cell_volume   158.65585995
_cell_formula_units_Z   1
loop_
 _symmetry_equiv_pos_site_id
 _symmetry_equiv_pos_as_xyz
  1  'x, y, z'
loop_
 _atom_site_type_symbol
 _atom_site_label
 _atom_site_symmetry_multiplicity
 _atom_site_fract_x
 _atom_site_fract_y
 _atom_site_fract_z
 _atom_site_occupancy
  Cs  Cs0  1  0.500000  0.500000  0.500000  1
  Tc  Tc1  1  0.000000  0.000000  0.000000  1
  F  F2  1  0.245033  0.245033  0.917386  1
  F  F3  1  0.917386  0.245033  0.245033  1
  F  F4  1  0.082614  0.754967  0.754967  1
  F  F5  1  0.754967  0.754967  0.082614  1
  F  F6  1  0.754967  0.082614  0.754967  1
  F  F7  1  0.245033  0.917386  0.245033  1
