# generated using pymatgen
data_Ho2(PPd)3
_symmetry_space_group_name_H-M   'P 1'
_cell_length_a   3.94273100
_cell_length_b   10.85666400
_cell_length_c   13.29505700
_cell_angle_alpha   90.00000000
_cell_angle_beta   90.00000000
_cell_angle_gamma   90.00000000
_symmetry_Int_Tables_number   1
_chemical_formula_structural   Ho2(PPd)3
_chemical_formula_sum   'Ho8 P12 Pd12'
_cell_volume   569.09366129
_cell_formula_units_Z   4
loop_
 _symmetry_equiv_pos_site_id
 _symmetry_equiv_pos_as_xyz
  1  'x, y, z'
loop_
 _atom_site_type_symbol
 _atom_site_label
 _atom_site_symmetry_multiplicity
 _atom_site_fract_x
 _atom_site_fract_y
 _atom_site_fract_z
 _atom_site_occupancy
  Ho  Ho0  1  0.250000  0.928309  0.785820  1
  Ho  Ho1  1  0.750000  0.428309  0.714180  1
  Ho  Ho2  1  0.250000  0.571691  0.285820  1
  Ho  Ho3  1  0.750000  0.071691  0.214180  1
  Ho  Ho4  1  0.250000  0.841667  0.505069  1
  Ho  Ho5  1  0.750000  0.341667  0.994931  1
  Ho  Ho6  1  0.250000  0.658333  0.005069  1
  Ho  Ho7  1  0.750000  0.158333  0.494931  1
  P  P8  1  0.250000  0.237348  0.642236  1
  P  P9  1  0.750000  0.737348  0.857764  1
  P  P10  1  0.250000  0.262652  0.142236  1
  P  P11  1  0.750000  0.762652  0.357764  1
  P  P12  1  0.250000  0.602710  0.603633  1
  P  P13  1  0.750000  0.102710  0.896367  1
  P  P14  1  0.250000  0.897290  0.103633  1
  P  P15  1  0.750000  0.397290  0.396367  1
  P  P16  1  0.250000  0.053550  0.376342  1
  P  P17  1  0.750000  0.553550  0.123658  1
  P  P18  1  0.250000  0.446450  0.876342  1
  P  P19  1  0.750000  0.946450  0.623658  1
  Pd  Pd20  1  0.250000  0.406561  0.522205  1
  Pd  Pd21  1  0.750000  0.906561  0.977795  1
  Pd  Pd22  1  0.250000  0.093439  0.022205  1
  Pd  Pd23  1  0.750000  0.593439  0.477795  1
  Pd  Pd24  1  0.250000  0.268916  0.336120  1
  Pd  Pd25  1  0.750000  0.768916  0.163880  1
  Pd  Pd26  1  0.250000  0.231084  0.836120  1
  Pd  Pd27  1  0.750000  0.731084  0.663880  1
  Pd  Pd28  1  0.250000  0.865578  0.283350  1
  Pd  Pd29  1  0.750000  0.365578  0.216650  1
  Pd  Pd30  1  0.250000  0.634422  0.783350  1
  Pd  Pd31  1  0.750000  0.134422  0.716650  1
