# generated using pymatgen
data_Yb12Lu8Si15Sb
_symmetry_space_group_name_H-M   'P 1'
_cell_length_a   7.31091148
_cell_length_b   7.80835832
_cell_length_c   14.98027093
_cell_angle_alpha   89.78778659
_cell_angle_beta   90.33420798
_cell_angle_gamma   90.01372521
_symmetry_Int_Tables_number   1
_chemical_formula_structural   Yb12Lu8Si15Sb
_chemical_formula_sum   'Yb12 Lu8 Si15 Sb1'
_cell_volume   855.14655534
_cell_formula_units_Z   1
loop_
 _symmetry_equiv_pos_site_id
 _symmetry_equiv_pos_as_xyz
  1  'x, y, z'
loop_
 _atom_site_type_symbol
 _atom_site_label
 _atom_site_symmetry_multiplicity
 _atom_site_fract_x
 _atom_site_fract_y
 _atom_site_fract_z
 _atom_site_occupancy
  Yb  Yb0  1  0.981951  0.822827  0.401892  1
  Yb  Yb1  1  0.477122  0.681973  0.094686  1
  Yb  Yb2  1  0.509258  0.310223  0.597101  1
  Yb  Yb3  1  0.023093  0.182120  0.906460  1
  Yb  Yb4  1  0.024800  0.175985  0.595546  1
  Yb  Yb5  1  0.522635  0.318349  0.905875  1
  Yb  Yb6  1  0.476712  0.686196  0.403163  1
  Yb  Yb7  1  0.976979  0.817631  0.094386  1
  Yb  Yb8  1  0.347095  0.022439  0.753343  1
  Yb  Yb9  1  0.849491  0.479334  0.754469  1
  Yb  Yb10  1  0.150968  0.520894  0.249003  1
  Yb  Yb11  1  0.650380  0.976999  0.248524  1
  Lu  Lu12  1  0.315698  0.176450  0.120591  1
  Lu  Lu13  1  0.819069  0.314875  0.373183  1
  Lu  Lu14  1  0.184522  0.676426  0.879295  1
  Lu  Lu15  1  0.675027  0.837723  0.626170  1
  Lu  Lu16  1  0.318485  0.174555  0.376874  1
  Lu  Lu17  1  0.815364  0.323678  0.120883  1
  Lu  Lu18  1  0.192734  0.679342  0.622061  1
  Lu  Lu19  1  0.685232  0.823978  0.879257  1
  Si  Si20  1  0.354562  0.966264  0.962050  1
  Si  Si21  1  0.648178  0.034199  0.462354  1
  Si  Si22  1  0.145415  0.466434  0.038144  1
  Si  Si23  1  0.162331  0.464551  0.459532  1
  Si  Si24  1  0.646132  0.033362  0.038078  1
  Si  Si25  1  0.353441  0.965610  0.536778  1
  Si  Si26  1  0.854466  0.534009  0.962348  1
  Si  Si27  1  0.976003  0.877013  0.749116  1
  Si  Si28  1  0.477304  0.622347  0.751145  1
  Si  Si29  1  0.523368  0.377727  0.249284  1
  Si  Si30  1  0.025006  0.120272  0.248538  1
  Si  Si31  1  0.246639  0.398520  0.750167  1
  Si  Si32  1  0.748851  0.105158  0.751605  1
  Si  Si33  1  0.253203  0.896775  0.249037  1
  Si  Si34  1  0.752833  0.601598  0.250506  1
  Sb  Sb35  1  0.835651  0.534162  0.538553  1
