# generated using pymatgen
data_Nd2Ti3VO10
_symmetry_space_group_name_H-M   'P 1'
_cell_length_a   5.87447600
_cell_length_b   7.71497500
_cell_length_c   8.83151500
_cell_angle_alpha   90.00000000
_cell_angle_beta   90.00000000
_cell_angle_gamma   90.00000000
_symmetry_Int_Tables_number   1
_chemical_formula_structural   Nd2Ti3VO10
_chemical_formula_sum   'Nd4 Ti6 V2 O20'
_cell_volume   400.25693725
_cell_formula_units_Z   2
loop_
 _symmetry_equiv_pos_site_id
 _symmetry_equiv_pos_as_xyz
  1  'x, y, z'
loop_
 _atom_site_type_symbol
 _atom_site_label
 _atom_site_symmetry_multiplicity
 _atom_site_fract_x
 _atom_site_fract_y
 _atom_site_fract_z
 _atom_site_occupancy
  Nd  Nd0  1  0.997988  0.359667  0.671423  1
  Nd  Nd1  1  0.997988  0.640333  0.328577  1
  Nd  Nd2  1  0.002012  0.859667  0.828577  1
  Nd  Nd3  1  0.002012  0.140333  0.171423  1
  Ti  Ti4  1  0.505231  0.117157  0.857228  1
  Ti  Ti5  1  0.505231  0.882843  0.142772  1
  Ti  Ti6  1  0.494769  0.617157  0.642772  1
  Ti  Ti7  1  0.494769  0.382843  0.357228  1
  Ti  Ti8  1  0.760858  0.500000  0.000000  1
  Ti  Ti9  1  0.239142  0.000000  0.500000  1
  V  V10  1  0.255251  0.500000  0.000000  1
  V  V11  1  0.744749  0.000000  0.500000  1
  O  O12  1  0.255762  0.899493  0.291408  1
  O  O13  1  0.255762  0.100507  0.708592  1
  O  O14  1  0.744238  0.399493  0.208592  1
  O  O15  1  0.744238  0.600507  0.791408  1
  O  O16  1  0.748897  0.105174  0.719195  1
  O  O17  1  0.748897  0.894826  0.280805  1
  O  O18  1  0.251103  0.605174  0.780805  1
  O  O19  1  0.251103  0.394826  0.219195  1
  O  O20  1  0.507645  0.335464  0.923008  1
  O  O21  1  0.507645  0.664536  0.076992  1
  O  O22  1  0.492355  0.835464  0.576992  1
  O  O23  1  0.492355  0.164536  0.423008  1
  O  O24  1  0.280425  0.000000  0.000000  1
  O  O25  1  0.719575  0.500000  0.500000  1
  O  O26  1  0.715865  0.000000  0.000000  1
  O  O27  1  0.284135  0.500000  0.500000  1
  O  O28  1  0.014953  0.166575  0.445524  1
  O  O29  1  0.014953  0.833425  0.554476  1
  O  O30  1  0.985047  0.666575  0.054476  1
  O  O31  1  0.985047  0.333425  0.945524  1
