# generated using pymatgen
data_Er6Zn18PIr5
_symmetry_space_group_name_H-M   'P 1'
_cell_length_a   8.95619155
_cell_length_b   8.96620858
_cell_length_c   8.95632042
_cell_angle_alpha   59.96073781
_cell_angle_beta   60.03589210
_cell_angle_gamma   59.96321731
_symmetry_Int_Tables_number   1
_chemical_formula_structural   Er6Zn18PIr5
_chemical_formula_sum   'Er6 Zn18 P1 Ir5'
_cell_volume   508.41052497
_cell_formula_units_Z   1
loop_
 _symmetry_equiv_pos_site_id
 _symmetry_equiv_pos_as_xyz
  1  'x, y, z'
loop_
 _atom_site_type_symbol
 _atom_site_label
 _atom_site_symmetry_multiplicity
 _atom_site_fract_x
 _atom_site_fract_y
 _atom_site_fract_z
 _atom_site_occupancy
  Er  Er0  1  0.713191  0.278341  0.286820  1
  Er  Er1  1  0.715123  0.284906  0.715091  1
  Er  Er2  1  0.713182  0.721656  0.286828  1
  Er  Er3  1  0.286809  0.721659  0.713180  1
  Er  Er4  1  0.284877  0.715094  0.284909  1
  Er  Er5  1  0.286818  0.278344  0.713172  1
  Zn  Zn6  1  0.623947  0.125672  0.124716  1
  Zn  Zn7  1  0.125722  0.626817  0.125709  1
  Zn  Zn8  1  0.124727  0.125671  0.623938  1
  Zn  Zn9  1  0.125724  0.121747  0.125710  1
  Zn  Zn10  1  0.376053  0.874328  0.875284  1
  Zn  Zn11  1  0.874278  0.373183  0.874291  1
  Zn  Zn12  1  0.875273  0.874329  0.376062  1
  Zn  Zn13  1  0.874276  0.878253  0.874290  1
  Zn  Zn14  1  0.000000  0.500000  0.000000  1
  Zn  Zn15  1  0.000000  0.000000  0.000000  1
  Zn  Zn16  1  0.999130  0.333429  0.334015  1
  Zn  Zn17  1  0.330954  0.004721  0.330947  1
  Zn  Zn18  1  0.334026  0.333426  0.999118  1
  Zn  Zn19  1  0.330956  0.333380  0.330947  1
  Zn  Zn20  1  0.000870  0.666571  0.665985  1
  Zn  Zn21  1  0.669046  0.995279  0.669053  1
  Zn  Zn22  1  0.665974  0.666574  0.000882  1
  Zn  Zn23  1  0.669044  0.666620  0.669053  1
  P  P24  1  0.500000  0.500000  0.500000  1
  Ir  Ir25  1  0.500000  0.000000  0.000000  1
  Ir  Ir26  1  0.500000  0.000000  0.500000  1
  Ir  Ir27  1  0.500000  0.500000  0.000000  1
  Ir  Ir28  1  0.000000  0.500000  0.500000  1
  Ir  Ir29  1  0.000000  0.000000  0.500000  1
