# generated using pymatgen
data_Ca20Cd2Ag9Hg
_symmetry_space_group_name_H-M   'P 1'
_cell_length_a   8.12800600
_cell_length_b   8.12800600
_cell_length_c   14.84562800
_cell_angle_alpha   90.00000000
_cell_angle_beta   90.00000000
_cell_angle_gamma   90.00000000
_symmetry_Int_Tables_number   1
_chemical_formula_structural   Ca20Cd2Ag9Hg
_chemical_formula_sum   'Ca20 Cd2 Ag9 Hg1'
_cell_volume   980.76871690
_cell_formula_units_Z   1
loop_
 _symmetry_equiv_pos_site_id
 _symmetry_equiv_pos_as_xyz
  1  'x, y, z'
loop_
 _atom_site_type_symbol
 _atom_site_label
 _atom_site_symmetry_multiplicity
 _atom_site_fract_x
 _atom_site_fract_y
 _atom_site_fract_z
 _atom_site_occupancy
  Ca  Ca0  1  0.671614  0.163381  0.105785  1
  Ca  Ca1  1  0.166884  0.669879  0.607948  1
  Ca  Ca2  1  0.328386  0.836619  0.105785  1
  Ca  Ca3  1  0.833116  0.330121  0.607948  1
  Ca  Ca4  1  0.836619  0.671614  0.105785  1
  Ca  Ca5  1  0.330121  0.166884  0.607948  1
  Ca  Ca6  1  0.163381  0.328386  0.105785  1
  Ca  Ca7  1  0.669879  0.833116  0.607948  1
  Ca  Ca8  1  0.836619  0.328386  0.894215  1
  Ca  Ca9  1  0.330121  0.833116  0.392052  1
  Ca  Ca10  1  0.163381  0.671614  0.894215  1
  Ca  Ca11  1  0.669879  0.166884  0.392052  1
  Ca  Ca12  1  0.671614  0.836619  0.894215  1
  Ca  Ca13  1  0.166884  0.330121  0.392052  1
  Ca  Ca14  1  0.328386  0.163381  0.894215  1
  Ca  Ca15  1  0.833116  0.669879  0.392052  1
  Ca  Ca16  1  0.500000  0.500000  0.753772  1
  Ca  Ca17  1  0.000000  0.000000  0.250432  1
  Ca  Ca18  1  0.000000  0.000000  0.749568  1
  Ca  Ca19  1  0.500000  0.500000  0.246228  1
  Cd  Cd20  1  0.500000  0.500000  0.500000  1
  Cd  Cd21  1  0.500000  0.500000  0.000000  1
  Ag  Ag22  1  0.624560  0.125787  0.751247  1
  Ag  Ag23  1  0.125787  0.624560  0.248753  1
  Ag  Ag24  1  0.874213  0.375440  0.248753  1
  Ag  Ag25  1  0.375440  0.874213  0.751247  1
  Ag  Ag26  1  0.874213  0.624560  0.751247  1
  Ag  Ag27  1  0.375440  0.125787  0.248753  1
  Ag  Ag28  1  0.125787  0.375440  0.751247  1
  Ag  Ag29  1  0.624560  0.874213  0.248753  1
  Ag  Ag30  1  0.000000  0.000000  0.000000  1
  Hg  Hg31  1  0.000000  0.000000  0.500000  1
