# generated using pymatgen
data_Y3In3GaPtRh
_symmetry_space_group_name_H-M   'P 1'
_cell_length_a   7.66789000
_cell_length_b   7.66788954
_cell_length_c   3.92914200
_cell_angle_alpha   90.00000000
_cell_angle_beta   90.00000000
_cell_angle_gamma   120.00000199
_symmetry_Int_Tables_number   1
_chemical_formula_structural   Y3In3GaPtRh
_chemical_formula_sum   'Y3 In3 Ga1 Pt1 Rh1'
_cell_volume   200.06912351
_cell_formula_units_Z   1
loop_
 _symmetry_equiv_pos_site_id
 _symmetry_equiv_pos_as_xyz
  1  'x, y, z'
loop_
 _atom_site_type_symbol
 _atom_site_label
 _atom_site_symmetry_multiplicity
 _atom_site_fract_x
 _atom_site_fract_y
 _atom_site_fract_z
 _atom_site_occupancy
  Y  Y0  1  0.988755  0.590329  0.500000  1
  Y  Y1  1  0.409671  0.398427  0.500000  1
  Y  Y2  1  0.601573  0.011245  0.500000  1
  In  In3  1  0.998838  0.254207  0.000000  1
  In  In4  1  0.255370  0.001162  0.000000  1
  In  In5  1  0.745793  0.744630  0.000000  1
  Ga  Ga6  1  0.333333  0.666667  0.000000  1
  Pt  Pt7  1  0.666667  0.333333  0.000000  1
  Rh  Rh8  1  0.000000  0.000000  0.500000  1
