# generated using pymatgen
data_Er12Co4HgPd
_symmetry_space_group_name_H-M   'P 1'
_cell_length_a   8.22015140
_cell_length_b   8.22041869
_cell_length_c   8.22015248
_cell_angle_alpha   110.32983209
_cell_angle_beta   110.75775547
_cell_angle_gamma   107.34576849
_symmetry_Int_Tables_number   1
_chemical_formula_structural   Er12Co4HgPd
_chemical_formula_sum   'Er12 Co4 Hg1 Pd1'
_cell_volume   427.15556397
_cell_formula_units_Z   1
loop_
 _symmetry_equiv_pos_site_id
 _symmetry_equiv_pos_as_xyz
  1  'x, y, z'
loop_
 _atom_site_type_symbol
 _atom_site_label
 _atom_site_symmetry_multiplicity
 _atom_site_fract_x
 _atom_site_fract_y
 _atom_site_fract_z
 _atom_site_occupancy
  Er  Er0  1  0.292033  0.186240  0.478265  1
  Er  Er1  1  0.707967  0.813760  0.521735  1
  Er  Er2  1  0.292026  0.813760  0.105794  1
  Er  Er3  1  0.707974  0.186240  0.894206  1
  Er  Er4  1  0.618957  0.315946  0.303011  1
  Er  Er5  1  0.381043  0.684054  0.696989  1
  Er  Er6  1  0.012936  0.315946  0.696988  1
  Er  Er7  1  0.987064  0.684054  0.303012  1
  Er  Er8  1  0.218438  0.417359  0.198920  1
  Er  Er9  1  0.781562  0.582641  0.801080  1
  Er  Er10  1  0.218428  0.019502  0.801075  1
  Er  Er11  1  0.781572  0.980498  0.198925  1
  Co  Co12  1  0.000002  0.378147  0.378145  1
  Co  Co13  1  0.999998  0.621853  0.621855  1
  Co  Co14  1  0.386225  0.886221  0.499996  1
  Co  Co15  1  0.613775  0.113779  0.500004  1
  Hg  Hg16  1  0.500000  0.500000  0.000000  1
  Pd  Pd17  1  0.000000  0.000000  0.000000  1
