# generated using pymatgen
data_NaTbDy5Co6Sn23
_symmetry_space_group_name_H-M   'P 1'
_cell_length_a   9.73516901
_cell_length_b   9.73516916
_cell_length_c   9.97977601
_cell_angle_alpha   90.00401310
_cell_angle_beta   89.99598941
_cell_angle_gamma   119.99799660
_symmetry_Int_Tables_number   1
_chemical_formula_structural   NaTbDy5Co6Sn23
_chemical_formula_sum   'Na1 Tb1 Dy5 Co6 Sn23'
_cell_volume   819.11935676
_cell_formula_units_Z   1
loop_
 _symmetry_equiv_pos_site_id
 _symmetry_equiv_pos_as_xyz
  1  'x, y, z'
loop_
 _atom_site_type_symbol
 _atom_site_label
 _atom_site_symmetry_multiplicity
 _atom_site_fract_x
 _atom_site_fract_y
 _atom_site_fract_z
 _atom_site_occupancy
  Na  Na0  1  0.000000  0.000000  0.999999  1
  Tb  Tb1  1  0.479749  0.520251  0.305323  1
  Dy  Dy2  1  0.520159  0.479841  0.694704  1
  Dy  Dy3  1  0.479840  0.959678  0.305326  1
  Dy  Dy4  1  0.520167  0.040322  0.694682  1
  Dy  Dy5  1  0.040322  0.520160  0.305326  1
  Dy  Dy6  1  0.959678  0.479833  0.694682  1
  Co  Co7  1  0.829547  0.170453  0.200957  1
  Co  Co8  1  0.170448  0.829552  0.799031  1
  Co  Co9  1  0.829670  0.659148  0.200938  1
  Co  Co10  1  0.170445  0.340894  0.799034  1
  Co  Co11  1  0.340852  0.170330  0.200938  1
  Co  Co12  1  0.659106  0.829555  0.799034  1
  Sn  Sn13  1  0.343860  0.999985  0.999994  1
  Sn  Sn14  1  0.656132  0.000004  0.999998  1
  Sn  Sn15  1  0.999996  0.343868  0.999998  1
  Sn  Sn16  1  0.000015  0.656140  0.999994  1
  Sn  Sn17  1  0.656156  0.656156  0.999951  1
  Sn  Sn18  1  0.343844  0.343844  0.999951  1
  Sn  Sn19  1  0.333329  0.666671  0.814933  1
  Sn  Sn20  1  0.666708  0.333292  0.185054  1
  Sn  Sn21  1  0.000006  0.999994  0.500005  1
  Sn  Sn22  1  0.781457  0.218543  0.453724  1
  Sn  Sn23  1  0.218539  0.781461  0.546283  1
  Sn  Sn24  1  0.781596  0.562910  0.453792  1
  Sn  Sn25  1  0.218474  0.437071  0.546359  1
  Sn  Sn26  1  0.437090  0.218404  0.453792  1
  Sn  Sn27  1  0.562929  0.781526  0.546359  1
  Sn  Sn28  1  0.333245  0.666755  0.116304  1
  Sn  Sn29  1  0.666670  0.333330  0.883560  1
  Sn  Sn30  1  0.116076  0.883924  0.271943  1
  Sn  Sn31  1  0.883921  0.116079  0.728055  1
  Sn  Sn32  1  0.115953  0.232063  0.271909  1
  Sn  Sn33  1  0.883937  0.767852  0.728081  1
  Sn  Sn34  1  0.767937  0.884047  0.271909  1
  Sn  Sn35  1  0.232148  0.116063  0.728081  1
