# generated using pymatgen
data_CoBiI18
_symmetry_space_group_name_H-M   'P 1'
_cell_length_a   10.13429676
_cell_length_b   10.16071933
_cell_length_c   10.13992994
_cell_angle_alpha   87.61677983
_cell_angle_beta   87.70658661
_cell_angle_gamma   87.50405229
_symmetry_Int_Tables_number   1
_chemical_formula_structural   CoBiI18
_chemical_formula_sum   'Co1 Bi1 I18'
_cell_volume   1041.46974199
_cell_formula_units_Z   1
loop_
 _symmetry_equiv_pos_site_id
 _symmetry_equiv_pos_as_xyz
  1  'x, y, z'
loop_
 _atom_site_type_symbol
 _atom_site_label
 _atom_site_symmetry_multiplicity
 _atom_site_fract_x
 _atom_site_fract_y
 _atom_site_fract_z
 _atom_site_occupancy
  Co  Co0  1  0.500000  0.500000  0.500000  1
  Bi  Bi1  1  0.000000  0.000000  0.000000  1
  I  I2  1  0.757553  0.475446  0.496077  1
  I  I3  1  0.494887  0.756887  0.475163  1
  I  I4  1  0.475387  0.495833  0.757324  1
  I  I5  1  0.242447  0.524554  0.503923  1
  I  I6  1  0.505113  0.243113  0.524837  1
  I  I7  1  0.524613  0.504167  0.242676  1
  I  I8  1  0.877509  0.388202  0.742200  1
  I  I9  1  0.740537  0.876655  0.388223  1
  I  I10  1  0.388535  0.741259  0.877539  1
  I  I11  1  0.122491  0.611798  0.257800  1
  I  I12  1  0.259463  0.123345  0.611777  1
  I  I13  1  0.611465  0.258741  0.122461  1
  I  I14  1  0.023259  0.972329  0.693160  1
  I  I15  1  0.693208  0.023213  0.970404  1
  I  I16  1  0.971044  0.693985  0.021181  1
  I  I17  1  0.976741  0.027671  0.306840  1
  I  I18  1  0.306792  0.976787  0.029596  1
  I  I19  1  0.028956  0.306015  0.978819  1
