# generated using pymatgen
data_Li2Er8Sc10Si15Hg
_symmetry_space_group_name_H-M   'P 1'
_cell_length_a   7.00341696
_cell_length_b   7.36356124
_cell_length_c   14.06804053
_cell_angle_alpha   89.96704318
_cell_angle_beta   89.57070903
_cell_angle_gamma   90.14150576
_symmetry_Int_Tables_number   1
_chemical_formula_structural   Li2Er8Sc10Si15Hg
_chemical_formula_sum   'Li2 Er8 Sc10 Si15 Hg1'
_cell_volume   725.46740721
_cell_formula_units_Z   1
loop_
 _symmetry_equiv_pos_site_id
 _symmetry_equiv_pos_as_xyz
  1  'x, y, z'
loop_
 _atom_site_type_symbol
 _atom_site_label
 _atom_site_symmetry_multiplicity
 _atom_site_fract_x
 _atom_site_fract_y
 _atom_site_fract_z
 _atom_site_occupancy
  Li  Li0  1  0.161912  0.506473  0.752468  1
  Li  Li1  1  0.835745  0.494004  0.248450  1
  Er  Er2  1  0.010978  0.185607  0.097881  1
  Er  Er3  1  0.989961  0.815057  0.902924  1
  Er  Er4  1  0.485654  0.674695  0.903778  1
  Er  Er5  1  0.990237  0.823908  0.598738  1
  Er  Er6  1  0.512674  0.325416  0.096711  1
  Er  Er7  1  0.005470  0.180874  0.398229  1
  Er  Er8  1  0.516319  0.324366  0.398537  1
  Er  Er9  1  0.495669  0.680876  0.600930  1
  Sc  Sc10  1  0.339920  0.001829  0.249245  1
  Sc  Sc11  1  0.663581  0.995406  0.752668  1
  Sc  Sc12  1  0.338896  0.171110  0.629401  1
  Sc  Sc13  1  0.668823  0.818496  0.372050  1
  Sc  Sc14  1  0.158730  0.674523  0.369493  1
  Sc  Sc15  1  0.673445  0.819074  0.125328  1
  Sc  Sc16  1  0.829227  0.325841  0.627054  1
  Sc  Sc17  1  0.325809  0.180675  0.875341  1
  Sc  Sc18  1  0.834295  0.324653  0.874236  1
  Sc  Sc19  1  0.164941  0.673230  0.125998  1
  Si  Si20  1  0.031990  0.103586  0.750862  1
  Si  Si21  1  0.968440  0.899087  0.248193  1
  Si  Si22  1  0.462881  0.613435  0.247949  1
  Si  Si23  1  0.535653  0.389028  0.752088  1
  Si  Si24  1  0.287042  0.876419  0.751893  1
  Si  Si25  1  0.711705  0.122941  0.247706  1
  Si  Si26  1  0.220082  0.371159  0.248978  1
  Si  Si27  1  0.783045  0.628370  0.752464  1
  Si  Si28  1  0.827968  0.542143  0.466151  1
  Si  Si29  1  0.339562  0.964499  0.461111  1
  Si  Si30  1  0.839177  0.538296  0.033304  1
  Si  Si31  1  0.657879  0.034419  0.535779  1
  Si  Si32  1  0.158656  0.461809  0.966054  1
  Si  Si33  1  0.656603  0.032670  0.961478  1
  Si  Si34  1  0.343396  0.966701  0.039049  1
  Hg  Hg35  1  0.173637  0.459330  0.537481  1
