# generated using pymatgen
data_Sr4Mn(IN2)2
_symmetry_space_group_name_H-M   'P 1'
_cell_length_a   5.92984200
_cell_length_b   8.02931900
_cell_length_c   11.12186300
_cell_angle_alpha   84.31002502
_cell_angle_beta   90.00000000
_cell_angle_gamma   90.00000000
_symmetry_Int_Tables_number   1
_chemical_formula_structural   Sr4Mn(IN2)2
_chemical_formula_sum   'Sr8 Mn2 I4 N8'
_cell_volume   526.93165367
_cell_formula_units_Z   2
loop_
 _symmetry_equiv_pos_site_id
 _symmetry_equiv_pos_as_xyz
  1  'x, y, z'
loop_
 _atom_site_type_symbol
 _atom_site_label
 _atom_site_symmetry_multiplicity
 _atom_site_fract_x
 _atom_site_fract_y
 _atom_site_fract_z
 _atom_site_occupancy
  Sr  Sr0  1  0.750000  0.266975  0.313088  1
  Sr  Sr1  1  0.750000  0.009945  0.612155  1
  Sr  Sr2  1  0.750000  0.454458  0.591707  1
  Sr  Sr3  1  0.750000  0.760699  0.140640  1
  Sr  Sr4  1  0.250000  0.990055  0.387845  1
  Sr  Sr5  1  0.250000  0.545542  0.408293  1
  Sr  Sr6  1  0.250000  0.239301  0.859360  1
  Sr  Sr7  1  0.250000  0.733025  0.686912  1
  Mn  Mn8  1  0.750000  0.767659  0.413386  1
  Mn  Mn9  1  0.250000  0.232341  0.586614  1
  I  I10  1  0.250000  0.352016  0.154245  1
  I  I11  1  0.750000  0.647984  0.845755  1
  I  I12  1  0.250000  0.868796  0.081303  1
  I  I13  1  0.750000  0.131204  0.918697  1
  N  N14  1  0.250000  0.057274  0.689363  1
  N  N15  1  0.011963  0.235480  0.492904  1
  N  N16  1  0.511963  0.764520  0.507096  1
  N  N17  1  0.988037  0.764520  0.507096  1
  N  N18  1  0.750000  0.585519  0.337674  1
  N  N19  1  0.750000  0.942726  0.310637  1
  N  N20  1  0.488037  0.235480  0.492904  1
  N  N21  1  0.250000  0.414481  0.662326  1
