# generated using pymatgen
data_Sn3Pd5
_symmetry_space_group_name_H-M   'P 1'
_cell_length_a   7.26105537
_cell_length_b   7.26105470
_cell_length_c   7.27668816
_cell_angle_alpha   63.50111416
_cell_angle_beta   63.50111460
_cell_angle_gamma   63.38055362
_symmetry_Int_Tables_number   1
_chemical_formula_structural   Sn3Pd5
_chemical_formula_sum   'Sn6 Pd10'
_cell_volume   292.04777937
_cell_formula_units_Z   2
loop_
 _symmetry_equiv_pos_site_id
 _symmetry_equiv_pos_as_xyz
  1  'x, y, z'
loop_
 _atom_site_type_symbol
 _atom_site_label
 _atom_site_symmetry_multiplicity
 _atom_site_fract_x
 _atom_site_fract_y
 _atom_site_fract_z
 _atom_site_occupancy
  Sn  Sn0  1  0.408024  0.295470  0.291251  1
  Sn  Sn1  1  0.704530  0.591976  0.708749  1
  Sn  Sn2  1  0.011940  0.988060  0.000000  1
  Sn  Sn3  1  0.237263  0.762737  0.500000  1
  Sn  Sn4  1  0.837291  0.464347  0.206415  1
  Sn  Sn5  1  0.535653  0.162709  0.793585  1
  Pd  Pd6  1  0.375694  0.963841  0.659737  1
  Pd  Pd7  1  0.036159  0.624306  0.340263  1
  Pd  Pd8  1  0.787283  0.059610  0.402726  1
  Pd  Pd9  1  0.940390  0.212717  0.597274  1
  Pd  Pd10  1  0.454683  0.701274  0.095045  1
  Pd  Pd11  1  0.298726  0.545317  0.904955  1
  Pd  Pd12  1  0.624310  0.880865  0.245081  1
  Pd  Pd13  1  0.119135  0.375690  0.754919  1
  Pd  Pd14  1  0.206700  0.131781  0.166631  1
  Pd  Pd15  1  0.868219  0.793300  0.833369  1
