# generated using pymatgen
data_Tm4LuIn4PtRh
_symmetry_space_group_name_H-M   'P 1'
_cell_length_a   3.57441400
_cell_length_b   8.06030745
_cell_length_c   18.07100942
_cell_angle_alpha   90.23458717
_cell_angle_beta   90.00000000
_cell_angle_gamma   90.00000000
_symmetry_Int_Tables_number   1
_chemical_formula_structural   Tm4LuIn4PtRh
_chemical_formula_sum   'Tm8 Lu2 In8 Pt2 Rh2'
_cell_volume   520.63724426
_cell_formula_units_Z   2
loop_
 _symmetry_equiv_pos_site_id
 _symmetry_equiv_pos_as_xyz
  1  'x, y, z'
loop_
 _atom_site_type_symbol
 _atom_site_label
 _atom_site_symmetry_multiplicity
 _atom_site_fract_x
 _atom_site_fract_y
 _atom_site_fract_z
 _atom_site_occupancy
  Tm  Tm0  1  0.000000  0.116399  0.412873  1
  Tm  Tm1  1  0.000000  0.883601  0.587127  1
  Tm  Tm2  1  0.000000  0.381225  0.913392  1
  Tm  Tm3  1  0.000000  0.618775  0.086608  1
  Tm  Tm4  1  0.000000  0.240888  0.222116  1
  Tm  Tm5  1  0.000000  0.759112  0.777884  1
  Tm  Tm6  1  0.000000  0.000000  0.000000  1
  Tm  Tm7  1  0.000000  0.500000  0.500000  1
  Lu  Lu8  1  0.000000  0.250615  0.721211  1
  Lu  Lu9  1  0.000000  0.749385  0.278789  1
  In  In10  1  0.500000  0.425722  0.352331  1
  In  In11  1  0.500000  0.574278  0.647669  1
  In  In12  1  0.500000  0.069977  0.850629  1
  In  In13  1  0.500000  0.930023  0.149371  1
  In  In14  1  0.500000  0.293280  0.065970  1
  In  In15  1  0.500000  0.706720  0.934030  1
  In  In16  1  0.500000  0.206217  0.567537  1
  In  In17  1  0.500000  0.793783  0.432463  1
  Pt  Pt18  1  0.500000  0.476335  0.803123  1
  Pt  Pt19  1  0.500000  0.523665  0.196877  1
  Rh  Rh20  1  0.500000  0.022038  0.304594  1
  Rh  Rh21  1  0.500000  0.977962  0.695406  1
