# generated using pymatgen
data_Li2Y6Ru3Rh
_symmetry_space_group_name_H-M   'P 1'
_cell_length_a   4.88830600
_cell_length_b   6.87758500
_cell_length_c   14.84497300
_cell_angle_alpha   90.00000000
_cell_angle_beta   90.00000000
_cell_angle_gamma   90.00000000
_symmetry_Int_Tables_number   1
_chemical_formula_structural   Li2Y6Ru3Rh
_chemical_formula_sum   'Li4 Y12 Ru6 Rh2'
_cell_volume   499.08413288
_cell_formula_units_Z   2
loop_
 _symmetry_equiv_pos_site_id
 _symmetry_equiv_pos_as_xyz
  1  'x, y, z'
loop_
 _atom_site_type_symbol
 _atom_site_label
 _atom_site_symmetry_multiplicity
 _atom_site_fract_x
 _atom_site_fract_y
 _atom_site_fract_z
 _atom_site_occupancy
  Li  Li0  1  0.000016  0.000000  0.996647  1
  Li  Li1  1  0.499878  0.500001  0.164395  1
  Li  Li2  1  0.999878  0.000000  0.335606  1
  Li  Li3  1  0.500016  0.500001  0.503353  1
  Y  Y4  1  0.500015  0.254649  0.996047  1
  Y  Y5  1  0.500015  0.745351  0.996047  1
  Y  Y6  1  0.999917  0.250078  0.166271  1
  Y  Y7  1  0.999917  0.749922  0.166271  1
  Y  Y8  1  0.499917  0.249921  0.333730  1
  Y  Y9  1  0.499917  0.750079  0.333730  1
  Y  Y10  1  0.000015  0.245351  0.503953  1
  Y  Y11  1  0.000015  0.754649  0.503953  1
  Y  Y12  1  0.500110  0.245721  0.669982  1
  Y  Y13  1  0.500110  0.754279  0.669982  1
  Y  Y14  1  0.000110  0.254278  0.830018  1
  Y  Y15  1  0.000110  0.745722  0.830018  1
  Ru  Ru16  1  0.999971  0.500001  0.003012  1
  Ru  Ru17  1  0.500132  0.000000  0.168159  1
  Ru  Ru18  1  0.000132  0.500001  0.331841  1
  Ru  Ru19  1  0.499971  0.000000  0.496988  1
  Ru  Ru20  1  0.000247  0.500001  0.663917  1
  Ru  Ru21  1  0.500247  0.000000  0.836083  1
  Rh  Rh22  1  0.999673  0.000000  0.667630  1
  Rh  Rh23  1  0.499673  0.500001  0.832370  1
