# generated using pymatgen
data_Y16Tm4(PtRh3)3
_symmetry_space_group_name_H-M   'P 1'
_cell_length_a   10.91080102
_cell_length_b   10.91074907
_cell_length_c   6.35905000
_cell_angle_alpha   90.00377044
_cell_angle_beta   90.00329781
_cell_angle_gamma   89.93969367
_symmetry_Int_Tables_number   1
_chemical_formula_structural   Y16Tm4(PtRh3)3
_chemical_formula_sum   'Y16 Tm4 Pt3 Rh9'
_cell_volume   757.01276154
_cell_formula_units_Z   1
loop_
 _symmetry_equiv_pos_site_id
 _symmetry_equiv_pos_as_xyz
  1  'x, y, z'
loop_
 _atom_site_type_symbol
 _atom_site_label
 _atom_site_symmetry_multiplicity
 _atom_site_fract_x
 _atom_site_fract_y
 _atom_site_fract_z
 _atom_site_occupancy
  Y  Y0  1  0.289624  0.087491  0.378953  1
  Y  Y1  1  0.289757  0.912437  0.879022  1
  Y  Y2  1  0.710036  0.089007  0.878688  1
  Y  Y3  1  0.709843  0.912744  0.379082  1
  Y  Y4  1  0.588784  0.792240  0.875195  1
  Y  Y5  1  0.589931  0.209179  0.377598  1
  Y  Y6  1  0.411185  0.791440  0.375165  1
  Y  Y7  1  0.411891  0.208464  0.874478  1
  Y  Y8  1  0.207768  0.411216  0.624792  1
  Y  Y9  1  0.208561  0.588826  0.124827  1
  Y  Y10  1  0.790831  0.410072  0.122387  1
  Y  Y11  1  0.791541  0.588113  0.625506  1
  Y  Y12  1  0.912512  0.710369  0.121023  1
  Y  Y13  1  0.910994  0.289965  0.621301  1
  Y  Y14  1  0.087568  0.710245  0.620958  1
  Y  Y15  1  0.087261  0.290155  0.120899  1
  Tm  Tm16  1  0.999737  0.000111  0.500169  1
  Tm  Tm17  1  0.999887  0.000262  0.999825  1
  Tm  Tm18  1  0.501576  0.498749  0.999179  1
  Tm  Tm19  1  0.501254  0.498428  0.500815  1
  Pt  Pt20  1  0.651982  0.651976  0.249732  1
  Pt  Pt21  1  0.348026  0.348019  0.250263  1
  Pt  Pt22  1  0.348464  0.651532  0.750000  1
  Rh  Rh23  1  0.848268  0.151705  0.250015  1
  Rh  Rh24  1  0.848339  0.848195  0.749911  1
  Rh  Rh25  1  0.151811  0.151644  0.750035  1
  Rh  Rh26  1  0.151723  0.848287  0.250003  1
  Rh  Rh27  1  0.651199  0.348802  0.750001  1
  Rh  Rh28  1  0.499766  0.000039  0.126176  1
  Rh  Rh29  1  0.499994  0.000123  0.625479  1
  Rh  Rh30  1  0.999909  0.499968  0.874587  1
  Rh  Rh31  1  0.999980  0.500196  0.373933  1
