# generated using pymatgen
data_HoNb7O12
_symmetry_space_group_name_H-M   'P 1'
_cell_length_a   6.82120140
_cell_length_b   6.82120341
_cell_length_c   6.82120400
_cell_angle_alpha   73.86058169
_cell_angle_beta   73.86057679
_cell_angle_gamma   73.86056665
_symmetry_Int_Tables_number   1
_chemical_formula_structural   HoNb7O12
_chemical_formula_sum   'Ho1 Nb7 O12'
_cell_volume   285.84640881
_cell_formula_units_Z   1
loop_
 _symmetry_equiv_pos_site_id
 _symmetry_equiv_pos_as_xyz
  1  'x, y, z'
loop_
 _atom_site_type_symbol
 _atom_site_label
 _atom_site_symmetry_multiplicity
 _atom_site_fract_x
 _atom_site_fract_y
 _atom_site_fract_z
 _atom_site_occupancy
  Ho  Ho0  1  0.277266  0.277266  0.277266  1
  Nb  Nb1  1  0.724685  0.724685  0.724685  1
  Nb  Nb2  1  0.946264  0.112201  0.711664  1
  Nb  Nb3  1  0.711664  0.946264  0.112201  1
  Nb  Nb4  1  0.112201  0.711664  0.946264  1
  Nb  Nb5  1  0.056769  0.893334  0.288240  1
  Nb  Nb6  1  0.288240  0.056769  0.893334  1
  Nb  Nb7  1  0.893334  0.288240  0.056769  1
  O  O8  1  0.164549  0.602064  0.244711  1
  O  O9  1  0.244711  0.164549  0.602064  1
  O  O10  1  0.602064  0.244711  0.164549  1
  O  O11  1  0.825650  0.425085  0.741649  1
  O  O12  1  0.741649  0.825650  0.425085  1
  O  O13  1  0.425085  0.741649  0.825650  1
  O  O14  1  0.648276  0.027911  0.802294  1
  O  O15  1  0.802294  0.648276  0.027911  1
  O  O16  1  0.953967  0.193601  0.359821  1
  O  O17  1  0.193601  0.359821  0.953967  1
  O  O18  1  0.359821  0.953967  0.193601  1
  O  O19  1  0.027911  0.802294  0.648276  1
