# generated using pymatgen
data_Er2Pa(GaIr)3
_symmetry_space_group_name_H-M   'P 1'
_cell_length_a   7.24967851
_cell_length_b   7.24967916
_cell_length_c   3.76477500
_cell_angle_alpha   90.00000000
_cell_angle_beta   90.00000000
_cell_angle_gamma   118.95215336
_symmetry_Int_Tables_number   1
_chemical_formula_structural   Er2Pa(GaIr)3
_chemical_formula_sum   'Er2 Pa1 Ga3 Ir3'
_cell_volume   173.13969728
_cell_formula_units_Z   1
loop_
 _symmetry_equiv_pos_site_id
 _symmetry_equiv_pos_as_xyz
  1  'x, y, z'
loop_
 _atom_site_type_symbol
 _atom_site_label
 _atom_site_symmetry_multiplicity
 _atom_site_fract_x
 _atom_site_fract_y
 _atom_site_fract_z
 _atom_site_occupancy
  Er  Er0  1  0.593345  0.997595  0.500000  1
  Er  Er1  1  0.997595  0.593345  0.500000  1
  Pa  Pa2  1  0.413490  0.413490  0.500000  1
  Ga  Ga3  1  0.760066  0.760066  0.000000  1
  Ga  Ga4  1  0.253779  0.988042  0.000000  1
  Ga  Ga5  1  0.988042  0.253779  0.000000  1
  Ir  Ir6  1  0.644710  0.335781  0.000000  1
  Ir  Ir7  1  0.335781  0.644710  0.000000  1
  Ir  Ir8  1  0.013191  0.013191  0.500000  1
