# generated using pymatgen
data_Dy2Er10Tc3Ru
_symmetry_space_group_name_H-M   'P 1'
_cell_length_a   6.23455202
_cell_length_b   7.34307601
_cell_length_c   9.05358700
_cell_angle_alpha   90.00000000
_cell_angle_beta   90.00000000
_cell_angle_gamma   89.99214381
_symmetry_Int_Tables_number   1
_chemical_formula_structural   Dy2Er10Tc3Ru
_chemical_formula_sum   'Dy2 Er10 Tc3 Ru1'
_cell_volume   414.48035567
_cell_formula_units_Z   1
loop_
 _symmetry_equiv_pos_site_id
 _symmetry_equiv_pos_as_xyz
  1  'x, y, z'
loop_
 _atom_site_type_symbol
 _atom_site_label
 _atom_site_symmetry_multiplicity
 _atom_site_fract_x
 _atom_site_fract_y
 _atom_site_fract_z
 _atom_site_occupancy
  Dy  Dy0  1  0.874199  0.540430  0.250000  1
  Dy  Dy1  1  0.128969  0.458723  0.750000  1
  Er  Er2  1  0.337005  0.676807  0.062771  1
  Er  Er3  1  0.160757  0.175542  0.437952  1
  Er  Er4  1  0.660718  0.323828  0.562775  1
  Er  Er5  1  0.838360  0.824219  0.937477  1
  Er  Er6  1  0.660718  0.323828  0.937225  1
  Er  Er7  1  0.838360  0.824219  0.562523  1
  Er  Er8  1  0.337005  0.676807  0.437229  1
  Er  Er9  1  0.160757  0.175542  0.062048  1
  Er  Er10  1  0.626612  0.039652  0.250000  1
  Er  Er11  1  0.374338  0.957655  0.750000  1
  Tc  Tc12  1  0.040880  0.884701  0.250000  1
  Tc  Tc13  1  0.460251  0.386150  0.250000  1
  Tc  Tc14  1  0.960551  0.115333  0.750000  1
  Ru  Ru15  1  0.540517  0.616564  0.750000  1
