# generated using pymatgen
data_YbPrHoGa8Ag3
_symmetry_space_group_name_H-M   'P 1'
_cell_length_a   4.37339930
_cell_length_b   8.36743654
_cell_length_c   8.36743600
_cell_angle_alpha   70.11408543
_cell_angle_beta   74.85072667
_cell_angle_gamma   74.85073420
_symmetry_Int_Tables_number   1
_chemical_formula_structural   YbPrHoGa8Ag3
_chemical_formula_sum   'Yb1 Pr1 Ho1 Ga8 Ag3'
_cell_volume   272.87289305
_cell_formula_units_Z   1
loop_
 _symmetry_equiv_pos_site_id
 _symmetry_equiv_pos_as_xyz
  1  'x, y, z'
loop_
 _atom_site_type_symbol
 _atom_site_label
 _atom_site_symmetry_multiplicity
 _atom_site_fract_x
 _atom_site_fract_y
 _atom_site_fract_z
 _atom_site_occupancy
  Yb  Yb0  1  0.197149  0.802851  0.802851  1
  Pr  Pr1  1  0.499926  0.500074  0.500074  1
  Ho  Ho2  1  0.800971  0.199029  0.199029  1
  Ga  Ga3  1  0.357326  0.359826  0.925520  1
  Ga  Ga4  1  0.644741  0.637320  0.073201  1
  Ga  Ga5  1  0.357326  0.925520  0.359826  1
  Ga  Ga6  1  0.644741  0.073201  0.637320  1
  Ga  Ga7  1  0.161996  0.468518  0.207490  1
  Ga  Ga8  1  0.836024  0.531210  0.796742  1
  Ga  Ga9  1  0.161996  0.207490  0.468518  1
  Ga  Ga10  1  0.836024  0.796742  0.531210  1
  Ag  Ag11  1  0.500204  0.999796  0.999796  1
  Ag  Ag12  1  0.000789  0.803364  0.195060  1
  Ag  Ag13  1  0.000789  0.195060  0.803364  1
