# generated using pymatgen
data_SmDy2(ZnPt)4
_symmetry_space_group_name_H-M   'P 1'
_cell_length_a   8.24789650
_cell_length_b   8.24789555
_cell_length_c   8.24789598
_cell_angle_alpha   151.73615827
_cell_angle_beta   125.85194740
_cell_angle_gamma   62.19465150
_symmetry_Int_Tables_number   1
_chemical_formula_structural   SmDy2(ZnPt)4
_chemical_formula_sum   'Sm1 Dy2 Zn4 Pt4'
_cell_volume   213.56172855
_cell_formula_units_Z   1
loop_
 _symmetry_equiv_pos_site_id
 _symmetry_equiv_pos_as_xyz
  1  'x, y, z'
loop_
 _atom_site_type_symbol
 _atom_site_label
 _atom_site_symmetry_multiplicity
 _atom_site_fract_x
 _atom_site_fract_y
 _atom_site_fract_z
 _atom_site_occupancy
  Sm  Sm0  1  0.500000  0.000000  0.500000  1
  Dy  Dy1  1  0.875527  0.875527  0.000000  1
  Dy  Dy2  1  0.124473  0.124473  0.000000  1
  Zn  Zn3  1  0.477201  0.673601  0.803599  1
  Zn  Zn4  1  0.870001  0.673601  0.196401  1
  Zn  Zn5  1  0.129999  0.326399  0.803599  1
  Zn  Zn6  1  0.522799  0.326399  0.196401  1
  Pt  Pt7  1  0.277567  0.777567  0.500000  1
  Pt  Pt8  1  0.722433  0.222433  0.500000  1
  Pt  Pt9  1  0.808440  0.500000  0.308440  1
  Pt  Pt10  1  0.191560  0.500000  0.691560  1
