# generated using pymatgen
data_Th2MnNi9P7W2
_symmetry_space_group_name_H-M   'P 1'
_cell_length_a   9.20763228
_cell_length_b   9.20273897
_cell_length_c   3.83212000
_cell_angle_alpha   90.00000000
_cell_angle_beta   90.00000000
_cell_angle_gamma   119.41843158
_symmetry_Int_Tables_number   1
_chemical_formula_structural   Th2MnNi9P7W2
_chemical_formula_sum   'Th2 Mn1 Ni9 P7 W2'
_cell_volume   282.84608424
_cell_formula_units_Z   1
loop_
 _symmetry_equiv_pos_site_id
 _symmetry_equiv_pos_as_xyz
  1  'x, y, z'
loop_
 _atom_site_type_symbol
 _atom_site_label
 _atom_site_symmetry_multiplicity
 _atom_site_fract_x
 _atom_site_fract_y
 _atom_site_fract_z
 _atom_site_occupancy
  Th  Th0  1  0.333280  0.667085  0.000000  1
  Th  Th1  1  0.003727  0.002754  0.500000  1
  Mn  Mn2  1  0.451781  0.217119  0.500000  1
  Ni  Ni3  1  0.031761  0.269208  0.000000  1
  Ni  Ni4  1  0.730529  0.766630  0.000000  1
  Ni  Ni5  1  0.232200  0.963342  0.000000  1
  Ni  Ni6  1  0.536506  0.051287  0.000000  1
  Ni  Ni7  1  0.947472  0.485217  0.000000  1
  Ni  Ni8  1  0.517047  0.458916  0.000000  1
  Ni  Ni9  1  0.609223  0.893924  0.500000  1
  Ni  Ni10  1  0.106311  0.714787  0.500000  1
  Ni  Ni11  1  0.287682  0.387586  0.500000  1
  P  P12  1  0.771898  0.034718  0.000000  1
  P  P13  1  0.965576  0.737897  0.000000  1
  P  P14  1  0.262348  0.231369  0.000000  1
  P  P15  1  0.373147  0.935131  0.500000  1
  P  P16  1  0.067661  0.439630  0.500000  1
  P  P17  1  0.557969  0.624432  0.500000  1
  P  P18  1  0.666167  0.331565  0.000000  1
  W  W19  1  0.773313  0.235352  0.500000  1
  W  W20  1  0.774403  0.552050  0.500000  1
