# generated using pymatgen
data_IrSeF34
_symmetry_space_group_name_H-M   'P 1'
_cell_length_a   8.83242838
_cell_length_b   8.64926934
_cell_length_c   10.20284739
_cell_angle_alpha   80.43067437
_cell_angle_beta   86.82853134
_cell_angle_gamma   66.37594570
_symmetry_Int_Tables_number   1
_chemical_formula_structural   IrSeF34
_chemical_formula_sum   'Ir1 Se1 F34'
_cell_volume   704.12399495
_cell_formula_units_Z   1
loop_
 _symmetry_equiv_pos_site_id
 _symmetry_equiv_pos_as_xyz
  1  'x, y, z'
loop_
 _atom_site_type_symbol
 _atom_site_label
 _atom_site_symmetry_multiplicity
 _atom_site_fract_x
 _atom_site_fract_y
 _atom_site_fract_z
 _atom_site_occupancy
  Ir  Ir0  1  0.135159  0.749217  0.240930  1
  Se  Se1  1  0.862751  0.249554  0.761714  1
  F  F2  1  0.612756  0.199334  0.481476  1
  F  F3  1  0.395858  0.790330  0.519456  1
  F  F4  1  0.827257  0.703267  0.717784  1
  F  F5  1  0.173737  0.302804  0.282448  1
  F  F6  1  0.089359  0.754272  0.862309  1
  F  F7  1  0.916752  0.232416  0.140550  1
  F  F8  1  0.556183  0.145798  0.375682  1
  F  F9  1  0.440034  0.858278  0.622744  1
  F  F10  1  0.660168  0.321650  0.704666  1
  F  F11  1  0.352799  0.672781  0.304564  1
  F  F12  1  0.922731  0.084246  0.668800  1
  F  F13  1  0.066201  0.925238  0.343942  1
  F  F14  1  0.904333  0.378010  0.627400  1
  F  F15  1  0.089886  0.608884  0.384529  1
  F  F16  1  0.859440  0.808853  0.606695  1
  F  F17  1  0.151449  0.184295  0.388591  1
  F  F18  1  0.803466  0.415580  0.854302  1
  F  F19  1  0.201366  0.570689  0.139916  1
  F  F20  1  0.214208  0.687551  0.768208  1
  F  F21  1  0.787221  0.314565  0.226570  1
  F  F22  1  0.919323  0.826046  0.174026  1
  F  F23  1  0.064034  0.177630  0.820727  1
  F  F24  1  0.819807  0.120468  0.895393  1
  F  F25  1  0.181885  0.891008  0.098532  1
  F  F26  1  0.489340  0.590102  0.983860  1
  F  F27  1  0.513331  0.414867  0.014024  1
  F  F28  1  0.452389  0.088482  0.866935  1
  F  F29  1  0.536871  0.922489  0.133515  1
  F  F30  1  0.288564  0.249091  0.608340  1
  F  F31  1  0.710695  0.750936  0.387364  1
  F  F32  1  0.260066  0.390928  0.674676  1
  F  F33  1  0.745314  0.604946  0.324583  1
  F  F34  1  0.555905  0.924365  0.835457  1
  F  F35  1  0.439363  0.091033  0.159293  1
