# generated using pymatgen
data_Dy5ErAl24ZnOs7
_symmetry_space_group_name_H-M   'P 1'
_cell_length_a   8.85604905
_cell_length_b   8.85827493
_cell_length_c   9.54205520
_cell_angle_alpha   89.96381666
_cell_angle_beta   90.05506167
_cell_angle_gamma   119.96686789
_symmetry_Int_Tables_number   1
_chemical_formula_structural   Dy5ErAl24ZnOs7
_chemical_formula_sum   'Dy5 Er1 Al24 Zn1 Os7'
_cell_volume   648.49467633
_cell_formula_units_Z   1
loop_
 _symmetry_equiv_pos_site_id
 _symmetry_equiv_pos_as_xyz
  1  'x, y, z'
loop_
 _atom_site_type_symbol
 _atom_site_label
 _atom_site_symmetry_multiplicity
 _atom_site_fract_x
 _atom_site_fract_y
 _atom_site_fract_z
 _atom_site_occupancy
  Dy  Dy0  1  0.808776  0.614103  0.751955  1
  Dy  Dy1  1  0.614058  0.808614  0.247918  1
  Dy  Dy2  1  0.385953  0.191283  0.752061  1
  Dy  Dy3  1  0.194297  0.805590  0.253825  1
  Dy  Dy4  1  0.805661  0.194153  0.746213  1
  Er  Er5  1  0.190827  0.386947  0.248847  1
  Al  Al6  1  0.329541  0.670183  0.021338  1
  Al  Al7  1  0.670506  0.329495  0.979006  1
  Al  Al8  1  0.666044  0.333834  0.517420  1
  Al  Al9  1  0.333859  0.665955  0.482340  1
  Al  Al10  1  0.162612  0.325844  0.573408  1
  Al  Al11  1  0.837321  0.674074  0.426152  1
  Al  Al12  1  0.674063  0.837388  0.573554  1
  Al  Al13  1  0.848858  0.677152  0.081029  1
  Al  Al14  1  0.325778  0.162775  0.426161  1
  Al  Al15  1  0.151192  0.322785  0.919414  1
  Al  Al16  1  0.163020  0.837025  0.575412  1
  Al  Al17  1  0.322749  0.151370  0.081101  1
  Al  Al18  1  0.837212  0.162990  0.424391  1
  Al  Al19  1  0.677089  0.848736  0.919079  1
  Al  Al20  1  0.837037  0.163503  0.076173  1
  Al  Al21  1  0.163343  0.836584  0.924058  1
  Al  Al22  1  0.561762  0.121463  0.249246  1
  Al  Al23  1  0.438263  0.878550  0.750689  1
  Al  Al24  1  0.878834  0.438115  0.249251  1
  Al  Al25  1  0.121411  0.561660  0.750787  1
  Al  Al26  1  0.563116  0.436154  0.254416  1
  Al  Al27  1  0.436294  0.563654  0.745328  1
  Al  Al28  1  0.999582  0.001907  0.250479  1
  Al  Al29  1  0.001024  0.999070  0.749436  1
  Zn  Zn30  1  0.500029  0.499962  0.999977  1
  Os  Os31  1  0.499966  0.999879  0.000014  1
  Os  Os32  1  0.000262  0.499860  0.000318  1
  Os  Os33  1  0.499925  0.999820  0.499883  1
  Os  Os34  1  0.000193  0.499856  0.499701  1
  Os  Os35  1  0.499656  0.499858  0.499701  1
  Os  Os36  1  0.999922  0.999866  0.999950  1
  Os  Os37  1  0.999968  0.999943  0.499968  1
