# generated using pymatgen
data_Tb3HoZn2Ir3
_symmetry_space_group_name_H-M   'P 1'
_cell_length_a   7.36809148
_cell_length_b   7.38058919
_cell_length_c   3.98782000
_cell_angle_alpha   90.00000000
_cell_angle_beta   90.00000000
_cell_angle_gamma   120.05611366
_symmetry_Int_Tables_number   1
_chemical_formula_structural   Tb3HoZn2Ir3
_chemical_formula_sum   'Tb3 Ho1 Zn2 Ir3'
_cell_volume   187.70090923
_cell_formula_units_Z   1
loop_
 _symmetry_equiv_pos_site_id
 _symmetry_equiv_pos_as_xyz
  1  'x, y, z'
loop_
 _atom_site_type_symbol
 _atom_site_label
 _atom_site_symmetry_multiplicity
 _atom_site_fract_x
 _atom_site_fract_y
 _atom_site_fract_z
 _atom_site_occupancy
  Tb  Tb0  1  0.439556  0.418557  0.000000  1
  Tb  Tb1  1  0.560444  0.979001  0.000000  1
  Tb  Tb2  1  0.000000  0.618025  0.000000  1
  Ho  Ho3  1  0.000000  0.240880  0.500000  1
  Zn  Zn4  1  0.744577  0.750702  0.500000  1
  Zn  Zn5  1  0.255423  0.006124  0.500000  1
  Ir  Ir6  1  0.000000  0.990916  0.000000  1
  Ir  Ir7  1  0.329807  0.662801  0.500000  1
  Ir  Ir8  1  0.670193  0.332994  0.500000  1
