# generated using pymatgen
data_Ca3Sc(NbN3)2
_symmetry_space_group_name_H-M   'P 1'
_cell_length_a   5.59205459
_cell_length_b   5.59205545
_cell_length_c   5.86589536
_cell_angle_alpha   99.21498228
_cell_angle_beta   99.21499298
_cell_angle_gamma   119.89434694
_symmetry_Int_Tables_number   1
_chemical_formula_structural   Ca3Sc(NbN3)2
_chemical_formula_sum   'Ca3 Sc1 Nb2 N6'
_cell_volume   150.67683043
_cell_formula_units_Z   1
loop_
 _symmetry_equiv_pos_site_id
 _symmetry_equiv_pos_as_xyz
  1  'x, y, z'
loop_
 _atom_site_type_symbol
 _atom_site_label
 _atom_site_symmetry_multiplicity
 _atom_site_fract_x
 _atom_site_fract_y
 _atom_site_fract_z
 _atom_site_occupancy
  Ca  Ca0  1  0.834375  0.165625  0.500000  1
  Ca  Ca1  1  0.165625  0.834375  0.500000  1
  Ca  Ca2  1  0.500000  0.500000  0.500000  1
  Sc  Sc3  1  0.000000  0.000000  0.000000  1
  Nb  Nb4  1  0.332861  0.667139  0.000000  1
  Nb  Nb5  1  0.667139  0.332861  0.000000  1
  N  N6  1  0.413561  0.070496  0.213597  1
  N  N7  1  0.929504  0.586439  0.786403  1
  N  N8  1  0.586439  0.929504  0.786403  1
  N  N9  1  0.070496  0.413561  0.213597  1
  N  N10  1  0.727925  0.727925  0.212492  1
  N  N11  1  0.272075  0.272075  0.787508  1
