# generated using pymatgen
data_Gd4Y4Re3B24Ru
_symmetry_space_group_name_H-M   'P 1'
_cell_length_a   3.69193000
_cell_length_b   9.20127704
_cell_length_c   11.60212346
_cell_angle_alpha   89.86933034
_cell_angle_beta   90.00000000
_cell_angle_gamma   90.00000000
_symmetry_Int_Tables_number   1
_chemical_formula_structural   Gd4Y4Re3B24Ru
_chemical_formula_sum   'Gd4 Y4 Re3 B24 Ru1'
_cell_volume   394.12857093
_cell_formula_units_Z   1
loop_
 _symmetry_equiv_pos_site_id
 _symmetry_equiv_pos_as_xyz
  1  'x, y, z'
loop_
 _atom_site_type_symbol
 _atom_site_label
 _atom_site_symmetry_multiplicity
 _atom_site_fract_x
 _atom_site_fract_y
 _atom_site_fract_z
 _atom_site_occupancy
  Gd  Gd0  1  0.000000  0.323410  0.413728  1
  Gd  Gd1  1  0.000000  0.674703  0.583866  1
  Gd  Gd2  1  0.000000  0.822907  0.087541  1
  Gd  Gd3  1  0.000000  0.177695  0.914697  1
  Y  Y4  1  0.000000  0.943069  0.370860  1
  Y  Y5  1  0.000000  0.056897  0.630689  1
  Y  Y6  1  0.000000  0.443564  0.129363  1
  Y  Y7  1  0.000000  0.558299  0.869501  1
  Re  Re8  1  0.000000  0.638380  0.320614  1
  Re  Re9  1  0.000000  0.361392  0.679795  1
  Re  Re10  1  0.000000  0.138083  0.178565  1
  B  B11  1  0.500000  0.553176  0.432222  1
  B  B12  1  0.500000  0.446209  0.567295  1
  B  B13  1  0.500000  0.053348  0.067377  1
  B  B14  1  0.500000  0.945749  0.932170  1
  B  B15  1  0.500000  0.748285  0.418312  1
  B  B16  1  0.500000  0.250835  0.581905  1
  B  B17  1  0.500000  0.249042  0.081540  1
  B  B18  1  0.500000  0.752130  0.917839  1
  B  B19  1  0.500000  0.791565  0.265869  1
  B  B20  1  0.500000  0.208716  0.734988  1
  B  B21  1  0.500000  0.291474  0.234134  1
  B  B22  1  0.500000  0.709747  0.765497  1
  B  B23  1  0.500000  0.631557  0.185815  1
  B  B24  1  0.500000  0.369079  0.814563  1
  B  B25  1  0.500000  0.130874  0.313842  1
  B  B26  1  0.500000  0.868525  0.686230  1
  B  B27  1  0.500000  0.982588  0.212101  1
  B  B28  1  0.500000  0.015755  0.788411  1
  B  B29  1  0.500000  0.483010  0.287538  1
  B  B30  1  0.500000  0.516932  0.711724  1
  B  B31  1  0.500000  0.602355  0.027953  1
  B  B32  1  0.500000  0.399771  0.971403  1
  B  B33  1  0.500000  0.101029  0.472395  1
  B  B34  1  0.500000  0.898367  0.528867  1
  Ru  Ru35  1  0.000000  0.861483  0.820792  1
