# generated using pymatgen
data_DyTm3Th6(Sn3C)2
_symmetry_space_group_name_H-M   'P 1'
_cell_length_a   9.21193300
_cell_length_b   9.21193152
_cell_length_c   6.48446600
_cell_angle_alpha   90.00000000
_cell_angle_beta   90.00000000
_cell_angle_gamma   120.00000890
_symmetry_Int_Tables_number   1
_chemical_formula_structural   DyTm3Th6(Sn3C)2
_chemical_formula_sum   'Dy1 Tm3 Th6 Sn6 C2'
_cell_volume   476.54759454
_cell_formula_units_Z   1
loop_
 _symmetry_equiv_pos_site_id
 _symmetry_equiv_pos_as_xyz
  1  'x, y, z'
loop_
 _atom_site_type_symbol
 _atom_site_label
 _atom_site_symmetry_multiplicity
 _atom_site_fract_x
 _atom_site_fract_y
 _atom_site_fract_z
 _atom_site_occupancy
  Dy  Dy0  1  0.666667  0.333333  0.000000  1
  Tm  Tm1  1  0.666667  0.333333  0.500000  1
  Tm  Tm2  1  0.333333  0.666667  0.500000  1
  Tm  Tm3  1  0.333333  0.666667  0.000000  1
  Th  Th4  1  0.777034  0.776923  0.250096  1
  Th  Th5  1  0.223077  0.000111  0.250096  1
  Th  Th6  1  0.999889  0.222966  0.250096  1
  Th  Th7  1  0.223077  0.222966  0.749904  1
  Th  Th8  1  0.777034  0.000111  0.749904  1
  Th  Th9  1  0.999889  0.776923  0.749904  1
  Sn  Sn10  1  0.405655  0.407462  0.251729  1
  Sn  Sn11  1  0.592538  0.998193  0.251729  1
  Sn  Sn12  1  0.001807  0.594345  0.251729  1
  Sn  Sn13  1  0.592538  0.594345  0.748271  1
  Sn  Sn14  1  0.405655  0.998193  0.748271  1
  Sn  Sn15  1  0.001807  0.407462  0.748271  1
  C  C16  1  0.000000  0.000000  0.500000  1
  C  C17  1  0.000000  0.000000  0.000000  1
