# generated using pymatgen
data_Ba12YEr3Al8O30
_symmetry_space_group_name_H-M   'P 1'
_cell_length_a   5.94542836
_cell_length_b   7.91176089
_cell_length_c   18.50511605
_cell_angle_alpha   88.35294793
_cell_angle_beta   90.03757725
_cell_angle_gamma   90.01370478
_symmetry_Int_Tables_number   1
_chemical_formula_structural   Ba12YEr3Al8O30
_chemical_formula_sum   'Ba12 Y1 Er3 Al8 O30'
_cell_volume   870.09875282
_cell_formula_units_Z   1
loop_
 _symmetry_equiv_pos_site_id
 _symmetry_equiv_pos_as_xyz
  1  'x, y, z'
loop_
 _atom_site_type_symbol
 _atom_site_label
 _atom_site_symmetry_multiplicity
 _atom_site_fract_x
 _atom_site_fract_y
 _atom_site_fract_z
 _atom_site_occupancy
  Ba  Ba0  1  0.756550  0.500888  0.081710  1
  Ba  Ba1  1  0.243600  0.499008  0.918144  1
  Ba  Ba2  1  0.756144  0.498533  0.418023  1
  Ba  Ba3  1  0.243262  0.500842  0.582314  1
  Ba  Ba4  1  0.748093  0.970701  0.089296  1
  Ba  Ba5  1  0.251988  0.029342  0.910578  1
  Ba  Ba6  1  0.747708  0.030201  0.410356  1
  Ba  Ba7  1  0.251635  0.970551  0.590167  1
  Ba  Ba8  1  0.727561  0.000107  0.750456  1
  Ba  Ba9  1  0.272582  0.000301  0.249277  1
  Ba  Ba10  1  0.675231  0.500004  0.750328  1
  Ba  Ba11  1  0.324927  0.499668  0.249499  1
  Y  Y12  1  0.252080  0.752952  0.410623  1
  Er  Er13  1  0.747479  0.752128  0.910770  1
  Er  Er14  1  0.252663  0.247959  0.089093  1
  Er  Er15  1  0.747267  0.247544  0.589605  1
  Al  Al16  1  0.747844  0.752184  0.556352  1
  Al  Al17  1  0.251356  0.247479  0.444880  1
  Al  Al18  1  0.748237  0.247830  0.944586  1
  Al  Al19  1  0.251976  0.752127  0.055311  1
  Al  Al20  1  0.769211  0.779098  0.267710  1
  Al  Al21  1  0.231338  0.221001  0.731573  1
  Al  Al22  1  0.769049  0.221124  0.231053  1
  Al  Al23  1  0.231198  0.779004  0.768874  1
  O  O24  1  0.208975  0.000013  0.750207  1
  O  O25  1  0.791474  0.000167  0.249468  1
  O  O26  1  0.500570  0.763887  0.000379  1
  O  O27  1  0.499498  0.236101  0.999468  1
  O  O28  1  0.500658  0.235679  0.499678  1
  O  O29  1  0.499467  0.764409  0.501632  1
  O  O30  1  0.760418  0.944616  0.606084  1
  O  O31  1  0.238842  0.057113  0.394209  1
  O  O32  1  0.760391  0.055356  0.894972  1
  O  O33  1  0.239679  0.944682  0.104932  1
  O  O34  1  0.013512  0.762656  0.994598  1
  O  O35  1  0.986783  0.237313  0.005240  1
  O  O36  1  0.013278  0.236813  0.505671  1
  O  O37  1  0.984846  0.763057  0.495548  1
  O  O38  1  0.315505  0.689962  0.688189  1
  O  O39  1  0.685036  0.309890  0.311866  1
  O  O40  1  0.316058  0.309871  0.812317  1
  O  O41  1  0.682866  0.690808  0.187016  1
  O  O42  1  0.454815  0.755211  0.833828  1
  O  O43  1  0.545254  0.244947  0.166096  1
  O  O44  1  0.454489  0.244728  0.666554  1
  O  O45  1  0.548304  0.755183  0.333226  1
  O  O46  1  0.973145  0.730392  0.813325  1
  O  O47  1  0.026973  0.269829  0.186504  1
  O  O48  1  0.973422  0.269540  0.687067  1
  O  O49  1  0.027688  0.729510  0.311282  1
  O  O50  1  0.752230  0.537846  0.591931  1
  O  O51  1  0.246817  0.459956  0.408300  1
  O  O52  1  0.752516  0.461818  0.908720  1
  O  O53  1  0.247513  0.538066  0.091111  1
