# generated using pymatgen
data_Hf5Sc3(Si4Ru3)4
_symmetry_space_group_name_H-M   'P 1'
_cell_length_a   9.90850485
_cell_length_b   9.90737793
_cell_length_c   13.34557917
_cell_angle_alpha   53.95313970
_cell_angle_beta   53.90521040
_cell_angle_gamma   31.20411013
_symmetry_Int_Tables_number   1
_chemical_formula_structural   Hf5Sc3(Si4Ru3)4
_chemical_formula_sum   'Hf5 Sc3 Si16 Ru12'
_cell_volume   537.15411113
_cell_formula_units_Z   1
loop_
 _symmetry_equiv_pos_site_id
 _symmetry_equiv_pos_as_xyz
  1  'x, y, z'
loop_
 _atom_site_type_symbol
 _atom_site_label
 _atom_site_symmetry_multiplicity
 _atom_site_fract_x
 _atom_site_fract_y
 _atom_site_fract_z
 _atom_site_occupancy
  Hf  Hf0  1  0.557619  0.292719  0.149114  1
  Hf  Hf1  1  0.038824  0.295591  0.635658  1
  Hf  Hf2  1  0.704549  0.961243  0.863830  1
  Hf  Hf3  1  0.961754  0.704723  0.363707  1
  Hf  Hf4  1  0.294933  0.038909  0.136106  1
  Sc  Sc5  1  0.292755  0.560378  0.646606  1
  Sc  Sc6  1  0.440250  0.706297  0.853382  1
  Sc  Sc7  1  0.707103  0.439608  0.353357  1
  Si  Si8  1  0.875222  0.124863  0.250164  1
  Si  Si9  1  0.124836  0.875425  0.749973  1
  Si  Si10  1  0.381739  0.617347  0.250254  1
  Si  Si11  1  0.618954  0.381302  0.749686  1
  Si  Si12  1  0.971952  0.256040  0.892196  1
  Si  Si13  1  0.745459  0.027199  0.607653  1
  Si  Si14  1  0.027490  0.745681  0.106830  1
  Si  Si15  1  0.254309  0.973168  0.391931  1
  Si  Si16  1  0.574252  0.083014  0.064968  1
  Si  Si17  1  0.914773  0.426968  0.434531  1
  Si  Si18  1  0.426046  0.916842  0.933648  1
  Si  Si19  1  0.084798  0.573238  0.565482  1
  Si  Si20  1  0.387173  0.143267  0.396546  1
  Si  Si21  1  0.856049  0.612248  0.104822  1
  Si  Si22  1  0.613814  0.854918  0.604579  1
  Si  Si23  1  0.144895  0.387352  0.894884  1
  Ru  Ru24  1  0.649390  0.828549  0.281263  1
  Ru  Ru25  1  0.172933  0.351651  0.217738  1
  Ru  Ru26  1  0.759108  0.483456  0.069982  1
  Ru  Ru27  1  0.828653  0.649575  0.781957  1
  Ru  Ru28  1  0.900612  0.140627  0.585374  1
  Ru  Ru29  1  0.856459  0.102426  0.915444  1
  Ru  Ru30  1  0.100069  0.858785  0.413947  1
  Ru  Ru31  1  0.141774  0.899659  0.084754  1
  Ru  Ru32  1  0.239727  0.517077  0.930505  1
  Ru  Ru33  1  0.483632  0.759941  0.570187  1
  Ru  Ru34  1  0.517350  0.238601  0.431068  1
  Ru  Ru35  1  0.350747  0.171313  0.717875  1
