# generated using pymatgen
data_LaZnInCu4
_symmetry_space_group_name_H-M   'P 1'
_cell_length_a   5.08096600
_cell_length_b   8.46012600
_cell_length_c   10.84497000
_cell_angle_alpha   90.00000000
_cell_angle_beta   90.00000000
_cell_angle_gamma   90.00000000
_symmetry_Int_Tables_number   1
_chemical_formula_structural   LaZnInCu4
_chemical_formula_sum   'La4 Zn4 In4 Cu16'
_cell_volume   466.17767866
_cell_formula_units_Z   4
loop_
 _symmetry_equiv_pos_site_id
 _symmetry_equiv_pos_as_xyz
  1  'x, y, z'
loop_
 _atom_site_type_symbol
 _atom_site_label
 _atom_site_symmetry_multiplicity
 _atom_site_fract_x
 _atom_site_fract_y
 _atom_site_fract_z
 _atom_site_occupancy
  La  La0  1  0.250000  0.755114  0.058727  1
  La  La1  1  0.750000  0.244886  0.941273  1
  La  La2  1  0.750000  0.744886  0.558727  1
  La  La3  1  0.250000  0.255114  0.441273  1
  Zn  Zn4  1  0.250000  0.815881  0.740836  1
  Zn  Zn5  1  0.750000  0.184119  0.259164  1
  Zn  Zn6  1  0.750000  0.684119  0.240836  1
  Zn  Zn7  1  0.250000  0.315881  0.759164  1
  In  In8  1  0.250000  0.637525  0.365477  1
  In  In9  1  0.750000  0.362475  0.634523  1
  In  In10  1  0.750000  0.862475  0.865477  1
  In  In11  1  0.250000  0.137525  0.134523  1
  Cu  Cu12  1  0.503402  0.567202  0.812592  1
  Cu  Cu13  1  0.496598  0.432798  0.187408  1
  Cu  Cu14  1  0.496598  0.932798  0.312592  1
  Cu  Cu15  1  0.003402  0.432798  0.187408  1
  Cu  Cu16  1  0.503402  0.067202  0.687408  1
  Cu  Cu17  1  0.996598  0.567202  0.812592  1
  Cu  Cu18  1  0.996598  0.067202  0.687408  1
  Cu  Cu19  1  0.003402  0.932798  0.312592  1
  Cu  Cu20  1  0.250000  0.557315  0.607968  1
  Cu  Cu21  1  0.750000  0.442685  0.392032  1
  Cu  Cu22  1  0.750000  0.942685  0.107968  1
  Cu  Cu23  1  0.250000  0.057315  0.892032  1
  Cu  Cu24  1  0.250000  0.920398  0.514970  1
  Cu  Cu25  1  0.750000  0.079602  0.485030  1
  Cu  Cu26  1  0.750000  0.579602  0.014970  1
  Cu  Cu27  1  0.250000  0.420398  0.985030  1
