# generated using pymatgen
data_Nd3Y7Cd3Ru
_symmetry_space_group_name_H-M   'P 1'
_cell_length_a   9.76119600
_cell_length_b   9.76119625
_cell_length_c   9.93543900
_cell_angle_alpha   90.00000000
_cell_angle_beta   90.00000000
_cell_angle_gamma   119.99999914
_symmetry_Int_Tables_number   1
_chemical_formula_structural   Nd3Y7Cd3Ru
_chemical_formula_sum   'Nd6 Y14 Cd6 Ru2'
_cell_volume   819.82993995
_cell_formula_units_Z   2
loop_
 _symmetry_equiv_pos_site_id
 _symmetry_equiv_pos_as_xyz
  1  'x, y, z'
loop_
 _atom_site_type_symbol
 _atom_site_label
 _atom_site_symmetry_multiplicity
 _atom_site_fract_x
 _atom_site_fract_y
 _atom_site_fract_z
 _atom_site_occupancy
  Nd  Nd0  1  0.540690  0.459310  0.250000  1
  Nd  Nd1  1  0.540690  0.081381  0.250000  1
  Nd  Nd2  1  0.918619  0.459310  0.250000  1
  Nd  Nd3  1  0.459310  0.540690  0.750000  1
  Nd  Nd4  1  0.459310  0.918619  0.750000  1
  Nd  Nd5  1  0.081381  0.540690  0.750000  1
  Y  Y6  1  0.000000  0.000000  0.500000  1
  Y  Y7  1  0.000000  0.000000  0.000000  1
  Y  Y8  1  0.209984  0.790016  0.438366  1
  Y  Y9  1  0.209984  0.419968  0.438366  1
  Y  Y10  1  0.580032  0.790016  0.438366  1
  Y  Y11  1  0.790016  0.209984  0.561634  1
  Y  Y12  1  0.790016  0.580032  0.561634  1
  Y  Y13  1  0.419968  0.209984  0.561634  1
  Y  Y14  1  0.790016  0.209984  0.938366  1
  Y  Y15  1  0.790016  0.580032  0.938366  1
  Y  Y16  1  0.419968  0.209984  0.938366  1
  Y  Y17  1  0.209984  0.790016  0.061634  1
  Y  Y18  1  0.209984  0.419968  0.061634  1
  Y  Y19  1  0.580032  0.790016  0.061634  1
  Cd  Cd20  1  0.886985  0.113015  0.250000  1
  Cd  Cd21  1  0.886985  0.773970  0.250000  1
  Cd  Cd22  1  0.226030  0.113015  0.250000  1
  Cd  Cd23  1  0.113015  0.886985  0.750000  1
  Cd  Cd24  1  0.113015  0.226030  0.750000  1
  Cd  Cd25  1  0.773970  0.886985  0.750000  1
  Ru  Ru26  1  0.333333  0.666667  0.250000  1
  Ru  Ru27  1  0.666667  0.333333  0.750000  1
