# generated using pymatgen
data_Pr3Dy(InRh)4
_symmetry_space_group_name_H-M   'P 1'
_cell_length_a   4.40772700
_cell_length_b   7.24394444
_cell_length_c   8.54155820
_cell_angle_alpha   89.41817018
_cell_angle_beta   90.00000000
_cell_angle_gamma   90.00000000
_symmetry_Int_Tables_number   1
_chemical_formula_structural   Pr3Dy(InRh)4
_chemical_formula_sum   'Pr3 Dy1 In4 Rh4'
_cell_volume   272.71216420
_cell_formula_units_Z   1
loop_
 _symmetry_equiv_pos_site_id
 _symmetry_equiv_pos_as_xyz
  1  'x, y, z'
loop_
 _atom_site_type_symbol
 _atom_site_label
 _atom_site_symmetry_multiplicity
 _atom_site_fract_x
 _atom_site_fract_y
 _atom_site_fract_z
 _atom_site_occupancy
  Pr  Pr0  1  0.250000  0.036963  0.178947  1
  Pr  Pr1  1  0.750000  0.963187  0.820109  1
  Pr  Pr2  1  0.250000  0.535996  0.322525  1
  Dy  Dy3  1  0.750000  0.461130  0.678964  1
  In  In4  1  0.750000  0.359125  0.060224  1
  In  In5  1  0.250000  0.639639  0.936376  1
  In  In6  1  0.750000  0.856979  0.439301  1
  In  In7  1  0.250000  0.144748  0.563621  1
  Rh  Rh8  1  0.250000  0.744931  0.622825  1
  Rh  Rh9  1  0.750000  0.249928  0.381698  1
  Rh  Rh10  1  0.250000  0.259815  0.871638  1
  Rh  Rh11  1  0.750000  0.747559  0.123771  1
