# generated using pymatgen
data_HoZrAgS4
_symmetry_space_group_name_H-M   'P 1'
_cell_length_a   7.79548080
_cell_length_b   7.79548048
_cell_length_c   11.01569791
_cell_angle_alpha   91.28028610
_cell_angle_beta   91.28028486
_cell_angle_gamma   89.85438505
_symmetry_Int_Tables_number   1
_chemical_formula_structural   HoZrAgS4
_chemical_formula_sum   'Ho4 Zr4 Ag4 S16'
_cell_volume   669.08307051
_cell_formula_units_Z   4
loop_
 _symmetry_equiv_pos_site_id
 _symmetry_equiv_pos_as_xyz
  1  'x, y, z'
loop_
 _atom_site_type_symbol
 _atom_site_label
 _atom_site_symmetry_multiplicity
 _atom_site_fract_x
 _atom_site_fract_y
 _atom_site_fract_z
 _atom_site_occupancy
  Ho  Ho0  1  0.001720  0.749034  0.624051  1
  Ho  Ho1  1  0.749034  0.501720  0.874051  1
  Ho  Ho2  1  0.249034  0.001720  0.374051  1
  Ho  Ho3  1  0.501720  0.249034  0.124051  1
  Zr  Zr4  1  0.999735  0.248684  0.625421  1
  Zr  Zr5  1  0.748684  0.999735  0.375421  1
  Zr  Zr6  1  0.499735  0.748684  0.125421  1
  Zr  Zr7  1  0.248684  0.499735  0.875421  1
  Ag  Ag8  1  0.999082  0.001544  0.000772  1
  Ag  Ag9  1  0.499082  0.501544  0.500772  1
  Ag  Ag10  1  0.501544  0.999082  0.750772  1
  Ag  Ag11  1  0.001544  0.499082  0.250772  1
  S  S12  1  0.987501  0.236067  0.387821  1
  S  S13  1  0.764760  0.009951  0.613022  1
  S  S14  1  0.988107  0.773519  0.379474  1
  S  S15  1  0.728428  0.511864  0.119440  1
  S  S16  1  0.509951  0.764760  0.363022  1
  S  S17  1  0.273519  0.988107  0.129474  1
  S  S18  1  0.511864  0.228428  0.369440  1
  S  S19  1  0.736067  0.987501  0.137821  1
  S  S20  1  0.487501  0.736067  0.887821  1
  S  S21  1  0.264760  0.509951  0.113022  1
  S  S22  1  0.488107  0.273519  0.879474  1
  S  S23  1  0.228428  0.011864  0.619440  1
  S  S24  1  0.009951  0.264760  0.863022  1
  S  S25  1  0.773519  0.488107  0.629474  1
  S  S26  1  0.011864  0.728428  0.869440  1
  S  S27  1  0.236067  0.487501  0.637821  1
