# generated using pymatgen
data_Hf2Co9Ni3P7
_symmetry_space_group_name_H-M   'P 1'
_cell_length_a   8.92139400
_cell_length_b   8.92139327
_cell_length_c   3.52757200
_cell_angle_alpha   90.00000000
_cell_angle_beta   90.00000000
_cell_angle_gamma   120.00000270
_symmetry_Int_Tables_number   1
_chemical_formula_structural   Hf2Co9Ni3P7
_chemical_formula_sum   'Hf2 Co9 Ni3 P7'
_cell_volume   243.14867689
_cell_formula_units_Z   1
loop_
 _symmetry_equiv_pos_site_id
 _symmetry_equiv_pos_as_xyz
  1  'x, y, z'
loop_
 _atom_site_type_symbol
 _atom_site_label
 _atom_site_symmetry_multiplicity
 _atom_site_fract_x
 _atom_site_fract_y
 _atom_site_fract_z
 _atom_site_occupancy
  Hf  Hf0  1  0.000000  0.000000  0.000000  1
  Hf  Hf1  1  0.333333  0.666667  0.500000  1
  Co  Co2  1  0.103761  0.397738  0.000000  1
  Co  Co3  1  0.293977  0.896239  0.000000  1
  Co  Co4  1  0.602262  0.706023  0.000000  1
  Co  Co5  1  0.828378  0.610383  0.000000  1
  Co  Co6  1  0.782006  0.171622  0.000000  1
  Co  Co7  1  0.389617  0.217994  0.000000  1
  Co  Co8  1  0.054051  0.773310  0.500000  1
  Co  Co9  1  0.719259  0.945949  0.500000  1
  Co  Co10  1  0.226690  0.280741  0.500000  1
  Ni  Ni11  1  0.887359  0.424576  0.500000  1
  Ni  Ni12  1  0.537218  0.112641  0.500000  1
  Ni  Ni13  1  0.575424  0.462782  0.500000  1
  P  P14  1  0.666667  0.333333  0.000000  1
  P  P15  1  0.080374  0.627939  0.000000  1
  P  P16  1  0.547565  0.919626  0.000000  1
  P  P17  1  0.372061  0.452435  0.000000  1
  P  P18  1  0.786200  0.741133  0.500000  1
  P  P19  1  0.954933  0.213800  0.500000  1
  P  P20  1  0.258867  0.045067  0.500000  1
