# generated using pymatgen
data_Nd5Tm11(AgRh)4
_symmetry_space_group_name_H-M   'P 1'
_cell_length_a   9.54555328
_cell_length_b   9.53467109
_cell_length_c   9.53467212
_cell_angle_alpha   59.81038233
_cell_angle_beta   59.96224486
_cell_angle_gamma   59.96224389
_symmetry_Int_Tables_number   1
_chemical_formula_structural   Nd5Tm11(AgRh)4
_chemical_formula_sum   'Nd5 Tm11 Ag4 Rh4'
_cell_volume   612.38422146
_cell_formula_units_Z   1
loop_
 _symmetry_equiv_pos_site_id
 _symmetry_equiv_pos_as_xyz
  1  'x, y, z'
loop_
 _atom_site_type_symbol
 _atom_site_label
 _atom_site_symmetry_multiplicity
 _atom_site_fract_x
 _atom_site_fract_y
 _atom_site_fract_z
 _atom_site_occupancy
  Nd  Nd0  1  0.809848  0.190152  0.190152  1
  Nd  Nd1  1  0.814512  0.185403  0.810643  1
  Nd  Nd2  1  0.189442  0.810643  0.185403  1
  Nd  Nd3  1  0.814512  0.810643  0.185403  1
  Nd  Nd4  1  0.189442  0.185403  0.810643  1
  Tm  Tm5  1  0.601308  0.602632  0.602632  1
  Tm  Tm6  1  0.600064  0.603730  0.196143  1
  Tm  Tm7  1  0.600064  0.196143  0.603730  1
  Tm  Tm8  1  0.193428  0.602632  0.602632  1
  Tm  Tm9  1  0.065313  0.434687  0.434687  1
  Tm  Tm10  1  0.433869  0.066131  0.066131  1
  Tm  Tm11  1  0.434792  0.064124  0.435810  1
  Tm  Tm12  1  0.065274  0.435810  0.064124  1
  Tm  Tm13  1  0.434792  0.435810  0.064124  1
  Tm  Tm14  1  0.065274  0.064124  0.435810  1
  Tm  Tm15  1  0.191907  0.808093  0.808093  1
  Ag  Ag16  1  0.835091  0.828219  0.828219  1
  Ag  Ag17  1  0.829065  0.829720  0.512151  1
  Ag  Ag18  1  0.829065  0.512151  0.829720  1
  Ag  Ag19  1  0.508473  0.828219  0.828219  1
  Rh  Rh20  1  0.392802  0.393505  0.393505  1
  Rh  Rh21  1  0.390739  0.399044  0.819476  1
  Rh  Rh22  1  0.390739  0.819476  0.399044  1
  Rh  Rh23  1  0.820186  0.393505  0.393505  1
