# generated using pymatgen
data_YEr(PS)2
_symmetry_space_group_name_H-M   'P 1'
_cell_length_a   5.32750300
_cell_length_b   5.38046600
_cell_length_c   16.76707200
_cell_angle_alpha   90.00000000
_cell_angle_beta   90.00000000
_cell_angle_gamma   90.00000000
_symmetry_Int_Tables_number   1
_chemical_formula_structural   YEr(PS)2
_chemical_formula_sum   'Y4 Er4 P8 S8'
_cell_volume   480.61887614
_cell_formula_units_Z   4
loop_
 _symmetry_equiv_pos_site_id
 _symmetry_equiv_pos_as_xyz
  1  'x, y, z'
loop_
 _atom_site_type_symbol
 _atom_site_label
 _atom_site_symmetry_multiplicity
 _atom_site_fract_x
 _atom_site_fract_y
 _atom_site_fract_z
 _atom_site_occupancy
  Y  Y0  1  0.250000  0.484068  0.362449  1
  Y  Y1  1  0.250000  0.984068  0.137551  1
  Y  Y2  1  0.750000  0.515932  0.637551  1
  Y  Y3  1  0.750000  0.015932  0.862449  1
  Er  Er4  1  0.250000  0.014719  0.646298  1
  Er  Er5  1  0.250000  0.514719  0.853702  1
  Er  Er6  1  0.750000  0.985281  0.353702  1
  Er  Er7  1  0.750000  0.485281  0.146298  1
  P  P8  1  0.035715  0.295450  0.997177  1
  P  P9  1  0.464285  0.795450  0.502823  1
  P  P10  1  0.535715  0.704550  0.002823  1
  P  P11  1  0.964285  0.204550  0.497177  1
  P  P12  1  0.964285  0.704550  0.002823  1
  P  P13  1  0.535715  0.204550  0.497177  1
  P  P14  1  0.464285  0.295450  0.997177  1
  P  P15  1  0.035715  0.795450  0.502823  1
  S  S16  1  0.250000  0.484765  0.188593  1
  S  S17  1  0.250000  0.984765  0.311407  1
  S  S18  1  0.750000  0.515235  0.811407  1
  S  S19  1  0.750000  0.015235  0.688593  1
  S  S20  1  0.250000  0.011080  0.815588  1
  S  S21  1  0.250000  0.511080  0.684412  1
  S  S22  1  0.750000  0.988920  0.184412  1
  S  S23  1  0.750000  0.488920  0.315588  1
