# generated using pymatgen
data_Pr3PaIn2Rh3
_symmetry_space_group_name_H-M   'P 1'
_cell_length_a   7.56258798
_cell_length_b   7.56258823
_cell_length_c   4.40480100
_cell_angle_alpha   90.00000000
_cell_angle_beta   90.00000000
_cell_angle_gamma   120.76603188
_symmetry_Int_Tables_number   1
_chemical_formula_structural   Pr3PaIn2Rh3
_chemical_formula_sum   'Pr3 Pa1 In2 Rh3'
_cell_volume   216.46787649
_cell_formula_units_Z   1
loop_
 _symmetry_equiv_pos_site_id
 _symmetry_equiv_pos_as_xyz
  1  'x, y, z'
loop_
 _atom_site_type_symbol
 _atom_site_label
 _atom_site_symmetry_multiplicity
 _atom_site_fract_x
 _atom_site_fract_y
 _atom_site_fract_z
 _atom_site_occupancy
  Pr  Pr0  1  0.028515  0.592216  0.500000  1
  Pr  Pr1  1  0.374959  0.374959  0.500000  1
  Pr  Pr2  1  0.592216  0.028515  0.500000  1
  Pa  Pa3  1  0.730592  0.730592  0.000000  1
  In  In4  1  0.997674  0.249032  0.000000  1
  In  In5  1  0.249032  0.997674  0.000000  1
  Rh  Rh6  1  0.374857  0.680915  0.000000  1
  Rh  Rh7  1  0.971240  0.971240  0.500000  1
  Rh  Rh8  1  0.680915  0.374857  0.000000  1
