# generated using pymatgen
data_Y4PaPd8Pt7
_symmetry_space_group_name_H-M   'P 1'
_cell_length_a   4.14936900
_cell_length_b   4.15113800
_cell_length_c   20.66849500
_cell_angle_alpha   90.00000000
_cell_angle_beta   90.00000000
_cell_angle_gamma   90.00000000
_symmetry_Int_Tables_number   1
_chemical_formula_structural   Y4PaPd8Pt7
_chemical_formula_sum   'Y4 Pa1 Pd8 Pt7'
_cell_volume   356.00662784
_cell_formula_units_Z   1
loop_
 _symmetry_equiv_pos_site_id
 _symmetry_equiv_pos_as_xyz
  1  'x, y, z'
loop_
 _atom_site_type_symbol
 _atom_site_label
 _atom_site_symmetry_multiplicity
 _atom_site_fract_x
 _atom_site_fract_y
 _atom_site_fract_z
 _atom_site_occupancy
  Y  Y0  1  0.000000  0.000000  0.203559  1
  Y  Y1  1  0.000000  0.000000  0.400023  1
  Y  Y2  1  0.000000  0.000000  0.599694  1
  Y  Y3  1  0.000000  0.000000  0.796456  1
  Pa  Pa4  1  0.000000  0.000000  0.000011  1
  Pd  Pd5  1  0.500000  0.500000  0.198463  1
  Pd  Pd6  1  0.500000  0.500000  0.399708  1
  Pd  Pd7  1  0.500000  0.500000  0.600382  1
  Pd  Pd8  1  0.500000  0.500000  0.801539  1
  Pd  Pd9  1  0.500000  0.000000  0.500111  1
  Pd  Pd10  1  0.000000  0.500000  0.500073  1
  Pd  Pd11  1  0.000000  0.500000  0.700289  1
  Pd  Pd12  1  0.000000  0.500000  0.902580  1
  Pt  Pt13  1  0.500000  0.500000  0.999876  1
  Pt  Pt14  1  0.500000  0.000000  0.097211  1
  Pt  Pt15  1  0.500000  0.000000  0.300022  1
  Pt  Pt16  1  0.500000  0.000000  0.700141  1
  Pt  Pt17  1  0.500000  0.000000  0.902678  1
  Pt  Pt18  1  0.000000  0.500000  0.097280  1
  Pt  Pt19  1  0.000000  0.500000  0.299905  1
