# generated using pymatgen
data_Ho4Lu4MoOs3C8
_symmetry_space_group_name_H-M   'P 1'
_cell_length_a   5.03348400
_cell_length_b   6.50338281
_cell_length_c   9.67624010
_cell_angle_alpha   89.64700347
_cell_angle_beta   90.00000000
_cell_angle_gamma   90.00000000
_symmetry_Int_Tables_number   1
_chemical_formula_structural   Ho4Lu4MoOs3C8
_chemical_formula_sum   'Ho4 Lu4 Mo1 Os3 C8'
_cell_volume   316.74254688
_cell_formula_units_Z   1
loop_
 _symmetry_equiv_pos_site_id
 _symmetry_equiv_pos_as_xyz
  1  'x, y, z'
loop_
 _atom_site_type_symbol
 _atom_site_label
 _atom_site_symmetry_multiplicity
 _atom_site_fract_x
 _atom_site_fract_y
 _atom_site_fract_z
 _atom_site_occupancy
  Ho  Ho0  1  0.250000  0.534856  0.212474  1
  Ho  Ho1  1  0.750000  0.464036  0.782891  1
  Ho  Ho2  1  0.750000  0.968070  0.713879  1
  Ho  Ho3  1  0.250000  0.032956  0.287854  1
  Lu  Lu4  1  0.250000  0.673009  0.556319  1
  Lu  Lu5  1  0.750000  0.328347  0.442883  1
  Lu  Lu6  1  0.750000  0.830344  0.057328  1
  Lu  Lu7  1  0.250000  0.173879  0.942566  1
  Mo  Mo8  1  0.250000  0.718031  0.869708  1
  Os  Os9  1  0.750000  0.282063  0.133353  1
  Os  Os10  1  0.750000  0.780258  0.366007  1
  Os  Os11  1  0.250000  0.220137  0.630462  1
  C  C12  1  0.250000  0.447453  0.760048  1
  C  C13  1  0.750000  0.547203  0.241018  1
  C  C14  1  0.750000  0.048495  0.260392  1
  C  C15  1  0.250000  0.952430  0.738372  1
  C  C16  1  0.250000  0.831862  0.058345  1
  C  C17  1  0.750000  0.168683  0.947825  1
  C  C18  1  0.750000  0.667123  0.553025  1
  C  C19  1  0.250000  0.330768  0.445250  1
