# generated using pymatgen
data_Zr6Nb4Ga6C
_symmetry_space_group_name_H-M   'P 1'
_cell_length_a   8.04910300
_cell_length_b   8.04910166
_cell_length_c   5.45604100
_cell_angle_alpha   90.00000000
_cell_angle_beta   90.00000000
_cell_angle_gamma   119.99999316
_symmetry_Int_Tables_number   1
_chemical_formula_structural   Zr6Nb4Ga6C
_chemical_formula_sum   'Zr6 Nb4 Ga6 C1'
_cell_volume   306.12809189
_cell_formula_units_Z   1
loop_
 _symmetry_equiv_pos_site_id
 _symmetry_equiv_pos_as_xyz
  1  'x, y, z'
loop_
 _atom_site_type_symbol
 _atom_site_label
 _atom_site_symmetry_multiplicity
 _atom_site_fract_x
 _atom_site_fract_y
 _atom_site_fract_z
 _atom_site_occupancy
  Zr  Zr0  1  0.000000  0.759392  0.257248  1
  Zr  Zr1  1  0.240608  0.240608  0.257248  1
  Zr  Zr2  1  0.759392  0.000000  0.257248  1
  Zr  Zr3  1  0.000000  0.240608  0.742752  1
  Zr  Zr4  1  0.759392  0.759392  0.742752  1
  Zr  Zr5  1  0.240608  0.000000  0.742752  1
  Nb  Nb6  1  0.333333  0.666667  0.000000  1
  Nb  Nb7  1  0.666667  0.333333  0.000000  1
  Nb  Nb8  1  0.666667  0.333333  0.500000  1
  Nb  Nb9  1  0.333333  0.666667  0.500000  1
  Ga  Ga10  1  0.000000  0.401920  0.245411  1
  Ga  Ga11  1  0.598080  0.598080  0.245411  1
  Ga  Ga12  1  0.401920  0.000000  0.245411  1
  Ga  Ga13  1  0.000000  0.598080  0.754589  1
  Ga  Ga14  1  0.401920  0.401920  0.754589  1
  Ga  Ga15  1  0.598080  0.000000  0.754589  1
  C  C16  1  0.000000  0.000000  0.500000  1
