# generated using pymatgen
data_Ac2Al3Sn
_symmetry_space_group_name_H-M   'P 1'
_cell_length_a   4.71404500
_cell_length_b   4.57682600
_cell_length_c   7.91798900
_cell_angle_alpha   90.00000000
_cell_angle_beta   90.00000000
_cell_angle_gamma   90.00000000
_symmetry_Int_Tables_number   1
_chemical_formula_structural   Ac2Al3Sn
_chemical_formula_sum   'Ac2 Al3 Sn1'
_cell_volume   170.83349262
_cell_formula_units_Z   1
loop_
 _symmetry_equiv_pos_site_id
 _symmetry_equiv_pos_as_xyz
  1  'x, y, z'
loop_
 _atom_site_type_symbol
 _atom_site_label
 _atom_site_symmetry_multiplicity
 _atom_site_fract_x
 _atom_site_fract_y
 _atom_site_fract_z
 _atom_site_occupancy
  Ac  Ac0  1  0.000000  0.500000  0.997173  1
  Ac  Ac1  1  0.000000  0.000000  0.503972  1
  Al  Al2  1  0.500000  0.000000  0.830249  1
  Al  Al3  1  0.500000  0.000000  0.153995  1
  Al  Al4  1  0.500000  0.500000  0.677872  1
  Sn  Sn5  1  0.500000  0.500000  0.336739  1
