# generated using pymatgen
data_Yb4InOs2RhO12
_symmetry_space_group_name_H-M   'P 1'
_cell_length_a   5.37231861
_cell_length_b   5.68780914
_cell_length_c   9.46732684
_cell_angle_alpha   90.53770195
_cell_angle_beta   124.96888640
_cell_angle_gamma   89.93821405
_symmetry_Int_Tables_number   1
_chemical_formula_structural   Yb4InOs2RhO12
_chemical_formula_sum   'Yb4 In1 Os2 Rh1 O12'
_cell_volume   237.04925760
_cell_formula_units_Z   1
loop_
 _symmetry_equiv_pos_site_id
 _symmetry_equiv_pos_as_xyz
  1  'x, y, z'
loop_
 _atom_site_type_symbol
 _atom_site_label
 _atom_site_symmetry_multiplicity
 _atom_site_fract_x
 _atom_site_fract_y
 _atom_site_fract_z
 _atom_site_occupancy
  Yb  Yb0  1  0.217621  0.432344  0.742496  1
  Yb  Yb1  1  0.241235  0.073349  0.260780  1
  Yb  Yb2  1  0.782379  0.567656  0.257504  1
  Yb  Yb3  1  0.758765  0.926651  0.739220  1
  In  In4  1  0.500000  0.000000  0.000000  1
  Os  Os5  1  0.000000  0.500000  0.000000  1
  Os  Os6  1  0.000000  0.000000  0.500000  1
  Rh  Rh7  1  0.500000  0.500000  0.500000  1
  O  O8  1  0.747608  0.189813  0.550584  1
  O  O9  1  0.762076  0.317052  0.060201  1
  O  O10  1  0.252392  0.810187  0.449416  1
  O  O11  1  0.237924  0.682948  0.939799  1
  O  O12  1  0.872727  0.706618  0.556451  1
  O  O13  1  0.891286  0.791720  0.066152  1
  O  O14  1  0.127273  0.293382  0.443549  1
  O  O15  1  0.108714  0.208280  0.933848  1
  O  O16  1  0.354256  0.042014  0.739512  1
  O  O17  1  0.359495  0.460031  0.243185  1
  O  O18  1  0.645744  0.957986  0.260488  1
  O  O19  1  0.640505  0.539969  0.756815  1
