# generated using pymatgen
data_Rb(Cd3Au2)2
_symmetry_space_group_name_H-M   'P 1'
_cell_length_a   8.04455900
_cell_length_b   8.04455835
_cell_length_c   4.69379600
_cell_angle_alpha   90.00000000
_cell_angle_beta   90.00000000
_cell_angle_gamma   119.99999854
_symmetry_Int_Tables_number   1
_chemical_formula_structural   Rb(Cd3Au2)2
_chemical_formula_sum   'Rb1 Cd6 Au4'
_cell_volume   263.06271389
_cell_formula_units_Z   1
loop_
 _symmetry_equiv_pos_site_id
 _symmetry_equiv_pos_as_xyz
  1  'x, y, z'
loop_
 _atom_site_type_symbol
 _atom_site_label
 _atom_site_symmetry_multiplicity
 _atom_site_fract_x
 _atom_site_fract_y
 _atom_site_fract_z
 _atom_site_occupancy
  Rb  Rb0  1  0.000000  0.000000  0.000000  1
  Cd  Cd1  1  0.535348  0.464652  0.000000  1
  Cd  Cd2  1  0.201410  0.798590  0.500000  1
  Cd  Cd3  1  0.535348  0.070694  0.000000  1
  Cd  Cd4  1  0.201410  0.402821  0.500000  1
  Cd  Cd5  1  0.929306  0.464652  0.000000  1
  Cd  Cd6  1  0.597179  0.798590  0.500000  1
  Au  Au7  1  0.791795  0.208205  0.500000  1
  Au  Au8  1  0.333333  0.666667  0.000000  1
  Au  Au9  1  0.791795  0.583589  0.500000  1
  Au  Au10  1  0.416411  0.208205  0.500000  1
