# generated using pymatgen
data_Lu2Al8Co3Si
_symmetry_space_group_name_H-M   'P 1'
_cell_length_a   7.30586501
_cell_length_b   7.30586594
_cell_length_c   9.09329700
_cell_angle_alpha   90.00000000
_cell_angle_beta   90.00000000
_cell_angle_gamma   119.24268067
_symmetry_Int_Tables_number   1
_chemical_formula_structural   Lu2Al8Co3Si
_chemical_formula_sum   'Lu4 Al16 Co6 Si2'
_cell_volume   423.50567273
_cell_formula_units_Z   2
loop_
 _symmetry_equiv_pos_site_id
 _symmetry_equiv_pos_as_xyz
  1  'x, y, z'
loop_
 _atom_site_type_symbol
 _atom_site_label
 _atom_site_symmetry_multiplicity
 _atom_site_fract_x
 _atom_site_fract_y
 _atom_site_fract_z
 _atom_site_occupancy
  Lu  Lu0  1  0.993596  0.677592  0.250000  1
  Lu  Lu1  1  0.006404  0.322408  0.750000  1
  Lu  Lu2  1  0.677592  0.993596  0.250000  1
  Lu  Lu3  1  0.322408  0.006404  0.750000  1
  Al  Al4  1  0.333633  0.333633  0.547537  1
  Al  Al5  1  0.666367  0.666367  0.047537  1
  Al  Al6  1  0.333633  0.333633  0.952463  1
  Al  Al7  1  0.666367  0.666367  0.452463  1
  Al  Al8  1  0.336546  0.556424  0.250000  1
  Al  Al9  1  0.663454  0.443576  0.750000  1
  Al  Al10  1  0.556424  0.336546  0.250000  1
  Al  Al11  1  0.443576  0.663454  0.750000  1
  Al  Al12  1  0.998059  0.336459  0.073665  1
  Al  Al13  1  0.001941  0.663541  0.573665  1
  Al  Al14  1  0.336459  0.998059  0.426335  1
  Al  Al15  1  0.663541  0.001941  0.926335  1
  Al  Al16  1  0.001941  0.663541  0.926335  1
  Al  Al17  1  0.998059  0.336459  0.426335  1
  Al  Al18  1  0.663541  0.001941  0.573665  1
  Al  Al19  1  0.336459  0.998059  0.073665  1
  Co  Co20  1  0.000000  0.000000  0.000000  1
  Co  Co21  1  0.000000  0.000000  0.500000  1
  Co  Co22  1  0.671415  0.328585  0.000000  1
  Co  Co23  1  0.328585  0.671415  0.500000  1
  Co  Co24  1  0.328585  0.671415  0.000000  1
  Co  Co25  1  0.671415  0.328585  0.500000  1
  Si  Si26  1  0.122558  0.122558  0.250000  1
  Si  Si27  1  0.877442  0.877442  0.750000  1
