# generated using pymatgen
data_Ba7Ca4Ga(TcN4)4
_symmetry_space_group_name_H-M   'P 1'
_cell_length_a   10.76273143
_cell_length_b   10.50692856
_cell_length_c   8.03775134
_cell_angle_alpha   70.56210300
_cell_angle_beta   66.11804085
_cell_angle_gamma   44.38671301
_symmetry_Int_Tables_number   1
_chemical_formula_structural   Ba7Ca4Ga(TcN4)4
_chemical_formula_sum   'Ba7 Ca4 Ga1 Tc4 N16'
_cell_volume   580.01808841
_cell_formula_units_Z   1
loop_
 _symmetry_equiv_pos_site_id
 _symmetry_equiv_pos_as_xyz
  1  'x, y, z'
loop_
 _atom_site_type_symbol
 _atom_site_label
 _atom_site_symmetry_multiplicity
 _atom_site_fract_x
 _atom_site_fract_y
 _atom_site_fract_z
 _atom_site_occupancy
  Ba  Ba0  1  0.925908  0.574092  0.574092  1
  Ba  Ba1  1  0.319781  0.680219  0.680219  1
  Ba  Ba2  1  0.127235  0.105054  0.891978  1
  Ba  Ba3  1  0.139227  0.129864  0.363700  1
  Ba  Ba4  1  0.367210  0.363700  0.129864  1
  Ba  Ba5  1  0.679089  0.320911  0.320911  1
  Ba  Ba6  1  0.875733  0.891978  0.105054  1
  Ca  Ca7  1  0.359591  0.308997  0.665518  1
  Ca  Ca8  1  0.860950  0.934298  0.628714  1
  Ca  Ca9  1  0.665894  0.665518  0.308997  1
  Ca  Ca10  1  0.576038  0.628714  0.934298  1
  Ga  Ga11  1  0.514512  0.985488  0.985488  1
  Tc  Tc12  1  0.489157  0.004726  0.479989  1
  Tc  Tc13  1  0.026127  0.479989  0.004726  1
  Tc  Tc14  1  0.759626  0.259157  0.747568  1
  Tc  Tc15  1  0.233651  0.747568  0.259157  1
  N  N16  1  0.045938  0.624787  0.813432  1
  N  N17  1  0.693879  0.312523  0.980633  1
  N  N18  1  0.652198  0.019196  0.475571  1
  N  N19  1  0.515844  0.813432  0.624787  1
  N  N20  1  0.248179  0.564837  0.410161  1
  N  N21  1  0.776822  0.410161  0.564837  1
  N  N22  1  0.984475  0.022184  0.715103  1
  N  N23  1  0.530403  0.978787  0.235883  1
  N  N24  1  0.418561  0.722157  0.270307  1
  N  N25  1  0.976308  0.553175  0.220991  1
  N  N26  1  0.278238  0.715103  0.022184  1
  N  N27  1  0.853036  0.475571  0.019196  1
  N  N28  1  0.254926  0.235883  0.978787  1
  N  N29  1  0.588975  0.270307  0.722157  1
  N  N30  1  0.249526  0.220991  0.553175  1
  N  N31  1  0.012966  0.980633  0.312523  1
