# generated using pymatgen
data_HoEr7(ReBr4)2
_symmetry_space_group_name_H-M   'P 1'
_cell_length_a   8.92903002
_cell_length_b   8.90969830
_cell_length_c   6.56838100
_cell_angle_alpha   89.49596649
_cell_angle_beta   89.34356007
_cell_angle_gamma   89.36022333
_symmetry_Int_Tables_number   1
_chemical_formula_structural   HoEr7(ReBr4)2
_chemical_formula_sum   'Ho1 Er7 Re2 Br8'
_cell_volume   522.46080405
_cell_formula_units_Z   1
loop_
 _symmetry_equiv_pos_site_id
 _symmetry_equiv_pos_as_xyz
  1  'x, y, z'
loop_
 _atom_site_type_symbol
 _atom_site_label
 _atom_site_symmetry_multiplicity
 _atom_site_fract_x
 _atom_site_fract_y
 _atom_site_fract_z
 _atom_site_occupancy
  Ho  Ho0  1  0.249547  0.900954  0.011651  1
  Er  Er1  1  0.752619  0.098453  0.987313  1
  Er  Er2  1  0.097825  0.752204  0.486728  1
  Er  Er3  1  0.901163  0.248175  0.512770  1
  Er  Er4  1  0.752929  0.903163  0.508021  1
  Er  Er5  1  0.246372  0.097527  0.491157  1
  Er  Er6  1  0.096487  0.247190  0.991373  1
  Er  Er7  1  0.903217  0.753079  0.008216  1
  Re  Re8  1  0.994433  0.005765  0.249914  1
  Re  Re9  1  0.005386  0.994478  0.749407  1
  Br  Br10  1  0.420114  0.816577  0.411579  1
  Br  Br11  1  0.579810  0.182909  0.591024  1
  Br  Br12  1  0.182257  0.578704  0.091301  1
  Br  Br13  1  0.816675  0.420568  0.908888  1
  Br  Br14  1  0.415440  0.192540  0.093462  1
  Br  Br15  1  0.586095  0.807408  0.907119  1
  Br  Br16  1  0.808646  0.584303  0.406395  1
  Br  Br17  1  0.190986  0.416002  0.593685  1
