# generated using pymatgen
data_KRbZrSe3
_symmetry_space_group_name_H-M   'P 1'
_cell_length_a   7.75381696
_cell_length_b   7.94180436
_cell_length_c   7.20748000
_cell_angle_alpha   90.00000000
_cell_angle_beta   90.00000000
_cell_angle_gamma   109.69423162
_symmetry_Int_Tables_number   1
_chemical_formula_structural   KRbZrSe3
_chemical_formula_sum   'K2 Rb2 Zr2 Se6'
_cell_volume   417.86939553
_cell_formula_units_Z   2
loop_
 _symmetry_equiv_pos_site_id
 _symmetry_equiv_pos_as_xyz
  1  'x, y, z'
loop_
 _atom_site_type_symbol
 _atom_site_label
 _atom_site_symmetry_multiplicity
 _atom_site_fract_x
 _atom_site_fract_y
 _atom_site_fract_z
 _atom_site_occupancy
  K  K0  1  0.501263  0.823854  0.250000  1
  K  K1  1  0.498737  0.176146  0.750000  1
  Rb  Rb2  1  0.173736  0.492614  0.750000  1
  Rb  Rb3  1  0.826264  0.507386  0.250000  1
  Zr  Zr4  1  0.082879  0.090280  0.250000  1
  Zr  Zr5  1  0.917121  0.909720  0.750000  1
  Se  Se6  1  0.658960  0.620696  0.750000  1
  Se  Se7  1  0.341040  0.379304  0.250000  1
  Se  Se8  1  0.841300  0.125320  0.499790  1
  Se  Se9  1  0.841300  0.125320  0.000210  1
  Se  Se10  1  0.158700  0.874680  0.500210  1
  Se  Se11  1  0.158700  0.874680  0.999790  1
