# generated using pymatgen
data_Tb16In4Ru3Rh
_symmetry_space_group_name_H-M   'P 1'
_cell_length_a   9.65950580
_cell_length_b   9.68164360
_cell_length_c   9.68227101
_cell_angle_alpha   60.00288275
_cell_angle_beta   59.92620003
_cell_angle_gamma   59.92466932
_symmetry_Int_Tables_number   1
_chemical_formula_structural   Tb16In4Ru3Rh
_chemical_formula_sum   'Tb16 In4 Ru3 Rh1'
_cell_volume   639.56587141
_cell_formula_units_Z   1
loop_
 _symmetry_equiv_pos_site_id
 _symmetry_equiv_pos_as_xyz
  1  'x, y, z'
loop_
 _atom_site_type_symbol
 _atom_site_label
 _atom_site_symmetry_multiplicity
 _atom_site_fract_x
 _atom_site_fract_y
 _atom_site_fract_z
 _atom_site_occupancy
  Tb  Tb0  1  0.809555  0.809253  0.190481  1
  Tb  Tb1  1  0.809580  0.190550  0.809273  1
  Tb  Tb2  1  0.188073  0.192994  0.809462  1
  Tb  Tb3  1  0.652114  0.047370  0.650373  1
  Tb  Tb4  1  0.060485  0.060034  0.439723  1
  Tb  Tb5  1  0.440705  0.437022  0.061149  1
  Tb  Tb6  1  0.652096  0.650161  0.650352  1
  Tb  Tb7  1  0.809550  0.190696  0.190509  1
  Tb  Tb8  1  0.188044  0.809478  0.809468  1
  Tb  Tb9  1  0.046161  0.651231  0.651416  1
  Tb  Tb10  1  0.440697  0.061132  0.061151  1
  Tb  Tb11  1  0.440739  0.061119  0.437029  1
  Tb  Tb12  1  0.060505  0.439712  0.060063  1
  Tb  Tb13  1  0.652216  0.650295  0.047237  1
  Tb  Tb14  1  0.188180  0.809445  0.192929  1
  Tb  Tb15  1  0.060484  0.439760  0.439730  1
  In  In16  1  0.418183  0.418213  0.418218  1
  In  In17  1  0.418201  0.418200  0.745403  1
  In  In18  1  0.418180  0.745403  0.418182  1
  In  In19  1  0.745781  0.418081  0.418056  1
  Ru  Ru20  1  0.858935  0.422323  0.859370  1
  Ru  Ru21  1  0.858921  0.859372  0.859356  1
  Ru  Ru22  1  0.858933  0.859377  0.422312  1
  Rh  Rh23  1  0.423680  0.858780  0.858759  1
