# generated using pymatgen
data_CeEu2Ho(MoO6)2
_symmetry_space_group_name_H-M   'P 1'
_cell_length_a   5.48273211
_cell_length_b   10.12843038
_cell_length_c   10.12843125
_cell_angle_alpha   67.80662817
_cell_angle_beta   75.06588844
_cell_angle_gamma   75.06588576
_symmetry_Int_Tables_number   1
_chemical_formula_structural   CeEu2Ho(MoO6)2
_chemical_formula_sum   'Ce2 Eu4 Ho2 Mo4 O24'
_cell_volume   495.03729078
_cell_formula_units_Z   2
loop_
 _symmetry_equiv_pos_site_id
 _symmetry_equiv_pos_as_xyz
  1  'x, y, z'
loop_
 _atom_site_type_symbol
 _atom_site_label
 _atom_site_symmetry_multiplicity
 _atom_site_fract_x
 _atom_site_fract_y
 _atom_site_fract_z
 _atom_site_occupancy
  Ce  Ce0  1  0.250000  0.888567  0.111433  1
  Ce  Ce1  1  0.750000  0.111433  0.888567  1
  Eu  Eu2  1  0.388656  0.948924  0.708923  1
  Eu  Eu3  1  0.611344  0.051076  0.291077  1
  Eu  Eu4  1  0.111344  0.291077  0.051076  1
  Eu  Eu5  1  0.888656  0.708923  0.948924  1
  Ho  Ho6  1  0.250000  0.367224  0.632776  1
  Ho  Ho7  1  0.750000  0.632776  0.367224  1
  Mo  Mo8  1  0.065511  0.790583  0.513105  1
  Mo  Mo9  1  0.934489  0.209417  0.486895  1
  Mo  Mo10  1  0.434489  0.486895  0.209417  1
  Mo  Mo11  1  0.565511  0.513105  0.790583  1
  O  O12  1  0.075696  0.171115  0.692734  1
  O  O13  1  0.924304  0.828885  0.307266  1
  O  O14  1  0.424304  0.307266  0.828885  1
  O  O15  1  0.575696  0.692734  0.171115  1
  O  O16  1  0.370026  0.824266  0.384848  1
  O  O17  1  0.629974  0.175734  0.615152  1
  O  O18  1  0.129974  0.615152  0.175734  1
  O  O19  1  0.870026  0.384848  0.824266  1
  O  O20  1  0.141187  0.780831  0.680886  1
  O  O21  1  0.858813  0.219169  0.319114  1
  O  O22  1  0.358813  0.319114  0.219169  1
  O  O23  1  0.641187  0.680886  0.780831  1
  O  O24  1  0.225962  0.071364  0.479731  1
  O  O25  1  0.774038  0.928636  0.520269  1
  O  O26  1  0.274038  0.520269  0.928636  1
  O  O27  1  0.725962  0.479731  0.071364  1
  O  O28  1  0.015727  0.607792  0.547101  1
  O  O29  1  0.984273  0.392208  0.452899  1
  O  O30  1  0.484273  0.452899  0.392208  1
  O  O31  1  0.515727  0.547101  0.607792  1
  O  O32  1  0.575281  0.930015  0.899510  1
  O  O33  1  0.424719  0.069985  0.100490  1
  O  O34  1  0.924719  0.100490  0.069985  1
  O  O35  1  0.075281  0.899510  0.930015  1
