# generated using pymatgen
data_Hf4Cu3Si4Ir
_symmetry_space_group_name_H-M   'P 1'
_cell_length_a   3.86369700
_cell_length_b   6.49458923
_cell_length_c   7.37626490
_cell_angle_alpha   88.82572159
_cell_angle_beta   90.00000000
_cell_angle_gamma   90.00000000
_symmetry_Int_Tables_number   1
_chemical_formula_structural   Hf4Cu3Si4Ir
_chemical_formula_sum   'Hf4 Cu3 Si4 Ir1'
_cell_volume   185.05466404
_cell_formula_units_Z   1
loop_
 _symmetry_equiv_pos_site_id
 _symmetry_equiv_pos_as_xyz
  1  'x, y, z'
loop_
 _atom_site_type_symbol
 _atom_site_label
 _atom_site_symmetry_multiplicity
 _atom_site_fract_x
 _atom_site_fract_y
 _atom_site_fract_z
 _atom_site_occupancy
  Hf  Hf0  1  0.250000  0.521670  0.683978  1
  Hf  Hf1  1  0.750000  0.477328  0.314016  1
  Hf  Hf2  1  0.250000  0.013089  0.818361  1
  Hf  Hf3  1  0.750000  0.983133  0.185995  1
  Cu  Cu4  1  0.250000  0.153069  0.436411  1
  Cu  Cu5  1  0.750000  0.337949  0.927390  1
  Cu  Cu6  1  0.250000  0.663787  0.071296  1
  Si  Si7  1  0.250000  0.275659  0.111501  1
  Si  Si8  1  0.750000  0.723560  0.888977  1
  Si  Si9  1  0.250000  0.763551  0.382408  1
  Si  Si10  1  0.750000  0.230692  0.617633  1
  Ir  Ir11  1  0.750000  0.856513  0.562033  1
