# generated using pymatgen
data_SbMo(SeO3)4
_symmetry_space_group_name_H-M   'P 1'
_cell_length_a   8.39985200
_cell_length_b   8.32998061
_cell_length_c   8.38531255
_cell_angle_alpha   89.55635374
_cell_angle_beta   90.00000000
_cell_angle_gamma   90.00000000
_symmetry_Int_Tables_number   1
_chemical_formula_structural   SbMo(SeO3)4
_chemical_formula_sum   'Sb2 Mo2 Se8 O24'
_cell_volume   586.70779771
_cell_formula_units_Z   2
loop_
 _symmetry_equiv_pos_site_id
 _symmetry_equiv_pos_as_xyz
  1  'x, y, z'
loop_
 _atom_site_type_symbol
 _atom_site_label
 _atom_site_symmetry_multiplicity
 _atom_site_fract_x
 _atom_site_fract_y
 _atom_site_fract_z
 _atom_site_occupancy
  Sb  Sb0  1  0.000000  0.000000  0.500000  1
  Sb  Sb1  1  0.500000  0.000000  0.000000  1
  Mo  Mo2  1  0.000000  0.500000  0.000000  1
  Mo  Mo3  1  0.500000  0.500000  0.500000  1
  Se  Se4  1  0.336409  0.667397  0.162259  1
  Se  Se5  1  0.836409  0.332603  0.337741  1
  Se  Se6  1  0.674858  0.833412  0.674203  1
  Se  Se7  1  0.174858  0.166588  0.825797  1
  Se  Se8  1  0.663591  0.332603  0.837741  1
  Se  Se9  1  0.163591  0.667397  0.662259  1
  Se  Se10  1  0.325142  0.166588  0.325797  1
  Se  Se11  1  0.825142  0.833412  0.174203  1
  O  O12  1  0.250118  0.544343  0.026213  1
  O  O13  1  0.750118  0.455657  0.473787  1
  O  O14  1  0.763345  0.978355  0.544953  1
  O  O15  1  0.263345  0.021645  0.955047  1
  O  O16  1  0.544119  0.974348  0.763480  1
  O  O17  1  0.470607  0.540893  0.249060  1
  O  O18  1  0.970607  0.459107  0.250940  1
  O  O19  1  0.044119  0.025652  0.736520  1
  O  O20  1  0.977454  0.236266  0.473824  1
  O  O21  1  0.546928  0.751661  0.543115  1
  O  O22  1  0.477454  0.763734  0.026176  1
  O  O23  1  0.046928  0.248339  0.956885  1
  O  O24  1  0.749882  0.455657  0.973787  1
  O  O25  1  0.249882  0.544343  0.526213  1
  O  O26  1  0.236655  0.021645  0.455047  1
  O  O27  1  0.736655  0.978355  0.044953  1
  O  O28  1  0.455881  0.025652  0.236520  1
  O  O29  1  0.529393  0.459107  0.750940  1
  O  O30  1  0.029393  0.540893  0.749060  1
  O  O31  1  0.955881  0.974348  0.263480  1
  O  O32  1  0.022546  0.763734  0.526176  1
  O  O33  1  0.453072  0.248339  0.456885  1
  O  O34  1  0.522546  0.236266  0.973824  1
  O  O35  1  0.953072  0.751661  0.043115  1
