# generated using pymatgen
data_CaTh2(InRh)3
_symmetry_space_group_name_H-M   'P 1'
_cell_length_a   7.56848100
_cell_length_b   7.80150233
_cell_length_c   3.95866500
_cell_angle_alpha   90.00000000
_cell_angle_beta   90.00000000
_cell_angle_gamma   119.01677541
_symmetry_Int_Tables_number   1
_chemical_formula_structural   CaTh2(InRh)3
_chemical_formula_sum   'Ca1 Th2 In3 Rh3'
_cell_volume   204.40168414
_cell_formula_units_Z   1
loop_
 _symmetry_equiv_pos_site_id
 _symmetry_equiv_pos_as_xyz
  1  'x, y, z'
loop_
 _atom_site_type_symbol
 _atom_site_label
 _atom_site_symmetry_multiplicity
 _atom_site_fract_x
 _atom_site_fract_y
 _atom_site_fract_z
 _atom_site_occupancy
  Ca  Ca0  1  0.405939  0.000000  0.500000  1
  Th  Th1  1  0.001660  0.414735  0.500000  1
  Th  Th2  1  0.586925  0.585265  0.500000  1
  In  In3  1  0.251155  0.236354  0.000000  1
  In  In4  1  0.014801  0.763646  0.000000  1
  In  In5  1  0.731197  0.000000  0.000000  1
  Rh  Rh6  1  0.329166  0.634229  0.000000  1
  Rh  Rh7  1  0.984217  0.000000  0.500000  1
  Rh  Rh8  1  0.694938  0.365771  0.000000  1
