# generated using pymatgen
data_ZrI31
_symmetry_space_group_name_H-M   'P 1'
_cell_length_a   9.06740700
_cell_length_b   10.57322472
_cell_length_c   20.69655400
_cell_angle_alpha   84.98879561
_cell_angle_beta   90.00000000
_cell_angle_gamma   90.00000000
_symmetry_Int_Tables_number   1
_chemical_formula_structural   ZrI31
_chemical_formula_sum   'Zr1 I31'
_cell_volume   1976.63008388
_cell_formula_units_Z   1
loop_
 _symmetry_equiv_pos_site_id
 _symmetry_equiv_pos_as_xyz
  1  'x, y, z'
loop_
 _atom_site_type_symbol
 _atom_site_label
 _atom_site_symmetry_multiplicity
 _atom_site_fract_x
 _atom_site_fract_y
 _atom_site_fract_z
 _atom_site_occupancy
  Zr  Zr0  1  0.750000  0.848461  0.160627  1
  I  I1  1  0.750000  0.416067  0.363733  1
  I  I2  1  0.250000  0.689952  0.647836  1
  I  I3  1  0.250000  0.123308  0.843072  1
  I  I4  1  0.250000  0.303868  0.158527  1
  I  I5  1  0.750000  0.008518  0.738842  1
  I  I6  1  0.750000  0.862511  0.290635  1
  I  I7  1  0.509464  0.721899  0.124765  1
  I  I8  1  0.250000  0.534429  0.330147  1
  I  I9  1  0.502096  0.826921  0.582736  1
  I  I10  1  0.250000  0.706950  0.800874  1
  I  I11  1  0.250000  0.065761  0.424196  1
  I  I12  1  0.750000  0.499571  0.495197  1
  I  I13  1  0.502868  0.257347  0.896365  1
  I  I14  1  0.250000  0.695486  0.936957  1
  I  I15  1  0.750000  0.360931  0.229062  1
  I  I16  1  0.494353  0.232632  0.395622  1
  I  I17  1  0.750000  0.265307  0.671633  1
  I  I18  1  0.250000  0.801638  0.306022  1
  I  I19  1  0.005647  0.232632  0.395622  1
  I  I20  1  0.750000  0.957989  0.518241  1
  I  I21  1  0.990536  0.721899  0.124765  1
  I  I22  1  0.250000  0.028826  0.209087  1
  I  I23  1  0.750000  0.083672  0.098532  1
  I  I24  1  0.750000  0.742961  0.799935  1
  I  I25  1  0.750000  0.504665  0.734105  1
  I  I26  1  0.250000  0.455119  0.037386  1
  I  I27  1  0.997904  0.826921  0.582736  1
  I  I28  1  0.750000  0.389319  0.949117  1
  I  I29  1  0.250000  0.336385  0.564778  1
  I  I30  1  0.250000  0.240707  0.692480  1
  I  I31  1  0.997132  0.257347  0.896365  1
