# generated using pymatgen
data_Ho8ZnSi12NiPd2
_symmetry_space_group_name_H-M   'P 1'
_cell_length_a   8.06978600
_cell_length_b   8.06978628
_cell_length_c   8.06767400
_cell_angle_alpha   90.00000000
_cell_angle_beta   90.00000000
_cell_angle_gamma   119.99999886
_symmetry_Int_Tables_number   1
_chemical_formula_structural   Ho8ZnSi12NiPd2
_chemical_formula_sum   'Ho8 Zn1 Si12 Ni1 Pd2'
_cell_volume   454.99123287
_cell_formula_units_Z   1
loop_
 _symmetry_equiv_pos_site_id
 _symmetry_equiv_pos_as_xyz
  1  'x, y, z'
loop_
 _atom_site_type_symbol
 _atom_site_label
 _atom_site_symmetry_multiplicity
 _atom_site_fract_x
 _atom_site_fract_y
 _atom_site_fract_z
 _atom_site_occupancy
  Ho  Ho0  1  0.502248  0.004494  0.249456  1
  Ho  Ho1  1  0.500977  0.001955  0.750737  1
  Ho  Ho2  1  0.995506  0.497752  0.249456  1
  Ho  Ho3  1  0.998045  0.499023  0.750737  1
  Ho  Ho4  1  0.502248  0.497752  0.249456  1
  Ho  Ho5  1  0.500977  0.499023  0.750737  1
  Ho  Ho6  1  0.000000  0.000000  0.250129  1
  Ho  Ho7  1  0.000000  0.000000  0.749058  1
  Zn  Zn8  1  0.333333  0.666667  0.005009  1
  Si  Si9  1  0.164268  0.328534  0.999164  1
  Si  Si10  1  0.826580  0.653162  0.000032  1
  Si  Si11  1  0.671466  0.835732  0.999164  1
  Si  Si12  1  0.834485  0.668970  0.500512  1
  Si  Si13  1  0.346838  0.173420  0.000032  1
  Si  Si14  1  0.166052  0.332103  0.499305  1
  Si  Si15  1  0.164268  0.835732  0.999164  1
  Si  Si16  1  0.331030  0.165515  0.500512  1
  Si  Si17  1  0.826580  0.173420  0.000032  1
  Si  Si18  1  0.667897  0.833948  0.499305  1
  Si  Si19  1  0.834485  0.165515  0.500512  1
  Si  Si20  1  0.166052  0.833948  0.499305  1
  Ni  Ni21  1  0.666667  0.333333  0.998344  1
  Pd  Pd22  1  0.666667  0.333333  0.501381  1
  Pd  Pd23  1  0.333333  0.666667  0.498460  1
