# generated using pymatgen
data_Na5InSe4
_symmetry_space_group_name_H-M   'P 1'
_cell_length_a   9.25929000
_cell_length_b   7.16741746
_cell_length_c   8.22832813
_cell_angle_alpha   88.97158696
_cell_angle_beta   90.00000000
_cell_angle_gamma   90.00000000
_symmetry_Int_Tables_number   1
_chemical_formula_structural   Na5InSe4
_chemical_formula_sum   'Na10 In2 Se8'
_cell_volume   545.98665306
_cell_formula_units_Z   2
loop_
 _symmetry_equiv_pos_site_id
 _symmetry_equiv_pos_as_xyz
  1  'x, y, z'
loop_
 _atom_site_type_symbol
 _atom_site_label
 _atom_site_symmetry_multiplicity
 _atom_site_fract_x
 _atom_site_fract_y
 _atom_site_fract_z
 _atom_site_occupancy
  Na  Na0  1  0.480142  0.346234  0.665226  1
  Na  Na1  1  0.980142  0.653766  0.334774  1
  Na  Na2  1  0.519858  0.653766  0.334774  1
  Na  Na3  1  0.019858  0.346234  0.665226  1
  Na  Na4  1  0.750000  0.022981  0.530897  1
  Na  Na5  1  0.250000  0.977019  0.469103  1
  Na  Na6  1  0.750000  0.331934  0.160854  1
  Na  Na7  1  0.250000  0.668066  0.839146  1
  Na  Na8  1  0.000000  0.000000  0.000000  1
  Na  Na9  1  0.500000  0.000000  0.000000  1
  In  In10  1  0.250000  0.362227  0.176070  1
  In  In11  1  0.750000  0.637773  0.823930  1
  Se  Se12  1  0.250000  0.238204  0.877218  1
  Se  Se13  1  0.750000  0.761796  0.122782  1
  Se  Se14  1  0.982342  0.768279  0.670796  1
  Se  Se15  1  0.482342  0.231721  0.329204  1
  Se  Se16  1  0.017658  0.231721  0.329204  1
  Se  Se17  1  0.517658  0.768279  0.670796  1
  Se  Se18  1  0.750000  0.269314  0.821119  1
  Se  Se19  1  0.250000  0.730686  0.178881  1
