# generated using pymatgen
data_Li4VCo3Ni6As7
_symmetry_space_group_name_H-M   'P 1'
_cell_length_a   9.47553738
_cell_length_b   9.39101574
_cell_length_c   3.69613000
_cell_angle_alpha   90.00000000
_cell_angle_beta   90.00000000
_cell_angle_gamma   119.94895071
_symmetry_Int_Tables_number   1
_chemical_formula_structural   Li4VCo3Ni6As7
_chemical_formula_sum   'Li4 V1 Co3 Ni6 As7'
_cell_volume   284.98202071
_cell_formula_units_Z   1
loop_
 _symmetry_equiv_pos_site_id
 _symmetry_equiv_pos_as_xyz
  1  'x, y, z'
loop_
 _atom_site_type_symbol
 _atom_site_label
 _atom_site_symmetry_multiplicity
 _atom_site_fract_x
 _atom_site_fract_y
 _atom_site_fract_z
 _atom_site_occupancy
  Li  Li0  1  0.446400  0.212391  0.500000  1
  Li  Li1  1  0.787279  0.235759  0.500000  1
  Li  Li2  1  0.335178  0.666834  0.000000  1
  Li  Li3  1  0.998761  0.001821  0.500000  1
  V  V4  1  0.761379  0.555166  0.500000  1
  Co  Co5  1  0.278512  0.377123  0.500000  1
  Co  Co6  1  0.623963  0.898638  0.500000  1
  Co  Co7  1  0.498476  0.453869  0.000000  1
  Ni  Ni8  1  0.102222  0.720561  0.500000  1
  Ni  Ni9  1  0.547751  0.048045  0.000000  1
  Ni  Ni10  1  0.953882  0.500502  0.000000  1
  Ni  Ni11  1  0.719884  0.760080  0.000000  1
  Ni  Ni12  1  0.236548  0.954620  0.000000  1
  Ni  Ni13  1  0.042631  0.280557  0.000000  1
  As  As14  1  0.962315  0.755745  0.000000  1
  As  As15  1  0.244845  0.210318  0.000000  1
  As  As16  1  0.790016  0.034776  0.000000  1
  As  As17  1  0.668498  0.341332  0.000000  1
  As  As18  1  0.532105  0.619150  0.500000  1
  As  As19  1  0.380890  0.912381  0.500000  1
  As  As20  1  0.088467  0.460331  0.500000  1
