# generated using pymatgen
data_Pm(PRu)2
_symmetry_space_group_name_H-M   'P 1'
_cell_length_a   5.69963558
_cell_length_b   5.69963866
_cell_length_c   5.69963711
_cell_angle_alpha   138.13032892
_cell_angle_beta   138.13034041
_cell_angle_gamma   60.70344397
_symmetry_Int_Tables_number   1
_chemical_formula_structural   Pm(PRu)2
_chemical_formula_sum   'Pm1 P2 Ru2'
_cell_volume   81.59478586
_cell_formula_units_Z   1
loop_
 _symmetry_equiv_pos_site_id
 _symmetry_equiv_pos_as_xyz
  1  'x, y, z'
loop_
 _atom_site_type_symbol
 _atom_site_label
 _atom_site_symmetry_multiplicity
 _atom_site_fract_x
 _atom_site_fract_y
 _atom_site_fract_z
 _atom_site_occupancy
  Pm  Pm0  1  0.000000  0.000000  0.000000  1
  P  P1  1  0.371972  0.371972  0.000000  1
  P  P2  1  0.628027  0.628027  0.000000  1
  Ru  Ru3  1  0.750000  0.250000  0.500000  1
  Ru  Ru4  1  0.250000  0.750000  0.500000  1
