# generated using pymatgen
data_Eu3Mg3ZnRh2
_symmetry_space_group_name_H-M   'P 1'
_cell_length_a   7.61597900
_cell_length_b   7.61597900
_cell_length_c   4.30740100
_cell_angle_alpha   90.00000000
_cell_angle_beta   90.00000000
_cell_angle_gamma   120.00000434
_symmetry_Int_Tables_number   1
_chemical_formula_structural   Eu3Mg3ZnRh2
_chemical_formula_sum   'Eu3 Mg3 Zn1 Rh2'
_cell_volume   216.37017332
_cell_formula_units_Z   1
loop_
 _symmetry_equiv_pos_site_id
 _symmetry_equiv_pos_as_xyz
  1  'x, y, z'
loop_
 _atom_site_type_symbol
 _atom_site_label
 _atom_site_symmetry_multiplicity
 _atom_site_fract_x
 _atom_site_fract_y
 _atom_site_fract_z
 _atom_site_occupancy
  Eu  Eu0  1  0.420841  0.019197  0.000000  1
  Eu  Eu1  1  0.980803  0.401642  0.000000  1
  Eu  Eu2  1  0.598358  0.579159  0.000000  1
  Mg  Mg3  1  0.769561  0.007022  0.499999  1
  Mg  Mg4  1  0.237462  0.230439  0.499999  1
  Mg  Mg5  1  0.992978  0.762538  0.499999  1
  Zn  Zn6  1  0.333334  0.666667  0.499999  1
  Rh  Rh7  1  0.000000  0.000000  0.000000  1
  Rh  Rh8  1  0.666666  0.333334  0.499999  1
