# generated using pymatgen
data_Tb3Ho3Al19Si5Os8
_symmetry_space_group_name_H-M   'P 1'
_cell_length_a   8.70908400
_cell_length_b   8.69351442
_cell_length_c   9.59287100
_cell_angle_alpha   89.99994779
_cell_angle_beta   90.00000000
_cell_angle_gamma   120.05925396
_symmetry_Int_Tables_number   1
_chemical_formula_structural   Tb3Ho3Al19Si5Os8
_chemical_formula_sum   'Tb3 Ho3 Al19 Si5 Os8'
_cell_volume   628.61895918
_cell_formula_units_Z   1
loop_
 _symmetry_equiv_pos_site_id
 _symmetry_equiv_pos_as_xyz
  1  'x, y, z'
loop_
 _atom_site_type_symbol
 _atom_site_label
 _atom_site_symmetry_multiplicity
 _atom_site_fract_x
 _atom_site_fract_y
 _atom_site_fract_z
 _atom_site_occupancy
  Tb  Tb0  1  0.193928  0.387856  0.250002  1
  Tb  Tb1  1  0.610074  0.807287  0.250003  1
  Tb  Tb2  1  0.197213  0.807287  0.250003  1
  Ho  Ho3  1  0.805458  0.610916  0.749999  1
  Ho  Ho4  1  0.390143  0.195373  0.749988  1
  Ho  Ho5  1  0.805230  0.195373  0.749988  1
  Al  Al6  1  0.164687  0.329374  0.578350  1
  Al  Al7  1  0.834613  0.669227  0.422388  1
  Al  Al8  1  0.669897  0.835299  0.577084  1
  Al  Al9  1  0.834612  0.669225  0.077618  1
  Al  Al10  1  0.329320  0.165602  0.422510  1
  Al  Al11  1  0.164687  0.329374  0.921648  1
  Al  Al12  1  0.165403  0.835299  0.577084  1
  Al  Al13  1  0.329321  0.165603  0.077495  1
  Al  Al14  1  0.836282  0.165602  0.422510  1
  Al  Al15  1  0.669896  0.835300  0.922913  1
  Al  Al16  1  0.836282  0.165603  0.077495  1
  Al  Al17  1  0.165404  0.835300  0.922913  1
  Al  Al18  1  0.437102  0.874204  0.749996  1
  Al  Al19  1  0.872015  0.433035  0.250006  1
  Al  Al20  1  0.127632  0.564448  0.749995  1
  Al  Al21  1  0.561019  0.433035  0.250006  1
  Al  Al22  1  0.436817  0.564448  0.749995  1
  Al  Al23  1  0.999871  0.999744  0.250009  1
  Al  Al24  1  0.000401  0.000801  0.749991  1
  Si  Si25  1  0.332565  0.665130  0.036622  1
  Si  Si26  1  0.667295  0.334589  0.960515  1
  Si  Si27  1  0.667296  0.334592  0.539485  1
  Si  Si28  1  0.332564  0.665128  0.463382  1
  Si  Si29  1  0.564216  0.128434  0.250003  1
  Os  Os30  1  0.501116  0.002231  0.005651  1
  Os  Os31  1  0.998315  0.498672  0.999865  1
  Os  Os32  1  0.501116  0.002232  0.494350  1
  Os  Os33  1  0.500357  0.498672  0.999865  1
  Os  Os34  1  0.998320  0.498679  0.500137  1
  Os  Os35  1  0.500358  0.498679  0.500137  1
  Os  Os36  1  0.999587  0.999173  0.999761  1
  Os  Os37  1  0.999587  0.999173  0.500236  1
