# generated using pymatgen
data_Zr7Ta4Ti9Si16
_symmetry_space_group_name_H-M   'P 1'
_cell_length_a   6.85364064
_cell_length_b   6.85126445
_cell_length_c   12.60340800
_cell_angle_alpha   90.08719062
_cell_angle_beta   89.97517944
_cell_angle_gamma   90.02238318
_symmetry_Int_Tables_number   1
_chemical_formula_structural   Zr7Ta4Ti9Si16
_chemical_formula_sum   'Zr7 Ta4 Ti9 Si16'
_cell_volume   591.80615756
_cell_formula_units_Z   1
loop_
 _symmetry_equiv_pos_site_id
 _symmetry_equiv_pos_as_xyz
  1  'x, y, z'
loop_
 _atom_site_type_symbol
 _atom_site_label
 _atom_site_symmetry_multiplicity
 _atom_site_fract_x
 _atom_site_fract_y
 _atom_site_fract_z
 _atom_site_occupancy
  Zr  Zr0  1  0.998284  0.342753  0.531242  1
  Zr  Zr1  1  0.657849  0.001082  0.969243  1
  Zr  Zr2  1  0.156768  0.498985  0.781649  1
  Zr  Zr3  1  0.842895  0.501327  0.280619  1
  Zr  Zr4  1  0.498963  0.156592  0.217743  1
  Zr  Zr5  1  0.501730  0.842715  0.719675  1
  Zr  Zr6  1  0.343058  0.998223  0.468747  1
  Ta  Ta7  1  0.670098  0.670143  0.499803  1
  Ta  Ta8  1  0.830063  0.170599  0.751070  1
  Ta  Ta9  1  0.169649  0.828648  0.249021  1
  Ta  Ta10  1  0.329047  0.330876  0.000288  1
  Ti  Ti11  1  0.346609  0.505421  0.376526  1
  Ti  Ti12  1  0.846715  0.994127  0.371425  1
  Ti  Ti13  1  0.004069  0.152426  0.127208  1
  Ti  Ti14  1  0.994736  0.846351  0.628013  1
  Ti  Ti15  1  0.652890  0.496877  0.878536  1
  Ti  Ti16  1  0.505327  0.346630  0.622952  1
  Ti  Ti17  1  0.493002  0.653072  0.122319  1
  Ti  Ti18  1  0.151660  0.006821  0.873718  1
  Ti  Ti19  1  0.006118  0.654382  0.031023  1
  Si  Si20  1  0.045675  0.705920  0.437252  1
  Si  Si21  1  0.954957  0.300528  0.939028  1
  Si  Si22  1  0.706313  0.045508  0.562737  1
  Si  Si23  1  0.202424  0.456050  0.185344  1
  Si  Si24  1  0.793927  0.545906  0.687935  1
  Si  Si25  1  0.454778  0.206073  0.813314  1
  Si  Si26  1  0.546695  0.794104  0.311632  1
  Si  Si27  1  0.291281  0.952514  0.062337  1
  Si  Si28  1  0.867667  0.791706  0.825755  1
  Si  Si29  1  0.134250  0.206894  0.322884  1
  Si  Si30  1  0.797308  0.860112  0.172619  1
  Si  Si31  1  0.293221  0.633664  0.573445  1
  Si  Si32  1  0.709788  0.369862  0.073993  1
  Si  Si33  1  0.633576  0.292684  0.426252  1
  Si  Si34  1  0.361644  0.706650  0.927740  1
  Si  Si35  1  0.206973  0.133776  0.676914  1
