# generated using pymatgen
data_Ho20Sn15Sb
_symmetry_space_group_name_H-M   'P 1'
_cell_length_a   8.03196555
_cell_length_b   8.12995381
_cell_length_c   15.36179353
_cell_angle_alpha   90.02585067
_cell_angle_beta   90.65354216
_cell_angle_gamma   89.93678165
_symmetry_Int_Tables_number   1
_chemical_formula_structural   Ho20Sn15Sb
_chemical_formula_sum   'Ho20 Sn15 Sb1'
_cell_volume   1003.05161099
_cell_formula_units_Z   1
loop_
 _symmetry_equiv_pos_site_id
 _symmetry_equiv_pos_as_xyz
  1  'x, y, z'
loop_
 _atom_site_type_symbol
 _atom_site_label
 _atom_site_symmetry_multiplicity
 _atom_site_fract_x
 _atom_site_fract_y
 _atom_site_fract_z
 _atom_site_occupancy
  Ho  Ho0  1  0.374080  0.838698  0.879465  1
  Ho  Ho1  1  0.869465  0.663179  0.622760  1
  Ho  Ho2  1  0.631055  0.162624  0.376893  1
  Ho  Ho3  1  0.126852  0.339221  0.121494  1
  Ho  Ho4  1  0.627246  0.161342  0.120639  1
  Ho  Ho5  1  0.131796  0.337545  0.377030  1
  Ho  Ho6  1  0.368678  0.837858  0.622576  1
  Ho  Ho7  1  0.872283  0.661791  0.878261  1
  Ho  Ho8  1  0.530551  0.326507  0.899211  1
  Ho  Ho9  1  0.022039  0.178515  0.597159  1
  Ho  Ho10  1  0.478214  0.677757  0.402660  1
  Ho  Ho11  1  0.968535  0.821037  0.100571  1
  Ho  Ho12  1  0.472913  0.674827  0.099309  1
  Ho  Ho13  1  0.977809  0.821680  0.402500  1
  Ho  Ho14  1  0.522027  0.321273  0.597354  1
  Ho  Ho15  1  0.026216  0.179424  0.900164  1
  Ho  Ho16  1  0.200971  0.503034  0.749777  1
  Ho  Ho17  1  0.700967  0.997299  0.750325  1
  Ho  Ho18  1  0.798790  0.496787  0.250402  1
  Ho  Ho19  1  0.298856  0.002066  0.251549  1
  Sn  Sn20  1  0.792664  0.462520  0.458589  1
  Sn  Sn21  1  0.707587  0.962819  0.541495  1
  Sn  Sn22  1  0.214098  0.533807  0.957705  1
  Sn  Sn23  1  0.716358  0.967069  0.957749  1
  Sn  Sn24  1  0.207996  0.537306  0.541608  1
  Sn  Sn25  1  0.293149  0.036890  0.458595  1
  Sn  Sn26  1  0.787846  0.465505  0.042059  1
  Sn  Sn27  1  0.567510  0.620596  0.750135  1
  Sn  Sn28  1  0.068420  0.880797  0.751533  1
  Sn  Sn29  1  0.432468  0.379447  0.248379  1
  Sn  Sn30  1  0.932161  0.120005  0.248742  1
  Sn  Sn31  1  0.334182  0.148656  0.749570  1
  Sn  Sn32  1  0.834367  0.352267  0.749022  1
  Sn  Sn33  1  0.664667  0.851208  0.250222  1
  Sn  Sn34  1  0.165329  0.648059  0.250438  1
  Sb  Sb35  1  0.281854  0.030587  0.044059  1
