# generated using pymatgen
data_TmLu15CdIn3Ir4
_symmetry_space_group_name_H-M   'P 1'
_cell_length_a   9.47222632
_cell_length_b   9.48581101
_cell_length_c   9.48545276
_cell_angle_alpha   59.77995811
_cell_angle_beta   59.82832058
_cell_angle_gamma   59.82978177
_symmetry_Int_Tables_number   1
_chemical_formula_structural   TmLu15CdIn3Ir4
_chemical_formula_sum   'Tm1 Lu15 Cd1 In3 Ir4'
_cell_volume   600.09347229
_cell_formula_units_Z   1
loop_
 _symmetry_equiv_pos_site_id
 _symmetry_equiv_pos_as_xyz
  1  'x, y, z'
loop_
 _atom_site_type_symbol
 _atom_site_label
 _atom_site_symmetry_multiplicity
 _atom_site_fract_x
 _atom_site_fract_y
 _atom_site_fract_z
 _atom_site_occupancy
  Tm  Tm0  1  0.350128  0.348661  0.348710  1
  Lu  Lu1  1  0.350280  0.350552  0.951820  1
  Lu  Lu2  1  0.350242  0.951854  0.350571  1
  Lu  Lu3  1  0.951002  0.350450  0.350513  1
  Lu  Lu4  1  0.807351  0.191472  0.191461  1
  Lu  Lu5  1  0.190040  0.809377  0.809351  1
  Lu  Lu6  1  0.190957  0.808182  0.190777  1
  Lu  Lu7  1  0.807783  0.191443  0.807763  1
  Lu  Lu8  1  0.190964  0.190794  0.808170  1
  Lu  Lu9  1  0.807808  0.807767  0.191468  1
  Lu  Lu10  1  0.940479  0.561494  0.561497  1
  Lu  Lu11  1  0.561247  0.939375  0.939393  1
  Lu  Lu12  1  0.561996  0.938784  0.560158  1
  Lu  Lu13  1  0.941760  0.560564  0.937945  1
  Lu  Lu14  1  0.562000  0.560131  0.938801  1
  Lu  Lu15  1  0.941724  0.938030  0.560475  1
  Cd  Cd16  1  0.250329  0.583264  0.583264  1
  In  In17  1  0.581699  0.584139  0.584127  1
  In  In18  1  0.581950  0.584379  0.250060  1
  In  In19  1  0.582007  0.249997  0.584336  1
  Ir  Ir20  1  0.140854  0.140899  0.140892  1
  Ir  Ir21  1  0.140051  0.140742  0.577227  1
  Ir  Ir22  1  0.140050  0.577198  0.140760  1
  Ir  Ir23  1  0.577297  0.140446  0.140455  1
