# generated using pymatgen
data_Er2Tm4TcRu
_symmetry_space_group_name_H-M   'P 1'
_cell_length_a   6.22404800
_cell_length_b   7.30763400
_cell_length_c   8.99782400
_cell_angle_alpha   90.00000000
_cell_angle_beta   90.00000000
_cell_angle_gamma   90.00000000
_symmetry_Int_Tables_number   1
_chemical_formula_structural   Er2Tm4TcRu
_chemical_formula_sum   'Er4 Tm8 Tc2 Ru2'
_cell_volume   409.24861189
_cell_formula_units_Z   2
loop_
 _symmetry_equiv_pos_site_id
 _symmetry_equiv_pos_as_xyz
  1  'x, y, z'
loop_
 _atom_site_type_symbol
 _atom_site_label
 _atom_site_symmetry_multiplicity
 _atom_site_fract_x
 _atom_site_fract_y
 _atom_site_fract_z
 _atom_site_occupancy
  Er  Er0  1  0.875112  0.538948  0.250000  1
  Er  Er1  1  0.624888  0.038948  0.250000  1
  Er  Er2  1  0.130998  0.457600  0.750000  1
  Er  Er3  1  0.369002  0.957600  0.750000  1
  Tm  Tm4  1  0.334514  0.676395  0.063477  1
  Tm  Tm5  1  0.165486  0.176395  0.436523  1
  Tm  Tm6  1  0.663834  0.324207  0.562388  1
  Tm  Tm7  1  0.836166  0.824207  0.937612  1
  Tm  Tm8  1  0.663834  0.324207  0.937612  1
  Tm  Tm9  1  0.836166  0.824207  0.562388  1
  Tm  Tm10  1  0.334514  0.676395  0.436523  1
  Tm  Tm11  1  0.165486  0.176395  0.063477  1
  Tc  Tc12  1  0.038599  0.886005  0.250000  1
  Tc  Tc13  1  0.461401  0.386005  0.250000  1
  Ru  Ru14  1  0.960247  0.116243  0.750000  1
  Ru  Ru15  1  0.539753  0.616243  0.750000  1
