# generated using pymatgen
data_LaNd3Cu3Sb8
_symmetry_space_group_name_H-M   'P 1'
_cell_length_a   10.99210705
_cell_length_b   10.99818135
_cell_length_c   10.99275635
_cell_angle_alpha   147.22510284
_cell_angle_beta   147.21577773
_cell_angle_gamma   47.06608118
_symmetry_Int_Tables_number   1
_chemical_formula_structural   LaNd3Cu3Sb8
_chemical_formula_sum   'La1 Nd3 Cu3 Sb8'
_cell_volume   388.04275677
_cell_formula_units_Z   1
loop_
 _symmetry_equiv_pos_site_id
 _symmetry_equiv_pos_as_xyz
  1  'x, y, z'
loop_
 _atom_site_type_symbol
 _atom_site_label
 _atom_site_symmetry_multiplicity
 _atom_site_fract_x
 _atom_site_fract_y
 _atom_site_fract_z
 _atom_site_occupancy
  La  La0  1  0.871763  0.368059  0.000000  1
  Nd  Nd1  1  0.633657  0.632839  0.505003  1
  Nd  Nd2  1  0.128652  0.127834  0.494997  1
  Nd  Nd3  1  0.366513  0.873106  0.000000  1
  Cu  Cu4  1  0.001048  0.997061  0.000000  1
  Cu  Cu5  1  0.999658  0.501314  0.502104  1
  Cu  Cu6  1  0.497554  0.999210  0.497896  1
  Sb  Sb7  1  0.326365  0.327622  0.510803  1
  Sb  Sb8  1  0.815562  0.816819  0.489197  1
  Sb  Sb9  1  0.672706  0.181789  0.000000  1
  Sb  Sb10  1  0.182618  0.670535  0.000000  1
  Sb  Sb11  1  0.251544  0.250365  0.000000  1
  Sb  Sb12  1  0.749767  0.751694  0.000000  1
  Sb  Sb13  1  0.750334  0.249915  0.498078  1
  Sb  Sb14  1  0.252256  0.751837  0.501922  1
