# generated using pymatgen
data_Ba6TbDy(Ir2O9)2
_symmetry_space_group_name_H-M   'P 1'
_cell_length_a   5.95850200
_cell_length_b   5.95850191
_cell_length_c   14.72844300
_cell_angle_alpha   90.00000000
_cell_angle_beta   90.00000000
_cell_angle_gamma   120.00000048
_symmetry_Int_Tables_number   1
_chemical_formula_structural   Ba6TbDy(Ir2O9)2
_chemical_formula_sum   'Ba6 Tb1 Dy1 Ir4 O18'
_cell_volume   452.85757902
_cell_formula_units_Z   1
loop_
 _symmetry_equiv_pos_site_id
 _symmetry_equiv_pos_as_xyz
  1  'x, y, z'
loop_
 _atom_site_type_symbol
 _atom_site_label
 _atom_site_symmetry_multiplicity
 _atom_site_fract_x
 _atom_site_fract_y
 _atom_site_fract_z
 _atom_site_occupancy
  Ba  Ba0  1  0.000000  0.000000  0.249929  1
  Ba  Ba1  1  0.000000  0.000000  0.750071  1
  Ba  Ba2  1  0.333333  0.666667  0.592535  1
  Ba  Ba3  1  0.666667  0.333333  0.407465  1
  Ba  Ba4  1  0.666667  0.333333  0.092466  1
  Ba  Ba5  1  0.333333  0.666667  0.907534  1
  Tb  Tb6  1  0.000000  0.000000  0.500000  1
  Dy  Dy7  1  0.000000  0.000000  0.000000  1
  Ir  Ir8  1  0.333333  0.666667  0.335540  1
  Ir  Ir9  1  0.666667  0.333333  0.664460  1
  Ir  Ir10  1  0.666667  0.333333  0.835804  1
  Ir  Ir11  1  0.333333  0.666667  0.164196  1
  O  O12  1  0.490835  0.509165  0.249982  1
  O  O13  1  0.490835  0.981670  0.249982  1
  O  O14  1  0.018330  0.509165  0.249982  1
  O  O15  1  0.509165  0.490835  0.750018  1
  O  O16  1  0.509165  0.018330  0.750018  1
  O  O17  1  0.981670  0.490835  0.750018  1
  O  O18  1  0.176146  0.823854  0.086826  1
  O  O19  1  0.176146  0.352293  0.086826  1
  O  O20  1  0.647707  0.823854  0.086826  1
  O  O21  1  0.823854  0.176146  0.913174  1
  O  O22  1  0.823854  0.647707  0.913174  1
  O  O23  1  0.352293  0.176146  0.913174  1
  O  O24  1  0.823391  0.176609  0.587030  1
  O  O25  1  0.823391  0.646781  0.587030  1
  O  O26  1  0.353219  0.176609  0.587030  1
  O  O27  1  0.176609  0.823391  0.412970  1
  O  O28  1  0.176609  0.353219  0.412970  1
  O  O29  1  0.646781  0.823391  0.412970  1
