# generated using pymatgen
data_TbTm2Ga6(Co2Cu)3
_symmetry_space_group_name_H-M   'P 1'
_cell_length_a   4.07806900
_cell_length_b   8.76436410
_cell_length_c   8.76906241
_cell_angle_alpha   60.01830536
_cell_angle_beta   90.00000000
_cell_angle_gamma   90.00000000
_symmetry_Int_Tables_number   1
_chemical_formula_structural   TbTm2Ga6(Co2Cu)3
_chemical_formula_sum   'Tb1 Tm2 Ga6 Co6 Cu3'
_cell_volume   271.48063278
_cell_formula_units_Z   1
loop_
 _symmetry_equiv_pos_site_id
 _symmetry_equiv_pos_as_xyz
  1  'x, y, z'
loop_
 _atom_site_type_symbol
 _atom_site_label
 _atom_site_symmetry_multiplicity
 _atom_site_fract_x
 _atom_site_fract_y
 _atom_site_fract_z
 _atom_site_occupancy
  Tb  Tb0  1  0.500000  0.666558  0.666704  1
  Tm  Tm1  1  0.500000  0.333365  0.333401  1
  Tm  Tm2  1  0.000000  0.000061  0.000013  1
  Ga  Ga3  1  0.000000  0.490291  0.509588  1
  Ga  Ga4  1  0.000000  0.509428  0.000123  1
  Ga  Ga5  1  0.000000  0.000033  0.490447  1
  Ga  Ga6  1  0.500000  0.725228  0.274237  1
  Ga  Ga7  1  0.500000  0.274196  0.000519  1
  Ga  Ga8  1  0.500000  0.000680  0.725213  1
  Co  Co9  1  0.000000  0.191622  0.178240  1
  Co  Co10  1  0.000000  0.178153  0.630251  1
  Co  Co11  1  0.000000  0.630345  0.191523  1
  Co  Co12  1  0.000000  0.823322  0.810220  1
  Co  Co13  1  0.000000  0.366463  0.823407  1
  Co  Co14  1  0.000000  0.810031  0.366675  1
  Cu  Cu15  1  0.500000  0.294568  0.704538  1
  Cu  Cu16  1  0.500000  0.704727  0.000580  1
  Cu  Cu17  1  0.500000  0.000832  0.294419  1
