# generated using pymatgen
data_Ho4LuCo2Au
_symmetry_space_group_name_H-M   'P 1'
_cell_length_a   8.42736515
_cell_length_b   8.42736462
_cell_length_c   8.42739301
_cell_angle_alpha   127.80059758
_cell_angle_beta   127.80058904
_cell_angle_gamma   76.94860364
_symmetry_Int_Tables_number   1
_chemical_formula_structural   Ho4LuCo2Au
_chemical_formula_sum   'Ho8 Lu2 Co4 Au2'
_cell_volume   362.75395640
_cell_formula_units_Z   2
loop_
 _symmetry_equiv_pos_site_id
 _symmetry_equiv_pos_as_xyz
  1  'x, y, z'
loop_
 _atom_site_type_symbol
 _atom_site_label
 _atom_site_symmetry_multiplicity
 _atom_site_fract_x
 _atom_site_fract_y
 _atom_site_fract_z
 _atom_site_occupancy
  Ho  Ho0  1  0.698680  0.530256  0.499988  1
  Ho  Ho1  1  0.469758  0.969758  0.168467  1
  Ho  Ho2  1  0.801298  0.301298  0.831559  1
  Ho  Ho3  1  0.530242  0.030242  0.831533  1
  Ho  Ho4  1  0.030256  0.198680  0.499988  1
  Ho  Ho5  1  0.301320  0.469744  0.500012  1
  Ho  Ho6  1  0.198702  0.698702  0.168441  1
  Ho  Ho7  1  0.969744  0.801320  0.500012  1
  Lu  Lu8  1  0.000000  0.000000  0.000000  1
  Lu  Lu9  1  0.500000  0.500000  0.000000  1
  Co  Co10  1  0.128849  0.628849  0.757693  1
  Co  Co11  1  0.871151  0.371151  0.242307  1
  Co  Co12  1  0.628835  0.871165  0.500000  1
  Co  Co13  1  0.371165  0.128835  0.500000  1
  Au  Au14  1  0.250004  0.249996  0.000000  1
  Au  Au15  1  0.749996  0.750004  0.000000  1
