# generated using pymatgen
data_MgNb3Si2(B2Ru5)2
_symmetry_space_group_name_H-M   'P 1'
_cell_length_a   9.31093385
_cell_length_b   9.31093385
_cell_length_c   2.94991900
_cell_angle_alpha   90.00000000
_cell_angle_beta   90.00000000
_cell_angle_gamma   89.29772195
_symmetry_Int_Tables_number   1
_chemical_formula_structural   MgNb3Si2(B2Ru5)2
_chemical_formula_sum   'Mg1 Nb3 Si2 B4 Ru10'
_cell_volume   255.71956075
_cell_formula_units_Z   1
loop_
 _symmetry_equiv_pos_site_id
 _symmetry_equiv_pos_as_xyz
  1  'x, y, z'
loop_
 _atom_site_type_symbol
 _atom_site_label
 _atom_site_symmetry_multiplicity
 _atom_site_fract_x
 _atom_site_fract_y
 _atom_site_fract_z
 _atom_site_occupancy
  Mg  Mg0  1  0.822393  0.677607  0.000000  1
  Nb  Nb1  1  0.172735  0.327265  0.000000  1
  Nb  Nb2  1  0.325085  0.823391  0.000000  1
  Nb  Nb3  1  0.676609  0.174915  0.000000  1
  Si  Si4  1  0.498614  0.498509  0.000000  1
  Si  Si5  1  0.001491  0.001386  0.000000  1
  B  B6  1  0.627507  0.872493  0.000000  1
  B  B7  1  0.374651  0.125349  0.000000  1
  B  B8  1  0.123196  0.623578  0.000000  1
  B  B9  1  0.876422  0.376804  0.000000  1
  Ru  Ru10  1  0.563276  0.709863  0.500000  1
  Ru  Ru11  1  0.431317  0.288624  0.500000  1
  Ru  Ru12  1  0.075269  0.791917  0.500000  1
  Ru  Ru13  1  0.934928  0.210538  0.500000  1
  Ru  Ru14  1  0.289462  0.565072  0.500000  1
  Ru  Ru15  1  0.708083  0.424731  0.500000  1
  Ru  Ru16  1  0.211376  0.068683  0.500000  1
  Ru  Ru17  1  0.790137  0.936724  0.500000  1
  Ru  Ru18  1  0.500431  0.999569  0.500000  1
  Ru  Ru19  1  0.997018  0.502982  0.500000  1
