# generated using pymatgen
data_Sc2AlCo5B2
_symmetry_space_group_name_H-M   'P 1'
_cell_length_a   8.79423000
_cell_length_b   8.79423000
_cell_length_c   2.91998500
_cell_angle_alpha   90.00000000
_cell_angle_beta   90.00000000
_cell_angle_gamma   90.00000000
_symmetry_Int_Tables_number   1
_chemical_formula_structural   Sc2AlCo5B2
_chemical_formula_sum   'Sc4 Al2 Co10 B4'
_cell_volume   225.82720530
_cell_formula_units_Z   2
loop_
 _symmetry_equiv_pos_site_id
 _symmetry_equiv_pos_as_xyz
  1  'x, y, z'
loop_
 _atom_site_type_symbol
 _atom_site_label
 _atom_site_symmetry_multiplicity
 _atom_site_fract_x
 _atom_site_fract_y
 _atom_site_fract_z
 _atom_site_occupancy
  Sc  Sc0  1  0.675827  0.175827  0.000000  1
  Sc  Sc1  1  0.324173  0.824173  0.000000  1
  Sc  Sc2  1  0.175827  0.324173  0.000000  1
  Sc  Sc3  1  0.824173  0.675827  0.000000  1
  Al  Al4  1  0.000000  0.000000  0.000000  1
  Al  Al5  1  0.500000  0.500000  0.000000  1
  Co  Co6  1  0.222320  0.069517  0.500000  1
  Co  Co7  1  0.777680  0.930483  0.500000  1
  Co  Co8  1  0.069517  0.777680  0.500000  1
  Co  Co9  1  0.722320  0.430483  0.500000  1
  Co  Co10  1  0.930483  0.222320  0.500000  1
  Co  Co11  1  0.277680  0.569517  0.500000  1
  Co  Co12  1  0.569517  0.722320  0.500000  1
  Co  Co13  1  0.430483  0.277680  0.500000  1
  Co  Co14  1  0.500000  0.000000  0.500000  1
  Co  Co15  1  0.000000  0.500000  0.500000  1
  B  B16  1  0.120320  0.620320  0.000000  1
  B  B17  1  0.879680  0.379680  0.000000  1
  B  B18  1  0.620320  0.879680  0.000000  1
  B  B19  1  0.379680  0.120320  0.000000  1
