# generated using pymatgen
data_Y7Lu3(Sn3P)2
_symmetry_space_group_name_H-M   'P 1'
_cell_length_a   9.03972200
_cell_length_b   9.03972109
_cell_length_c   6.64365200
_cell_angle_alpha   90.00000000
_cell_angle_beta   90.00000000
_cell_angle_gamma   119.99998869
_symmetry_Int_Tables_number   1
_chemical_formula_structural   Y7Lu3(Sn3P)2
_chemical_formula_sum   'Y7 Lu3 Sn6 P2'
_cell_volume   470.16214892
_cell_formula_units_Z   1
loop_
 _symmetry_equiv_pos_site_id
 _symmetry_equiv_pos_as_xyz
  1  'x, y, z'
loop_
 _atom_site_type_symbol
 _atom_site_label
 _atom_site_symmetry_multiplicity
 _atom_site_fract_x
 _atom_site_fract_y
 _atom_site_fract_z
 _atom_site_occupancy
  Y  Y0  1  0.666667  0.333333  0.000000  1
  Y  Y1  1  0.757458  0.757890  0.749649  1
  Y  Y2  1  0.242110  0.999568  0.749649  1
  Y  Y3  1  0.000432  0.242542  0.749649  1
  Y  Y4  1  0.242110  0.242542  0.250351  1
  Y  Y5  1  0.757458  0.999568  0.250351  1
  Y  Y6  1  0.000432  0.757890  0.250351  1
  Lu  Lu7  1  0.333333  0.666667  0.000000  1
  Lu  Lu8  1  0.333333  0.666667  0.500000  1
  Lu  Lu9  1  0.666667  0.333333  0.500000  1
  Sn  Sn10  1  0.400006  0.401151  0.748607  1
  Sn  Sn11  1  0.598849  0.998856  0.748607  1
  Sn  Sn12  1  0.001144  0.599994  0.748607  1
  Sn  Sn13  1  0.598849  0.599994  0.251393  1
  Sn  Sn14  1  0.400006  0.998856  0.251393  1
  Sn  Sn15  1  0.001144  0.401151  0.251393  1
  P  P16  1  0.000000  0.000000  0.000000  1
  P  P17  1  0.000000  0.000000  0.500000  1
