# generated using pymatgen
data_LaSmGePtI2
_symmetry_space_group_name_H-M   'P 1'
_cell_length_a   4.41706900
_cell_length_b   4.41706791
_cell_length_c   11.70127500
_cell_angle_alpha   90.00000000
_cell_angle_beta   90.00000000
_cell_angle_gamma   120.00000064
_symmetry_Int_Tables_number   1
_chemical_formula_structural   LaSmGePtI2
_chemical_formula_sum   'La1 Sm1 Ge1 Pt1 I2'
_cell_volume   197.71156572
_cell_formula_units_Z   1
loop_
 _symmetry_equiv_pos_site_id
 _symmetry_equiv_pos_as_xyz
  1  'x, y, z'
loop_
 _atom_site_type_symbol
 _atom_site_label
 _atom_site_symmetry_multiplicity
 _atom_site_fract_x
 _atom_site_fract_y
 _atom_site_fract_z
 _atom_site_occupancy
  La  La0  1  0.000000  0.000000  0.841637  1
  Sm  Sm1  1  0.000000  0.000000  0.159764  1
  Ge  Ge2  1  0.666667  0.333333  0.015436  1
  Pt  Pt3  1  0.333333  0.666667  0.995221  1
  I  I4  1  0.666667  0.333333  0.655262  1
  I  I5  1  0.333333  0.666667  0.332681  1
