# generated using pymatgen
data_Sm4Ga10Cu5Pd
_symmetry_space_group_name_H-M   'P 1'
_cell_length_a   8.38554590
_cell_length_b   8.38554700
_cell_length_c   8.38554727
_cell_angle_alpha   137.95811561
_cell_angle_beta   105.52373900
_cell_angle_gamma   89.41024020
_symmetry_Int_Tables_number   1
_chemical_formula_structural   Sm4Ga10Cu5Pd
_chemical_formula_sum   'Sm4 Ga10 Cu5 Pd1'
_cell_volume   363.87591811
_cell_formula_units_Z   1
loop_
 _symmetry_equiv_pos_site_id
 _symmetry_equiv_pos_as_xyz
  1  'x, y, z'
loop_
 _atom_site_type_symbol
 _atom_site_label
 _atom_site_symmetry_multiplicity
 _atom_site_fract_x
 _atom_site_fract_y
 _atom_site_fract_z
 _atom_site_occupancy
  Sm  Sm0  1  0.631406  0.873400  0.764335  1
  Sm  Sm1  1  0.368594  0.132928  0.241994  1
  Sm  Sm2  1  0.109066  0.367072  0.735665  1
  Sm  Sm3  1  0.890934  0.626600  0.258006  1
  Ga  Ga4  1  0.266343  0.016343  0.750000  1
  Ga  Ga5  1  0.736519  0.986519  0.250000  1
  Ga  Ga6  1  0.733657  0.483657  0.750000  1
  Ga  Ga7  1  0.263481  0.513481  0.250000  1
  Ga  Ga8  1  0.458468  0.618631  0.856028  1
  Ga  Ga9  1  0.541532  0.397559  0.160163  1
  Ga  Ga10  1  0.762604  0.102441  0.643972  1
  Ga  Ga11  1  0.237396  0.881369  0.339837  1
  Ga  Ga12  1  0.000000  0.750000  0.750000  1
  Ga  Ga13  1  0.000000  0.250000  0.250000  1
  Cu  Cu14  1  0.246973  0.635034  0.616528  1
  Cu  Cu15  1  0.753027  0.369554  0.388061  1
  Cu  Cu16  1  0.018506  0.130446  0.883472  1
  Cu  Cu17  1  0.981494  0.864966  0.111939  1
  Cu  Cu18  1  0.500000  0.750000  0.250000  1
  Pd  Pd19  1  0.500000  0.250000  0.750000  1
