# generated using pymatgen
data_Sc3U2Si7Pt9
_symmetry_space_group_name_H-M   'P 1'
_cell_length_a   10.08208400
_cell_length_b   10.08208368
_cell_length_c   3.98415200
_cell_angle_alpha   90.00000000
_cell_angle_beta   90.00000000
_cell_angle_gamma   119.99999531
_symmetry_Int_Tables_number   1
_chemical_formula_structural   Sc3U2Si7Pt9
_chemical_formula_sum   'Sc3 U2 Si7 Pt9'
_cell_volume   350.72535234
_cell_formula_units_Z   1
loop_
 _symmetry_equiv_pos_site_id
 _symmetry_equiv_pos_as_xyz
  1  'x, y, z'
loop_
 _atom_site_type_symbol
 _atom_site_label
 _atom_site_symmetry_multiplicity
 _atom_site_fract_x
 _atom_site_fract_y
 _atom_site_fract_z
 _atom_site_occupancy
  Sc  Sc0  1  0.892937  0.454819  0.500000  1
  Sc  Sc1  1  0.561882  0.107063  0.500000  1
  Sc  Sc2  1  0.545181  0.438118  0.500000  1
  U  U3  1  0.000000  0.000000  0.000000  1
  U  U4  1  0.333333  0.666667  0.500000  1
  Si  Si5  1  0.244289  0.193476  0.500000  1
  Si  Si6  1  0.806524  0.050814  0.500000  1
  Si  Si7  1  0.949186  0.755711  0.500000  1
  Si  Si8  1  0.556797  0.646572  0.000000  1
  Si  Si9  1  0.353428  0.910224  0.000000  1
  Si  Si10  1  0.089776  0.443203  0.000000  1
  Si  Si11  1  0.666667  0.333333  0.000000  1
  Pt  Pt12  1  0.221474  0.935518  0.500000  1
  Pt  Pt13  1  0.064482  0.285957  0.500000  1
  Pt  Pt14  1  0.714043  0.778526  0.500000  1
  Pt  Pt15  1  0.313550  0.410986  0.000000  1
  Pt  Pt16  1  0.589014  0.902564  0.000000  1
  Pt  Pt17  1  0.097436  0.686450  0.000000  1
  Pt  Pt18  1  0.383955  0.172394  0.000000  1
  Pt  Pt19  1  0.827606  0.211561  0.000000  1
  Pt  Pt20  1  0.788439  0.616045  0.000000  1
