# generated using pymatgen
data_Eu3Ta3GeO14
_symmetry_space_group_name_H-M   'P 1'
_cell_length_a   7.32086058
_cell_length_b   7.32086077
_cell_length_c   7.32086052
_cell_angle_alpha   61.40468616
_cell_angle_beta   61.40468385
_cell_angle_gamma   61.40468661
_symmetry_Int_Tables_number   1
_chemical_formula_structural   Eu3Ta3GeO14
_chemical_formula_sum   'Eu3 Ta3 Ge1 O14'
_cell_volume   286.19549311
_cell_formula_units_Z   1
loop_
 _symmetry_equiv_pos_site_id
 _symmetry_equiv_pos_as_xyz
  1  'x, y, z'
loop_
 _atom_site_type_symbol
 _atom_site_label
 _atom_site_symmetry_multiplicity
 _atom_site_fract_x
 _atom_site_fract_y
 _atom_site_fract_z
 _atom_site_occupancy
  Eu  Eu0  1  0.000000  0.500000  0.500000  1
  Eu  Eu1  1  0.500000  0.500000  0.000000  1
  Eu  Eu2  1  0.500000  0.000000  0.500000  1
  Ta  Ta3  1  0.500000  0.000000  0.000000  1
  Ta  Ta4  1  0.000000  0.000000  0.500000  1
  Ta  Ta5  1  0.000000  0.500000  0.000000  1
  Ge  Ge6  1  0.000000  0.000000  0.000000  1
  O  O7  1  0.946049  0.317082  0.317082  1
  O  O8  1  0.310739  0.931105  0.931105  1
  O  O9  1  0.317082  0.317082  0.946049  1
  O  O10  1  0.931105  0.931105  0.310739  1
  O  O11  1  0.931105  0.310739  0.931105  1
  O  O12  1  0.317082  0.946049  0.317082  1
  O  O13  1  0.053951  0.682918  0.682918  1
  O  O14  1  0.689261  0.068895  0.068895  1
  O  O15  1  0.682918  0.682918  0.053951  1
  O  O16  1  0.068895  0.068895  0.689261  1
  O  O17  1  0.068895  0.689261  0.068895  1
  O  O18  1  0.682918  0.053951  0.682918  1
  O  O19  1  0.360043  0.360043  0.360043  1
  O  O20  1  0.639957  0.639957  0.639957  1
