# generated using pymatgen
data_Ho3Er2(SiBi)2
_symmetry_space_group_name_H-M   'P 1'
_cell_length_a   8.61018529
_cell_length_b   8.60678110
_cell_length_c   7.88132631
_cell_angle_alpha   90.00343683
_cell_angle_beta   90.02387400
_cell_angle_gamma   125.63008057
_symmetry_Int_Tables_number   1
_chemical_formula_structural   Ho3Er2(SiBi)2
_chemical_formula_sum   'Ho6 Er4 Si4 Bi4'
_cell_volume   474.71563548
_cell_formula_units_Z   2
loop_
 _symmetry_equiv_pos_site_id
 _symmetry_equiv_pos_as_xyz
  1  'x, y, z'
loop_
 _atom_site_type_symbol
 _atom_site_label
 _atom_site_symmetry_multiplicity
 _atom_site_fract_x
 _atom_site_fract_y
 _atom_site_fract_z
 _atom_site_occupancy
  Ho  Ho0  1  0.042465  0.286157  0.336071  1
  Ho  Ho1  1  0.957535  0.713843  0.663929  1
  Ho  Ho2  1  0.457545  0.213736  0.836051  1
  Ho  Ho3  1  0.786230  0.542458  0.163928  1
  Ho  Ho4  1  0.542455  0.786264  0.163949  1
  Ho  Ho5  1  0.213770  0.457542  0.836072  1
  Er  Er6  1  0.714258  0.957372  0.663779  1
  Er  Er7  1  0.285742  0.042628  0.336221  1
  Er  Er8  1  0.000000  0.000000  0.000000  1
  Er  Er9  1  0.500000  0.500000  0.500000  1
  Si  Si10  1  0.364755  0.364533  0.134199  1
  Si  Si11  1  0.635245  0.635467  0.865801  1
  Si  Si12  1  0.135068  0.135083  0.633882  1
  Si  Si13  1  0.864932  0.864917  0.366118  1
  Bi  Bi14  1  0.792616  0.207192  0.999765  1
  Bi  Bi15  1  0.207385  0.792808  0.000235  1
  Bi  Bi16  1  0.707061  0.292267  0.499946  1
  Bi  Bi17  1  0.292939  0.707733  0.500054  1
