# generated using pymatgen
data_Zr10GaNiBi6
_symmetry_space_group_name_H-M   'P 1'
_cell_length_a   5.91056600
_cell_length_b   8.83217792
_cell_length_c   8.83217800
_cell_angle_alpha   119.99999282
_cell_angle_beta   90.00000000
_cell_angle_gamma   90.00000000
_symmetry_Int_Tables_number   1
_chemical_formula_structural   Zr10GaNiBi6
_chemical_formula_sum   'Zr10 Ga1 Ni1 Bi6'
_cell_volume   399.29636478
_cell_formula_units_Z   1
loop_
 _symmetry_equiv_pos_site_id
 _symmetry_equiv_pos_as_xyz
  1  'x, y, z'
loop_
 _atom_site_type_symbol
 _atom_site_label
 _atom_site_symmetry_multiplicity
 _atom_site_fract_x
 _atom_site_fract_y
 _atom_site_fract_z
 _atom_site_occupancy
  Zr  Zr0  1  0.739945  0.742357  0.742357  1
  Zr  Zr1  1  0.260055  0.257643  0.257643  1
  Zr  Zr2  1  0.739945  0.000000  0.257643  1
  Zr  Zr3  1  0.260055  0.000000  0.742357  1
  Zr  Zr4  1  0.739945  0.257643  0.000000  1
  Zr  Zr5  1  0.260055  0.742357  0.000000  1
  Zr  Zr6  1  0.000000  0.666667  0.333333  1
  Zr  Zr7  1  0.000000  0.333333  0.666667  1
  Zr  Zr8  1  0.500000  0.333333  0.666667  1
  Zr  Zr9  1  0.500000  0.666667  0.333333  1
  Ga  Ga10  1  0.000000  0.000000  0.000000  1
  Ni  Ni11  1  0.500000  0.000000  0.000000  1
  Bi  Bi12  1  0.752266  0.388751  0.388751  1
  Bi  Bi13  1  0.247734  0.611249  0.611249  1
  Bi  Bi14  1  0.752266  0.000000  0.611249  1
  Bi  Bi15  1  0.247734  0.000000  0.388751  1
  Bi  Bi16  1  0.752266  0.611249  0.000000  1
  Bi  Bi17  1  0.247734  0.388751  0.000000  1
