# generated using pymatgen
data_K4Mn3VF12
_symmetry_space_group_name_H-M   'P 1'
_cell_length_a   6.05474011
_cell_length_b   5.98581303
_cell_length_c   8.44878931
_cell_angle_alpha   89.98978417
_cell_angle_beta   89.97496578
_cell_angle_gamma   90.00667140
_symmetry_Int_Tables_number   1
_chemical_formula_structural   K4Mn3VF12
_chemical_formula_sum   'K4 Mn3 V1 F12'
_cell_volume   306.20556749
_cell_formula_units_Z   1
loop_
 _symmetry_equiv_pos_site_id
 _symmetry_equiv_pos_as_xyz
  1  'x, y, z'
loop_
 _atom_site_type_symbol
 _atom_site_label
 _atom_site_symmetry_multiplicity
 _atom_site_fract_x
 _atom_site_fract_y
 _atom_site_fract_z
 _atom_site_occupancy
  K  K0  1  0.502197  0.504685  0.247532  1
  K  K1  1  0.997850  0.005085  0.247457  1
  K  K2  1  0.497803  0.495315  0.752468  1
  K  K3  1  0.002150  0.994915  0.752543  1
  Mn  Mn4  1  0.500000  0.000000  0.500000  1
  Mn  Mn5  1  0.000000  0.500000  0.500000  1
  Mn  Mn6  1  0.500000  0.000000  0.000000  1
  V  V7  1  0.000000  0.500000  0.000000  1
  F  F8  1  0.452372  0.997818  0.248854  1
  F  F9  1  0.047493  0.497811  0.248615  1
  F  F10  1  0.547628  0.002182  0.751146  1
  F  F11  1  0.952507  0.502189  0.751385  1
  F  F12  1  0.754933  0.753208  0.023768  1
  F  F13  1  0.745992  0.254473  0.475584  1
  F  F14  1  0.245816  0.245800  0.524328  1
  F  F15  1  0.253140  0.744743  0.976109  1
  F  F16  1  0.245067  0.246792  0.976232  1
  F  F17  1  0.254008  0.745527  0.524416  1
  F  F18  1  0.754184  0.754200  0.475672  1
  F  F19  1  0.746860  0.255257  0.023891  1
