# generated using pymatgen
data_Ti2InMo3O10
_symmetry_space_group_name_H-M   'P 1'
_cell_length_a   3.49669800
_cell_length_b   7.33504955
_cell_length_c   15.11425650
_cell_angle_alpha   90.24234703
_cell_angle_beta   90.00000000
_cell_angle_gamma   90.00000000
_symmetry_Int_Tables_number   1
_chemical_formula_structural   Ti2InMo3O10
_chemical_formula_sum   'Ti4 In2 Mo6 O20'
_cell_volume   387.65383112
_cell_formula_units_Z   2
loop_
 _symmetry_equiv_pos_site_id
 _symmetry_equiv_pos_as_xyz
  1  'x, y, z'
loop_
 _atom_site_type_symbol
 _atom_site_label
 _atom_site_symmetry_multiplicity
 _atom_site_fract_x
 _atom_site_fract_y
 _atom_site_fract_z
 _atom_site_occupancy
  Ti  Ti0  1  0.750000  0.390868  0.080612  1
  Ti  Ti1  1  0.250000  0.609132  0.919388  1
  Ti  Ti2  1  0.750000  0.892049  0.419181  1
  Ti  Ti3  1  0.250000  0.107951  0.580819  1
  In  In4  1  0.750000  0.398487  0.416610  1
  In  In5  1  0.250000  0.601513  0.583390  1
  Mo  Mo6  1  0.750000  0.895107  0.081639  1
  Mo  Mo7  1  0.250000  0.104893  0.918361  1
  Mo  Mo8  1  0.250000  0.176658  0.257920  1
  Mo  Mo9  1  0.750000  0.823342  0.742080  1
  Mo  Mo10  1  0.250000  0.678472  0.240120  1
  Mo  Mo11  1  0.750000  0.321528  0.759880  1
  O  O12  1  0.750000  0.256264  0.181946  1
  O  O13  1  0.250000  0.743736  0.818054  1
  O  O14  1  0.750000  0.753816  0.317816  1
  O  O15  1  0.250000  0.246184  0.682184  1
  O  O16  1  0.750000  0.151605  0.006027  1
  O  O17  1  0.250000  0.848395  0.993973  1
  O  O18  1  0.750000  0.656397  0.494087  1
  O  O19  1  0.250000  0.343603  0.505913  1
  O  O20  1  0.750000  0.125700  0.345518  1
  O  O21  1  0.250000  0.874300  0.654482  1
  O  O22  1  0.750000  0.630576  0.151839  1
  O  O23  1  0.250000  0.369424  0.848161  1
  O  O24  1  0.250000  0.436387  0.324063  1
  O  O25  1  0.750000  0.563613  0.675937  1
  O  O26  1  0.250000  0.935604  0.171548  1
  O  O27  1  0.750000  0.064396  0.828452  1
  O  O28  1  0.250000  0.429325  0.046835  1
  O  O29  1  0.750000  0.570675  0.953165  1
  O  O30  1  0.250000  0.930761  0.453369  1
  O  O31  1  0.750000  0.069239  0.546631  1
