# generated using pymatgen
data_TbHo7(Ge4Mo3)4
_symmetry_space_group_name_H-M   'P 1'
_cell_length_a   6.93360631
_cell_length_b   7.05586520
_cell_length_c   13.13982267
_cell_angle_alpha   90.00481756
_cell_angle_beta   89.98402263
_cell_angle_gamma   90.00818769
_symmetry_Int_Tables_number   1
_chemical_formula_structural   TbHo7(Ge4Mo3)4
_chemical_formula_sum   'Tb1 Ho7 Ge16 Mo12'
_cell_volume   642.83414304
_cell_formula_units_Z   1
loop_
 _symmetry_equiv_pos_site_id
 _symmetry_equiv_pos_as_xyz
  1  'x, y, z'
loop_
 _atom_site_type_symbol
 _atom_site_label
 _atom_site_symmetry_multiplicity
 _atom_site_fract_x
 _atom_site_fract_y
 _atom_site_fract_z
 _atom_site_occupancy
  Tb  Tb0  1  0.990835  0.169173  0.092143  1
  Ho  Ho1  1  0.490424  0.330548  0.092308  1
  Ho  Ho2  1  0.990366  0.169452  0.407627  1
  Ho  Ho3  1  0.509605  0.669506  0.592352  1
  Ho  Ho4  1  0.009732  0.830496  0.907391  1
  Ho  Ho5  1  0.509703  0.669360  0.907420  1
  Ho  Ho6  1  0.009618  0.830530  0.592354  1
  Ho  Ho7  1  0.490425  0.330532  0.407983  1
  Ge  Ge8  1  0.668872  0.044921  0.548132  1
  Ge  Ge9  1  0.169130  0.455363  0.951726  1
  Ge  Ge10  1  0.332072  0.954393  0.047933  1
  Ge  Ge11  1  0.831192  0.544937  0.451975  1
  Ge  Ge12  1  0.331090  0.955088  0.451979  1
  Ge  Ge13  1  0.830770  0.545879  0.047921  1
  Ge  Ge14  1  0.668548  0.044936  0.951626  1
  Ge  Ge15  1  0.168803  0.454964  0.548107  1
  Ge  Ge16  1  0.529973  0.367328  0.749862  1
  Ge  Ge17  1  0.030054  0.132672  0.749935  1
  Ge  Ge18  1  0.469871  0.632531  0.250153  1
  Ge  Ge19  1  0.969733  0.866881  0.250308  1
  Ge  Ge20  1  0.809510  0.643170  0.749854  1
  Ge  Ge21  1  0.309613  0.856957  0.749912  1
  Ge  Ge22  1  0.190965  0.357337  0.250433  1
  Ge  Ge23  1  0.689783  0.143094  0.250323  1
  Mo  Mo24  1  0.830003  0.343237  0.626724  1
  Mo  Mo25  1  0.330248  0.156829  0.872979  1
  Mo  Mo26  1  0.169956  0.656736  0.126897  1
  Mo  Mo27  1  0.669780  0.843082  0.373415  1
  Mo  Mo28  1  0.170040  0.656783  0.373446  1
  Mo  Mo29  1  0.669448  0.843002  0.127087  1
  Mo  Mo30  1  0.829909  0.343576  0.872874  1
  Mo  Mo31  1  0.330005  0.156825  0.626759  1
  Mo  Mo32  1  0.665816  0.004661  0.749917  1
  Mo  Mo33  1  0.165669  0.495471  0.749953  1
  Mo  Mo34  1  0.334275  0.995061  0.250135  1
  Mo  Mo35  1  0.834163  0.504694  0.250062  1
