# generated using pymatgen
data_V9CdS16
_symmetry_space_group_name_H-M   'P 1'
_cell_length_a   6.38122100
_cell_length_b   6.38122205
_cell_length_c   12.52173500
_cell_angle_alpha   90.00000000
_cell_angle_beta   90.00000000
_cell_angle_gamma   119.99998935
_symmetry_Int_Tables_number   1
_chemical_formula_structural   V9CdS16
_chemical_formula_sum   'V9 Cd1 S16'
_cell_volume   441.57332487
_cell_formula_units_Z   1
loop_
 _symmetry_equiv_pos_site_id
 _symmetry_equiv_pos_as_xyz
  1  'x, y, z'
loop_
 _atom_site_type_symbol
 _atom_site_label
 _atom_site_symmetry_multiplicity
 _atom_site_fract_x
 _atom_site_fract_y
 _atom_site_fract_z
 _atom_site_occupancy
  V  V0  1  0.000000  0.000000  0.234444  1
  V  V1  1  0.000000  0.000000  0.765556  1
  V  V2  1  0.507098  0.492902  0.235087  1
  V  V3  1  0.507098  0.014197  0.235087  1
  V  V4  1  0.985803  0.492902  0.235087  1
  V  V5  1  0.492902  0.507098  0.764913  1
  V  V6  1  0.492902  0.985803  0.764913  1
  V  V7  1  0.014197  0.507098  0.764913  1
  V  V8  1  0.000000  0.000000  0.000000  1
  Cd  Cd9  1  0.000000  0.000000  0.500000  1
  S  S10  1  0.333333  0.666667  0.885138  1
  S  S11  1  0.666667  0.333333  0.114862  1
  S  S12  1  0.666667  0.333333  0.356726  1
  S  S13  1  0.333333  0.666667  0.643274  1
  S  S14  1  0.169270  0.830730  0.350959  1
  S  S15  1  0.169270  0.338541  0.350959  1
  S  S16  1  0.661459  0.830730  0.350959  1
  S  S17  1  0.830730  0.169270  0.649041  1
  S  S18  1  0.830730  0.661459  0.649041  1
  S  S19  1  0.338541  0.169270  0.649041  1
  S  S20  1  0.832795  0.167205  0.880328  1
  S  S21  1  0.832795  0.665588  0.880328  1
  S  S22  1  0.334412  0.167205  0.880328  1
  S  S23  1  0.167205  0.832795  0.119672  1
  S  S24  1  0.167205  0.334412  0.119672  1
  S  S25  1  0.665588  0.832795  0.119672  1
