# generated using pymatgen
data_Dy4Er4Re3B24Os
_symmetry_space_group_name_H-M   'P 1'
_cell_length_a   3.66231300
_cell_length_b   9.14293952
_cell_length_c   11.52963802
_cell_angle_alpha   90.07028008
_cell_angle_beta   90.00000000
_cell_angle_gamma   90.00000000
_symmetry_Int_Tables_number   1
_chemical_formula_structural   Dy4Er4Re3B24Os
_chemical_formula_sum   'Dy4 Er4 Re3 B24 Os1'
_cell_volume   386.06163992
_cell_formula_units_Z   1
loop_
 _symmetry_equiv_pos_site_id
 _symmetry_equiv_pos_as_xyz
  1  'x, y, z'
loop_
 _atom_site_type_symbol
 _atom_site_label
 _atom_site_symmetry_multiplicity
 _atom_site_fract_x
 _atom_site_fract_y
 _atom_site_fract_z
 _atom_site_occupancy
  Dy  Dy0  1  0.000000  0.321879  0.414141  1
  Dy  Dy1  1  0.000000  0.677475  0.587538  1
  Dy  Dy2  1  0.000000  0.824244  0.084591  1
  Dy  Dy3  1  0.000000  0.176748  0.913562  1
  Er  Er4  1  0.000000  0.942839  0.370093  1
  Er  Er5  1  0.000000  0.056360  0.629355  1
  Er  Er6  1  0.000000  0.442931  0.129743  1
  Er  Er7  1  0.000000  0.556717  0.870859  1
  Re  Re8  1  0.000000  0.361969  0.678377  1
  Re  Re9  1  0.000000  0.138567  0.179812  1
  Re  Re10  1  0.000000  0.861484  0.820703  1
  B  B11  1  0.500000  0.553996  0.432670  1
  B  B12  1  0.500000  0.446859  0.566919  1
  B  B13  1  0.500000  0.053289  0.066993  1
  B  B14  1  0.500000  0.946729  0.932869  1
  B  B15  1  0.500000  0.749133  0.418402  1
  B  B16  1  0.500000  0.250117  0.581228  1
  B  B17  1  0.500000  0.249706  0.081310  1
  B  B18  1  0.500000  0.750694  0.918762  1
  B  B19  1  0.500000  0.791324  0.265644  1
  B  B20  1  0.500000  0.207730  0.734242  1
  B  B21  1  0.500000  0.292170  0.234705  1
  B  B22  1  0.500000  0.707615  0.765877  1
  B  B23  1  0.500000  0.631123  0.185727  1
  B  B24  1  0.500000  0.369514  0.814203  1
  B  B25  1  0.500000  0.130923  0.314995  1
  B  B26  1  0.500000  0.869026  0.685474  1
  B  B27  1  0.500000  0.982404  0.212208  1
  B  B28  1  0.500000  0.017676  0.787529  1
  B  B29  1  0.500000  0.483340  0.287862  1
  B  B30  1  0.500000  0.518085  0.712255  1
  B  B31  1  0.500000  0.601033  0.028586  1
  B  B32  1  0.500000  0.399173  0.972157  1
  B  B33  1  0.500000  0.100146  0.471753  1
  B  B34  1  0.500000  0.898531  0.527937  1
  Os  Os35  1  0.000000  0.638455  0.320917  1
