# generated using pymatgen
data_Tb2Er(TmIr)2
_symmetry_space_group_name_H-M   'P 1'
_cell_length_a   6.46515856
_cell_length_b   7.18821376
_cell_length_c   8.46562362
_cell_angle_alpha   96.78544909
_cell_angle_beta   112.44783569
_cell_angle_gamma   90.00110036
_symmetry_Int_Tables_number   1
_chemical_formula_structural   Tb2Er(TmIr)2
_chemical_formula_sum   'Tb4 Er2 Tm4 Ir4'
_cell_volume   360.62805090
_cell_formula_units_Z   2
loop_
 _symmetry_equiv_pos_site_id
 _symmetry_equiv_pos_as_xyz
  1  'x, y, z'
loop_
 _atom_site_type_symbol
 _atom_site_label
 _atom_site_symmetry_multiplicity
 _atom_site_fract_x
 _atom_site_fract_y
 _atom_site_fract_z
 _atom_site_occupancy
  Tb  Tb0  1  0.970922  0.919597  0.184746  1
  Tb  Tb1  1  0.786172  0.580400  0.815258  1
  Tb  Tb2  1  0.029135  0.080757  0.815206  1
  Tb  Tb3  1  0.213938  0.419230  0.184799  1
  Er  Er4  1  0.651299  0.817521  0.440579  1
  Er  Er5  1  0.210730  0.682489  0.559433  1
  Tm  Tm6  1  0.348715  0.182660  0.559640  1
  Tm  Tm7  1  0.789078  0.317339  0.440358  1
  Tm  Tm8  1  0.427583  0.750000  0.999998  1
  Tm  Tm9  1  0.572442  0.250002  0.999999  1
  Ir  Ir10  1  0.822016  0.572989  0.220700  1
  Ir  Ir11  1  0.601316  0.927031  0.779308  1
  Ir  Ir12  1  0.177766  0.426444  0.778842  1
  Ir  Ir13  1  0.398888  0.073540  0.221135  1
