# generated using pymatgen
data_La9Pr(Zn2Ru3)2
_symmetry_space_group_name_H-M   'P 1'
_cell_length_a   8.55058456
_cell_length_b   8.60170651
_cell_length_c   8.60173261
_cell_angle_alpha   109.84532270
_cell_angle_beta   109.33956729
_cell_angle_gamma   109.46993721
_symmetry_Int_Tables_number   1
_chemical_formula_structural   La9Pr(Zn2Ru3)2
_chemical_formula_sum   'La9 Pr1 Zn4 Ru6'
_cell_volume   485.55482798
_cell_formula_units_Z   1
loop_
 _symmetry_equiv_pos_site_id
 _symmetry_equiv_pos_as_xyz
  1  'x, y, z'
loop_
 _atom_site_type_symbol
 _atom_site_label
 _atom_site_symmetry_multiplicity
 _atom_site_fract_x
 _atom_site_fract_y
 _atom_site_fract_z
 _atom_site_occupancy
  La  La0  1  0.750035  0.809900  0.059903  1
  La  La1  1  0.439901  0.249224  0.689627  1
  La  La2  1  0.690877  0.440201  0.250016  1
  La  La3  1  0.060109  0.749726  0.809312  1
  La  La4  1  0.809071  0.059092  0.749307  1
  La  La5  1  0.217938  0.217710  0.217508  1
  La  La6  1  0.499311  0.000213  0.282036  1
  La  La7  1  0.282074  0.499567  0.999781  1
  La  La8  1  0.000698  0.282727  0.500915  1
  Pr  Pr9  1  0.250000  0.686209  0.436204  1
  Zn  Zn10  1  0.499211  0.998680  0.912758  1
  Zn  Zn11  1  0.584307  0.585632  0.585373  1
  Zn  Zn12  1  0.915694  0.501071  0.001322  1
  Zn  Zn13  1  0.000788  0.913552  0.499467  1
  Ru  Ru14  1  0.250000  0.126266  0.876254  1
  Ru  Ru15  1  0.749995  0.374186  0.624176  1
  Ru  Ru16  1  0.878209  0.252704  0.127504  1
  Ru  Ru17  1  0.123147  0.880783  0.246398  1
  Ru  Ru18  1  0.621798  0.749301  0.374510  1
  Ru  Ru19  1  0.376841  0.623257  0.757632  1
