# generated using pymatgen
data_SmYB6Ru
_symmetry_space_group_name_H-M   'P 1'
_cell_length_a   3.69862400
_cell_length_b   9.20580300
_cell_length_c   11.60408300
_cell_angle_alpha   90.00000000
_cell_angle_beta   90.00000000
_cell_angle_gamma   90.00000000
_symmetry_Int_Tables_number   1
_chemical_formula_structural   SmYB6Ru
_chemical_formula_sum   'Sm4 Y4 B24 Ru4'
_cell_volume   395.10514668
_cell_formula_units_Z   4
loop_
 _symmetry_equiv_pos_site_id
 _symmetry_equiv_pos_as_xyz
  1  'x, y, z'
loop_
 _atom_site_type_symbol
 _atom_site_label
 _atom_site_symmetry_multiplicity
 _atom_site_fract_x
 _atom_site_fract_y
 _atom_site_fract_z
 _atom_site_occupancy
  Sm  Sm0  1  0.000000  0.323228  0.414094  1
  Sm  Sm1  1  0.000000  0.676772  0.585906  1
  Sm  Sm2  1  0.000000  0.823228  0.085906  1
  Sm  Sm3  1  0.000000  0.176772  0.914094  1
  Y  Y4  1  0.000000  0.943852  0.372103  1
  Y  Y5  1  0.000000  0.056148  0.627897  1
  Y  Y6  1  0.000000  0.443852  0.127897  1
  Y  Y7  1  0.000000  0.556148  0.872103  1
  B  B8  1  0.500000  0.555166  0.431629  1
  B  B9  1  0.500000  0.444834  0.568371  1
  B  B10  1  0.500000  0.055166  0.068371  1
  B  B11  1  0.500000  0.944834  0.931629  1
  B  B12  1  0.500000  0.748392  0.418543  1
  B  B13  1  0.500000  0.251608  0.581457  1
  B  B14  1  0.500000  0.248392  0.081457  1
  B  B15  1  0.500000  0.751608  0.918543  1
  B  B16  1  0.500000  0.790422  0.266662  1
  B  B17  1  0.500000  0.209578  0.733338  1
  B  B18  1  0.500000  0.290422  0.233338  1
  B  B19  1  0.500000  0.709578  0.766662  1
  B  B20  1  0.500000  0.631516  0.185346  1
  B  B21  1  0.500000  0.368484  0.814654  1
  B  B22  1  0.500000  0.131516  0.314654  1
  B  B23  1  0.500000  0.868484  0.685346  1
  B  B24  1  0.500000  0.985152  0.213282  1
  B  B25  1  0.500000  0.014848  0.786718  1
  B  B26  1  0.500000  0.485152  0.286718  1
  B  B27  1  0.500000  0.514848  0.713282  1
  B  B28  1  0.500000  0.606009  0.029189  1
  B  B29  1  0.500000  0.393991  0.970811  1
  B  B30  1  0.500000  0.106009  0.470811  1
  B  B31  1  0.500000  0.893991  0.529189  1
  Ru  Ru32  1  0.000000  0.638621  0.320500  1
  Ru  Ru33  1  0.000000  0.361379  0.679500  1
  Ru  Ru34  1  0.000000  0.138621  0.179500  1
  Ru  Ru35  1  0.000000  0.861379  0.820500  1
