# generated using pymatgen
data_Tb3Dy3Er2(MoO6)4
_symmetry_space_group_name_H-M   'P 1'
_cell_length_a   9.95359805
_cell_length_b   9.95587080
_cell_length_c   5.39022112
_cell_angle_alpha   75.04143790
_cell_angle_beta   75.05025489
_cell_angle_gamma   68.18961516
_symmetry_Int_Tables_number   1
_chemical_formula_structural   Tb3Dy3Er2(MoO6)4
_chemical_formula_sum   'Tb3 Dy3 Er2 Mo4 O24'
_cell_volume   471.22644016
_cell_formula_units_Z   1
loop_
 _symmetry_equiv_pos_site_id
 _symmetry_equiv_pos_as_xyz
  1  'x, y, z'
loop_
 _atom_site_type_symbol
 _atom_site_label
 _atom_site_symmetry_multiplicity
 _atom_site_fract_x
 _atom_site_fract_y
 _atom_site_fract_z
 _atom_site_occupancy
  Tb  Tb0  1  0.551828  0.784151  0.622114  1
  Tb  Tb1  1  0.863113  0.136905  0.249992  1
  Tb  Tb2  1  0.136830  0.863118  0.750021  1
  Dy  Dy3  1  0.216285  0.448313  0.877377  1
  Dy  Dy4  1  0.448301  0.216362  0.377341  1
  Dy  Dy5  1  0.783781  0.551570  0.122639  1
  Er  Er6  1  0.395893  0.603987  0.250020  1
  Er  Er7  1  0.604084  0.395869  0.750005  1
  Mo  Mo8  1  0.989503  0.703094  0.436702  1
  Mo  Mo9  1  0.296775  0.010658  0.063364  1
  Mo  Mo10  1  0.010572  0.296884  0.563299  1
  Mo  Mo11  1  0.703176  0.989519  0.936557  1
  O  O12  1  0.428066  0.391186  0.577059  1
  O  O13  1  0.608881  0.571446  0.923519  1
  O  O14  1  0.572002  0.608242  0.422491  1
  O  O15  1  0.391196  0.428085  0.077028  1
  O  O16  1  0.194462  0.661636  0.573957  1
  O  O17  1  0.337935  0.805602  0.926750  1
  O  O18  1  0.805570  0.338335  0.426082  1
  O  O19  1  0.661653  0.194456  0.073930  1
  O  O20  1  0.114288  0.672969  0.121871  1
  O  O21  1  0.326945  0.885735  0.378118  1
  O  O22  1  0.885726  0.327018  0.878123  1
  O  O23  1  0.672973  0.114288  0.621811  1
  O  O24  1  0.710546  0.816496  0.864481  1
  O  O25  1  0.183483  0.289684  0.635904  1
  O  O26  1  0.289666  0.183475  0.135961  1
  O  O27  1  0.816691  0.710243  0.363869  1
  O  O28  1  0.888539  0.952948  0.983908  1
  O  O29  1  0.047063  0.111490  0.516124  1
  O  O30  1  0.975778  0.568499  0.744432  1
  O  O31  1  0.952934  0.888501  0.483874  1
  O  O32  1  0.568464  0.976092  0.243904  1
  O  O33  1  0.024228  0.431497  0.255559  1
  O  O34  1  0.431325  0.024542  0.755722  1
  O  O35  1  0.111444  0.047104  0.016092  1
