# generated using pymatgen
data_Yb3InAg5
_symmetry_space_group_name_H-M   'P 1'
_cell_length_a   7.76394100
_cell_length_b   7.76937867
_cell_length_c   4.03321600
_cell_angle_alpha   90.00000000
_cell_angle_beta   90.00000000
_cell_angle_gamma   119.97685495
_symmetry_Int_Tables_number   1
_chemical_formula_structural   Yb3InAg5
_chemical_formula_sum   'Yb3 In1 Ag5'
_cell_volume   210.74237472
_cell_formula_units_Z   1
loop_
 _symmetry_equiv_pos_site_id
 _symmetry_equiv_pos_as_xyz
  1  'x, y, z'
loop_
 _atom_site_type_symbol
 _atom_site_label
 _atom_site_symmetry_multiplicity
 _atom_site_fract_x
 _atom_site_fract_y
 _atom_site_fract_z
 _atom_site_occupancy
  Yb  Yb0  1  0.989578  0.587268  0.000000  1
  Yb  Yb1  1  0.402310  0.412732  0.000000  1
  Yb  Yb2  1  0.614353  0.000000  0.000000  1
  In  In3  1  0.260494  0.000000  0.500000  1
  Ag  Ag4  1  0.738109  0.740569  0.500000  1
  Ag  Ag5  1  0.997540  0.259431  0.500000  1
  Ag  Ag6  1  0.005708  0.000000  0.000000  1
  Ag  Ag7  1  0.663013  0.334119  0.500000  1
  Ag  Ag8  1  0.328893  0.665881  0.500000  1
