# generated using pymatgen
data_Ho(HfSe2)8
_symmetry_space_group_name_H-M   'P 1'
_cell_length_a   7.51939000
_cell_length_b   7.51938834
_cell_length_c   13.62391500
_cell_angle_alpha   90.00000000
_cell_angle_beta   90.00000000
_cell_angle_gamma   119.99998970
_symmetry_Int_Tables_number   1
_chemical_formula_structural   Ho(HfSe2)8
_chemical_formula_sum   'Ho1 Hf8 Se16'
_cell_volume   667.11042476
_cell_formula_units_Z   1
loop_
 _symmetry_equiv_pos_site_id
 _symmetry_equiv_pos_as_xyz
  1  'x, y, z'
loop_
 _atom_site_type_symbol
 _atom_site_label
 _atom_site_symmetry_multiplicity
 _atom_site_fract_x
 _atom_site_fract_y
 _atom_site_fract_z
 _atom_site_occupancy
  Ho  Ho0  1  0.000000  0.000000  0.000000  1
  Hf  Hf1  1  0.503995  0.496005  0.746317  1
  Hf  Hf2  1  0.496005  0.503995  0.253683  1
  Hf  Hf3  1  0.503995  0.007988  0.746317  1
  Hf  Hf4  1  0.496005  0.992012  0.253683  1
  Hf  Hf5  1  0.992012  0.496005  0.746317  1
  Hf  Hf6  1  0.007988  0.503995  0.253683  1
  Hf  Hf7  1  0.000000  0.000000  0.742043  1
  Hf  Hf8  1  0.000000  0.000000  0.257957  1
  Se  Se9  1  0.832428  0.664856  0.133918  1
  Se  Se10  1  0.832693  0.665387  0.629256  1
  Se  Se11  1  0.832428  0.167572  0.133918  1
  Se  Se12  1  0.832693  0.167307  0.629256  1
  Se  Se13  1  0.333333  0.666667  0.133819  1
  Se  Se14  1  0.333333  0.666667  0.636712  1
  Se  Se15  1  0.335144  0.167572  0.133918  1
  Se  Se16  1  0.334613  0.167307  0.629256  1
  Se  Se17  1  0.664856  0.832428  0.866082  1
  Se  Se18  1  0.665387  0.832693  0.370744  1
  Se  Se19  1  0.666667  0.333333  0.866181  1
  Se  Se20  1  0.666667  0.333333  0.363288  1
  Se  Se21  1  0.167572  0.832428  0.866082  1
  Se  Se22  1  0.167307  0.832693  0.370744  1
  Se  Se23  1  0.167572  0.335144  0.866082  1
  Se  Se24  1  0.167307  0.334613  0.370744  1
