# generated using pymatgen
data_Tb10RuRh3
_symmetry_space_group_name_H-M   'P 1'
_cell_length_a   6.43866192
_cell_length_b   7.21882606
_cell_length_c   8.67217718
_cell_angle_alpha   96.81013481
_cell_angle_beta   112.04195866
_cell_angle_gamma   89.89151828
_symmetry_Int_Tables_number   1
_chemical_formula_structural   Tb10RuRh3
_chemical_formula_sum   'Tb10 Ru1 Rh3'
_cell_volume   370.58401744
_cell_formula_units_Z   1
loop_
 _symmetry_equiv_pos_site_id
 _symmetry_equiv_pos_as_xyz
  1  'x, y, z'
loop_
 _atom_site_type_symbol
 _atom_site_label
 _atom_site_symmetry_multiplicity
 _atom_site_fract_x
 _atom_site_fract_y
 _atom_site_fract_z
 _atom_site_occupancy
  Tb  Tb0  1  0.983950  0.917819  0.189229  1
  Tb  Tb1  1  0.792918  0.583166  0.811600  1
  Tb  Tb2  1  0.020300  0.082740  0.814603  1
  Tb  Tb3  1  0.209020  0.414510  0.189498  1
  Tb  Tb4  1  0.644685  0.813849  0.434368  1
  Tb  Tb5  1  0.208973  0.687179  0.563835  1
  Tb  Tb6  1  0.354978  0.187957  0.561805  1
  Tb  Tb7  1  0.787090  0.311927  0.435170  1
  Tb  Tb8  1  0.424214  0.751522  0.001046  1
  Tb  Tb9  1  0.575850  0.249626  0.000863  1
  Ru  Ru10  1  0.399525  0.074230  0.219872  1
  Rh  Rh11  1  0.821401  0.575000  0.223062  1
  Rh  Rh12  1  0.597054  0.924553  0.778308  1
  Rh  Rh13  1  0.180043  0.425922  0.776742  1
