# generated using pymatgen
data_EuDy2Pa(Si5Pt3)2
_symmetry_space_group_name_H-M   'P 1'
_cell_length_a   8.17834749
_cell_length_b   8.18975471
_cell_length_c   8.18975395
_cell_angle_alpha   136.47967494
_cell_angle_beta   104.65723323
_cell_angle_gamma   91.27305679
_symmetry_Int_Tables_number   1
_chemical_formula_structural   EuDy2Pa(Si5Pt3)2
_chemical_formula_sum   'Eu1 Dy2 Pa1 Si10 Pt6'
_cell_volume   347.58166018
_cell_formula_units_Z   1
loop_
 _symmetry_equiv_pos_site_id
 _symmetry_equiv_pos_as_xyz
  1  'x, y, z'
loop_
 _atom_site_type_symbol
 _atom_site_label
 _atom_site_symmetry_multiplicity
 _atom_site_fract_x
 _atom_site_fract_y
 _atom_site_fract_z
 _atom_site_occupancy
  Eu  Eu0  1  0.639393  0.370510  0.268883  1
  Dy  Dy1  1  0.358399  0.628557  0.729843  1
  Dy  Dy2  1  0.099997  0.872318  0.227677  1
  Pa  Pa3  1  0.901822  0.130013  0.771809  1
  Si  Si4  1  0.273293  0.519605  0.249461  1
  Si  Si5  1  0.726976  0.475217  0.748112  1
  Si  Si6  1  0.726976  0.978865  0.251759  1
  Si  Si7  1  0.273293  0.023833  0.753688  1
  Si  Si8  1  0.460683  0.112425  0.348258  1
  Si  Si9  1  0.540040  0.887197  0.652843  1
  Si  Si10  1  0.762243  0.612609  0.149633  1
  Si  Si11  1  0.237297  0.386116  0.851181  1
  Si  Si12  1  0.999326  0.254251  0.251068  1
  Si  Si13  1  0.999326  0.748257  0.745075  1
  Pt  Pt14  1  0.246062  0.133997  0.112064  1
  Pt  Pt15  1  0.752605  0.861454  0.891151  1
  Pt  Pt16  1  0.028375  0.641704  0.386671  1
  Pt  Pt17  1  0.977372  0.363495  0.613876  1
  Pt  Pt18  1  0.498263  0.245307  0.743993  1
  Pt  Pt19  1  0.498263  0.754269  0.252955  1
