# generated using pymatgen
data_Ho2Ga9Co2Pd
_symmetry_space_group_name_H-M   'P 1'
_cell_length_a   7.47344783
_cell_length_b   7.47344650
_cell_length_c   9.42346400
_cell_angle_alpha   90.00000000
_cell_angle_beta   90.00000000
_cell_angle_gamma   119.68040334
_symmetry_Int_Tables_number   1
_chemical_formula_structural   Ho2Ga9Co2Pd
_chemical_formula_sum   'Ho4 Ga18 Co4 Pd2'
_cell_volume   457.27008079
_cell_formula_units_Z   2
loop_
 _symmetry_equiv_pos_site_id
 _symmetry_equiv_pos_as_xyz
  1  'x, y, z'
loop_
 _atom_site_type_symbol
 _atom_site_label
 _atom_site_symmetry_multiplicity
 _atom_site_fract_x
 _atom_site_fract_y
 _atom_site_fract_z
 _atom_site_occupancy
  Ho  Ho0  1  0.325010  0.003142  0.750000  1
  Ho  Ho1  1  0.003142  0.325010  0.750000  1
  Ho  Ho2  1  0.674990  0.996858  0.250000  1
  Ho  Ho3  1  0.996858  0.674990  0.250000  1
  Ga  Ga4  1  0.655423  0.001796  0.924617  1
  Ga  Ga5  1  0.344577  0.998204  0.424617  1
  Ga  Ga6  1  0.998204  0.344577  0.424616  1
  Ga  Ga7  1  0.344577  0.998204  0.075383  1
  Ga  Ga8  1  0.001796  0.655423  0.924617  1
  Ga  Ga9  1  0.998204  0.344577  0.075383  1
  Ga  Ga10  1  0.343160  0.343160  0.563604  1
  Ga  Ga11  1  0.343160  0.343160  0.936396  1
  Ga  Ga12  1  0.656840  0.656840  0.063604  1
  Ga  Ga13  1  0.656840  0.656840  0.436396  1
  Ga  Ga14  1  0.861534  0.861534  0.750000  1
  Ga  Ga15  1  0.138466  0.138466  0.250000  1
  Ga  Ga16  1  0.334158  0.555387  0.250000  1
  Ga  Ga17  1  0.555387  0.334158  0.250000  1
  Ga  Ga18  1  0.665842  0.444613  0.750000  1
  Ga  Ga19  1  0.444613  0.665842  0.750000  1
  Ga  Ga20  1  0.655423  0.001796  0.575384  1
  Ga  Ga21  1  0.001796  0.655423  0.575383  1
  Co  Co22  1  0.329434  0.670566  0.000000  1
  Co  Co23  1  0.670566  0.329434  0.500000  1
  Co  Co24  1  0.670566  0.329434  0.000000  1
  Co  Co25  1  0.329434  0.670566  0.500000  1
  Pd  Pd26  1  0.000000  0.000000  0.000000  1
  Pd  Pd27  1  0.000000  0.000000  0.500000  1
