# generated using pymatgen
data_PrErGe2(BiO5)2
_symmetry_space_group_name_H-M   'P 1'
_cell_length_a   5.47129625
_cell_length_b   11.34964115
_cell_length_c   15.48714060
_cell_angle_alpha   89.87104217
_cell_angle_beta   89.96545171
_cell_angle_gamma   89.99398438
_symmetry_Int_Tables_number   1
_chemical_formula_structural   PrErGe2(BiO5)2
_chemical_formula_sum   'Pr4 Er4 Ge8 Bi8 O40'
_cell_volume   961.70621117
_cell_formula_units_Z   4
loop_
 _symmetry_equiv_pos_site_id
 _symmetry_equiv_pos_as_xyz
  1  'x, y, z'
loop_
 _atom_site_type_symbol
 _atom_site_label
 _atom_site_symmetry_multiplicity
 _atom_site_fract_x
 _atom_site_fract_y
 _atom_site_fract_z
 _atom_site_occupancy
  Pr  Pr0  1  0.012734  0.860400  0.552572  1
  Pr  Pr1  1  0.512089  0.143030  0.946232  1
  Pr  Pr2  1  0.487124  0.360035  0.448162  1
  Pr  Pr3  1  0.487777  0.856457  0.052639  1
  Er  Er4  1  0.994411  0.141735  0.445919  1
  Er  Er5  1  0.506076  0.641722  0.553622  1
  Er  Er6  1  0.006967  0.361676  0.948092  1
  Er  Er7  1  0.993189  0.637941  0.052892  1
  Ge  Ge8  1  0.006157  0.406875  0.596706  1
  Ge  Ge9  1  0.992622  0.596784  0.403569  1
  Ge  Ge10  1  0.508415  0.590529  0.904925  1
  Ge  Ge11  1  0.492332  0.905878  0.400958  1
  Ge  Ge12  1  0.993050  0.098450  0.098298  1
  Ge  Ge13  1  0.005940  0.899750  0.899412  1
  Ge  Ge14  1  0.492470  0.407514  0.097346  1
  Ge  Ge15  1  0.508625  0.097381  0.598798  1
  Bi  Bi16  1  0.550117  0.648333  0.238641  1
  Bi  Bi17  1  0.047307  0.347905  0.260728  1
  Bi  Bi18  1  0.550336  0.147485  0.263215  1
  Bi  Bi19  1  0.452593  0.843922  0.739737  1
  Bi  Bi20  1  0.953656  0.154961  0.761716  1
  Bi  Bi21  1  0.449049  0.354770  0.761613  1
  Bi  Bi22  1  0.950001  0.644067  0.736638  1
  Bi  Bi23  1  0.047222  0.848247  0.237757  1
  O  O24  1  0.190379  0.980371  0.129081  1
  O  O25  1  0.238356  0.242814  0.847981  1
  O  O26  1  0.687882  0.527234  0.127595  1
  O  O27  1  0.762350  0.757744  0.151366  1
  O  O28  1  0.202040  0.965554  0.431081  1
  O  O29  1  0.930014  0.673839  0.304503  1
  O  O30  1  0.800043  0.050260  0.560164  1
  O  O31  1  0.932938  0.172198  0.198433  1
  O  O32  1  0.198383  0.458598  0.061675  1
  O  O33  1  0.759943  0.258805  0.349170  1
  O  O34  1  0.802005  0.540005  0.940562  1
  O  O35  1  0.061732  0.823702  0.799278  1
  O  O36  1  0.251258  0.232796  0.347784  1
  O  O37  1  0.880479  0.311761  0.518385  1
  O  O38  1  0.874775  0.805794  0.978387  1
  O  O39  1  0.434398  0.330741  0.197715  1
  O  O40  1  0.810982  0.019331  0.868906  1
  O  O41  1  0.739609  0.756613  0.651216  1
  O  O42  1  0.704577  0.041945  0.066965  1
  O  O43  1  0.620353  0.812362  0.480586  1
  O  O44  1  0.750828  0.270646  0.848255  1
  O  O45  1  0.697523  0.022846  0.372164  1
  O  O46  1  0.347607  0.186101  0.524519  1
  O  O47  1  0.249371  0.730255  0.652075  1
  O  O48  1  0.064736  0.332628  0.697522  1
  O  O49  1  0.295586  0.956201  0.930516  1
  O  O50  1  0.647743  0.317459  0.022776  1
  O  O51  1  0.125510  0.193546  0.020622  1
  O  O52  1  0.570053  0.665314  0.804517  1
  O  O53  1  0.310831  0.472228  0.874353  1
  O  O54  1  0.700533  0.549188  0.440800  1
  O  O55  1  0.323797  0.975170  0.631312  1
  O  O56  1  0.297039  0.466467  0.567936  1
  O  O57  1  0.178837  0.475960  0.370565  1
  O  O58  1  0.567334  0.174963  0.698096  1
  O  O59  1  0.799813  0.522316  0.626175  1
  O  O60  1  0.351691  0.681690  0.978163  1
  O  O61  1  0.152159  0.687201  0.476522  1
  O  O62  1  0.437311  0.831392  0.299792  1
  O  O63  1  0.248947  0.730111  0.152304  1
