# generated using pymatgen
data_Sm2Co17Si8Ru
_symmetry_space_group_name_H-M   'P 1'
_cell_length_a   7.93156857
_cell_length_b   7.97922639
_cell_length_c   7.94400065
_cell_angle_alpha   121.85713673
_cell_angle_beta   121.66536988
_cell_angle_gamma   87.06217817
_symmetry_Int_Tables_number   1
_chemical_formula_structural   Sm2Co17Si8Ru
_chemical_formula_sum   'Sm2 Co17 Si8 Ru1'
_cell_volume   345.26650479
_cell_formula_units_Z   1
loop_
 _symmetry_equiv_pos_site_id
 _symmetry_equiv_pos_as_xyz
  1  'x, y, z'
loop_
 _atom_site_type_symbol
 _atom_site_label
 _atom_site_symmetry_multiplicity
 _atom_site_fract_x
 _atom_site_fract_y
 _atom_site_fract_z
 _atom_site_occupancy
  Sm  Sm0  1  0.749911  0.749936  0.000341  1
  Sm  Sm1  1  0.249570  0.249595  0.999659  1
  Co  Co2  1  0.448660  0.950711  0.760626  1
  Co  Co3  1  0.188035  0.690085  0.239374  1
  Co  Co4  1  0.546596  0.042089  0.233152  1
  Co  Co5  1  0.948339  0.190075  0.500000  1
  Co  Co6  1  0.197151  0.927310  0.126910  1
  Co  Co7  1  0.800504  0.069009  0.870327  1
  Co  Co8  1  0.430177  0.698682  0.129673  1
  Co  Co9  1  0.570240  0.300400  0.873090  1
  Co  Co10  1  0.701039  0.574262  0.264137  1
  Co  Co11  1  0.300733  0.429556  0.732397  1
  Co  Co12  1  0.936902  0.810124  0.735863  1
  Co  Co13  1  0.312871  0.548853  0.500000  1
  Co  Co14  1  0.813445  0.308938  0.766848  1
  Co  Co15  1  0.002188  0.502450  0.500000  1
  Co  Co16  1  0.500159  0.001281  0.500000  1
  Co  Co17  1  0.068337  0.197160  0.267603  1
  Co  Co18  1  0.051105  0.812727  0.500000  1
  Si  Si19  1  0.290868  0.788150  0.833581  1
  Si  Si20  1  0.051165  0.544087  0.839736  1
  Si  Si21  1  0.540974  0.716757  0.500000  1
  Si  Si22  1  0.790869  0.955435  0.500000  1
  Si  Si23  1  0.445967  0.285068  0.500000  1
  Si  Si24  1  0.957287  0.454569  0.166419  1
  Si  Si25  1  0.711430  0.204351  0.160264  1
  Si  Si26  1  0.209351  0.046776  0.500000  1
  Ru  Ru27  1  0.686125  0.451563  0.500000  1
