# generated using pymatgen
data_Eu5ZnNi2
_symmetry_space_group_name_H-M   'P 1'
_cell_length_a   9.04374350
_cell_length_b   9.04374381
_cell_length_c   9.04374276
_cell_angle_alpha   128.78123801
_cell_angle_beta   128.78124067
_cell_angle_gamma   75.36282526
_symmetry_Int_Tables_number   1
_chemical_formula_structural   Eu5ZnNi2
_chemical_formula_sum   'Eu10 Zn2 Ni4'
_cell_volume   437.47108688
_cell_formula_units_Z   2
loop_
 _symmetry_equiv_pos_site_id
 _symmetry_equiv_pos_as_xyz
  1  'x, y, z'
loop_
 _atom_site_type_symbol
 _atom_site_label
 _atom_site_symmetry_multiplicity
 _atom_site_fract_x
 _atom_site_fract_y
 _atom_site_fract_z
 _atom_site_occupancy
  Eu  Eu0  1  0.500000  0.500000  0.000000  1
  Eu  Eu1  1  0.000000  0.000000  0.000000  1
  Eu  Eu2  1  0.530514  0.030514  0.838381  1
  Eu  Eu3  1  0.192133  0.692133  0.161619  1
  Eu  Eu4  1  0.030514  0.192133  0.500000  1
  Eu  Eu5  1  0.692133  0.530514  0.500000  1
  Eu  Eu6  1  0.469486  0.969486  0.161619  1
  Eu  Eu7  1  0.807867  0.307867  0.838381  1
  Eu  Eu8  1  0.969486  0.807867  0.500000  1
  Eu  Eu9  1  0.307867  0.469486  0.500000  1
  Zn  Zn10  1  0.250000  0.250000  0.000000  1
  Zn  Zn11  1  0.750000  0.750000  0.000000  1
  Ni  Ni12  1  0.112487  0.612487  0.724973  1
  Ni  Ni13  1  0.887513  0.387513  0.275027  1
  Ni  Ni14  1  0.612487  0.887513  0.500000  1
  Ni  Ni15  1  0.387513  0.112487  0.500000  1
