# generated using pymatgen
data_Rb8Tb6NiBr20
_symmetry_space_group_name_H-M   'P 1'
_cell_length_a   12.35732716
_cell_length_b   12.35732815
_cell_length_c   12.35732700
_cell_angle_alpha   60.00000039
_cell_angle_beta   59.99999775
_cell_angle_gamma   59.99999650
_symmetry_Int_Tables_number   1
_chemical_formula_structural   Rb8Tb6NiBr20
_chemical_formula_sum   'Rb8 Tb6 Ni1 Br20'
_cell_volume   1334.31585895
_cell_formula_units_Z   1
loop_
 _symmetry_equiv_pos_site_id
 _symmetry_equiv_pos_as_xyz
  1  'x, y, z'
loop_
 _atom_site_type_symbol
 _atom_site_label
 _atom_site_symmetry_multiplicity
 _atom_site_fract_x
 _atom_site_fract_y
 _atom_site_fract_z
 _atom_site_occupancy
  Rb  Rb0  1  0.358974  0.358974  0.358974  1
  Rb  Rb1  1  0.641026  0.641026  0.641026  1
  Rb  Rb2  1  0.358974  0.358974  0.923078  1
  Rb  Rb3  1  0.358974  0.923078  0.358974  1
  Rb  Rb4  1  0.641026  0.641026  0.076922  1
  Rb  Rb5  1  0.641026  0.076922  0.641026  1
  Rb  Rb6  1  0.923078  0.358974  0.358974  1
  Rb  Rb7  1  0.076922  0.641026  0.641026  1
  Tb  Tb8  1  0.844835  0.155165  0.155165  1
  Tb  Tb9  1  0.155165  0.844835  0.844835  1
  Tb  Tb10  1  0.155165  0.844835  0.155165  1
  Tb  Tb11  1  0.844835  0.155165  0.844835  1
  Tb  Tb12  1  0.155165  0.155165  0.844835  1
  Tb  Tb13  1  0.844835  0.844835  0.155165  1
  Ni  Ni14  1  0.000000  0.000000  0.000000  1
  Br  Br15  1  0.331434  0.000000  0.000000  1
  Br  Br16  1  0.668566  0.000000  0.000000  1
  Br  Br17  1  0.000000  0.331434  0.668566  1
  Br  Br18  1  0.000000  0.668566  0.331434  1
  Br  Br19  1  0.000000  0.331434  0.000000  1
  Br  Br20  1  0.668566  0.000000  0.331434  1
  Br  Br21  1  0.000000  0.668566  0.000000  1
  Br  Br22  1  0.331434  0.000000  0.668566  1
  Br  Br23  1  0.000000  0.000000  0.331434  1
  Br  Br24  1  0.000000  0.000000  0.668566  1
  Br  Br25  1  0.668566  0.331434  0.000000  1
  Br  Br26  1  0.331434  0.668566  0.000000  1
  Br  Br27  1  0.679577  0.320423  0.320423  1
  Br  Br28  1  0.320423  0.679577  0.679577  1
  Br  Br29  1  0.320423  0.679577  0.320423  1
  Br  Br30  1  0.679577  0.320423  0.679577  1
  Br  Br31  1  0.320423  0.320423  0.679577  1
  Br  Br32  1  0.679577  0.679577  0.320423  1
  Br  Br33  1  0.250000  0.250000  0.250000  1
  Br  Br34  1  0.750000  0.750000  0.750000  1
