# generated using pymatgen
data_Lu5Sc5(Sb3C)2
_symmetry_space_group_name_H-M   'P 1'
_cell_length_a   8.59650204
_cell_length_b   8.59796119
_cell_length_c   6.15687000
_cell_angle_alpha   90.00000000
_cell_angle_beta   90.00000000
_cell_angle_gamma   120.00562275
_symmetry_Int_Tables_number   1
_chemical_formula_structural   Lu5Sc5(Sb3C)2
_chemical_formula_sum   'Lu5 Sc5 Sb6 C2'
_cell_volume   394.07896802
_cell_formula_units_Z   1
loop_
 _symmetry_equiv_pos_site_id
 _symmetry_equiv_pos_as_xyz
  1  'x, y, z'
loop_
 _atom_site_type_symbol
 _atom_site_label
 _atom_site_symmetry_multiplicity
 _atom_site_fract_x
 _atom_site_fract_y
 _atom_site_fract_z
 _atom_site_occupancy
  Lu  Lu0  1  0.786414  0.783835  0.250000  1
  Lu  Lu1  1  0.213586  0.997420  0.250000  1
  Lu  Lu2  1  0.000000  0.211705  0.250000  1
  Lu  Lu3  1  0.214009  0.214617  0.750000  1
  Lu  Lu4  1  0.785991  0.000608  0.750000  1
  Sc  Sc5  1  0.666645  0.333318  0.500334  1
  Sc  Sc6  1  0.333355  0.666674  0.500334  1
  Sc  Sc7  1  0.333355  0.666674  0.999666  1
  Sc  Sc8  1  0.666645  0.333318  0.999666  1
  Sc  Sc9  1  0.000000  0.798642  0.750000  1
  Sb  Sb10  1  0.406078  0.405697  0.250000  1
  Sb  Sb11  1  0.593922  0.999619  0.250000  1
  Sb  Sb12  1  0.000000  0.590931  0.250000  1
  Sb  Sb13  1  0.597488  0.595127  0.750000  1
  Sb  Sb14  1  0.402512  0.997640  0.750000  1
  Sb  Sb15  1  0.000000  0.409224  0.750000  1
  C  C16  1  0.000000  0.997476  0.501769  1
  C  C17  1  0.000000  0.997476  0.998231  1
