# generated using pymatgen
data_TbErNi12As7
_symmetry_space_group_name_H-M   'P 1'
_cell_length_a   9.36924600
_cell_length_b   9.36924546
_cell_length_c   3.83545000
_cell_angle_alpha   90.00000000
_cell_angle_beta   90.00000000
_cell_angle_gamma   119.99999486
_symmetry_Int_Tables_number   1
_chemical_formula_structural   TbErNi12As7
_chemical_formula_sum   'Tb1 Er1 Ni12 As7'
_cell_volume   291.57899754
_cell_formula_units_Z   1
loop_
 _symmetry_equiv_pos_site_id
 _symmetry_equiv_pos_as_xyz
  1  'x, y, z'
loop_
 _atom_site_type_symbol
 _atom_site_label
 _atom_site_symmetry_multiplicity
 _atom_site_fract_x
 _atom_site_fract_y
 _atom_site_fract_z
 _atom_site_occupancy
  Tb  Tb0  1  0.333333  0.666667  0.000000  1
  Er  Er1  1  0.666667  0.333333  0.500000  1
  Ni  Ni2  1  0.439238  0.058518  0.000000  1
  Ni  Ni3  1  0.619280  0.560762  0.000000  1
  Ni  Ni4  1  0.941482  0.380720  0.000000  1
  Ni  Ni5  1  0.150844  0.280245  0.000000  1
  Ni  Ni6  1  0.129401  0.849156  0.000000  1
  Ni  Ni7  1  0.719755  0.870599  0.000000  1
  Ni  Ni8  1  0.376642  0.424386  0.500000  1
  Ni  Ni9  1  0.047744  0.623358  0.500000  1
  Ni  Ni10  1  0.575614  0.952256  0.500000  1
  Ni  Ni11  1  0.210041  0.095624  0.500000  1
  Ni  Ni12  1  0.885583  0.789959  0.500000  1
  Ni  Ni13  1  0.904376  0.114417  0.500000  1
  As  As14  1  0.000000  0.000000  0.000000  1
  As  As15  1  0.403827  0.286960  0.000000  1
  As  As16  1  0.883133  0.596173  0.000000  1
  As  As17  1  0.713040  0.116867  0.000000  1
  As  As18  1  0.108246  0.406678  0.500000  1
  As  As19  1  0.298432  0.891754  0.500000  1
  As  As20  1  0.593322  0.701568  0.500000  1
