# generated using pymatgen
data_Pr4Ga3GeRu4
_symmetry_space_group_name_H-M   'P 1'
_cell_length_a   4.65851200
_cell_length_b   7.15170471
_cell_length_c   7.43326815
_cell_angle_alpha   90.17467202
_cell_angle_beta   90.00000000
_cell_angle_gamma   90.00000000
_symmetry_Int_Tables_number   1
_chemical_formula_structural   Pr4Ga3GeRu4
_chemical_formula_sum   'Pr4 Ga3 Ge1 Ru4'
_cell_volume   247.64785719
_cell_formula_units_Z   1
loop_
 _symmetry_equiv_pos_site_id
 _symmetry_equiv_pos_as_xyz
  1  'x, y, z'
loop_
 _atom_site_type_symbol
 _atom_site_label
 _atom_site_symmetry_multiplicity
 _atom_site_fract_x
 _atom_site_fract_y
 _atom_site_fract_z
 _atom_site_occupancy
  Pr  Pr0  1  0.250000  0.191832  0.971741  1
  Pr  Pr1  1  0.750000  0.812185  0.026768  1
  Pr  Pr2  1  0.750000  0.689719  0.527280  1
  Pr  Pr3  1  0.250000  0.308283  0.472048  1
  Ga  Ga4  1  0.250000  0.891087  0.311424  1
  Ga  Ga5  1  0.750000  0.109222  0.689588  1
  Ga  Ga6  1  0.750000  0.393978  0.191749  1
  Ge  Ge7  1  0.250000  0.604641  0.807891  1
  Ru  Ru8  1  0.250000  0.562379  0.146686  1
  Ru  Ru9  1  0.750000  0.442642  0.848585  1
  Ru  Ru10  1  0.750000  0.063277  0.347239  1
  Ru  Ru11  1  0.250000  0.930757  0.659000  1
