# generated using pymatgen
data_Sc10Tl7InCoPt3
_symmetry_space_group_name_H-M   'P 1'
_cell_length_a   3.43385600
_cell_length_b   7.82148688
_cell_length_c   17.60416802
_cell_angle_alpha   90.06701371
_cell_angle_beta   90.00000000
_cell_angle_gamma   90.00000000
_symmetry_Int_Tables_number   1
_chemical_formula_structural   Sc10Tl7InCoPt3
_chemical_formula_sum   'Sc10 Tl7 In1 Co1 Pt3'
_cell_volume   472.80995074
_cell_formula_units_Z   1
loop_
 _symmetry_equiv_pos_site_id
 _symmetry_equiv_pos_as_xyz
  1  'x, y, z'
loop_
 _atom_site_type_symbol
 _atom_site_label
 _atom_site_symmetry_multiplicity
 _atom_site_fract_x
 _atom_site_fract_y
 _atom_site_fract_z
 _atom_site_occupancy
  Sc  Sc0  1  0.500000  0.498095  0.497180  1
  Sc  Sc1  1  0.500000  0.997119  0.003485  1
  Sc  Sc2  1  0.500000  0.877226  0.409622  1
  Sc  Sc3  1  0.500000  0.119998  0.586259  1
  Sc  Sc4  1  0.500000  0.620140  0.915590  1
  Sc  Sc5  1  0.500000  0.384404  0.093259  1
  Sc  Sc6  1  0.500000  0.261989  0.274850  1
  Sc  Sc7  1  0.500000  0.753562  0.722285  1
  Sc  Sc8  1  0.500000  0.253831  0.778811  1
  Sc  Sc9  1  0.500000  0.732224  0.219180  1
  Tl  Tl10  1  0.000000  0.201078  0.435657  1
  Tl  Tl11  1  0.000000  0.796041  0.560256  1
  Tl  Tl12  1  0.000000  0.297270  0.940985  1
  Tl  Tl13  1  0.000000  0.701861  0.068657  1
  Tl  Tl14  1  0.000000  0.568642  0.348043  1
  Tl  Tl15  1  0.000000  0.427926  0.644881  1
  Tl  Tl16  1  0.000000  0.927996  0.856255  1
  In  In17  1  0.000000  0.082120  0.148760  1
  Co  Co18  1  0.000000  0.461302  0.194173  1
  Pt  Pt19  1  0.000000  0.965054  0.300403  1
  Pt  Pt20  1  0.000000  0.035585  0.696139  1
  Pt  Pt21  1  0.000000  0.536536  0.805268  1
