# generated using pymatgen
data_Ba4Dy3Y3(BiS8)2
_symmetry_space_group_name_H-M   'P 1'
_cell_length_a   4.07779400
_cell_length_b   12.39090200
_cell_length_c   14.68792000
_cell_angle_alpha   89.99716441
_cell_angle_beta   90.00000000
_cell_angle_gamma   90.00000000
_symmetry_Int_Tables_number   1
_chemical_formula_structural   Ba4Dy3Y3(BiS8)2
_chemical_formula_sum   'Ba4 Dy3 Y3 Bi2 S16'
_cell_volume   742.14455050
_cell_formula_units_Z   1
loop_
 _symmetry_equiv_pos_site_id
 _symmetry_equiv_pos_as_xyz
  1  'x, y, z'
loop_
 _atom_site_type_symbol
 _atom_site_label
 _atom_site_symmetry_multiplicity
 _atom_site_fract_x
 _atom_site_fract_y
 _atom_site_fract_z
 _atom_site_occupancy
  Ba  Ba0  1  0.250000  0.760242  0.337089  1
  Ba  Ba1  1  0.250000  0.260235  0.162921  1
  Ba  Ba2  1  0.750000  0.240178  0.662643  1
  Ba  Ba3  1  0.750000  0.740174  0.837373  1
  Dy  Dy4  1  0.750000  0.065627  0.889152  1
  Dy  Dy5  1  0.750000  0.578733  0.099502  1
  Dy  Dy6  1  0.750000  0.078727  0.400499  1
  Y  Y7  1  0.750000  0.565636  0.610862  1
  Y  Y8  1  0.250000  0.419869  0.898749  1
  Y  Y9  1  0.250000  0.919904  0.601257  1
  Bi  Bi10  1  0.250000  0.435198  0.390639  1
  Bi  Bi11  1  0.250000  0.935202  0.109331  1
  S  S12  1  0.250000  0.205646  0.836717  1
  S  S13  1  0.250000  0.705864  0.663363  1
  S  S14  1  0.750000  0.788233  0.165936  1
  S  S15  1  0.750000  0.288233  0.334064  1
  S  S16  1  0.250000  0.122587  0.524679  1
  S  S17  1  0.250000  0.622595  0.975327  1
  S  S18  1  0.750000  0.876693  0.476722  1
  S  S19  1  0.750000  0.376695  0.023278  1
  S  S20  1  0.250000  0.525412  0.213125  1
  S  S21  1  0.250000  0.025415  0.286873  1
  S  S22  1  0.750000  0.475269  0.783883  1
  S  S23  1  0.750000  0.975298  0.716248  1
  S  S24  1  0.250000  0.418222  0.580441  1
  S  S25  1  0.250000  0.918460  0.919490  1
  S  S26  1  0.750000  0.587841  0.426377  1
  S  S27  1  0.750000  0.087817  0.073459  1
