# generated using pymatgen
data_Pr3Th(CdPd2)2
_symmetry_space_group_name_H-M   'P 1'
_cell_length_a   7.90368733
_cell_length_b   7.90368733
_cell_length_c   3.92856800
_cell_angle_alpha   90.00000000
_cell_angle_beta   90.00000000
_cell_angle_gamma   91.25543516
_symmetry_Int_Tables_number   1
_chemical_formula_structural   Pr3Th(CdPd2)2
_chemical_formula_sum   'Pr3 Th1 Cd2 Pd4'
_cell_volume   245.35194971
_cell_formula_units_Z   1
loop_
 _symmetry_equiv_pos_site_id
 _symmetry_equiv_pos_as_xyz
  1  'x, y, z'
loop_
 _atom_site_type_symbol
 _atom_site_label
 _atom_site_symmetry_multiplicity
 _atom_site_fract_x
 _atom_site_fract_y
 _atom_site_fract_z
 _atom_site_occupancy
  Pr  Pr0  1  0.825952  0.673008  0.500000  1
  Pr  Pr1  1  0.173008  0.325952  0.500000  1
  Pr  Pr2  1  0.674653  0.174653  0.500000  1
  Th  Th3  1  0.328617  0.828617  0.500000  1
  Cd  Cd4  1  0.997955  0.000508  0.000000  1
  Cd  Cd5  1  0.500508  0.497955  0.000000  1
  Pd  Pd6  1  0.367339  0.117480  0.000000  1
  Pd  Pd7  1  0.877233  0.377233  0.000000  1
  Pd  Pd8  1  0.137254  0.637254  0.000000  1
  Pd  Pd9  1  0.617480  0.867339  0.000000  1
