# generated using pymatgen
data_SrLaB4Ir5
_symmetry_space_group_name_H-M   'P 1'
_cell_length_a   7.62622498
_cell_length_b   6.35454669
_cell_length_c   5.77866653
_cell_angle_alpha   77.72503142
_cell_angle_beta   54.50833800
_cell_angle_gamma   47.76661987
_symmetry_Int_Tables_number   1
_chemical_formula_structural   SrLaB4Ir5
_chemical_formula_sum   'Sr1 La1 B4 Ir5'
_cell_volume   161.32562971
_cell_formula_units_Z   1
loop_
 _symmetry_equiv_pos_site_id
 _symmetry_equiv_pos_as_xyz
  1  'x, y, z'
loop_
 _atom_site_type_symbol
 _atom_site_label
 _atom_site_symmetry_multiplicity
 _atom_site_fract_x
 _atom_site_fract_y
 _atom_site_fract_z
 _atom_site_occupancy
  Sr  Sr0  1  0.643431  0.643432  0.356569  1
  La  La1  1  0.359781  0.359781  0.640219  1
  B  B2  1  0.290586  0.967295  0.032706  1
  B  B3  1  0.032066  0.708477  0.291523  1
  B  B4  1  0.967294  0.290586  0.709414  1
  B  B5  1  0.708477  0.032066  0.967934  1
  Ir  Ir6  1  0.998427  0.998427  0.001573  1
  Ir  Ir7  1  0.500409  0.500409  0.999591  1
  Ir  Ir8  1  0.249560  0.249560  0.250440  1
  Ir  Ir9  1  0.000409  0.000409  0.499591  1
  Ir  Ir10  1  0.749560  0.749560  0.750440  1
