# generated using pymatgen
data_Ca3HoBi3Sb3Rh7
_symmetry_space_group_name_H-M   'P 1'
_cell_length_a   7.71638467
_cell_length_b   7.69200409
_cell_length_c   7.69200402
_cell_angle_alpha   109.29975581
_cell_angle_beta   109.36162175
_cell_angle_gamma   109.36163692
_symmetry_Int_Tables_number   1
_chemical_formula_structural   Ca3HoBi3Sb3Rh7
_chemical_formula_sum   'Ca3 Ho1 Bi3 Sb3 Rh7'
_cell_volume   353.14016378
_cell_formula_units_Z   1
loop_
 _symmetry_equiv_pos_site_id
 _symmetry_equiv_pos_as_xyz
  1  'x, y, z'
loop_
 _atom_site_type_symbol
 _atom_site_label
 _atom_site_symmetry_multiplicity
 _atom_site_fract_x
 _atom_site_fract_y
 _atom_site_fract_z
 _atom_site_occupancy
  Ca  Ca0  1  0.470536  0.999677  0.999677  1
  Ca  Ca1  1  0.003339  0.511211  0.999941  1
  Ca  Ca2  1  0.003339  0.999941  0.511211  1
  Ho  Ho3  1  0.488515  0.484904  0.484904  1
  Bi  Bi4  1  0.985835  0.299538  0.299538  1
  Bi  Bi5  1  0.690709  0.002584  0.701232  1
  Bi  Bi6  1  0.690709  0.701232  0.002584  1
  Sb  Sb7  1  0.995692  0.671084  0.671084  1
  Sb  Sb8  1  0.323091  0.996408  0.330243  1
  Sb  Sb9  1  0.323091  0.330243  0.996408  1
  Rh  Rh10  1  0.046030  0.003752  0.003752  1
  Rh  Rh11  1  0.499236  0.748273  0.258051  1
  Rh  Rh12  1  0.741951  0.500816  0.251511  1
  Rh  Rh13  1  0.248369  0.742145  0.498630  1
  Rh  Rh14  1  0.248369  0.498630  0.742145  1
  Rh  Rh15  1  0.499236  0.258051  0.748273  1
  Rh  Rh16  1  0.741951  0.251511  0.500816  1
