# generated using pymatgen
data_Tb3Y3Hf2(Co4P3)4
_symmetry_space_group_name_H-M   'P 1'
_cell_length_a   3.72053800
_cell_length_b   10.69009207
_cell_length_c   12.40745108
_cell_angle_alpha   90.01328263
_cell_angle_beta   90.00000000
_cell_angle_gamma   90.00000000
_symmetry_Int_Tables_number   1
_chemical_formula_structural   Tb3Y3Hf2(Co4P3)4
_chemical_formula_sum   'Tb3 Y3 Hf2 Co16 P12'
_cell_volume   493.48022072
_cell_formula_units_Z   1
loop_
 _symmetry_equiv_pos_site_id
 _symmetry_equiv_pos_as_xyz
  1  'x, y, z'
loop_
 _atom_site_type_symbol
 _atom_site_label
 _atom_site_symmetry_multiplicity
 _atom_site_fract_x
 _atom_site_fract_y
 _atom_site_fract_z
 _atom_site_occupancy
  Tb  Tb0  1  0.000000  0.499956  0.528526  1
  Tb  Tb1  1  0.500000  0.000031  0.471607  1
  Tb  Tb2  1  0.500000  0.821659  0.204513  1
  Y  Y3  1  0.500000  0.178560  0.204248  1
  Y  Y4  1  0.000000  0.678610  0.795690  1
  Y  Y5  1  0.000000  0.321414  0.795644  1
  Hf  Hf6  1  0.500000  0.499987  0.156657  1
  Hf  Hf7  1  0.000000  0.999987  0.843228  1
  Co  Co8  1  0.500000  0.499982  0.702989  1
  Co  Co9  1  0.000000  0.000044  0.297043  1
  Co  Co10  1  0.000000  0.499929  0.986523  1
  Co  Co11  1  0.500000  0.000095  0.013319  1
  Co  Co12  1  0.500000  0.332103  0.993167  1
  Co  Co13  1  0.500000  0.667838  0.993179  1
  Co  Co14  1  0.000000  0.167959  0.006706  1
  Co  Co15  1  0.000000  0.832131  0.006675  1
  Co  Co16  1  0.500000  0.295199  0.433023  1
  Co  Co17  1  0.500000  0.704784  0.433116  1
  Co  Co18  1  0.000000  0.204798  0.567043  1
  Co  Co19  1  0.000000  0.795224  0.567175  1
  Co  Co20  1  0.500000  0.878101  0.703256  1
  Co  Co21  1  0.500000  0.121848  0.703163  1
  Co  Co22  1  0.000000  0.621765  0.296925  1
  Co  Co23  1  0.000000  0.378047  0.296723  1
  P  P24  1  0.500000  0.499977  0.883328  1
  P  P25  1  0.000000  0.000168  0.116430  1
  P  P26  1  0.500000  0.500061  0.360828  1
  P  P27  1  0.000000  0.999998  0.639107  1
  P  P28  1  0.500000  0.309540  0.615558  1
  P  P29  1  0.500000  0.690412  0.615648  1
  P  P30  1  0.000000  0.190440  0.384449  1
  P  P31  1  0.000000  0.809392  0.384679  1
  P  P32  1  0.500000  0.838895  0.893689  1
  P  P33  1  0.500000  0.161138  0.893553  1
  P  P34  1  0.000000  0.661082  0.106232  1
  P  P35  1  0.000000  0.338844  0.106361  1
