# generated using pymatgen
data_TbHo2Co8TcP6
_symmetry_space_group_name_H-M   'P 1'
_cell_length_a   3.70610600
_cell_length_b   10.50324100
_cell_length_c   12.20068600
_cell_angle_alpha   90.00000000
_cell_angle_beta   90.00000000
_cell_angle_gamma   90.00000000
_symmetry_Int_Tables_number   1
_chemical_formula_structural   TbHo2Co8TcP6
_chemical_formula_sum   'Tb2 Ho4 Co16 Tc2 P12'
_cell_volume   474.92542209
_cell_formula_units_Z   2
loop_
 _symmetry_equiv_pos_site_id
 _symmetry_equiv_pos_as_xyz
  1  'x, y, z'
loop_
 _atom_site_type_symbol
 _atom_site_label
 _atom_site_symmetry_multiplicity
 _atom_site_fract_x
 _atom_site_fract_y
 _atom_site_fract_z
 _atom_site_occupancy
  Tb  Tb0  1  0.000000  0.500000  0.524450  1
  Tb  Tb1  1  0.500000  0.000000  0.475550  1
  Ho  Ho2  1  0.500000  0.817915  0.205915  1
  Ho  Ho3  1  0.500000  0.182085  0.205915  1
  Ho  Ho4  1  0.000000  0.682085  0.794085  1
  Ho  Ho5  1  0.000000  0.317915  0.794085  1
  Co  Co6  1  0.000000  0.500000  0.987228  1
  Co  Co7  1  0.500000  0.000000  0.012772  1
  Co  Co8  1  0.500000  0.296520  0.431006  1
  Co  Co9  1  0.500000  0.703480  0.431006  1
  Co  Co10  1  0.000000  0.203480  0.568994  1
  Co  Co11  1  0.000000  0.796520  0.568994  1
  Co  Co12  1  0.500000  0.878751  0.707774  1
  Co  Co13  1  0.500000  0.121249  0.707774  1
  Co  Co14  1  0.000000  0.621249  0.292226  1
  Co  Co15  1  0.000000  0.378751  0.292226  1
  Co  Co16  1  0.500000  0.332253  0.989812  1
  Co  Co17  1  0.500000  0.667747  0.989812  1
  Co  Co18  1  0.000000  0.167747  0.010188  1
  Co  Co19  1  0.000000  0.832253  0.010188  1
  Co  Co20  1  0.500000  0.500000  0.703082  1
  Co  Co21  1  0.000000  0.000000  0.296918  1
  Tc  Tc22  1  0.500000  0.500000  0.156664  1
  Tc  Tc23  1  0.000000  0.000000  0.843336  1
  P  P24  1  0.500000  0.311534  0.616365  1
  P  P25  1  0.500000  0.688466  0.616365  1
  P  P26  1  0.000000  0.188466  0.383635  1
  P  P27  1  0.000000  0.811534  0.383635  1
  P  P28  1  0.500000  0.500000  0.880794  1
  P  P29  1  0.000000  0.000000  0.119206  1
  P  P30  1  0.500000  0.845949  0.892458  1
  P  P31  1  0.500000  0.154051  0.892458  1
  P  P32  1  0.000000  0.654051  0.107542  1
  P  P33  1  0.000000  0.345949  0.107542  1
  P  P34  1  0.500000  0.500000  0.348733  1
  P  P35  1  0.000000  0.000000  0.651267  1
