# generated using pymatgen
data_Dy3Y(NiB10)2
_symmetry_space_group_name_H-M   'P 1'
_cell_length_a   4.13661400
_cell_length_b   5.54075501
_cell_length_c   11.07432701
_cell_angle_alpha   90.00553927
_cell_angle_beta   90.00000000
_cell_angle_gamma   90.00000000
_symmetry_Int_Tables_number   1
_chemical_formula_structural   Dy3Y(NiB10)2
_chemical_formula_sum   'Dy3 Y1 Ni2 B20'
_cell_volume   253.82318336
_cell_formula_units_Z   1
loop_
 _symmetry_equiv_pos_site_id
 _symmetry_equiv_pos_as_xyz
  1  'x, y, z'
loop_
 _atom_site_type_symbol
 _atom_site_label
 _atom_site_symmetry_multiplicity
 _atom_site_fract_x
 _atom_site_fract_y
 _atom_site_fract_z
 _atom_site_occupancy
  Dy  Dy0  1  0.500000  0.185978  0.362469  1
  Dy  Dy1  1  0.500000  0.814053  0.637604  1
  Dy  Dy2  1  0.500000  0.313986  0.862394  1
  Y  Y3  1  0.500000  0.686029  0.137550  1
  Ni  Ni4  1  0.000000  0.000006  0.999806  1
  Ni  Ni5  1  0.000000  0.499954  0.500048  1
  B  B6  1  0.000000  0.374231  0.040759  1
  B  B7  1  0.000000  0.625348  0.958841  1
  B  B8  1  0.000000  0.125617  0.540953  1
  B  B9  1  0.000000  0.874484  0.459235  1
  B  B10  1  0.000000  0.341555  0.198562  1
  B  B11  1  0.000000  0.658435  0.801364  1
  B  B12  1  0.000000  0.158485  0.698481  1
  B  B13  1  0.000000  0.841761  0.301707  1
  B  B14  1  0.000000  0.030131  0.186713  1
  B  B15  1  0.000000  0.970008  0.813379  1
  B  B16  1  0.000000  0.470009  0.686519  1
  B  B17  1  0.000000  0.529907  0.313571  1
  B  B18  1  0.301506  0.201857  0.114560  1
  B  B19  1  0.698525  0.798139  0.885185  1
  B  B20  1  0.301475  0.798139  0.885185  1
  B  B21  1  0.698491  0.298067  0.614633  1
  B  B22  1  0.698494  0.201857  0.114560  1
  B  B23  1  0.301499  0.701949  0.385644  1
  B  B24  1  0.698501  0.701949  0.385644  1
  B  B25  1  0.301509  0.298067  0.614633  1
