# generated using pymatgen
data_Dy3ScZn2Pt3
_symmetry_space_group_name_H-M   'P 1'
_cell_length_a   7.22689000
_cell_length_b   7.33220945
_cell_length_c   4.04914600
_cell_angle_alpha   90.00000000
_cell_angle_beta   90.00000000
_cell_angle_gamma   119.52597125
_symmetry_Int_Tables_number   1
_chemical_formula_structural   Dy3ScZn2Pt3
_chemical_formula_sum   'Dy3 Sc1 Zn2 Pt3'
_cell_volume   186.69603002
_cell_formula_units_Z   1
loop_
 _symmetry_equiv_pos_site_id
 _symmetry_equiv_pos_as_xyz
  1  'x, y, z'
loop_
 _atom_site_type_symbol
 _atom_site_label
 _atom_site_symmetry_multiplicity
 _atom_site_fract_x
 _atom_site_fract_y
 _atom_site_fract_z
 _atom_site_occupancy
  Dy  Dy0  1  0.384035  0.000000  0.000000  1
  Dy  Dy1  1  0.015335  0.431302  0.000000  1
  Dy  Dy2  1  0.584033  0.568698  0.000000  1
  Sc  Sc3  1  0.765415  0.000000  0.500000  1
  Zn  Zn4  1  0.249717  0.253357  0.500000  1
  Zn  Zn5  1  0.996360  0.746643  0.500000  1
  Pt  Pt6  1  0.995154  0.000000  0.000000  1
  Pt  Pt7  1  0.666130  0.322307  0.500000  1
  Pt  Pt8  1  0.343822  0.677693  0.500000  1
