# generated using pymatgen
data_TmSc9(Ga2Bi)2
_symmetry_space_group_name_H-M   'P 1'
_cell_length_a   8.30265104
_cell_length_b   8.30078871
_cell_length_c   6.09779200
_cell_angle_alpha   90.00000000
_cell_angle_beta   90.00000000
_cell_angle_gamma   120.20081491
_symmetry_Int_Tables_number   1
_chemical_formula_structural   TmSc9(Ga2Bi)2
_chemical_formula_sum   'Tm1 Sc9 Ga4 Bi2'
_cell_volume   363.20933859
_cell_formula_units_Z   1
loop_
 _symmetry_equiv_pos_site_id
 _symmetry_equiv_pos_as_xyz
  1  'x, y, z'
loop_
 _atom_site_type_symbol
 _atom_site_label
 _atom_site_symmetry_multiplicity
 _atom_site_fract_x
 _atom_site_fract_y
 _atom_site_fract_z
 _atom_site_occupancy
  Tm  Tm0  1  0.227959  0.227618  0.750000  1
  Sc  Sc1  1  0.308601  0.655229  0.000037  1
  Sc  Sc2  1  0.673788  0.336921  0.499808  1
  Sc  Sc3  1  0.673788  0.336921  0.000192  1
  Sc  Sc4  1  0.308601  0.655229  0.499963  1
  Sc  Sc5  1  0.229503  0.999207  0.250000  1
  Sc  Sc6  1  0.016398  0.763919  0.750000  1
  Sc  Sc7  1  0.016897  0.251451  0.250000  1
  Sc  Sc8  1  0.770229  0.751527  0.250000  1
  Sc  Sc9  1  0.766259  0.017960  0.750000  1
  Ga  Ga10  1  0.994719  0.400447  0.750000  1
  Ga  Ga11  1  0.997190  0.599406  0.250000  1
  Ga  Ga12  1  0.400346  0.396084  0.250000  1
  Ga  Ga13  1  0.402974  0.000543  0.750000  1
  Bi  Bi14  1  0.605062  0.993337  0.250000  1
  Bi  Bi15  1  0.607687  0.614201  0.750000  1
