# generated using pymatgen
data_Nb8Fe2Co5Si14Pd
_symmetry_space_group_name_H-M   'P 1'
_cell_length_a   9.28166318
_cell_length_b   9.29672421
_cell_length_c   9.26794407
_cell_angle_alpha   94.22603277
_cell_angle_beta   94.31522598
_cell_angle_gamma   148.37472585
_symmetry_Int_Tables_number   1
_chemical_formula_structural   Nb8Fe2Co5Si14Pd
_chemical_formula_sum   'Nb8 Fe2 Co5 Si14 Pd1'
_cell_volume   403.38059496
_cell_formula_units_Z   1
loop_
 _symmetry_equiv_pos_site_id
 _symmetry_equiv_pos_as_xyz
  1  'x, y, z'
loop_
 _atom_site_type_symbol
 _atom_site_label
 _atom_site_symmetry_multiplicity
 _atom_site_fract_x
 _atom_site_fract_y
 _atom_site_fract_z
 _atom_site_occupancy
  Nb  Nb0  1  0.310114  0.498218  0.808858  1
  Nb  Nb1  1  0.692518  0.502021  0.191873  1
  Nb  Nb2  1  0.500304  0.690038  0.192383  1
  Nb  Nb3  1  0.498686  0.310149  0.809140  1
  Nb  Nb4  1  0.134151  0.134553  0.269148  1
  Nb  Nb5  1  0.866583  0.867422  0.732854  1
  Nb  Nb6  1  0.135142  0.869221  0.002865  1
  Nb  Nb7  1  0.867360  0.133810  0.002502  1
  Fe  Fe8  1  0.105426  0.604870  0.209382  1
  Fe  Fe9  1  0.898461  0.094541  0.496087  1
  Co  Co10  1  0.598098  0.400245  0.495444  1
  Co  Co11  1  0.597806  0.098266  0.196182  1
  Co  Co12  1  0.897429  0.399048  0.797569  1
  Co  Co13  1  0.104822  0.900403  0.503172  1
  Co  Co14  1  0.398118  0.603226  0.502940  1
  Si  Si15  1  0.292186  0.292178  0.582523  1
  Si  Si16  1  0.706749  0.706567  0.415872  1
  Si  Si17  1  0.279029  0.691721  0.005587  1
  Si  Si18  1  0.726669  0.313604  0.005625  1
  Si  Si19  1  0.056736  0.457362  0.585827  1
  Si  Si20  1  0.906007  0.500568  0.405893  1
  Si  Si21  1  0.507398  0.912180  0.406699  1
  Si  Si22  1  0.523802  0.123233  0.586842  1
  Si  Si23  1  0.249565  0.249434  0.000846  1
  Si  Si24  1  0.751553  0.751665  0.000980  1
  Si  Si25  1  0.298118  0.001380  0.296436  1
  Si  Si26  1  0.724005  0.012529  0.702547  1
  Si  Si27  1  0.980507  0.693099  0.703186  1
  Si  Si28  1  0.995988  0.292328  0.296397  1
  Pd  Pd29  1  0.396670  0.896122  0.794341  1
