# generated using pymatgen
data_Tm6Co4Si5Ge
_symmetry_space_group_name_H-M   'P 1'
_cell_length_a   5.53647000
_cell_length_b   5.53646948
_cell_length_c   13.48739900
_cell_angle_alpha   90.00000000
_cell_angle_beta   90.00000000
_cell_angle_gamma   136.86622783
_symmetry_Int_Tables_number   1
_chemical_formula_structural   Tm6Co4Si5Ge
_chemical_formula_sum   'Tm6 Co4 Si5 Ge1'
_cell_volume   282.65860518
_cell_formula_units_Z   1
loop_
 _symmetry_equiv_pos_site_id
 _symmetry_equiv_pos_as_xyz
  1  'x, y, z'
loop_
 _atom_site_type_symbol
 _atom_site_label
 _atom_site_symmetry_multiplicity
 _atom_site_fract_x
 _atom_site_fract_y
 _atom_site_fract_z
 _atom_site_occupancy
  Tm  Tm0  1  0.640124  0.359876  0.250000  1
  Tm  Tm1  1  0.361089  0.638911  0.750000  1
  Tm  Tm2  1  0.919018  0.080982  0.109743  1
  Tm  Tm3  1  0.081386  0.918614  0.887414  1
  Tm  Tm4  1  0.081386  0.918614  0.612586  1
  Tm  Tm5  1  0.919018  0.080982  0.390257  1
  Co  Co6  1  0.786033  0.213967  0.581918  1
  Co  Co7  1  0.211689  0.788311  0.421888  1
  Co  Co8  1  0.211689  0.788311  0.078112  1
  Co  Co9  1  0.786033  0.213967  0.918082  1
  Si  Si10  1  0.667744  0.332256  0.750000  1
  Si  Si11  1  0.617075  0.382925  0.039377  1
  Si  Si12  1  0.381733  0.618267  0.959250  1
  Si  Si13  1  0.381733  0.618267  0.540750  1
  Si  Si14  1  0.617075  0.382925  0.460623  1
  Ge  Ge15  1  0.337172  0.662828  0.250000  1
