# generated using pymatgen
data_Yb8HoThIr4
_symmetry_space_group_name_H-M   'P 1'
_cell_length_a   6.63215121
_cell_length_b   7.35071017
_cell_length_c   8.57400325
_cell_angle_alpha   97.28178194
_cell_angle_beta   112.75300179
_cell_angle_gamma   89.99999685
_symmetry_Int_Tables_number   1
_chemical_formula_structural   Yb8HoThIr4
_chemical_formula_sum   'Yb8 Ho1 Th1 Ir4'
_cell_volume   381.80533552
_cell_formula_units_Z   1
loop_
 _symmetry_equiv_pos_site_id
 _symmetry_equiv_pos_as_xyz
  1  'x, y, z'
loop_
 _atom_site_type_symbol
 _atom_site_label
 _atom_site_symmetry_multiplicity
 _atom_site_fract_x
 _atom_site_fract_y
 _atom_site_fract_z
 _atom_site_occupancy
  Yb  Yb0  1  0.977095  0.922764  0.173020  1
  Yb  Yb1  1  0.804076  0.577236  0.826980  1
  Yb  Yb2  1  0.023386  0.082756  0.826572  1
  Yb  Yb3  1  0.196813  0.417244  0.173428  1
  Yb  Yb4  1  0.643645  0.819817  0.441834  1
  Yb  Yb5  1  0.201811  0.680183  0.558166  1
  Yb  Yb6  1  0.360063  0.180860  0.565581  1
  Yb  Yb7  1  0.794481  0.319140  0.434419  1
  Ho  Ho8  1  0.565721  0.250000  0.000000  1
  Th  Th9  1  0.432245  0.750000  0.000000  1
  Ir  Ir10  1  0.807492  0.577226  0.208038  1
  Ir  Ir11  1  0.599456  0.922774  0.791962  1
  Ir  Ir12  1  0.192718  0.429610  0.791720  1
  Ir  Ir13  1  0.400996  0.070390  0.208280  1
