# generated using pymatgen
data_Er2Tm2B12IrRh
_symmetry_space_group_name_H-M   'P 1'
_cell_length_a   3.61914800
_cell_length_b   9.12767019
_cell_length_c   11.46325300
_cell_angle_alpha   90.10907646
_cell_angle_beta   90.00000000
_cell_angle_gamma   90.00000000
_symmetry_Int_Tables_number   1
_chemical_formula_structural   Er2Tm2B12IrRh
_chemical_formula_sum   'Er4 Tm4 B24 Ir2 Rh2'
_cell_volume   378.68087628
_cell_formula_units_Z   2
loop_
 _symmetry_equiv_pos_site_id
 _symmetry_equiv_pos_as_xyz
  1  'x, y, z'
loop_
 _atom_site_type_symbol
 _atom_site_label
 _atom_site_symmetry_multiplicity
 _atom_site_fract_x
 _atom_site_fract_y
 _atom_site_fract_z
 _atom_site_occupancy
  Er  Er0  1  0.500000  0.322773  0.414225  1
  Er  Er1  1  0.500000  0.677227  0.585775  1
  Er  Er2  1  0.500000  0.179670  0.912855  1
  Er  Er3  1  0.500000  0.820330  0.087145  1
  Tm  Tm4  1  0.500000  0.445148  0.126483  1
  Tm  Tm5  1  0.500000  0.554852  0.873517  1
  Tm  Tm6  1  0.500000  0.056701  0.625881  1
  Tm  Tm7  1  0.500000  0.943299  0.374119  1
  B  B8  1  0.000000  0.109193  0.470261  1
  B  B9  1  0.000000  0.890807  0.529739  1
  B  B10  1  0.000000  0.391471  0.970595  1
  B  B11  1  0.000000  0.608529  0.029405  1
  B  B12  1  0.000000  0.132362  0.316348  1
  B  B13  1  0.000000  0.867638  0.683652  1
  B  B14  1  0.000000  0.366943  0.816570  1
  B  B15  1  0.000000  0.633057  0.183430  1
  B  B16  1  0.000000  0.054173  0.065466  1
  B  B17  1  0.000000  0.945827  0.934534  1
  B  B18  1  0.000000  0.446433  0.565191  1
  B  B19  1  0.000000  0.553567  0.434809  1
  B  B20  1  0.000000  0.482108  0.286764  1
  B  B21  1  0.000000  0.517892  0.713236  1
  B  B22  1  0.000000  0.017866  0.786200  1
  B  B23  1  0.000000  0.982134  0.213800  1
  B  B24  1  0.000000  0.250387  0.078982  1
  B  B25  1  0.000000  0.749613  0.921018  1
  B  B26  1  0.000000  0.250889  0.579223  1
  B  B27  1  0.000000  0.749111  0.420777  1
  B  B28  1  0.000000  0.294194  0.235448  1
  B  B29  1  0.000000  0.705806  0.764552  1
  B  B30  1  0.000000  0.205839  0.736015  1
  B  B31  1  0.000000  0.794161  0.263985  1
  Ir  Ir32  1  0.500000  0.138997  0.178061  1
  Ir  Ir33  1  0.500000  0.861003  0.821939  1
  Rh  Rh34  1  0.500000  0.360535  0.680346  1
  Rh  Rh35  1  0.500000  0.639465  0.319654  1
