# generated using pymatgen
data_K2EuB2Pd7
_symmetry_space_group_name_H-M   'P 1'
_cell_length_a   8.57986916
_cell_length_b   8.57986924
_cell_length_c   8.57986894
_cell_angle_alpha   38.41537211
_cell_angle_beta   38.41537525
_cell_angle_gamma   38.41536868
_symmetry_Int_Tables_number   1
_chemical_formula_structural   K2EuB2Pd7
_chemical_formula_sum   'K2 Eu1 B2 Pd7'
_cell_volume   219.06027582
_cell_formula_units_Z   1
loop_
 _symmetry_equiv_pos_site_id
 _symmetry_equiv_pos_as_xyz
  1  'x, y, z'
loop_
 _atom_site_type_symbol
 _atom_site_label
 _atom_site_symmetry_multiplicity
 _atom_site_fract_x
 _atom_site_fract_y
 _atom_site_fract_z
 _atom_site_occupancy
  K  K0  1  0.352380  0.352380  0.352380  1
  K  K1  1  0.647620  0.647620  0.647620  1
  Eu  Eu2  1  0.500000  0.500000  0.500000  1
  B  B3  1  0.168349  0.168349  0.168349  1
  B  B4  1  0.831651  0.831651  0.831651  1
  Pd  Pd5  1  0.000000  0.000000  0.000000  1
  Pd  Pd6  1  0.566331  0.058264  0.058264  1
  Pd  Pd7  1  0.058264  0.566331  0.058264  1
  Pd  Pd8  1  0.941736  0.941736  0.433669  1
  Pd  Pd9  1  0.058264  0.058264  0.566331  1
  Pd  Pd10  1  0.941736  0.433669  0.941736  1
  Pd  Pd11  1  0.433669  0.941736  0.941736  1
