# generated using pymatgen
data_Tm3Cd3CuHgAu
_symmetry_space_group_name_H-M   'P 1'
_cell_length_a   3.78545500
_cell_length_b   7.80704276
_cell_length_c   7.80704400
_cell_angle_alpha   120.00000526
_cell_angle_beta   90.00000000
_cell_angle_gamma   90.00000000
_symmetry_Int_Tables_number   1
_chemical_formula_structural   Tm3Cd3CuHgAu
_chemical_formula_sum   'Tm3 Cd3 Cu1 Hg1 Au1'
_cell_volume   199.81214479
_cell_formula_units_Z   1
loop_
 _symmetry_equiv_pos_site_id
 _symmetry_equiv_pos_as_xyz
  1  'x, y, z'
loop_
 _atom_site_type_symbol
 _atom_site_label
 _atom_site_symmetry_multiplicity
 _atom_site_fract_x
 _atom_site_fract_y
 _atom_site_fract_z
 _atom_site_occupancy
  Tm  Tm0  1  0.000000  0.395755  0.411421  1
  Tm  Tm1  1  0.000000  0.015667  0.604245  1
  Tm  Tm2  1  0.000000  0.588579  0.984333  1
  Cd  Cd3  1  0.500000  0.752584  0.750713  1
  Cd  Cd4  1  0.500000  0.998128  0.247416  1
  Cd  Cd5  1  0.500000  0.249287  0.001872  1
  Cu  Cu6  1  0.000000  0.000000  0.000000  1
  Hg  Hg7  1  0.500000  0.666667  0.333333  1
  Au  Au8  1  0.500000  0.333333  0.666667  1
