# generated using pymatgen
data_Pr10Ga5Bi
_symmetry_space_group_name_H-M   'P 1'
_cell_length_a   8.10525100
_cell_length_b   8.10525100
_cell_length_c   14.55289300
_cell_angle_alpha   90.00000000
_cell_angle_beta   90.00000000
_cell_angle_gamma   90.00000000
_symmetry_Int_Tables_number   1
_chemical_formula_structural   Pr10Ga5Bi
_chemical_formula_sum   'Pr20 Ga10 Bi2'
_cell_volume   956.05367030
_cell_formula_units_Z   2
loop_
 _symmetry_equiv_pos_site_id
 _symmetry_equiv_pos_as_xyz
  1  'x, y, z'
loop_
 _atom_site_type_symbol
 _atom_site_label
 _atom_site_symmetry_multiplicity
 _atom_site_fract_x
 _atom_site_fract_y
 _atom_site_fract_z
 _atom_site_occupancy
  Pr  Pr0  1  0.825551  0.835298  0.610211  1
  Pr  Pr1  1  0.173726  0.837261  0.100837  1
  Pr  Pr2  1  0.164702  0.825551  0.389789  1
  Pr  Pr3  1  0.000000  0.500000  0.772025  1
  Pr  Pr4  1  0.835298  0.174449  0.389789  1
  Pr  Pr5  1  0.674449  0.664702  0.389789  1
  Pr  Pr6  1  0.664702  0.325551  0.610211  1
  Pr  Pr7  1  0.335298  0.674449  0.610211  1
  Pr  Pr8  1  0.000000  0.500000  0.205755  1
  Pr  Pr9  1  0.662739  0.673726  0.100837  1
  Pr  Pr10  1  0.673726  0.337261  0.899163  1
  Pr  Pr11  1  0.837261  0.826274  0.899163  1
  Pr  Pr12  1  0.325551  0.335298  0.389789  1
  Pr  Pr13  1  0.174449  0.164702  0.610211  1
  Pr  Pr14  1  0.826274  0.162739  0.100837  1
  Pr  Pr15  1  0.326274  0.662739  0.899163  1
  Pr  Pr16  1  0.337261  0.326274  0.100837  1
  Pr  Pr17  1  0.500000  0.000000  0.227975  1
  Pr  Pr18  1  0.162739  0.173726  0.899163  1
  Pr  Pr19  1  0.500000  0.000000  0.794245  1
  Ga  Ga20  1  0.622972  0.378478  0.251392  1
  Ga  Ga21  1  0.122972  0.878478  0.748608  1
  Ga  Ga22  1  0.378478  0.377028  0.748608  1
  Ga  Ga23  1  0.377028  0.621522  0.251392  1
  Ga  Ga24  1  0.878478  0.877028  0.251392  1
  Ga  Ga25  1  0.621522  0.622972  0.748608  1
  Ga  Ga26  1  0.877028  0.121522  0.748608  1
  Ga  Ga27  1  0.500000  0.000000  0.007495  1
  Ga  Ga28  1  0.121522  0.122972  0.251392  1
  Ga  Ga29  1  0.000000  0.500000  0.992505  1
  Bi  Bi30  1  0.000000  0.500000  0.509722  1
  Bi  Bi31  1  0.500000  0.000000  0.490278  1
