# generated using pymatgen
data_Li6V5PRh12
_symmetry_space_group_name_H-M   'P 1'
_cell_length_a   4.19058801
_cell_length_b   5.87904600
_cell_length_c   12.49907002
_cell_angle_alpha   90.00013698
_cell_angle_beta   89.99437347
_cell_angle_gamma   89.99981658
_symmetry_Int_Tables_number   1
_chemical_formula_structural   Li6V5PRh12
_chemical_formula_sum   'Li6 V5 P1 Rh12'
_cell_volume   307.93533240
_cell_formula_units_Z   1
loop_
 _symmetry_equiv_pos_site_id
 _symmetry_equiv_pos_as_xyz
  1  'x, y, z'
loop_
 _atom_site_type_symbol
 _atom_site_label
 _atom_site_symmetry_multiplicity
 _atom_site_fract_x
 _atom_site_fract_y
 _atom_site_fract_z
 _atom_site_occupancy
  Li  Li0  1  0.000000  0.000000  0.000000  1
  Li  Li1  1  0.499522  0.500000  0.168485  1
  Li  Li2  1  0.999566  0.999998  0.330460  1
  Li  Li3  1  0.499999  0.500000  0.500000  1
  Li  Li4  1  0.000435  0.000002  0.669540  1
  Li  Li5  1  0.500478  0.500000  0.831515  1
  V  V6  1  0.499666  0.000000  0.165337  1
  V  V7  1  0.999618  0.499999  0.332711  1
  V  V8  1  0.499999  0.000000  0.500000  1
  V  V9  1  0.000383  0.500001  0.667289  1
  V  V10  1  0.500334  0.000000  0.834663  1
  P  P11  1  0.000000  0.500000  0.000000  1
  Rh  Rh12  1  0.499997  0.258806  0.000000  1
  Rh  Rh13  1  0.500001  0.741192  0.000000  1
  Rh  Rh14  1  0.999683  0.256087  0.160803  1
  Rh  Rh15  1  0.999685  0.743912  0.160803  1
  Rh  Rh16  1  0.499655  0.248740  0.332374  1
  Rh  Rh17  1  0.499657  0.751259  0.332374  1
  Rh  Rh18  1  0.999998  0.250344  0.500000  1
  Rh  Rh19  1  0.000002  0.749654  0.500000  1
  Rh  Rh20  1  0.500344  0.248741  0.667625  1
  Rh  Rh21  1  0.500346  0.751260  0.667625  1
  Rh  Rh22  1  0.000316  0.256088  0.839197  1
  Rh  Rh23  1  0.000318  0.743913  0.839197  1
