# generated using pymatgen
data_Ho5Tm5Si5As
_symmetry_space_group_name_H-M   'P 1'
_cell_length_a   8.36854789
_cell_length_b   8.38693737
_cell_length_c   6.23550000
_cell_angle_alpha   90.00000000
_cell_angle_beta   90.00000000
_cell_angle_gamma   119.98025959
_symmetry_Int_Tables_number   1
_chemical_formula_structural   Ho5Tm5Si5As
_chemical_formula_sum   'Ho5 Tm5 Si5 As1'
_cell_volume   379.08951716
_cell_formula_units_Z   1
loop_
 _symmetry_equiv_pos_site_id
 _symmetry_equiv_pos_as_xyz
  1  'x, y, z'
loop_
 _atom_site_type_symbol
 _atom_site_label
 _atom_site_symmetry_multiplicity
 _atom_site_fract_x
 _atom_site_fract_y
 _atom_site_fract_z
 _atom_site_occupancy
  Ho  Ho0  1  0.996419  0.753279  0.750000  1
  Ho  Ho1  1  0.756204  0.756042  0.250000  1
  Ho  Ho2  1  0.758382  0.000170  0.750000  1
  Ho  Ho3  1  0.242762  0.246505  0.750000  1
  Ho  Ho4  1  0.243230  0.000122  0.250000  1
  Tm  Tm5  1  0.000270  0.244291  0.250000  1
  Tm  Tm6  1  0.332856  0.663732  0.498666  1
  Tm  Tm7  1  0.669214  0.336088  0.001328  1
  Tm  Tm8  1  0.669214  0.336088  0.498672  1
  Tm  Tm9  1  0.332856  0.663732  0.001334  1
  Si  Si10  1  0.393918  0.393217  0.250000  1
  Si  Si11  1  0.001129  0.606177  0.250000  1
  Si  Si12  1  0.999738  0.394476  0.750000  1
  Si  Si13  1  0.605304  0.605615  0.750000  1
  Si  Si14  1  0.607110  0.000443  0.250000  1
  As  As15  1  0.391391  0.000021  0.750000  1
