# generated using pymatgen
data_RbTl(PO3)4
_symmetry_space_group_name_H-M   'P 1'
_cell_length_a   13.94320000
_cell_length_b   5.37831227
_cell_length_c   7.69560900
_cell_angle_alpha   80.14169009
_cell_angle_beta   90.00000000
_cell_angle_gamma   90.00000000
_symmetry_Int_Tables_number   1
_chemical_formula_structural   RbTl(PO3)4
_chemical_formula_sum   'Rb2 Tl2 P8 O24'
_cell_volume   568.57914821
_cell_formula_units_Z   2
loop_
 _symmetry_equiv_pos_site_id
 _symmetry_equiv_pos_as_xyz
  1  'x, y, z'
loop_
 _atom_site_type_symbol
 _atom_site_label
 _atom_site_symmetry_multiplicity
 _atom_site_fract_x
 _atom_site_fract_y
 _atom_site_fract_z
 _atom_site_occupancy
  Rb  Rb0  1  0.014472  0.430987  0.845921  1
  Rb  Rb1  1  0.514472  0.569013  0.154079  1
  Tl  Tl2  1  0.236951  0.506614  0.483015  1
  Tl  Tl3  1  0.736951  0.493386  0.516985  1
  P  P4  1  0.878940  0.010649  0.440128  1
  P  P5  1  0.815864  0.792018  0.130672  1
  P  P6  1  0.378940  0.989351  0.559872  1
  P  P7  1  0.175894  0.874550  0.089262  1
  P  P8  1  0.095345  0.028134  0.421930  1
  P  P9  1  0.595345  0.971866  0.578070  1
  P  P10  1  0.675894  0.125450  0.910738  1
  P  P11  1  0.315864  0.207982  0.869328  1
  O  O12  1  0.153197  0.831778  0.541513  1
  O  O13  1  0.095269  0.288835  0.468609  1
  O  O14  1  0.623805  0.953803  0.780405  1
  O  O15  1  0.988181  0.921145  0.430066  1
  O  O16  1  0.875855  0.270422  0.488667  1
  O  O17  1  0.841328  0.019999  0.244069  1
  O  O18  1  0.123805  0.046197  0.219595  1
  O  O19  1  0.613063  0.126739  0.065175  1
  O  O20  1  0.113063  0.873261  0.934825  1
  O  O21  1  0.232904  0.358138  0.772727  1
  O  O22  1  0.375855  0.729578  0.511333  1
  O  O23  1  0.595269  0.711165  0.531391  1
  O  O24  1  0.653197  0.168222  0.458487  1
  O  O25  1  0.488181  0.078855  0.569934  1
  O  O26  1  0.273015  0.038903  0.044260  1
  O  O27  1  0.904023  0.665522  0.085779  1
  O  O28  1  0.710158  0.373545  0.804043  1
  O  O29  1  0.773015  0.961097  0.955740  1
  O  O30  1  0.404023  0.334478  0.914221  1
  O  O31  1  0.831500  0.803845  0.570952  1
  O  O32  1  0.331500  0.196155  0.429048  1
  O  O33  1  0.341328  0.980001  0.755931  1
  O  O34  1  0.732904  0.641862  0.227273  1
  O  O35  1  0.210158  0.626455  0.195957  1
