# generated using pymatgen
data_TcP2O7
_symmetry_space_group_name_H-M   'P 1'
_cell_length_a   5.18729609
_cell_length_b   6.76770449
_cell_length_c   8.36278141
_cell_angle_alpha   69.78265941
_cell_angle_beta   88.36126181
_cell_angle_gamma   88.36517812
_symmetry_Int_Tables_number   1
_chemical_formula_structural   TcP2O7
_chemical_formula_sum   'Tc2 P4 O14'
_cell_volume   275.32924912
_cell_formula_units_Z   2
loop_
 _symmetry_equiv_pos_site_id
 _symmetry_equiv_pos_as_xyz
  1  'x, y, z'
loop_
 _atom_site_type_symbol
 _atom_site_label
 _atom_site_symmetry_multiplicity
 _atom_site_fract_x
 _atom_site_fract_y
 _atom_site_fract_z
 _atom_site_occupancy
  Tc  Tc0  1  0.758972  0.790454  0.268303  1
  Tc  Tc1  1  0.241028  0.209546  0.731697  1
  P  P2  1  0.278289  0.453163  0.311025  1
  P  P3  1  0.721711  0.546837  0.688975  1
  P  P4  1  0.242462  0.107230  0.167651  1
  P  P5  1  0.757538  0.892770  0.832349  1
  O  O6  1  0.559415  0.041490  0.714363  1
  O  O7  1  0.965196  0.051207  0.233335  1
  O  O8  1  0.034804  0.948793  0.766665  1
  O  O9  1  0.087536  0.637203  0.242904  1
  O  O10  1  0.192839  0.287464  0.479557  1
  O  O11  1  0.284395  0.340039  0.170525  1
  O  O12  1  0.286827  0.127583  0.982585  1
  O  O13  1  0.440585  0.958510  0.285637  1
  O  O14  1  0.807161  0.712536  0.520443  1
  O  O15  1  0.554335  0.526431  0.312587  1
  O  O16  1  0.912464  0.362797  0.757096  1
  O  O17  1  0.713173  0.872417  0.017415  1
  O  O18  1  0.715605  0.659961  0.829475  1
  O  O19  1  0.445665  0.473569  0.687413  1
