# generated using pymatgen
data_Tb5Ho(Si3Os)8
_symmetry_space_group_name_H-M   'P 1'
_cell_length_a   10.13209619
_cell_length_b   10.13209692
_cell_length_c   8.17734317
_cell_angle_alpha   89.97309638
_cell_angle_beta   89.97309746
_cell_angle_gamma   132.45941878
_symmetry_Int_Tables_number   1
_chemical_formula_structural   Tb5Ho(Si3Os)8
_chemical_formula_sum   'Tb5 Ho1 Si24 Os8'
_cell_volume   619.33142440
_cell_formula_units_Z   1
loop_
 _symmetry_equiv_pos_site_id
 _symmetry_equiv_pos_as_xyz
  1  'x, y, z'
loop_
 _atom_site_type_symbol
 _atom_site_label
 _atom_site_symmetry_multiplicity
 _atom_site_fract_x
 _atom_site_fract_y
 _atom_site_fract_z
 _atom_site_occupancy
  Tb  Tb0  1  0.500000  0.500000  0.500000  1
  Tb  Tb1  1  0.501699  0.001941  0.750558  1
  Tb  Tb2  1  0.998059  0.498301  0.249442  1
  Tb  Tb3  1  0.498301  0.998059  0.249442  1
  Tb  Tb4  1  0.001941  0.501699  0.750558  1
  Ho  Ho5  1  0.000000  0.000000  0.000000  1
  Si  Si6  1  0.795358  0.204642  0.500000  1
  Si  Si7  1  0.294812  0.705188  0.000000  1
  Si  Si8  1  0.204642  0.795358  0.500000  1
  Si  Si9  1  0.705188  0.294812  0.000000  1
  Si  Si10  1  0.332762  0.332762  0.832791  1
  Si  Si11  1  0.667238  0.667238  0.167209  1
  Si  Si12  1  0.168167  0.168167  0.333245  1
  Si  Si13  1  0.831833  0.831833  0.666755  1
  Si  Si14  1  0.122635  0.888313  0.728404  1
  Si  Si15  1  0.111687  0.877365  0.271596  1
  Si  Si16  1  0.613787  0.378945  0.227679  1
  Si  Si17  1  0.621055  0.386213  0.772321  1
  Si  Si18  1  0.877365  0.111687  0.271596  1
  Si  Si19  1  0.888313  0.122635  0.728404  1
  Si  Si20  1  0.386213  0.621055  0.772321  1
  Si  Si21  1  0.378945  0.613787  0.227679  1
  Si  Si22  1  0.345246  0.111674  0.504787  1
  Si  Si23  1  0.888326  0.654754  0.495213  1
  Si  Si24  1  0.389305  0.155356  0.004325  1
  Si  Si25  1  0.844644  0.610695  0.995675  1
  Si  Si26  1  0.654754  0.888326  0.495213  1
  Si  Si27  1  0.111674  0.345246  0.504787  1
  Si  Si28  1  0.610695  0.844644  0.995675  1
  Si  Si29  1  0.155356  0.389305  0.004325  1
  Os  Os30  1  0.669216  0.330784  0.500000  1
  Os  Os31  1  0.168221  0.831779  0.000000  1
  Os  Os32  1  0.330784  0.669216  0.500000  1
  Os  Os33  1  0.831779  0.168221  0.000000  1
  Os  Os34  1  0.126022  0.126022  0.628585  1
  Os  Os35  1  0.873978  0.873978  0.371415  1
  Os  Os36  1  0.372948  0.372948  0.126394  1
  Os  Os37  1  0.627052  0.627052  0.873606  1
