# generated using pymatgen
data_Sr7Yb(CN4)2
_symmetry_space_group_name_H-M   'P 1'
_cell_length_a   3.79301600
_cell_length_b   12.12210351
_cell_length_c   14.74639299
_cell_angle_alpha   88.49353084
_cell_angle_beta   90.00000000
_cell_angle_gamma   90.00000000
_symmetry_Int_Tables_number   1
_chemical_formula_structural   Sr7Yb(CN4)2
_chemical_formula_sum   'Sr14 Yb2 C4 N16'
_cell_volume   677.79495566
_cell_formula_units_Z   2
loop_
 _symmetry_equiv_pos_site_id
 _symmetry_equiv_pos_as_xyz
  1  'x, y, z'
loop_
 _atom_site_type_symbol
 _atom_site_label
 _atom_site_symmetry_multiplicity
 _atom_site_fract_x
 _atom_site_fract_y
 _atom_site_fract_z
 _atom_site_occupancy
  Sr  Sr0  1  0.250000  0.650668  0.252434  1
  Sr  Sr1  1  0.750000  0.349332  0.747566  1
  Sr  Sr2  1  0.250000  0.140455  0.240280  1
  Sr  Sr3  1  0.750000  0.859545  0.759720  1
  Sr  Sr4  1  0.250000  0.886461  0.381659  1
  Sr  Sr5  1  0.750000  0.113539  0.618341  1
  Sr  Sr6  1  0.250000  0.382631  0.105512  1
  Sr  Sr7  1  0.750000  0.617369  0.894488  1
  Sr  Sr8  1  0.250000  0.375362  0.542222  1
  Sr  Sr9  1  0.750000  0.624638  0.457778  1
  Sr  Sr10  1  0.250000  0.878241  0.962839  1
  Sr  Sr11  1  0.750000  0.121759  0.037161  1
  Sr  Sr12  1  0.250000  0.612112  0.673750  1
  Sr  Sr13  1  0.750000  0.387888  0.326250  1
  Yb  Yb14  1  0.250000  0.112730  0.831577  1
  Yb  Yb15  1  0.750000  0.887270  0.168423  1
  C  C16  1  0.250000  0.854550  0.583230  1
  C  C17  1  0.750000  0.145450  0.416770  1
  C  C18  1  0.250000  0.351897  0.912088  1
  C  C19  1  0.750000  0.648103  0.087912  1
  N  N20  1  0.250000  0.941608  0.626005  1
  N  N21  1  0.750000  0.058392  0.373995  1
  N  N22  1  0.250000  0.446289  0.876878  1
  N  N23  1  0.750000  0.553711  0.123122  1
  N  N24  1  0.250000  0.767753  0.539789  1
  N  N25  1  0.750000  0.232247  0.460211  1
  N  N26  1  0.250000  0.258335  0.949008  1
  N  N27  1  0.750000  0.741665  0.050992  1
  N  N28  1  0.250000  0.506594  0.379281  1
  N  N29  1  0.750000  0.493406  0.620719  1
  N  N30  1  0.250000  0.994765  0.121859  1
  N  N31  1  0.750000  0.005235  0.878141  1
  N  N32  1  0.750000  0.270910  0.177720  1
  N  N33  1  0.250000  0.729090  0.822280  1
  N  N34  1  0.750000  0.779002  0.307930  1
  N  N35  1  0.250000  0.220998  0.692070  1
