# generated using pymatgen
data_Ce2PaS6
_symmetry_space_group_name_H-M   'P 1'
_cell_length_a   7.34408200
_cell_length_b   7.34400174
_cell_length_c   4.07532900
_cell_angle_alpha   90.00000000
_cell_angle_beta   90.00000000
_cell_angle_gamma   119.99964229
_symmetry_Int_Tables_number   1
_chemical_formula_structural   Ce2PaS6
_chemical_formula_sum   'Ce2 Pa1 S6'
_cell_volume   190.35538214
_cell_formula_units_Z   1
loop_
 _symmetry_equiv_pos_site_id
 _symmetry_equiv_pos_as_xyz
  1  'x, y, z'
loop_
 _atom_site_type_symbol
 _atom_site_label
 _atom_site_symmetry_multiplicity
 _atom_site_fract_x
 _atom_site_fract_y
 _atom_site_fract_z
 _atom_site_occupancy
  Ce  Ce0  1  0.666661  0.333331  0.500000  1
  Ce  Ce1  1  0.333339  0.666669  0.500000  1
  Pa  Pa2  1  0.000000  0.000000  0.000000  1
  S  S3  1  0.401465  0.000000  0.000000  1
  S  S4  1  0.000000  0.401465  0.000000  1
  S  S5  1  0.598536  0.598536  0.000000  1
  S  S6  1  0.748849  0.000000  0.500000  1
  S  S7  1  0.251151  0.251151  0.500000  1
  S  S8  1  0.000000  0.748850  0.500000  1
