# generated using pymatgen
data_ScTl3(SO4)6
_symmetry_space_group_name_H-M   'P 1'
_cell_length_a   8.67139033
_cell_length_b   8.67065480
_cell_length_c   9.36287300
_cell_angle_alpha   62.39810595
_cell_angle_beta   62.42953451
_cell_angle_gamma   60.04712107
_symmetry_Int_Tables_number   1
_chemical_formula_structural   ScTl3(SO4)6
_chemical_formula_sum   'Sc1 Tl3 S6 O24'
_cell_volume   515.36671138
_cell_formula_units_Z   1
loop_
 _symmetry_equiv_pos_site_id
 _symmetry_equiv_pos_as_xyz
  1  'x, y, z'
loop_
 _atom_site_type_symbol
 _atom_site_label
 _atom_site_symmetry_multiplicity
 _atom_site_fract_x
 _atom_site_fract_y
 _atom_site_fract_z
 _atom_site_occupancy
  Sc  Sc0  1  0.845405  0.845728  0.463181  1
  Tl  Tl1  1  0.647769  0.646365  0.059814  1
  Tl  Tl2  1  0.354751  0.354489  0.935681  1
  Tl  Tl3  1  0.153237  0.153690  0.540747  1
  S  S4  1  0.747635  0.455722  0.748979  1
  S  S5  1  0.047111  0.747749  0.749516  1
  S  S6  1  0.553016  0.954913  0.249490  1
  S  S7  1  0.955242  0.242536  0.249600  1
  S  S8  1  0.242456  0.553876  0.248720  1
  S  S9  1  0.456113  0.046820  0.748907  1
  O  O10  1  0.927599  0.681345  0.923547  1
  O  O11  1  0.470641  0.926104  0.921786  1
  O  O12  1  0.661050  0.974294  0.321336  1
  O  O13  1  0.359546  0.973758  0.365750  1
  O  O14  1  0.004156  0.949522  0.712565  1
  O  O15  1  0.722519  0.643020  0.621508  1
  O  O16  1  0.680135  0.470478  0.921907  1
  O  O17  1  0.648556  0.763801  0.231087  1
  O  O18  1  0.949208  0.333333  0.713792  1
  O  O19  1  0.246171  0.636697  0.744968  1
  O  O20  1  0.636901  0.370955  0.745470  1
  O  O21  1  0.009974  0.721608  0.624216  1
  O  O22  1  0.973867  0.302428  0.364949  1
  O  O23  1  0.357090  0.649946  0.228347  1
  O  O24  1  0.764526  0.356164  0.230160  1
  O  O25  1  0.043823  0.662026  0.321257  1
  O  O26  1  0.371067  0.245593  0.745741  1
  O  O27  1  0.264922  0.552733  0.081342  1
  O  O28  1  0.301298  0.360631  0.365466  1
  O  O29  1  0.973930  0.043473  0.323068  1
  O  O30  1  0.643425  0.012520  0.621741  1
  O  O31  1  0.334134  0.002876  0.712879  1
  O  O32  1  0.552693  0.099223  0.081068  1
  O  O33  1  0.100033  0.265582  0.081416  1
