# generated using pymatgen
data_Ca2Pa(Ga2Co3)3
_symmetry_space_group_name_H-M   'P 1'
_cell_length_a   4.17076800
_cell_length_b   8.66324473
_cell_length_c   8.66324603
_cell_angle_alpha   60.00691116
_cell_angle_beta   90.00000000
_cell_angle_gamma   90.00000000
_symmetry_Int_Tables_number   1
_chemical_formula_structural   Ca2Pa(Ga2Co3)3
_chemical_formula_sum   'Ca2 Pa1 Ga6 Co9'
_cell_volume   271.10538013
_cell_formula_units_Z   1
loop_
 _symmetry_equiv_pos_site_id
 _symmetry_equiv_pos_as_xyz
  1  'x, y, z'
loop_
 _atom_site_type_symbol
 _atom_site_label
 _atom_site_symmetry_multiplicity
 _atom_site_fract_x
 _atom_site_fract_y
 _atom_site_fract_z
 _atom_site_occupancy
  Ca  Ca0  1  0.500000  0.333248  0.333070  1
  Ca  Ca1  1  0.500000  0.666930  0.666752  1
  Pa  Pa2  1  0.000000  0.999569  0.000431  1
  Ga  Ga3  1  0.000000  0.494166  0.505834  1
  Ga  Ga4  1  0.000000  0.506793  0.999799  1
  Ga  Ga5  1  0.000000  0.000201  0.493207  1
  Ga  Ga6  1  0.500000  0.721804  0.278196  1
  Ga  Ga7  1  0.500000  0.278171  0.000973  1
  Ga  Ga8  1  0.500000  0.999027  0.721829  1
  Co  Co9  1  0.000000  0.172131  0.171556  1
  Co  Co10  1  0.000000  0.172270  0.655827  1
  Co  Co11  1  0.000000  0.656020  0.171810  1
  Co  Co12  1  0.000000  0.828444  0.827869  1
  Co  Co13  1  0.000000  0.344173  0.827730  1
  Co  Co14  1  0.000000  0.828190  0.343980  1
  Co  Co15  1  0.500000  0.290294  0.709706  1
  Co  Co16  1  0.500000  0.708572  0.000102  1
  Co  Co17  1  0.500000  0.999898  0.291428  1
