# generated using pymatgen
data_TbMnCo4P3
_symmetry_space_group_name_H-M   'P 1'
_cell_length_a   3.65465700
_cell_length_b   10.32379300
_cell_length_c   11.81271900
_cell_angle_alpha   90.00000000
_cell_angle_beta   90.00000000
_cell_angle_gamma   90.00000000
_symmetry_Int_Tables_number   1
_chemical_formula_structural   TbMnCo4P3
_chemical_formula_sum   'Tb4 Mn4 Co16 P12'
_cell_volume   445.69297066
_cell_formula_units_Z   4
loop_
 _symmetry_equiv_pos_site_id
 _symmetry_equiv_pos_as_xyz
  1  'x, y, z'
loop_
 _atom_site_type_symbol
 _atom_site_label
 _atom_site_symmetry_multiplicity
 _atom_site_fract_x
 _atom_site_fract_y
 _atom_site_fract_z
 _atom_site_occupancy
  Tb  Tb0  1  0.250000  0.582263  0.704105  1
  Tb  Tb1  1  0.250000  0.917737  0.204105  1
  Tb  Tb2  1  0.750000  0.417737  0.295895  1
  Tb  Tb3  1  0.750000  0.082263  0.795895  1
  Mn  Mn4  1  0.250000  0.709768  0.988747  1
  Mn  Mn5  1  0.250000  0.790232  0.488747  1
  Mn  Mn6  1  0.750000  0.290232  0.011253  1
  Mn  Mn7  1  0.750000  0.209768  0.511253  1
  Co  Co8  1  0.250000  0.406454  0.488238  1
  Co  Co9  1  0.250000  0.093546  0.988238  1
  Co  Co10  1  0.750000  0.593546  0.511762  1
  Co  Co11  1  0.750000  0.906454  0.011762  1
  Co  Co12  1  0.250000  0.220828  0.176554  1
  Co  Co13  1  0.250000  0.279172  0.676554  1
  Co  Co14  1  0.750000  0.779172  0.823446  1
  Co  Co15  1  0.750000  0.720828  0.323446  1
  Co  Co16  1  0.250000  0.883401  0.698529  1
  Co  Co17  1  0.250000  0.616599  0.198529  1
  Co  Co18  1  0.750000  0.116599  0.301471  1
  Co  Co19  1  0.750000  0.383401  0.801471  1
  Co  Co20  1  0.250000  0.466135  0.932728  1
  Co  Co21  1  0.250000  0.033865  0.432728  1
  Co  Co22  1  0.750000  0.533865  0.067272  1
  Co  Co23  1  0.750000  0.966135  0.567272  1
  P  P24  1  0.250000  0.418961  0.112229  1
  P  P25  1  0.250000  0.081039  0.612229  1
  P  P26  1  0.750000  0.581039  0.887771  1
  P  P27  1  0.750000  0.918961  0.387771  1
  P  P28  1  0.250000  0.270630  0.867959  1
  P  P29  1  0.250000  0.229370  0.367959  1
  P  P30  1  0.750000  0.729370  0.132041  1
  P  P31  1  0.750000  0.770630  0.632041  1
  P  P32  1  0.250000  0.600693  0.391354  1
  P  P33  1  0.250000  0.899307  0.891354  1
  P  P34  1  0.750000  0.399307  0.608646  1
  P  P35  1  0.750000  0.100693  0.108646  1
