# generated using pymatgen
data_YTmCrCo11As7
_symmetry_space_group_name_H-M   'P 1'
_cell_length_a   3.73744600
_cell_length_b   9.36074397
_cell_length_c   9.38708972
_cell_angle_alpha   119.84786506
_cell_angle_beta   90.00000000
_cell_angle_gamma   90.00000000
_symmetry_Int_Tables_number   1
_chemical_formula_structural   YTmCrCo11As7
_chemical_formula_sum   'Y1 Tm1 Cr1 Co11 As7'
_cell_volume   284.84633327
_cell_formula_units_Z   1
loop_
 _symmetry_equiv_pos_site_id
 _symmetry_equiv_pos_as_xyz
  1  'x, y, z'
loop_
 _atom_site_type_symbol
 _atom_site_label
 _atom_site_symmetry_multiplicity
 _atom_site_fract_x
 _atom_site_fract_y
 _atom_site_fract_z
 _atom_site_occupancy
  Y  Y0  1  0.000000  0.667947  0.337202  1
  Tm  Tm1  1  0.500000  0.331742  0.665962  1
  Cr  Cr2  1  0.500000  0.780793  0.897679  1
  Co  Co3  1  0.000000  0.567173  0.940183  1
  Co  Co4  1  0.000000  0.372985  0.431296  1
  Co  Co5  1  0.000000  0.059657  0.625682  1
  Co  Co6  1  0.500000  0.122636  0.222754  1
  Co  Co7  1  0.500000  0.098513  0.875218  1
  Co  Co8  1  0.000000  0.879039  0.157668  1
  Co  Co9  1  0.000000  0.278870  0.121712  1
  Co  Co10  1  0.000000  0.844883  0.724465  1
  Co  Co11  1  0.500000  0.949374  0.382102  1
  Co  Co12  1  0.500000  0.430966  0.049378  1
  Co  Co13  1  0.500000  0.618039  0.567201  1
  As  As14  1  0.000000  0.003788  0.002777  1
  As  As15  1  0.500000  0.706129  0.117002  1
  As  As16  1  0.500000  0.404244  0.290801  1
  As  As17  1  0.500000  0.887564  0.595571  1
  As  As18  1  0.000000  0.586255  0.702721  1
  As  As19  1  0.000000  0.115880  0.409561  1
  As  As20  1  0.000000  0.293521  0.883065  1
