# generated using pymatgen
data_La2DyHo5(WO6)4
_symmetry_space_group_name_H-M   'P 1'
_cell_length_a   5.46581300
_cell_length_b   7.78865263
_cell_length_c   11.58346499
_cell_angle_alpha   75.64362034
_cell_angle_beta   90.00000000
_cell_angle_gamma   90.00000000
_symmetry_Int_Tables_number   1
_chemical_formula_structural   La2DyHo5(WO6)4
_chemical_formula_sum   'La2 Dy1 Ho5 W4 O24'
_cell_volume   477.72422851
_cell_formula_units_Z   1
loop_
 _symmetry_equiv_pos_site_id
 _symmetry_equiv_pos_as_xyz
  1  'x, y, z'
loop_
 _atom_site_type_symbol
 _atom_site_label
 _atom_site_symmetry_multiplicity
 _atom_site_fract_x
 _atom_site_fract_y
 _atom_site_fract_z
 _atom_site_occupancy
  La  La0  1  0.686762  0.500000  0.750000  1
  La  La1  1  0.313101  0.500000  0.250000  1
  Dy  Dy2  1  0.740784  0.000000  0.750000  1
  Ho  Ho3  1  0.259403  0.000000  0.250000  1
  Ho  Ho4  1  0.188639  0.799840  0.576382  1
  Ho  Ho5  1  0.811491  0.799938  0.076605  1
  Ho  Ho6  1  0.188639  0.200160  0.923618  1
  Ho  Ho7  1  0.811491  0.200062  0.423395  1
  W  W8  1  0.251784  0.728327  0.884630  1
  W  W9  1  0.748177  0.728532  0.384521  1
  W  W10  1  0.251784  0.271673  0.615370  1
  W  W11  1  0.748177  0.271468  0.115479  1
  O  O12  1  0.039146  0.941942  0.896150  1
  O  O13  1  0.529534  0.846965  0.931431  1
  O  O14  1  0.961765  0.942101  0.395685  1
  O  O15  1  0.454353  0.795470  0.727744  1
  O  O16  1  0.470278  0.847324  0.431124  1
  O  O17  1  0.988755  0.721378  0.768750  1
  O  O18  1  0.544856  0.796110  0.227743  1
  O  O19  1  0.860852  0.643781  0.544285  1
  O  O20  1  0.347055  0.494101  0.888965  1
  O  O21  1  0.011288  0.721660  0.268692  1
  O  O22  1  0.347055  0.505899  0.611035  1
  O  O23  1  0.860852  0.356219  0.955715  1
  O  O24  1  0.138937  0.643538  0.044380  1
  O  O25  1  0.653065  0.494305  0.388850  1
  O  O26  1  0.988755  0.278622  0.731250  1
  O  O27  1  0.653065  0.505695  0.111150  1
  O  O28  1  0.138937  0.356462  0.455620  1
  O  O29  1  0.454353  0.204530  0.772256  1
  O  O30  1  0.011288  0.278340  0.231308  1
  O  O31  1  0.529534  0.153035  0.568569  1
  O  O32  1  0.544856  0.203890  0.272257  1
  O  O33  1  0.039146  0.058058  0.603850  1
  O  O34  1  0.470278  0.152676  0.068876  1
  O  O35  1  0.961765  0.057899  0.104315  1
