# generated using pymatgen
data_Y3Sn3PdRh2
_symmetry_space_group_name_H-M   'P 1'
_cell_length_a   7.61680200
_cell_length_b   7.61680198
_cell_length_c   3.87168300
_cell_angle_alpha   90.00000000
_cell_angle_beta   90.00000000
_cell_angle_gamma   120.00000010
_symmetry_Int_Tables_number   1
_chemical_formula_structural   Y3Sn3PdRh2
_chemical_formula_sum   'Y3 Sn3 Pd1 Rh2'
_cell_volume   194.52514773
_cell_formula_units_Z   1
loop_
 _symmetry_equiv_pos_site_id
 _symmetry_equiv_pos_as_xyz
  1  'x, y, z'
loop_
 _atom_site_type_symbol
 _atom_site_label
 _atom_site_symmetry_multiplicity
 _atom_site_fract_x
 _atom_site_fract_y
 _atom_site_fract_z
 _atom_site_occupancy
  Y  Y0  1  0.409467  0.008832  0.500000  1
  Y  Y1  1  0.991168  0.400635  0.500000  1
  Y  Y2  1  0.599365  0.590533  0.500000  1
  Sn  Sn3  1  0.741236  0.001196  0.000000  1
  Sn  Sn4  1  0.998804  0.740040  0.000000  1
  Sn  Sn5  1  0.259960  0.258764  0.000000  1
  Pd  Pd6  1  0.333333  0.666667  0.000000  1
  Rh  Rh7  1  0.666667  0.333333  0.000000  1
  Rh  Rh8  1  0.000000  0.000000  0.500000  1
