# generated using pymatgen
data_LaTa2Tl3S8
_symmetry_space_group_name_H-M   'P 1'
_cell_length_a   9.05699350
_cell_length_b   10.34849689
_cell_length_c   11.23369200
_cell_angle_alpha   107.32012376
_cell_angle_beta   102.53282727
_cell_angle_gamma   113.83333463
_symmetry_Int_Tables_number   1
_chemical_formula_structural   LaTa2Tl3S8
_chemical_formula_sum   'La2 Ta4 Tl6 S16'
_cell_volume   848.07976950
_cell_formula_units_Z   2
loop_
 _symmetry_equiv_pos_site_id
 _symmetry_equiv_pos_as_xyz
  1  'x, y, z'
loop_
 _atom_site_type_symbol
 _atom_site_label
 _atom_site_symmetry_multiplicity
 _atom_site_fract_x
 _atom_site_fract_y
 _atom_site_fract_z
 _atom_site_occupancy
  La  La0  1  0.991251  0.241251  0.482503  1
  La  La1  1  0.008749  0.758749  0.517497  1
  Ta  Ta2  1  0.737789  0.343658  0.248253  1
  Ta  Ta3  1  0.010464  0.904595  0.248253  1
  Ta  Ta4  1  0.989535  0.095405  0.751747  1
  Ta  Ta5  1  0.262211  0.656342  0.751747  1
  Tl  Tl6  1  0.000000  0.500000  0.000000  1
  Tl  Tl7  1  0.500000  0.500000  0.000000  1
  Tl  Tl8  1  0.253597  0.003597  0.007195  1
  Tl  Tl9  1  0.494050  0.744050  0.488100  1
  Tl  Tl10  1  0.505950  0.255950  0.511900  1
  Tl  Tl11  1  0.746403  0.996403  0.992806  1
  S  S12  1  0.643562  0.271861  0.021911  1
  S  S13  1  0.878350  0.750049  0.021911  1
  S  S14  1  0.644138  0.126316  0.290523  1
  S  S15  1  0.146384  0.164207  0.290523  1
  S  S16  1  0.035203  0.478913  0.346226  1
  S  S17  1  0.811023  0.867313  0.346226  1
  S  S18  1  0.643286  0.500102  0.353802  1
  S  S19  1  0.210517  0.853702  0.353802  1
  S  S20  1  0.789483  0.146298  0.646198  1
  S  S21  1  0.356715  0.499900  0.646198  1
  S  S22  1  0.188977  0.132687  0.653774  1
  S  S23  1  0.964797  0.521087  0.653774  1
  S  S24  1  0.853615  0.835793  0.709475  1
  S  S25  1  0.355862  0.873684  0.709475  1
  S  S26  1  0.121650  0.249950  0.978089  1
  S  S27  1  0.356439  0.728139  0.978089  1
