# generated using pymatgen
data_NdPa3CdO10
_symmetry_space_group_name_H-M   'P 1'
_cell_length_a   6.66777161
_cell_length_b   6.66777367
_cell_length_c   6.63673400
_cell_angle_alpha   100.30628219
_cell_angle_beta   98.93291760
_cell_angle_gamma   131.86429484
_symmetry_Int_Tables_number   1
_chemical_formula_structural   NdPa3CdO10
_chemical_formula_sum   'Nd1 Pa3 Cd1 O10'
_cell_volume   200.43046353
_cell_formula_units_Z   1
loop_
 _symmetry_equiv_pos_site_id
 _symmetry_equiv_pos_as_xyz
  1  'x, y, z'
loop_
 _atom_site_type_symbol
 _atom_site_label
 _atom_site_symmetry_multiplicity
 _atom_site_fract_x
 _atom_site_fract_y
 _atom_site_fract_z
 _atom_site_occupancy
  Nd  Nd0  1  0.002415  0.003149  0.005563  1
  Pa  Pa1  1  0.797578  0.598028  0.395607  1
  Pa  Pa2  1  0.198349  0.401207  0.599557  1
  Pa  Pa3  1  0.602874  0.198496  0.801370  1
  Cd  Cd4  1  0.398740  0.798337  0.197077  1
  O  O5  1  0.239838  0.747919  0.509356  1
  O  O6  1  0.640603  0.533187  0.692480  1
  O  O7  1  0.033800  0.338766  0.876949  1
  O  O8  1  0.469126  0.170155  0.099008  1
  O  O9  1  0.864008  0.957719  0.322620  1
  O  O10  1  0.364902  0.458613  0.322620  1
  O  O11  1  0.761438  0.269519  0.509356  1
  O  O12  1  0.159294  0.051877  0.692481  1
  O  O13  1  0.538182  0.843148  0.876950  1
  O  O14  1  0.928852  0.629881  0.099007  1
