# generated using pymatgen
data_Tb3Zn3CuSi2
_symmetry_space_group_name_H-M   'P 1'
_cell_length_a   6.81926300
_cell_length_b   6.81926276
_cell_length_c   4.27927100
_cell_angle_alpha   90.00000000
_cell_angle_beta   90.00000000
_cell_angle_gamma   119.99999633
_symmetry_Int_Tables_number   1
_chemical_formula_structural   Tb3Zn3CuSi2
_chemical_formula_sum   'Tb3 Zn3 Cu1 Si2'
_cell_volume   172.33572018
_cell_formula_units_Z   1
loop_
 _symmetry_equiv_pos_site_id
 _symmetry_equiv_pos_as_xyz
  1  'x, y, z'
loop_
 _atom_site_type_symbol
 _atom_site_label
 _atom_site_symmetry_multiplicity
 _atom_site_fract_x
 _atom_site_fract_y
 _atom_site_fract_z
 _atom_site_occupancy
  Tb  Tb0  1  0.413551  0.000000  0.000000  1
  Tb  Tb1  1  0.000000  0.413552  0.000000  1
  Tb  Tb2  1  0.586449  0.586448  0.000000  1
  Zn  Zn3  1  0.761112  0.000000  0.500000  1
  Zn  Zn4  1  0.238887  0.238888  0.500000  1
  Zn  Zn5  1  0.000000  0.761112  0.500000  1
  Cu  Cu6  1  0.000000  0.000000  0.000000  1
  Si  Si7  1  0.666667  0.333333  0.500000  1
  Si  Si8  1  0.333333  0.666667  0.500000  1
