# generated using pymatgen
data_Ho4InB4Ir9
_symmetry_space_group_name_H-M   'P 1'
_cell_length_a   10.94434943
_cell_length_b   10.94434920
_cell_length_c   10.94435101
_cell_angle_alpha   29.35589481
_cell_angle_beta   29.35589826
_cell_angle_gamma   29.35590239
_symmetry_Int_Tables_number   1
_chemical_formula_structural   Ho4InB4Ir9
_chemical_formula_sum   'Ho4 In1 B4 Ir9'
_cell_volume   278.79909483
_cell_formula_units_Z   1
loop_
 _symmetry_equiv_pos_site_id
 _symmetry_equiv_pos_as_xyz
  1  'x, y, z'
loop_
 _atom_site_type_symbol
 _atom_site_label
 _atom_site_symmetry_multiplicity
 _atom_site_fract_x
 _atom_site_fract_y
 _atom_site_fract_z
 _atom_site_occupancy
  Ho  Ho0  1  0.149412  0.149412  0.149412  1
  Ho  Ho1  1  0.950789  0.950789  0.950789  1
  Ho  Ho2  1  0.850588  0.850588  0.850588  1
  Ho  Ho3  1  0.049211  0.049211  0.049211  1
  In  In4  1  0.500000  0.500000  0.500000  1
  B  B5  1  0.616506  0.616506  0.616506  1
  B  B6  1  0.716607  0.716607  0.716607  1
  B  B7  1  0.383494  0.383494  0.383494  1
  B  B8  1  0.283393  0.283393  0.283393  1
  Ir  Ir9  1  0.402963  0.907338  0.402963  1
  Ir  Ir10  1  0.907338  0.402963  0.402963  1
  Ir  Ir11  1  0.500000  0.500000  0.000000  1
  Ir  Ir12  1  0.500000  0.000000  0.500000  1
  Ir  Ir13  1  0.000000  0.500000  0.500000  1
  Ir  Ir14  1  0.597037  0.092662  0.597037  1
  Ir  Ir15  1  0.597037  0.597037  0.092662  1
  Ir  Ir16  1  0.092662  0.597037  0.597037  1
  Ir  Ir17  1  0.402963  0.402963  0.907338  1
