# generated using pymatgen
data_Rb2NaTmAs2
_symmetry_space_group_name_H-M   'P 1'
_cell_length_a   9.43716570
_cell_length_b   9.43716576
_cell_length_c   9.43716548
_cell_angle_alpha   135.40437510
_cell_angle_beta   135.64113068
_cell_angle_gamma   64.71922092
_symmetry_Int_Tables_number   1
_chemical_formula_structural   Rb2NaTmAs2
_chemical_formula_sum   'Rb4 Na2 Tm2 As4'
_cell_volume   406.75963766
_cell_formula_units_Z   2
loop_
 _symmetry_equiv_pos_site_id
 _symmetry_equiv_pos_as_xyz
  1  'x, y, z'
loop_
 _atom_site_type_symbol
 _atom_site_label
 _atom_site_symmetry_multiplicity
 _atom_site_fract_x
 _atom_site_fract_y
 _atom_site_fract_z
 _atom_site_occupancy
  Rb  Rb0  1  0.680452  0.400781  0.720330  1
  Rb  Rb1  1  0.819548  0.039878  0.220330  1
  Rb  Rb2  1  0.180452  0.960122  0.779670  1
  Rb  Rb3  1  0.319548  0.599219  0.279670  1
  Na  Na4  1  0.750000  0.000000  0.750000  1
  Na  Na5  1  0.250000  0.000000  0.250000  1
  Tm  Tm6  1  0.250000  0.500000  0.750000  1
  Tm  Tm7  1  0.750000  0.500000  0.250000  1
  As  As8  1  0.406453  0.185777  0.779324  1
  As  As9  1  0.593547  0.814223  0.220676  1
  As  As10  1  0.093547  0.372873  0.279324  1
  As  As11  1  0.906453  0.627127  0.720676  1
