# generated using pymatgen
data_DyHo2Cu6Ni7B2
_symmetry_space_group_name_H-M   'P 1'
_cell_length_a   5.00510157
_cell_length_b   5.00904643
_cell_length_c   10.94556600
_cell_angle_alpha   90.00000000
_cell_angle_beta   90.00000000
_cell_angle_gamma   120.02606581
_symmetry_Int_Tables_number   1
_chemical_formula_structural   DyHo2Cu6Ni7B2
_chemical_formula_sum   'Dy1 Ho2 Cu6 Ni7 B2'
_cell_volume   237.58700212
_cell_formula_units_Z   1
loop_
 _symmetry_equiv_pos_site_id
 _symmetry_equiv_pos_as_xyz
  1  'x, y, z'
loop_
 _atom_site_type_symbol
 _atom_site_label
 _atom_site_symmetry_multiplicity
 _atom_site_fract_x
 _atom_site_fract_y
 _atom_site_fract_z
 _atom_site_occupancy
  Dy  Dy0  1  0.000000  0.000000  0.678779  1
  Ho  Ho1  1  0.000000  0.000000  0.000191  1
  Ho  Ho2  1  0.000000  0.000000  0.321073  1
  Cu  Cu3  1  0.500000  0.500000  0.499911  1
  Cu  Cu4  1  0.500000  0.000000  0.499911  1
  Cu  Cu5  1  0.670899  0.335449  0.684669  1
  Cu  Cu6  1  0.329101  0.664551  0.684669  1
  Cu  Cu7  1  0.329443  0.664722  0.315239  1
  Cu  Cu8  1  0.670557  0.335278  0.315239  1
  Ni  Ni9  1  0.000000  0.500000  0.499719  1
  Ni  Ni10  1  0.500000  0.500000  0.870327  1
  Ni  Ni11  1  0.500000  0.000000  0.870327  1
  Ni  Ni12  1  0.000000  0.500000  0.870868  1
  Ni  Ni13  1  0.500000  0.500000  0.129851  1
  Ni  Ni14  1  0.500000  0.000000  0.129851  1
  Ni  Ni15  1  0.000000  0.500000  0.129323  1
  B  B16  1  0.665872  0.332936  0.000027  1
  B  B17  1  0.334128  0.667064  0.000027  1
