# generated using pymatgen
data_Sm3Er(CI)2
_symmetry_space_group_name_H-M   'P 1'
_cell_length_a   3.80605200
_cell_length_b   3.80605138
_cell_length_c   15.14604100
_cell_angle_alpha   90.00000000
_cell_angle_beta   90.00000000
_cell_angle_gamma   120.00000542
_symmetry_Int_Tables_number   1
_chemical_formula_structural   Sm3Er(CI)2
_chemical_formula_sum   'Sm3 Er1 C2 I2'
_cell_volume   190.01115592
_cell_formula_units_Z   1
loop_
 _symmetry_equiv_pos_site_id
 _symmetry_equiv_pos_as_xyz
  1  'x, y, z'
loop_
 _atom_site_type_symbol
 _atom_site_label
 _atom_site_symmetry_multiplicity
 _atom_site_fract_x
 _atom_site_fract_y
 _atom_site_fract_z
 _atom_site_occupancy
  Sm  Sm0  1  0.333333  0.666667  0.588286  1
  Sm  Sm1  1  0.666667  0.333333  0.413406  1
  Sm  Sm2  1  0.666667  0.333333  0.084193  1
  Er  Er3  1  0.333333  0.666667  0.915208  1
  C  C4  1  0.000000  0.000000  0.992891  1
  C  C5  1  0.000000  0.000000  0.501174  1
  I  I6  1  0.333333  0.666667  0.248223  1
  I  I7  1  0.666667  0.333333  0.756620  1
