# generated using pymatgen
data_ErTlSiS4
_symmetry_space_group_name_H-M   'P 1'
_cell_length_a   6.62556300
_cell_length_b   6.38139129
_cell_length_c   8.70270200
_cell_angle_alpha   72.36527253
_cell_angle_beta   90.00000000
_cell_angle_gamma   90.00000000
_symmetry_Int_Tables_number   1
_chemical_formula_structural   ErTlSiS4
_chemical_formula_sum   'Er2 Tl2 Si2 S8'
_cell_volume   350.66180863
_cell_formula_units_Z   2
loop_
 _symmetry_equiv_pos_site_id
 _symmetry_equiv_pos_as_xyz
  1  'x, y, z'
loop_
 _atom_site_type_symbol
 _atom_site_label
 _atom_site_symmetry_multiplicity
 _atom_site_fract_x
 _atom_site_fract_y
 _atom_site_fract_z
 _atom_site_occupancy
  Er  Er0  1  0.500016  0.230147  0.450894  1
  Er  Er1  1  0.000016  0.769853  0.549106  1
  Tl  Tl2  1  0.978392  0.729854  0.064781  1
  Tl  Tl3  1  0.478392  0.270146  0.935219  1
  Si  Si4  1  0.462682  0.779877  0.327673  1
  Si  Si5  1  0.962682  0.220123  0.672327  1
  S  S6  1  0.464153  0.581097  0.172861  1
  S  S7  1  0.230264  0.023215  0.282495  1
  S  S8  1  0.728678  0.978151  0.302666  1
  S  S9  1  0.902816  0.424541  0.432624  1
  S  S10  1  0.402816  0.575459  0.567376  1
  S  S11  1  0.228678  0.021849  0.697334  1
  S  S12  1  0.730264  0.976785  0.717505  1
  S  S13  1  0.964153  0.418903  0.827139  1
