# generated using pymatgen
data_Y4Sn10Ir5Pd
_symmetry_space_group_name_H-M   'P 1'
_cell_length_a   13.49826003
_cell_length_b   13.49825988
_cell_length_c   7.27900668
_cell_angle_alpha   90.34432965
_cell_angle_beta   89.65566727
_cell_angle_gamma   160.98993312
_symmetry_Int_Tables_number   1
_chemical_formula_structural   Y4Sn10Ir5Pd
_chemical_formula_sum   'Y4 Sn10 Ir5 Pd1'
_cell_volume   431.99934948
_cell_formula_units_Z   1
loop_
 _symmetry_equiv_pos_site_id
 _symmetry_equiv_pos_as_xyz
  1  'x, y, z'
loop_
 _atom_site_type_symbol
 _atom_site_label
 _atom_site_symmetry_multiplicity
 _atom_site_fract_x
 _atom_site_fract_y
 _atom_site_fract_z
 _atom_site_occupancy
  Y  Y0  1  0.478116  0.521884  0.242977  1
  Y  Y1  1  0.171684  0.828316  0.256312  1
  Y  Y2  1  0.523872  0.476128  0.739835  1
  Y  Y3  1  0.827174  0.172826  0.751766  1
  Sn  Sn4  1  0.704370  0.295630  0.544864  1
  Sn  Sn5  1  0.597846  0.402154  0.110543  1
  Sn  Sn6  1  0.047203  0.952797  0.401464  1
  Sn  Sn7  1  0.954043  0.045957  0.904158  1
  Sn  Sn8  1  0.708360  0.291640  0.978301  1
  Sn  Sn9  1  0.290522  0.709478  0.476168  1
  Sn  Sn10  1  0.293843  0.706157  0.041766  1
  Sn  Sn11  1  0.880559  0.119441  0.240595  1
  Sn  Sn12  1  0.120166  0.879834  0.730199  1
  Sn  Sn13  1  0.402212  0.597788  0.610153  1
  Ir  Ir14  1  0.777279  0.222721  0.262561  1
  Ir  Ir15  1  0.223012  0.776988  0.763080  1
  Ir  Ir16  1  0.051000  0.949000  0.019886  1
  Ir  Ir17  1  0.605168  0.394832  0.481565  1
  Ir  Ir18  1  0.949415  0.050585  0.523163  1
  Pd  Pd19  1  0.394155  0.605845  0.984442  1
