# generated using pymatgen
data_Ti2MnGa(Co2B)2
_symmetry_space_group_name_H-M   'P 1'
_cell_length_a   8.59273300
_cell_length_b   8.59273300
_cell_length_c   2.90883200
_cell_angle_alpha   90.00000000
_cell_angle_beta   90.00000000
_cell_angle_gamma   90.00000000
_symmetry_Int_Tables_number   1
_chemical_formula_structural   Ti2MnGa(Co2B)2
_chemical_formula_sum   'Ti4 Mn2 Ga2 Co8 B4'
_cell_volume   214.77378644
_cell_formula_units_Z   2
loop_
 _symmetry_equiv_pos_site_id
 _symmetry_equiv_pos_as_xyz
  1  'x, y, z'
loop_
 _atom_site_type_symbol
 _atom_site_label
 _atom_site_symmetry_multiplicity
 _atom_site_fract_x
 _atom_site_fract_y
 _atom_site_fract_z
 _atom_site_occupancy
  Ti  Ti0  1  0.829472  0.329472  0.000000  1
  Ti  Ti1  1  0.329472  0.170528  0.000000  1
  Ti  Ti2  1  0.670528  0.829472  0.000000  1
  Ti  Ti3  1  0.170528  0.670528  0.000000  1
  Mn  Mn4  1  0.500000  0.000000  0.500000  1
  Mn  Mn5  1  0.000000  0.500000  0.500000  1
  Ga  Ga6  1  0.000000  0.000000  0.000000  1
  Ga  Ga7  1  0.500000  0.500000  0.000000  1
  Co  Co8  1  0.074775  0.216632  0.500000  1
  Co  Co9  1  0.216632  0.925225  0.500000  1
  Co  Co10  1  0.783368  0.074775  0.500000  1
  Co  Co11  1  0.925225  0.783368  0.500000  1
  Co  Co12  1  0.425225  0.716632  0.500000  1
  Co  Co13  1  0.574775  0.283368  0.500000  1
  Co  Co14  1  0.716632  0.574775  0.500000  1
  Co  Co15  1  0.283368  0.425225  0.500000  1
  B  B16  1  0.623458  0.123458  0.000000  1
  B  B17  1  0.123458  0.376542  0.000000  1
  B  B18  1  0.876542  0.623458  0.000000  1
  B  B19  1  0.376542  0.876542  0.000000  1
