# generated using pymatgen
data_Dy4Ga3SnRu4
_symmetry_space_group_name_H-M   'P 1'
_cell_length_a   4.57852000
_cell_length_b   7.21698164
_cell_length_c   7.25988660
_cell_angle_alpha   89.04444647
_cell_angle_beta   90.00000000
_cell_angle_gamma   90.00000000
_symmetry_Int_Tables_number   1
_chemical_formula_structural   Dy4Ga3SnRu4
_chemical_formula_sum   'Dy4 Ga3 Sn1 Ru4'
_cell_volume   239.85576004
_cell_formula_units_Z   1
loop_
 _symmetry_equiv_pos_site_id
 _symmetry_equiv_pos_as_xyz
  1  'x, y, z'
loop_
 _atom_site_type_symbol
 _atom_site_label
 _atom_site_symmetry_multiplicity
 _atom_site_fract_x
 _atom_site_fract_y
 _atom_site_fract_z
 _atom_site_occupancy
  Dy  Dy0  1  0.250000  0.807533  0.477919  1
  Dy  Dy1  1  0.750000  0.191817  0.529043  1
  Dy  Dy2  1  0.750000  0.299671  0.011206  1
  Dy  Dy3  1  0.250000  0.702179  0.975156  1
  Ga  Ga4  1  0.750000  0.608634  0.698232  1
  Ga  Ga5  1  0.750000  0.895322  0.196913  1
  Ga  Ga6  1  0.250000  0.104963  0.800752  1
  Sn  Sn7  1  0.250000  0.389943  0.299490  1
  Ru  Ru8  1  0.750000  0.571520  0.349713  1
  Ru  Ru9  1  0.750000  0.937204  0.841632  1
  Ru  Ru10  1  0.250000  0.052525  0.151319  1
  Ru  Ru11  1  0.250000  0.438690  0.668624  1
