# generated using pymatgen
data_Sc2TiNbP2
_symmetry_space_group_name_H-M   'P 1'
_cell_length_a   3.63209800
_cell_length_b   6.85042300
_cell_length_c   8.19464900
_cell_angle_alpha   90.00000000
_cell_angle_beta   90.00000000
_cell_angle_gamma   90.00000000
_symmetry_Int_Tables_number   1
_chemical_formula_structural   Sc2TiNbP2
_chemical_formula_sum   'Sc4 Ti2 Nb2 P4'
_cell_volume   203.89440254
_cell_formula_units_Z   2
loop_
 _symmetry_equiv_pos_site_id
 _symmetry_equiv_pos_as_xyz
  1  'x, y, z'
loop_
 _atom_site_type_symbol
 _atom_site_label
 _atom_site_symmetry_multiplicity
 _atom_site_fract_x
 _atom_site_fract_y
 _atom_site_fract_z
 _atom_site_occupancy
  Sc  Sc0  1  0.250000  0.040917  0.663838  1
  Sc  Sc1  1  0.250000  0.540673  0.835682  1
  Sc  Sc2  1  0.750000  0.459083  0.163838  1
  Sc  Sc3  1  0.750000  0.959327  0.335682  1
  Ti  Ti4  1  0.750000  0.869003  0.945334  1
  Ti  Ti5  1  0.250000  0.630997  0.445334  1
  Nb  Nb6  1  0.750000  0.368886  0.555228  1
  Nb  Nb7  1  0.250000  0.131114  0.055228  1
  P  P8  1  0.250000  0.257189  0.358547  1
  P  P9  1  0.250000  0.755427  0.141372  1
  P  P10  1  0.750000  0.744573  0.641372  1
  P  P11  1  0.750000  0.242811  0.858547  1
