# generated using pymatgen
data_Li6LuSb5Rh12
_symmetry_space_group_name_H-M   'P 1'
_cell_length_a   4.40457400
_cell_length_b   6.17603400
_cell_length_c   13.25338300
_cell_angle_alpha   89.99984797
_cell_angle_beta   89.99976620
_cell_angle_gamma   89.99989230
_symmetry_Int_Tables_number   1
_chemical_formula_structural   Li6LuSb5Rh12
_chemical_formula_sum   'Li6 Lu1 Sb5 Rh12'
_cell_volume   360.52911089
_cell_formula_units_Z   1
loop_
 _symmetry_equiv_pos_site_id
 _symmetry_equiv_pos_as_xyz
  1  'x, y, z'
loop_
 _atom_site_type_symbol
 _atom_site_label
 _atom_site_symmetry_multiplicity
 _atom_site_fract_x
 _atom_site_fract_y
 _atom_site_fract_z
 _atom_site_occupancy
  Li  Li0  1  0.000000  0.500000  0.000000  1
  Li  Li1  1  0.499920  0.000001  0.166342  1
  Li  Li2  1  0.999884  0.499999  0.333679  1
  Li  Li3  1  0.499999  0.000000  0.500000  1
  Li  Li4  1  0.000116  0.500001  0.666321  1
  Li  Li5  1  0.500080  0.999999  0.833658  1
  Lu  Lu6  1  0.000000  0.000000  0.000000  1
  Sb  Sb7  1  0.499893  0.500001  0.166134  1
  Sb  Sb8  1  0.999911  0.000000  0.332697  1
  Sb  Sb9  1  0.499999  0.500000  0.500000  1
  Sb  Sb10  1  0.000089  0.000000  0.667303  1
  Sb  Sb11  1  0.500107  0.499999  0.833866  1
  Rh  Rh12  1  0.500001  0.259885  0.000002  1
  Rh  Rh13  1  0.499997  0.740114  0.999998  1
  Rh  Rh14  1  0.999899  0.254473  0.172071  1
  Rh  Rh15  1  0.999896  0.745532  0.172069  1
  Rh  Rh16  1  0.499897  0.250375  0.334786  1
  Rh  Rh17  1  0.499897  0.749626  0.334785  1
  Rh  Rh18  1  0.999991  0.249103  0.500000  1
  Rh  Rh19  1  0.000009  0.750897  0.500000  1
  Rh  Rh20  1  0.500103  0.250375  0.665216  1
  Rh  Rh21  1  0.500103  0.749626  0.665215  1
  Rh  Rh22  1  0.000104  0.254467  0.827931  1
  Rh  Rh23  1  0.000101  0.745526  0.827929  1
