# generated using pymatgen
data_Ba6MgMn4O15
_symmetry_space_group_name_H-M   'P 1'
_cell_length_a   7.32749029
_cell_length_b   7.32749167
_cell_length_c   7.32748903
_cell_angle_alpha   88.23032898
_cell_angle_beta   88.23011778
_cell_angle_gamma   88.23034758
_symmetry_Int_Tables_number   1
_chemical_formula_structural   Ba6MgMn4O15
_chemical_formula_sum   'Ba6 Mg1 Mn4 O15'
_cell_volume   392.87680468
_cell_formula_units_Z   1
loop_
 _symmetry_equiv_pos_site_id
 _symmetry_equiv_pos_as_xyz
  1  'x, y, z'
loop_
 _atom_site_type_symbol
 _atom_site_label
 _atom_site_symmetry_multiplicity
 _atom_site_fract_x
 _atom_site_fract_y
 _atom_site_fract_z
 _atom_site_occupancy
  Ba  Ba0  1  0.333266  0.666732  0.000001  1
  Ba  Ba1  1  0.000002  0.333270  0.666731  1
  Ba  Ba2  1  0.666732  0.000000  0.333268  1
  Ba  Ba3  1  0.146352  0.853648  0.500001  1
  Ba  Ba4  1  0.500000  0.146355  0.853648  1
  Ba  Ba5  1  0.853648  0.500001  0.146351  1
  Mg  Mg6  1  0.500000  0.500000  0.499997  1
  Mn  Mn7  1  0.296625  0.296620  0.296621  1
  Mn  Mn8  1  0.703385  0.703382  0.703388  1
  Mn  Mn9  1  0.097285  0.097290  0.097288  1
  Mn  Mn10  1  0.902714  0.902718  0.902715  1
  O  O11  1  0.145088  0.999999  0.854909  1
  O  O12  1  0.854909  0.145090  0.000001  1
  O  O13  1  0.999997  0.854909  0.145092  1
  O  O14  1  0.036237  0.195247  0.332415  1
  O  O15  1  0.332414  0.036239  0.195244  1
  O  O16  1  0.195244  0.332413  0.036237  1
  O  O17  1  0.804753  0.963764  0.667585  1
  O  O18  1  0.667582  0.804755  0.963764  1
  O  O19  1  0.963760  0.667587  0.804755  1
  O  O20  1  0.371942  0.235230  0.532884  1
  O  O21  1  0.532886  0.371936  0.235231  1
  O  O22  1  0.235238  0.532884  0.371937  1
  O  O23  1  0.764766  0.628060  0.467116  1
  O  O24  1  0.467113  0.764762  0.628056  1
  O  O25  1  0.628060  0.467112  0.764764  1
