# generated using pymatgen
data_Ac2ErSi5AsPd20
_symmetry_space_group_name_H-M   'P 1'
_cell_length_a   8.81883967
_cell_length_b   8.86164176
_cell_length_c   8.86164252
_cell_angle_alpha   59.68070675
_cell_angle_beta   60.15964742
_cell_angle_gamma   60.15964634
_symmetry_Int_Tables_number   1
_chemical_formula_structural   Ac2ErSi5AsPd20
_chemical_formula_sum   'Ac2 Er1 Si5 As1 Pd20'
_cell_volume   489.67135630
_cell_formula_units_Z   1
loop_
 _symmetry_equiv_pos_site_id
 _symmetry_equiv_pos_as_xyz
  1  'x, y, z'
loop_
 _atom_site_type_symbol
 _atom_site_label
 _atom_site_symmetry_multiplicity
 _atom_site_fract_x
 _atom_site_fract_y
 _atom_site_fract_z
 _atom_site_occupancy
  Ac  Ac0  1  0.250017  0.249983  0.249983  1
  Ac  Ac1  1  0.750017  0.749983  0.749983  1
  Er  Er2  1  0.000996  0.999004  0.999004  1
  Si  Si3  1  0.266200  0.733800  0.733800  1
  Si  Si4  1  0.265348  0.734652  0.265659  1
  Si  Si5  1  0.734341  0.265659  0.734652  1
  Si  Si6  1  0.265348  0.265659  0.734652  1
  Si  Si7  1  0.734341  0.734652  0.265659  1
  As  As8  1  0.736388  0.263612  0.263612  1
  Pd  Pd9  1  0.346051  0.998597  0.998597  1
  Pd  Pd10  1  0.656756  0.998597  0.998597  1
  Pd  Pd11  1  0.001403  0.343244  0.653949  1
  Pd  Pd12  1  0.001403  0.653949  0.343244  1
  Pd  Pd13  1  0.007068  0.346810  0.992932  1
  Pd  Pd14  1  0.653190  0.992932  0.346810  1
  Pd  Pd15  1  0.999604  0.656589  0.000396  1
  Pd  Pd16  1  0.343411  0.000396  0.656589  1
  Pd  Pd17  1  0.007068  0.992932  0.346810  1
  Pd  Pd18  1  0.999604  0.000396  0.656589  1
  Pd  Pd19  1  0.653190  0.346810  0.992932  1
  Pd  Pd20  1  0.343411  0.656589  0.000396  1
  Pd  Pd21  1  0.380928  0.390057  0.390057  1
  Pd  Pd22  1  0.612121  0.613733  0.613733  1
  Pd  Pd23  1  0.386267  0.387879  0.839587  1
  Pd  Pd24  1  0.386267  0.839587  0.387879  1
  Pd  Pd25  1  0.609943  0.619072  0.161040  1
  Pd  Pd26  1  0.609943  0.161040  0.619072  1
  Pd  Pd27  1  0.838960  0.390057  0.390057  1
  Pd  Pd28  1  0.160413  0.613733  0.613733  1
