# generated using pymatgen
data_Er2Pa(GaPd)3
_symmetry_space_group_name_H-M   'P 1'
_cell_length_a   7.31873600
_cell_length_b   7.29626144
_cell_length_c   3.84254200
_cell_angle_alpha   90.00000000
_cell_angle_beta   90.00000000
_cell_angle_gamma   120.10195647
_symmetry_Int_Tables_number   1
_chemical_formula_structural   Er2Pa(GaPd)3
_chemical_formula_sum   'Er2 Pa1 Ga3 Pd3'
_cell_volume   177.51645669
_cell_formula_units_Z   1
loop_
 _symmetry_equiv_pos_site_id
 _symmetry_equiv_pos_as_xyz
  1  'x, y, z'
loop_
 _atom_site_type_symbol
 _atom_site_label
 _atom_site_symmetry_multiplicity
 _atom_site_fract_x
 _atom_site_fract_y
 _atom_site_fract_z
 _atom_site_occupancy
  Er  Er0  1  0.001375  0.594549  0.000000  1
  Er  Er1  1  0.406827  0.405451  0.000000  1
  Pa  Pa2  1  0.588318  0.000000  0.000000  1
  Ga  Ga3  1  0.246552  0.000000  0.500000  1
  Ga  Ga4  1  0.008984  0.263759  0.500000  1
  Ga  Ga5  1  0.745225  0.736241  0.500000  1
  Pd  Pd6  1  0.992181  0.000000  0.000000  1
  Pd  Pd7  1  0.343901  0.677263  0.500000  1
  Pd  Pd8  1  0.666638  0.322737  0.500000  1
