# generated using pymatgen
data_DyY5Ho14(Cd3Ru)2
_symmetry_space_group_name_H-M   'P 1'
_cell_length_a   9.58461100
_cell_length_b   9.58461083
_cell_length_c   9.81332000
_cell_angle_alpha   90.00000000
_cell_angle_beta   90.00000000
_cell_angle_gamma   120.00163154
_symmetry_Int_Tables_number   1
_chemical_formula_structural   DyY5Ho14(Cd3Ru)2
_chemical_formula_sum   'Dy1 Y5 Ho14 Cd6 Ru2'
_cell_volume   780.70763644
_cell_formula_units_Z   1
loop_
 _symmetry_equiv_pos_site_id
 _symmetry_equiv_pos_as_xyz
  1  'x, y, z'
loop_
 _atom_site_type_symbol
 _atom_site_label
 _atom_site_symmetry_multiplicity
 _atom_site_fract_x
 _atom_site_fract_y
 _atom_site_fract_z
 _atom_site_occupancy
  Dy  Dy0  1  0.541043  0.458957  0.250000  1
  Y  Y1  1  0.541113  0.082259  0.250000  1
  Y  Y2  1  0.917741  0.458887  0.250000  1
  Y  Y3  1  0.458910  0.541090  0.750000  1
  Y  Y4  1  0.458901  0.917813  0.750000  1
  Y  Y5  1  0.082187  0.541099  0.750000  1
  Ho  Ho6  1  0.000013  0.999987  0.500022  1
  Ho  Ho7  1  0.000013  0.999987  0.999978  1
  Ho  Ho8  1  0.209908  0.790092  0.439808  1
  Ho  Ho9  1  0.209981  0.419815  0.439747  1
  Ho  Ho10  1  0.580185  0.790019  0.439747  1
  Ho  Ho11  1  0.790098  0.209902  0.560259  1
  Ho  Ho12  1  0.790029  0.580154  0.560185  1
  Ho  Ho13  1  0.419846  0.209971  0.560185  1
  Ho  Ho14  1  0.790098  0.209902  0.939741  1
  Ho  Ho15  1  0.790029  0.580154  0.939815  1
  Ho  Ho16  1  0.419846  0.209971  0.939815  1
  Ho  Ho17  1  0.209908  0.790092  0.060192  1
  Ho  Ho18  1  0.209981  0.419815  0.060253  1
  Ho  Ho19  1  0.580185  0.790019  0.060253  1
  Cd  Cd20  1  0.885489  0.114511  0.250000  1
  Cd  Cd21  1  0.885397  0.770911  0.250000  1
  Cd  Cd22  1  0.229089  0.114603  0.250000  1
  Cd  Cd23  1  0.114516  0.885484  0.750000  1
  Cd  Cd24  1  0.114508  0.229047  0.750000  1
  Cd  Cd25  1  0.770953  0.885492  0.750000  1
  Ru  Ru26  1  0.333369  0.666631  0.250000  1
  Ru  Ru27  1  0.666660  0.333340  0.750000  1
