# generated using pymatgen
data_Nd3TlPd3Au2
_symmetry_space_group_name_H-M   'P 1'
_cell_length_a   7.61426600
_cell_length_b   7.75637406
_cell_length_c   3.96544700
_cell_angle_alpha   90.00000000
_cell_angle_beta   90.00000000
_cell_angle_gamma   119.39575943
_symmetry_Int_Tables_number   1
_chemical_formula_structural   Nd3TlPd3Au2
_chemical_formula_sum   'Nd3 Tl1 Pd3 Au2'
_cell_volume   204.04304750
_cell_formula_units_Z   1
loop_
 _symmetry_equiv_pos_site_id
 _symmetry_equiv_pos_as_xyz
  1  'x, y, z'
loop_
 _atom_site_type_symbol
 _atom_site_label
 _atom_site_symmetry_multiplicity
 _atom_site_fract_x
 _atom_site_fract_y
 _atom_site_fract_z
 _atom_site_occupancy
  Nd  Nd0  1  0.985600  0.588680  0.000000  1
  Nd  Nd1  1  0.396919  0.411320  0.000000  1
  Nd  Nd2  1  0.622216  0.000000  0.000000  1
  Tl  Tl3  1  0.260822  0.000000  0.500000  1
  Pd  Pd4  1  0.330508  0.671070  0.500000  1
  Pd  Pd5  1  0.006578  0.000000  0.000000  1
  Pd  Pd6  1  0.659438  0.328930  0.500000  1
  Au  Au7  1  0.735166  0.732415  0.500000  1
  Au  Au8  1  0.002751  0.267585  0.500000  1
