# generated using pymatgen
data_PrTmNp6F30
_symmetry_space_group_name_H-M   'P 1'
_cell_length_a   8.67767431
_cell_length_b   8.67767341
_cell_length_c   8.68694700
_cell_angle_alpha   79.60055842
_cell_angle_beta   79.60055281
_cell_angle_gamma   100.36364508
_symmetry_Int_Tables_number   1
_chemical_formula_structural   PrTmNp6F30
_chemical_formula_sum   'Pr1 Tm1 Np6 F30'
_cell_volume   617.37780868
_cell_formula_units_Z   1
loop_
 _symmetry_equiv_pos_site_id
 _symmetry_equiv_pos_as_xyz
  1  'x, y, z'
loop_
 _atom_site_type_symbol
 _atom_site_label
 _atom_site_symmetry_multiplicity
 _atom_site_fract_x
 _atom_site_fract_y
 _atom_site_fract_z
 _atom_site_occupancy
  Pr  Pr0  1  0.177502  0.822498  0.250000  1
  Tm  Tm1  1  0.822981  0.177019  0.750000  1
  Np  Np2  1  0.749184  0.250816  0.250000  1
  Np  Np3  1  0.251358  0.748642  0.750000  1
  Np  Np4  1  0.753307  0.676389  0.678522  1
  Np  Np5  1  0.323611  0.246693  0.821478  1
  Np  Np6  1  0.243079  0.321975  0.326038  1
  Np  Np7  1  0.678025  0.756921  0.173962  1
  F  F8  1  0.321722  0.343789  0.051020  1
  F  F9  1  0.938937  0.814726  0.152428  1
  F  F10  1  0.838203  0.444737  0.685157  1
  F  F11  1  0.457825  0.846598  0.176318  1
  F  F12  1  0.811619  0.944228  0.664077  1
  F  F13  1  0.345383  0.323418  0.550502  1
  F  F14  1  0.676582  0.654617  0.949497  1
  F  F15  1  0.055772  0.188381  0.835923  1
  F  F16  1  0.153402  0.542175  0.323682  1
  F  F17  1  0.555263  0.161797  0.814843  1
  F  F18  1  0.185274  0.061063  0.347572  1
  F  F19  1  0.656211  0.678278  0.448980  1
  F  F20  1  0.778987  0.274453  0.992869  1
  F  F21  1  0.011777  0.278607  0.216767  1
  F  F22  1  0.779319  0.509850  0.220541  1
  F  F23  1  0.509751  0.778719  0.721776  1
  F  F24  1  0.280530  0.011524  0.716597  1
  F  F25  1  0.282928  0.776725  0.493599  1
  F  F26  1  0.223275  0.717072  0.006401  1
  F  F27  1  0.988476  0.719470  0.783403  1
  F  F28  1  0.221281  0.490249  0.778224  1
  F  F29  1  0.490150  0.220681  0.279459  1
  F  F30  1  0.721393  0.988223  0.283233  1
  F  F31  1  0.725547  0.221013  0.507131  1
  F  F32  1  0.465548  0.534452  0.250000  1
  F  F33  1  0.752957  0.967121  0.964888  1
  F  F34  1  0.032879  0.247043  0.535112  1
  F  F35  1  0.249589  0.041086  0.026610  1
  F  F36  1  0.958914  0.750411  0.473390  1
  F  F37  1  0.531462  0.468538  0.750000  1
