# generated using pymatgen
data_YTh3(InPd2)2
_symmetry_space_group_name_H-M   'P 1'
_cell_length_a   7.93919509
_cell_length_b   7.93919509
_cell_length_c   3.79296900
_cell_angle_alpha   90.00000000
_cell_angle_beta   90.00000000
_cell_angle_gamma   90.69039450
_symmetry_Int_Tables_number   1
_chemical_formula_structural   YTh3(InPd2)2
_chemical_formula_sum   'Y1 Th3 In2 Pd4'
_cell_volume   239.05658543
_cell_formula_units_Z   1
loop_
 _symmetry_equiv_pos_site_id
 _symmetry_equiv_pos_as_xyz
  1  'x, y, z'
loop_
 _atom_site_type_symbol
 _atom_site_label
 _atom_site_symmetry_multiplicity
 _atom_site_fract_x
 _atom_site_fract_y
 _atom_site_fract_z
 _atom_site_occupancy
  Y  Y0  1  0.824319  0.675681  0.500000  1
  Th  Th1  1  0.675457  0.171676  0.500000  1
  Th  Th2  1  0.328324  0.824543  0.500000  1
  Th  Th3  1  0.171037  0.328963  0.500000  1
  In  In4  1  0.506897  0.502629  0.000000  1
  In  In5  1  0.997371  0.993103  0.000000  1
  Pd  Pd6  1  0.130090  0.626810  0.000000  1
  Pd  Pd7  1  0.873190  0.369910  0.000000  1
  Pd  Pd8  1  0.624367  0.875633  0.000000  1
  Pd  Pd9  1  0.368947  0.131053  0.000000  1
