# generated using pymatgen
data_Yb5Gd3(TmRu2)2
_symmetry_space_group_name_H-M   'P 1'
_cell_length_a   6.31300970
_cell_length_b   7.37109453
_cell_length_c   8.47736100
_cell_angle_alpha   96.63405040
_cell_angle_beta   111.51740517
_cell_angle_gamma   89.89007804
_symmetry_Int_Tables_number   1
_chemical_formula_structural   Yb5Gd3(TmRu2)2
_chemical_formula_sum   'Yb5 Gd3 Tm2 Ru4'
_cell_volume   364.18390733
_cell_formula_units_Z   1
loop_
 _symmetry_equiv_pos_site_id
 _symmetry_equiv_pos_as_xyz
  1  'x, y, z'
loop_
 _atom_site_type_symbol
 _atom_site_label
 _atom_site_symmetry_multiplicity
 _atom_site_fract_x
 _atom_site_fract_y
 _atom_site_fract_z
 _atom_site_occupancy
  Yb  Yb0  1  0.026508  0.580055  0.820149  1
  Yb  Yb1  1  0.200385  0.182440  0.569287  1
  Yb  Yb2  1  0.630224  0.316211  0.432364  1
  Yb  Yb3  1  0.803821  0.818557  0.431583  1
  Yb  Yb4  1  0.370481  0.681298  0.567601  1
  Gd  Gd5  1  0.792928  0.080985  0.822895  1
  Gd  Gd6  1  0.972044  0.419243  0.171220  1
  Gd  Gd7  1  0.201039  0.914639  0.171214  1
  Tm  Tm8  1  0.422722  0.253270  0.000363  1
  Tm  Tm9  1  0.569276  0.746964  0.998386  1
  Ru  Ru10  1  0.614271  0.418924  0.798944  1
  Ru  Ru11  1  0.820742  0.076650  0.200704  1
  Ru  Ru12  1  0.393042  0.580329  0.216628  1
  Ru  Ru13  1  0.182519  0.930436  0.798661  1
