# generated using pymatgen
data_GdHo3CdCo
_symmetry_space_group_name_H-M   'P 1'
_cell_length_a   9.56470877
_cell_length_b   9.56470869
_cell_length_c   9.56470900
_cell_angle_alpha   60.00000238
_cell_angle_beta   60.00000267
_cell_angle_gamma   59.99999949
_symmetry_Int_Tables_number   1
_chemical_formula_structural   GdHo3CdCo
_chemical_formula_sum   'Gd4 Ho12 Cd4 Co4'
_cell_volume   618.72872213
_cell_formula_units_Z   4
loop_
 _symmetry_equiv_pos_site_id
 _symmetry_equiv_pos_as_xyz
  1  'x, y, z'
loop_
 _atom_site_type_symbol
 _atom_site_label
 _atom_site_symmetry_multiplicity
 _atom_site_fract_x
 _atom_site_fract_y
 _atom_site_fract_z
 _atom_site_occupancy
  Gd  Gd0  1  0.346456  0.346456  0.346456  1
  Gd  Gd1  1  0.346456  0.346456  0.960633  1
  Gd  Gd2  1  0.346456  0.960633  0.346456  1
  Gd  Gd3  1  0.960633  0.346456  0.346456  1
  Ho  Ho4  1  0.813373  0.186627  0.186627  1
  Ho  Ho5  1  0.186627  0.813373  0.813373  1
  Ho  Ho6  1  0.186627  0.813373  0.186627  1
  Ho  Ho7  1  0.813373  0.186627  0.813373  1
  Ho  Ho8  1  0.186627  0.186627  0.813373  1
  Ho  Ho9  1  0.813373  0.813373  0.186627  1
  Ho  Ho10  1  0.936392  0.563608  0.563608  1
  Ho  Ho11  1  0.563608  0.936392  0.936392  1
  Ho  Ho12  1  0.563608  0.936392  0.563608  1
  Ho  Ho13  1  0.936392  0.563608  0.936392  1
  Ho  Ho14  1  0.563608  0.563608  0.936392  1
  Ho  Ho15  1  0.936392  0.936392  0.563608  1
  Cd  Cd16  1  0.581163  0.581163  0.581163  1
  Cd  Cd17  1  0.581163  0.581163  0.256510  1
  Cd  Cd18  1  0.581163  0.256510  0.581163  1
  Cd  Cd19  1  0.256510  0.581163  0.581163  1
  Co  Co20  1  0.141523  0.141523  0.141523  1
  Co  Co21  1  0.141523  0.141523  0.575433  1
  Co  Co22  1  0.141523  0.575433  0.141523  1
  Co  Co23  1  0.575433  0.141523  0.141523  1
