# generated using pymatgen
data_Er3Tm7(OsRu)2
_symmetry_space_group_name_H-M   'P 1'
_cell_length_a   6.26647837
_cell_length_b   7.28505067
_cell_length_c   8.33300325
_cell_angle_alpha   96.91537768
_cell_angle_beta   112.10124497
_cell_angle_gamma   90.01615265
_symmetry_Int_Tables_number   1
_chemical_formula_structural   Er3Tm7(OsRu)2
_chemical_formula_sum   'Er3 Tm7 Os2 Ru2'
_cell_volume   349.46822259
_cell_formula_units_Z   1
loop_
 _symmetry_equiv_pos_site_id
 _symmetry_equiv_pos_as_xyz
  1  'x, y, z'
loop_
 _atom_site_type_symbol
 _atom_site_label
 _atom_site_symmetry_multiplicity
 _atom_site_fract_x
 _atom_site_fract_y
 _atom_site_fract_z
 _atom_site_occupancy
  Er  Er0  1  0.792834  0.083591  0.816266  1
  Er  Er1  1  0.976457  0.416413  0.183599  1
  Er  Er2  1  0.208701  0.915434  0.185494  1
  Tm  Tm3  1  0.023099  0.584638  0.814534  1
  Tm  Tm4  1  0.204282  0.183390  0.564339  1
  Tm  Tm5  1  0.640095  0.316615  0.435806  1
  Tm  Tm6  1  0.794912  0.816400  0.435148  1
  Tm  Tm7  1  0.359662  0.683588  0.564875  1
  Tm  Tm8  1  0.420469  0.249985  0.999928  1
  Tm  Tm9  1  0.580683  0.750029  0.999984  1
  Os  Os10  1  0.602473  0.423007  0.780106  1
  Os  Os11  1  0.822095  0.077202  0.219869  1
  Ru  Ru12  1  0.397295  0.577196  0.220282  1
  Ru  Ru13  1  0.176945  0.922512  0.779770  1
