# generated using pymatgen
data_Pr2Th(ZnPt)4
_symmetry_space_group_name_H-M   'P 1'
_cell_length_a   8.41321244
_cell_length_b   8.41321388
_cell_length_c   8.41321380
_cell_angle_alpha   151.41781266
_cell_angle_beta   127.64316618
_cell_angle_gamma   60.73341604
_symmetry_Int_Tables_number   1
_chemical_formula_structural   Pr2Th(ZnPt)4
_chemical_formula_sum   'Pr2 Th1 Zn4 Pt4'
_cell_volume   223.81735544
_cell_formula_units_Z   1
loop_
 _symmetry_equiv_pos_site_id
 _symmetry_equiv_pos_as_xyz
  1  'x, y, z'
loop_
 _atom_site_type_symbol
 _atom_site_label
 _atom_site_symmetry_multiplicity
 _atom_site_fract_x
 _atom_site_fract_y
 _atom_site_fract_z
 _atom_site_occupancy
  Pr  Pr0  1  0.872349  0.872349  0.000000  1
  Pr  Pr1  1  0.127651  0.127651  0.000000  1
  Th  Th2  1  0.500000  0.000000  0.500000  1
  Zn  Zn3  1  0.478616  0.674099  0.804519  1
  Zn  Zn4  1  0.869580  0.674099  0.195481  1
  Zn  Zn5  1  0.130420  0.325901  0.804519  1
  Zn  Zn6  1  0.521384  0.325901  0.195481  1
  Pt  Pt7  1  0.285337  0.785337  0.500000  1
  Pt  Pt8  1  0.714663  0.214663  0.500000  1
  Pt  Pt9  1  0.791218  0.500000  0.291218  1
  Pt  Pt10  1  0.208782  0.500000  0.708782  1
