# generated using pymatgen
data_Ba4La2U5BiSe20
_symmetry_space_group_name_H-M   'P 1'
_cell_length_a   8.10261542
_cell_length_b   8.77527063
_cell_length_c   12.58434556
_cell_angle_alpha   89.54544172
_cell_angle_beta   90.06128261
_cell_angle_gamma   90.32252384
_symmetry_Int_Tables_number   1
_chemical_formula_structural   Ba4La2U5BiSe20
_chemical_formula_sum   'Ba4 La2 U5 Bi1 Se20'
_cell_volume   894.73742711
_cell_formula_units_Z   1
loop_
 _symmetry_equiv_pos_site_id
 _symmetry_equiv_pos_as_xyz
  1  'x, y, z'
loop_
 _atom_site_type_symbol
 _atom_site_label
 _atom_site_symmetry_multiplicity
 _atom_site_fract_x
 _atom_site_fract_y
 _atom_site_fract_z
 _atom_site_occupancy
  Ba  Ba0  1  0.053909  0.492805  0.328905  1
  Ba  Ba1  1  0.552701  0.504559  0.166650  1
  Ba  Ba2  1  0.943127  0.513090  0.671741  1
  Ba  Ba3  1  0.440242  0.496104  0.829374  1
  La  La4  1  0.037649  0.999266  0.322181  1
  La  La5  1  0.539688  0.999471  0.177063  1
  U  U6  1  0.473891  0.997922  0.823497  1
  U  U7  1  0.053674  0.755420  0.005372  1
  U  U8  1  0.553768  0.245362  0.498584  1
  U  U9  1  0.941525  0.243227  0.994115  1
  U  U10  1  0.443379  0.748481  0.503512  1
  Bi  Bi11  1  0.989551  0.013291  0.667089  1
  Se  Se12  1  0.662501  0.959993  0.412478  1
  Se  Se13  1  0.163223  0.039190  0.088922  1
  Se  Se14  1  0.337650  0.034352  0.599395  1
  Se  Se15  1  0.829033  0.957376  0.911924  1
  Se  Se16  1  0.443379  0.784562  0.996928  1
  Se  Se17  1  0.934358  0.226164  0.496941  1
  Se  Se18  1  0.552083  0.215547  0.988141  1
  Se  Se19  1  0.067881  0.781009  0.506220  1
  Se  Se20  1  0.849409  0.766457  0.187433  1
  Se  Se21  1  0.351245  0.229461  0.315079  1
  Se  Se22  1  0.157827  0.221905  0.816097  1
  Se  Se23  1  0.634652  0.770872  0.691710  1
  Se  Se24  1  0.327176  0.761633  0.290745  1
  Se  Se25  1  0.823859  0.233796  0.205191  1
  Se  Se26  1  0.666555  0.232839  0.711664  1
  Se  Se27  1  0.178889  0.783108  0.795862  1
  Se  Se28  1  0.173969  0.462970  0.068325  1
  Se  Se29  1  0.675727  0.534154  0.429997  1
  Se  Se30  1  0.825297  0.534495  0.926822  1
  Se  Se31  1  0.322180  0.461121  0.572043  1
