# generated using pymatgen
data_Sm10Si16Ge
_symmetry_space_group_name_H-M   'P 1'
_cell_length_a   11.24194413
_cell_length_b   11.22528588
_cell_length_c   11.24194364
_cell_angle_alpha   144.70100978
_cell_angle_beta   135.68157805
_cell_angle_gamma   57.91385326
_symmetry_Int_Tables_number   1
_chemical_formula_structural   Sm10Si16Ge
_chemical_formula_sum   'Sm10 Si16 Ge1'
_cell_volume   567.81905576
_cell_formula_units_Z   1
loop_
 _symmetry_equiv_pos_site_id
 _symmetry_equiv_pos_as_xyz
  1  'x, y, z'
loop_
 _atom_site_type_symbol
 _atom_site_label
 _atom_site_symmetry_multiplicity
 _atom_site_fract_x
 _atom_site_fract_y
 _atom_site_fract_z
 _atom_site_occupancy
  Sm  Sm0  1  0.755219  0.760613  0.516300  1
  Sm  Sm1  1  0.448460  0.964577  0.013952  1
  Sm  Sm2  1  0.847982  0.367147  0.015734  1
  Sm  Sm3  1  0.950624  0.964577  0.516117  1
  Sm  Sm4  1  0.151554  0.165839  0.518101  1
  Sm  Sm5  1  0.351413  0.367147  0.519164  1
  Sm  Sm6  1  0.244313  0.760613  0.005395  1
  Sm  Sm7  1  0.548412  0.561712  0.509113  1
  Sm  Sm8  1  0.052598  0.561712  0.013300  1
  Sm  Sm9  1  0.647738  0.165839  0.014285  1
  Si  Si10  1  0.198973  0.588944  0.389969  1
  Si  Si11  1  0.000202  0.085079  0.084877  1
  Si  Si12  1  0.699031  0.291970  0.592940  1
  Si  Si13  1  0.800505  0.190953  0.390448  1
  Si  Si14  1  0.896375  0.502635  0.606260  1
  Si  Si15  1  0.413872  0.862934  0.449063  1
  Si  Si16  1  0.103429  0.710740  0.607311  1
  Si  Si17  1  0.300526  0.895884  0.595359  1
  Si  Si18  1  0.585023  0.036066  0.451043  1
  Si  Si19  1  0.999846  0.430990  0.431144  1
  Si  Si20  1  0.884808  0.838732  0.953925  1
  Si  Si21  1  0.400055  0.500435  0.100380  1
  Si  Si22  1  0.115923  0.072738  0.956815  1
  Si  Si23  1  0.289481  0.238988  0.949508  1
  Si  Si24  1  0.499721  0.399309  0.899588  1
  Si  Si25  1  0.598971  0.702263  0.103292  1
  Ge  Ge26  1  0.714944  0.673060  0.958117  1
