# generated using pymatgen
data_Tb4Al3GaPd3Ru
_symmetry_space_group_name_H-M   'P 1'
_cell_length_a   4.37827000
_cell_length_b   6.94095101
_cell_length_c   7.88360865
_cell_angle_alpha   89.89537467
_cell_angle_beta   90.00000000
_cell_angle_gamma   90.00000000
_symmetry_Int_Tables_number   1
_chemical_formula_structural   Tb4Al3GaPd3Ru
_chemical_formula_sum   'Tb4 Al3 Ga1 Pd3 Ru1'
_cell_volume   239.57740276
_cell_formula_units_Z   1
loop_
 _symmetry_equiv_pos_site_id
 _symmetry_equiv_pos_as_xyz
  1  'x, y, z'
loop_
 _atom_site_type_symbol
 _atom_site_label
 _atom_site_symmetry_multiplicity
 _atom_site_fract_x
 _atom_site_fract_y
 _atom_site_fract_z
 _atom_site_occupancy
  Tb  Tb0  1  0.250000  0.534444  0.812653  1
  Tb  Tb1  1  0.750000  0.466616  0.183502  1
  Tb  Tb2  1  0.250000  0.023462  0.678923  1
  Tb  Tb3  1  0.750000  0.965797  0.323512  1
  Al  Al4  1  0.250000  0.647290  0.439696  1
  Al  Al5  1  0.250000  0.142283  0.062333  1
  Al  Al6  1  0.750000  0.854713  0.935087  1
  Ga  Ga7  1  0.750000  0.360446  0.563882  1
  Pd  Pd8  1  0.250000  0.272431  0.377512  1
  Pd  Pd9  1  0.750000  0.224642  0.885480  1
  Pd  Pd10  1  0.250000  0.771726  0.119370  1
  Ru  Ru11  1  0.750000  0.736151  0.618049  1
