# generated using pymatgen
data_Tb4Tm6Si5P
_symmetry_space_group_name_H-M   'P 1'
_cell_length_a   8.36040000
_cell_length_b   8.37719753
_cell_length_c   6.22716500
_cell_angle_alpha   90.00000000
_cell_angle_beta   90.00000000
_cell_angle_gamma   119.93368445
_symmetry_Int_Tables_number   1
_chemical_formula_structural   Tb4Tm6Si5P
_chemical_formula_sum   'Tb4 Tm6 Si5 P1'
_cell_volume   377.95199541
_cell_formula_units_Z   1
loop_
 _symmetry_equiv_pos_site_id
 _symmetry_equiv_pos_as_xyz
  1  'x, y, z'
loop_
 _atom_site_type_symbol
 _atom_site_label
 _atom_site_symmetry_multiplicity
 _atom_site_fract_x
 _atom_site_fract_y
 _atom_site_fract_z
 _atom_site_occupancy
  Tb  Tb0  1  0.000122  0.754966  0.750000  1
  Tb  Tb1  1  0.754297  0.000000  0.750000  1
  Tb  Tb2  1  0.245157  0.245034  0.750000  1
  Tb  Tb3  1  0.244690  0.000000  0.250000  1
  Tm  Tm4  1  0.000839  0.245605  0.250000  1
  Tm  Tm5  1  0.755234  0.754395  0.250000  1
  Tm  Tm6  1  0.333771  0.667168  0.499519  1
  Tm  Tm7  1  0.666604  0.332832  0.000481  1
  Tm  Tm8  1  0.666604  0.332832  0.499519  1
  Tm  Tm9  1  0.333771  0.667168  0.000481  1
  Si  Si10  1  0.394771  0.395738  0.250000  1
  Si  Si11  1  0.999033  0.604262  0.250000  1
  Si  Si12  1  0.999853  0.394825  0.750000  1
  Si  Si13  1  0.605028  0.605175  0.750000  1
  Si  Si14  1  0.609169  0.000000  0.250000  1
  P  P15  1  0.391057  0.000000  0.750000  1
