# generated using pymatgen
data_Er5Tm5Sn5Sb
_symmetry_space_group_name_H-M   'P 1'
_cell_length_a   8.87205607
_cell_length_b   8.86245119
_cell_length_c   6.41844400
_cell_angle_alpha   90.00000000
_cell_angle_beta   90.00000000
_cell_angle_gamma   120.05002778
_symmetry_Int_Tables_number   1
_chemical_formula_structural   Er5Tm5Sn5Sb
_chemical_formula_sum   'Er5 Tm5 Sn5 Sb1'
_cell_volume   436.83695167
_cell_formula_units_Z   1
loop_
 _symmetry_equiv_pos_site_id
 _symmetry_equiv_pos_as_xyz
  1  'x, y, z'
loop_
 _atom_site_type_symbol
 _atom_site_label
 _atom_site_symmetry_multiplicity
 _atom_site_fract_x
 _atom_site_fract_y
 _atom_site_fract_z
 _atom_site_occupancy
  Er  Er0  1  0.997568  0.760131  0.750000  1
  Er  Er1  1  0.762135  0.761225  0.250000  1
  Er  Er2  1  0.762008  0.999996  0.750000  1
  Er  Er3  1  0.237420  0.239836  0.750000  1
  Er  Er4  1  0.238961  0.000042  0.250000  1
  Tm  Tm5  1  0.000954  0.238859  0.250000  1
  Tm  Tm6  1  0.333182  0.665611  0.499797  1
  Tm  Tm7  1  0.667579  0.334367  0.000196  1
  Tm  Tm8  1  0.667579  0.334367  0.499804  1
  Tm  Tm9  1  0.333182  0.665611  0.000203  1
  Sn  Sn10  1  0.395894  0.394881  0.250000  1
  Sn  Sn11  1  0.001068  0.605017  0.250000  1
  Sn  Sn12  1  0.999662  0.395894  0.750000  1
  Sn  Sn13  1  0.603773  0.604109  0.750000  1
  Sn  Sn14  1  0.605721  0.000053  0.250000  1
  Sb  Sb15  1  0.393316  0.999999  0.750000  1
