# generated using pymatgen
data_Na3La3PrAu10
_symmetry_space_group_name_H-M   'P 1'
_cell_length_a   8.93374108
_cell_length_b   8.93374248
_cell_length_c   10.46894400
_cell_angle_alpha   90.00000000
_cell_angle_beta   90.00000000
_cell_angle_gamma   108.71072210
_symmetry_Int_Tables_number   1
_chemical_formula_structural   Na3La3PrAu10
_chemical_formula_sum   'Na6 La6 Pr2 Au20'
_cell_volume   791.38634424
_cell_formula_units_Z   2
loop_
 _symmetry_equiv_pos_site_id
 _symmetry_equiv_pos_as_xyz
  1  'x, y, z'
loop_
 _atom_site_type_symbol
 _atom_site_label
 _atom_site_symmetry_multiplicity
 _atom_site_fract_x
 _atom_site_fract_y
 _atom_site_fract_z
 _atom_site_occupancy
  Na  Na0  1  0.514464  0.014559  0.249881  1
  Na  Na1  1  0.985441  0.485536  0.750119  1
  Na  Na2  1  0.000177  0.999823  0.000000  1
  Na  Na3  1  0.014464  0.514559  0.250119  1
  Na  Na4  1  0.485441  0.985536  0.749881  1
  Na  Na5  1  0.500177  0.499823  0.500000  1
  La  La6  1  0.800616  0.800352  0.298856  1
  La  La7  1  0.300616  0.300352  0.201144  1
  La  La8  1  0.798907  0.201093  0.500000  1
  La  La9  1  0.298907  0.701093  0.000000  1
  La  La10  1  0.699648  0.699384  0.798856  1
  La  La11  1  0.199648  0.199384  0.701144  1
  Pr  Pr12  1  0.700710  0.299290  0.000000  1
  Pr  Pr13  1  0.200710  0.799290  0.500000  1
  Au  Au14  1  0.151689  0.431285  0.487656  1
  Au  Au15  1  0.903061  0.902823  0.594506  1
  Au  Au16  1  0.568715  0.848311  0.512344  1
  Au  Au17  1  0.881118  0.162232  0.209309  1
  Au  Au18  1  0.381118  0.662232  0.290691  1
  Au  Au19  1  0.662030  0.380948  0.289391  1
  Au  Au20  1  0.403061  0.402823  0.905494  1
  Au  Au21  1  0.930088  0.650661  0.012241  1
  Au  Au22  1  0.337768  0.618882  0.709309  1
  Au  Au23  1  0.349339  0.069912  0.987759  1
  Au  Au24  1  0.597177  0.596939  0.094506  1
  Au  Au25  1  0.651689  0.931285  0.012344  1
  Au  Au26  1  0.097177  0.096939  0.405494  1
  Au  Au27  1  0.619052  0.337970  0.710609  1
  Au  Au28  1  0.119052  0.837970  0.789391  1
  Au  Au29  1  0.068715  0.348311  0.987656  1
  Au  Au30  1  0.849339  0.569912  0.512241  1
  Au  Au31  1  0.162030  0.880948  0.210609  1
  Au  Au32  1  0.430088  0.150661  0.487759  1
  Au  Au33  1  0.837768  0.118882  0.790691  1
