# generated using pymatgen
data_Yb5Rh2
_symmetry_space_group_name_H-M   'P 1'
_cell_length_a   8.45234595
_cell_length_b   8.45234622
_cell_length_c   7.48523957
_cell_angle_alpha   83.20309882
_cell_angle_beta   83.20310111
_cell_angle_gamma   43.75385120
_symmetry_Int_Tables_number   1
_chemical_formula_structural   Yb5Rh2
_chemical_formula_sum   'Yb10 Rh4'
_cell_volume   366.80071700
_cell_formula_units_Z   2
loop_
 _symmetry_equiv_pos_site_id
 _symmetry_equiv_pos_as_xyz
  1  'x, y, z'
loop_
 _atom_site_type_symbol
 _atom_site_label
 _atom_site_symmetry_multiplicity
 _atom_site_fract_x
 _atom_site_fract_y
 _atom_site_fract_z
 _atom_site_occupancy
  Yb  Yb0  1  0.028940  0.794387  0.918964  1
  Yb  Yb1  1  0.205613  0.971060  0.581036  1
  Yb  Yb2  1  0.971060  0.205613  0.081036  1
  Yb  Yb3  1  0.794387  0.028940  0.418964  1
  Yb  Yb4  1  0.366724  0.199881  0.821907  1
  Yb  Yb5  1  0.800119  0.633276  0.678093  1
  Yb  Yb6  1  0.633276  0.800119  0.178093  1
  Yb  Yb7  1  0.199881  0.366724  0.321907  1
  Yb  Yb8  1  0.574757  0.425243  0.750000  1
  Yb  Yb9  1  0.425243  0.574757  0.250000  1
  Rh  Rh10  1  0.177022  0.600849  0.581047  1
  Rh  Rh11  1  0.399151  0.822978  0.918953  1
  Rh  Rh12  1  0.822978  0.399151  0.418953  1
  Rh  Rh13  1  0.600849  0.177023  0.081047  1
