# generated using pymatgen
data_Tb3Pr6Y7(CdIr)4
_symmetry_space_group_name_H-M   'P 1'
_cell_length_a   9.79653347
_cell_length_b   9.80162681
_cell_length_c   9.80162800
_cell_angle_alpha   60.00000272
_cell_angle_beta   59.98280267
_cell_angle_gamma   59.98279974
_symmetry_Int_Tables_number   1
_chemical_formula_structural   Tb3Pr6Y7(CdIr)4
_chemical_formula_sum   'Tb3 Pr6 Y7 Cd4 Ir4'
_cell_volume   665.33576309
_cell_formula_units_Z   1
loop_
 _symmetry_equiv_pos_site_id
 _symmetry_equiv_pos_as_xyz
  1  'x, y, z'
loop_
 _atom_site_type_symbol
 _atom_site_label
 _atom_site_symmetry_multiplicity
 _atom_site_fract_x
 _atom_site_fract_y
 _atom_site_fract_z
 _atom_site_occupancy
  Tb  Tb0  1  0.347160  0.347255  0.347255  1
  Tb  Tb1  1  0.347160  0.347255  0.958329  1
  Tb  Tb2  1  0.347160  0.958329  0.347255  1
  Pr  Pr3  1  0.940640  0.559447  0.559447  1
  Pr  Pr4  1  0.559426  0.940609  0.940609  1
  Pr  Pr5  1  0.559426  0.940609  0.559356  1
  Pr  Pr6  1  0.940640  0.559447  0.940465  1
  Pr  Pr7  1  0.559426  0.559356  0.940609  1
  Pr  Pr8  1  0.940640  0.940465  0.559447  1
  Y  Y9  1  0.957783  0.347406  0.347406  1
  Y  Y10  1  0.812512  0.187525  0.187525  1
  Y  Y11  1  0.187505  0.812461  0.812461  1
  Y  Y12  1  0.187505  0.812461  0.187574  1
  Y  Y13  1  0.812512  0.187525  0.812439  1
  Y  Y14  1  0.187505  0.187574  0.812461  1
  Y  Y15  1  0.812512  0.812439  0.187525  1
  Cd  Cd16  1  0.579308  0.579187  0.579187  1
  Cd  Cd17  1  0.579308  0.579187  0.262319  1
  Cd  Cd18  1  0.579308  0.262319  0.579187  1
  Cd  Cd19  1  0.262292  0.579236  0.579236  1
  Ir  Ir20  1  0.141647  0.141319  0.141319  1
  Ir  Ir21  1  0.141647  0.141319  0.575716  1
  Ir  Ir22  1  0.141647  0.575716  0.141319  1
  Ir  Ir23  1  0.575333  0.141556  0.141556  1
