# generated using pymatgen
data_Rb4CrO4
_symmetry_space_group_name_H-M   'P 1'
_cell_length_a   6.93725600
_cell_length_b   11.11280777
_cell_length_c   11.11815646
_cell_angle_alpha   68.36991558
_cell_angle_beta   90.00000000
_cell_angle_gamma   90.00000000
_symmetry_Int_Tables_number   1
_chemical_formula_structural   Rb4CrO4
_chemical_formula_sum   'Rb16 Cr4 O16'
_cell_volume   796.76914554
_cell_formula_units_Z   4
loop_
 _symmetry_equiv_pos_site_id
 _symmetry_equiv_pos_as_xyz
  1  'x, y, z'
loop_
 _atom_site_type_symbol
 _atom_site_label
 _atom_site_symmetry_multiplicity
 _atom_site_fract_x
 _atom_site_fract_y
 _atom_site_fract_z
 _atom_site_occupancy
  Rb  Rb0  1  0.684165  0.294855  0.075887  1
  Rb  Rb1  1  0.184165  0.205145  0.924113  1
  Rb  Rb2  1  0.315835  0.705145  0.924113  1
  Rb  Rb3  1  0.815835  0.794855  0.075887  1
  Rb  Rb4  1  0.908237  0.194984  0.439666  1
  Rb  Rb5  1  0.408237  0.305016  0.560334  1
  Rb  Rb6  1  0.091763  0.805016  0.560334  1
  Rb  Rb7  1  0.591763  0.694984  0.439666  1
  Rb  Rb8  1  0.163761  0.390671  0.132583  1
  Rb  Rb9  1  0.663761  0.109329  0.867417  1
  Rb  Rb10  1  0.836239  0.609329  0.867417  1
  Rb  Rb11  1  0.336239  0.890671  0.132583  1
  Rb  Rb12  1  0.889402  0.413861  0.657765  1
  Rb  Rb13  1  0.389402  0.086139  0.342235  1
  Rb  Rb14  1  0.110598  0.586139  0.342235  1
  Rb  Rb15  1  0.610598  0.913861  0.657765  1
  Cr  Cr16  1  0.869705  0.990799  0.258090  1
  Cr  Cr17  1  0.369705  0.509201  0.741910  1
  Cr  Cr18  1  0.130295  0.009201  0.741910  1
  Cr  Cr19  1  0.630295  0.490799  0.258090  1
  O  O20  1  0.004417  0.843887  0.278996  1
  O  O21  1  0.504417  0.656113  0.721004  1
  O  O22  1  0.995583  0.156113  0.721004  1
  O  O23  1  0.495583  0.343887  0.278996  1
  O  O24  1  0.739689  0.469201  0.412871  1
  O  O25  1  0.239689  0.030799  0.587129  1
  O  O26  1  0.260311  0.530799  0.587129  1
  O  O27  1  0.760311  0.969201  0.412871  1
  O  O28  1  0.024038  0.134543  0.201624  1
  O  O29  1  0.524038  0.365457  0.798376  1
  O  O30  1  0.975962  0.865457  0.798376  1
  O  O31  1  0.475962  0.634543  0.201624  1
  O  O32  1  0.676492  0.014383  0.139843  1
  O  O33  1  0.176492  0.485617  0.860157  1
  O  O34  1  0.323508  0.985617  0.860157  1
  O  O35  1  0.823508  0.514383  0.139843  1
