# generated using pymatgen
data_Ca8YHoIr4
_symmetry_space_group_name_H-M   'P 1'
_cell_length_a   6.63388155
_cell_length_b   7.40875128
_cell_length_c   8.65363860
_cell_angle_alpha   97.42850836
_cell_angle_beta   112.53825055
_cell_angle_gamma   89.99999353
_symmetry_Int_Tables_number   1
_chemical_formula_structural   Ca8YHoIr4
_chemical_formula_sum   'Ca8 Y1 Ho1 Ir4'
_cell_volume   388.96408725
_cell_formula_units_Z   1
loop_
 _symmetry_equiv_pos_site_id
 _symmetry_equiv_pos_as_xyz
  1  'x, y, z'
loop_
 _atom_site_type_symbol
 _atom_site_label
 _atom_site_symmetry_multiplicity
 _atom_site_fract_x
 _atom_site_fract_y
 _atom_site_fract_z
 _atom_site_occupancy
  Ca  Ca0  1  0.976264  0.920312  0.173062  1
  Ca  Ca1  1  0.803203  0.579688  0.826938  1
  Ca  Ca2  1  0.023862  0.079984  0.827099  1
  Ca  Ca3  1  0.196762  0.420016  0.172901  1
  Ca  Ca4  1  0.641427  0.819928  0.436152  1
  Ca  Ca5  1  0.205275  0.680072  0.563848  1
  Ca  Ca6  1  0.358683  0.180227  0.564071  1
  Ca  Ca7  1  0.794613  0.319773  0.435929  1
  Y  Y8  1  0.437185  0.750000  0.000000  1
  Ho  Ho9  1  0.562019  0.250000  0.000000  1
  Ir  Ir10  1  0.807346  0.572921  0.208118  1
  Ir  Ir11  1  0.599229  0.927079  0.791882  1
  Ir  Ir12  1  0.192998  0.425534  0.791862  1
  Ir  Ir13  1  0.401135  0.074466  0.208138  1
