# generated using pymatgen
data_Na5LiSi2Se7
_symmetry_space_group_name_H-M   'P 1'
_cell_length_a   7.21908831
_cell_length_b   7.21908813
_cell_length_c   15.34687532
_cell_angle_alpha   80.99460375
_cell_angle_beta   80.99460636
_cell_angle_gamma   94.24375808
_symmetry_Int_Tables_number   1
_chemical_formula_structural   Na5LiSi2Se7
_chemical_formula_sum   'Na10 Li2 Si4 Se14'
_cell_volume   776.22242873
_cell_formula_units_Z   2
loop_
 _symmetry_equiv_pos_site_id
 _symmetry_equiv_pos_as_xyz
  1  'x, y, z'
loop_
 _atom_site_type_symbol
 _atom_site_label
 _atom_site_symmetry_multiplicity
 _atom_site_fract_x
 _atom_site_fract_y
 _atom_site_fract_z
 _atom_site_occupancy
  Na  Na0  1  0.000000  0.000000  0.500000  1
  Na  Na1  1  0.000000  0.000000  0.000000  1
  Na  Na2  1  0.471429  0.760190  0.917208  1
  Na  Na3  1  0.528571  0.239810  0.082792  1
  Na  Na4  1  0.239810  0.528571  0.582792  1
  Na  Na5  1  0.760190  0.471429  0.417208  1
  Na  Na6  1  0.503967  0.035450  0.643760  1
  Na  Na7  1  0.496033  0.964551  0.356240  1
  Na  Na8  1  0.964550  0.496033  0.856240  1
  Na  Na9  1  0.035450  0.503967  0.143760  1
  Li  Li10  1  0.916094  0.083906  0.750000  1
  Li  Li11  1  0.083906  0.916094  0.250000  1
  Si  Si12  1  0.415904  0.262307  0.857427  1
  Si  Si13  1  0.584096  0.737693  0.142573  1
  Si  Si14  1  0.737693  0.584096  0.642573  1
  Si  Si15  1  0.262307  0.415904  0.357427  1
  Se  Se16  1  0.242051  0.031506  0.810477  1
  Se  Se17  1  0.757949  0.968494  0.189523  1
  Se  Se18  1  0.968494  0.757949  0.689523  1
  Se  Se19  1  0.031506  0.242051  0.310477  1
  Se  Se20  1  0.458853  0.541147  0.750000  1
  Se  Se21  1  0.541147  0.458853  0.250000  1
  Se  Se22  1  0.692337  0.157609  0.888835  1
  Se  Se23  1  0.307663  0.842391  0.111165  1
  Se  Se24  1  0.842391  0.307663  0.611165  1
  Se  Se25  1  0.157609  0.692337  0.388835  1
  Se  Se26  1  0.630284  0.763519  0.527854  1
  Se  Se27  1  0.369716  0.236481  0.472146  1
  Se  Se28  1  0.236481  0.369716  0.972146  1
  Se  Se29  1  0.763519  0.630284  0.027854  1
