# generated using pymatgen
data_DyY3Ru4F28
_symmetry_space_group_name_H-M   'P 1'
_cell_length_a   5.55678767
_cell_length_b   8.90616525
_cell_length_c   11.96730897
_cell_angle_alpha   63.57495168
_cell_angle_beta   90.00969371
_cell_angle_gamma   89.88622709
_symmetry_Int_Tables_number   1
_chemical_formula_structural   DyY3Ru4F28
_chemical_formula_sum   'Dy1 Y3 Ru4 F28'
_cell_volume   530.37601370
_cell_formula_units_Z   1
loop_
 _symmetry_equiv_pos_site_id
 _symmetry_equiv_pos_as_xyz
  1  'x, y, z'
loop_
 _atom_site_type_symbol
 _atom_site_label
 _atom_site_symmetry_multiplicity
 _atom_site_fract_x
 _atom_site_fract_y
 _atom_site_fract_z
 _atom_site_occupancy
  Dy  Dy0  1  0.741400  0.809982  0.269105  1
  Y  Y1  1  0.758955  0.809998  0.769088  1
  Y  Y2  1  0.258673  0.189940  0.730881  1
  Y  Y3  1  0.241135  0.189443  0.231055  1
  Ru  Ru4  1  0.755418  0.272094  0.955712  1
  Ru  Ru5  1  0.255520  0.727661  0.544216  1
  Ru  Ru6  1  0.244561  0.727583  0.044764  1
  Ru  Ru7  1  0.744363  0.272710  0.455365  1
  F  F8  1  0.446062  0.704827  0.918363  1
  F  F9  1  0.945613  0.295483  0.581890  1
  F  F10  1  0.554455  0.295218  0.081984  1
  F  F11  1  0.053138  0.705385  0.417889  1
  F  F12  1  0.449768  0.280570  0.545086  1
  F  F13  1  0.950150  0.719492  0.954829  1
  F  F14  1  0.549665  0.720109  0.453943  1
  F  F15  1  0.050285  0.280215  0.045254  1
  F  F16  1  0.769595  0.511291  0.860635  1
  F  F17  1  0.270065  0.488558  0.639131  1
  F  F18  1  0.230666  0.488508  0.139509  1
  F  F19  1  0.730722  0.511959  0.360669  1
  F  F20  1  0.754263  0.034382  0.047836  1
  F  F21  1  0.253974  0.965380  0.452664  1
  F  F22  1  0.245594  0.965208  0.952998  1
  F  F23  1  0.745419  0.034880  0.547024  1
  F  F24  1  0.968149  0.729360  0.639628  1
  F  F25  1  0.467369  0.270356  0.860619  1
  F  F26  1  0.031970  0.270425  0.360277  1
  F  F27  1  0.532026  0.729919  0.140154  1
  F  F28  1  0.045044  0.749884  0.173112  1
  F  F29  1  0.545708  0.250626  0.326615  1
  F  F30  1  0.953923  0.250107  0.826946  1
  F  F31  1  0.454746  0.749393  0.672970  1
  F  F32  1  0.422764  0.971879  0.232717  1
  F  F33  1  0.921641  0.027238  0.267088  1
  F  F34  1  0.578583  0.028033  0.767357  1
  F  F35  1  0.078615  0.971903  0.732625  1
