# generated using pymatgen
data_Zr10TlZnSiPb5
_symmetry_space_group_name_H-M   'P 1'
_cell_length_a   8.80480490
_cell_length_b   8.80481465
_cell_length_c   5.97541949
_cell_angle_alpha   90.04052871
_cell_angle_beta   90.04060617
_cell_angle_gamma   119.93662591
_symmetry_Int_Tables_number   1
_chemical_formula_structural   Zr10TlZnSiPb5
_chemical_formula_sum   'Zr10 Tl1 Zn1 Si1 Pb5'
_cell_volume   401.43528005
_cell_formula_units_Z   1
loop_
 _symmetry_equiv_pos_site_id
 _symmetry_equiv_pos_as_xyz
  1  'x, y, z'
loop_
 _atom_site_type_symbol
 _atom_site_label
 _atom_site_symmetry_multiplicity
 _atom_site_fract_x
 _atom_site_fract_y
 _atom_site_fract_z
 _atom_site_occupancy
  Zr  Zr0  1  0.665885  0.333512  0.499401  1
  Zr  Zr1  1  0.333513  0.665886  0.499401  1
  Zr  Zr2  1  0.333380  0.665946  0.000601  1
  Zr  Zr3  1  0.665945  0.333379  0.000601  1
  Zr  Zr4  1  0.741697  0.741697  0.243248  1
  Zr  Zr5  1  0.259021  0.001293  0.242892  1
  Zr  Zr6  1  0.001293  0.259020  0.242893  1
  Zr  Zr7  1  0.258319  0.258319  0.757801  1
  Zr  Zr8  1  0.741549  0.000093  0.756843  1
  Zr  Zr9  1  0.000093  0.741549  0.756842  1
  Tl  Tl10  1  0.387825  0.387825  0.253283  1
  Zn  Zn11  1  0.000594  0.000594  0.499566  1
  Si  Si12  1  0.000454  0.000454  0.000203  1
  Pb  Pb13  1  0.611230  0.000317  0.253731  1
  Pb  Pb14  1  0.000317  0.611230  0.253731  1
  Pb  Pb15  1  0.610685  0.610685  0.745867  1
  Pb  Pb16  1  0.388484  0.999715  0.746548  1
  Pb  Pb17  1  0.999715  0.388484  0.746549  1
