# generated using pymatgen
data_Nd5SmZn4Pd9Pt4
_symmetry_space_group_name_H-M   'P 1'
_cell_length_a   8.38613767
_cell_length_b   8.38613684
_cell_length_c   8.37279412
_cell_angle_alpha   109.42948857
_cell_angle_beta   109.42948197
_cell_angle_gamma   109.52815647
_symmetry_Int_Tables_number   1
_chemical_formula_structural   Nd5SmZn4Pd9Pt4
_chemical_formula_sum   'Nd5 Sm1 Zn4 Pd9 Pt4'
_cell_volume   453.43419754
_cell_formula_units_Z   1
loop_
 _symmetry_equiv_pos_site_id
 _symmetry_equiv_pos_as_xyz
  1  'x, y, z'
loop_
 _atom_site_type_symbol
 _atom_site_label
 _atom_site_symmetry_multiplicity
 _atom_site_fract_x
 _atom_site_fract_y
 _atom_site_fract_z
 _atom_site_occupancy
  Nd  Nd0  1  0.299070  0.999902  0.300968  1
  Nd  Nd1  1  0.999902  0.299070  0.300968  1
  Nd  Nd2  1  0.300095  0.300095  0.999233  1
  Nd  Nd3  1  0.699552  0.999832  0.698867  1
  Nd  Nd4  1  0.999832  0.699552  0.698867  1
  Sm  Sm5  1  0.699629  0.699629  0.002010  1
  Zn  Zn6  1  0.000086  0.000086  0.498998  1
  Zn  Zn7  1  0.999979  0.500762  0.000220  1
  Zn  Zn8  1  0.500762  0.999979  0.000220  1
  Zn  Zn9  1  0.500297  0.500297  0.500550  1
  Pd  Pd10  1  0.668043  0.332510  0.999967  1
  Pd  Pd11  1  0.331677  0.663073  0.331760  1
  Pd  Pd12  1  0.999982  0.332123  0.669293  1
  Pd  Pd13  1  0.332510  0.668043  0.999967  1
  Pd  Pd14  1  0.332123  0.999982  0.669293  1
  Pd  Pd15  1  0.663073  0.331677  0.331760  1
  Pd  Pd16  1  0.667581  0.667581  0.335760  1
  Pd  Pd17  1  0.668977  0.337971  0.669446  1
  Pd  Pd18  1  0.337971  0.668977  0.669446  1
  Pt  Pt19  1  0.333138  0.333138  0.664089  1
  Pt  Pt20  1  0.668762  0.999409  0.329755  1
  Pt  Pt21  1  0.999409  0.668762  0.329755  1
  Pt  Pt22  1  0.997550  0.997550  0.998803  1
