# generated using pymatgen
data_Er8Tl3Cu
_symmetry_space_group_name_H-M   'P 1'
_cell_length_a   10.44981700
_cell_length_b   10.44981676
_cell_length_c   6.79568900
_cell_angle_alpha   90.00000000
_cell_angle_beta   90.00000000
_cell_angle_gamma   119.99999759
_symmetry_Int_Tables_number   1
_chemical_formula_structural   Er8Tl3Cu
_chemical_formula_sum   'Er16 Tl6 Cu2'
_cell_volume   642.66033763
_cell_formula_units_Z   2
loop_
 _symmetry_equiv_pos_site_id
 _symmetry_equiv_pos_as_xyz
  1  'x, y, z'
loop_
 _atom_site_type_symbol
 _atom_site_label
 _atom_site_symmetry_multiplicity
 _atom_site_fract_x
 _atom_site_fract_y
 _atom_site_fract_z
 _atom_site_occupancy
  Er  Er0  1  0.526730  0.053461  0.796620  1
  Er  Er1  1  0.946539  0.473270  0.796620  1
  Er  Er2  1  0.526730  0.473270  0.796620  1
  Er  Er3  1  0.473270  0.946539  0.296620  1
  Er  Er4  1  0.053461  0.526730  0.296620  1
  Er  Er5  1  0.473270  0.526730  0.296620  1
  Er  Er6  1  0.824555  0.649111  0.506288  1
  Er  Er7  1  0.350889  0.175445  0.506288  1
  Er  Er8  1  0.824555  0.175445  0.506288  1
  Er  Er9  1  0.175445  0.350889  0.006288  1
  Er  Er10  1  0.649111  0.824555  0.006288  1
  Er  Er11  1  0.175445  0.824555  0.006288  1
  Er  Er12  1  0.666667  0.333333  0.168673  1
  Er  Er13  1  0.333333  0.666667  0.668673  1
  Er  Er14  1  0.000000  0.000000  0.774844  1
  Er  Er15  1  0.000000  0.000000  0.274844  1
  Tl  Tl16  1  0.836199  0.672400  0.031875  1
  Tl  Tl17  1  0.327600  0.163801  0.031875  1
  Tl  Tl18  1  0.836199  0.163801  0.031875  1
  Tl  Tl19  1  0.163801  0.327600  0.531875  1
  Tl  Tl20  1  0.672400  0.836199  0.531875  1
  Tl  Tl21  1  0.163801  0.836199  0.531875  1
  Cu  Cu22  1  0.666667  0.333333  0.570087  1
  Cu  Cu23  1  0.333333  0.666667  0.070087  1
