# generated using pymatgen
data_Ta6MnCr5Si6
_symmetry_space_group_name_H-M   'P 1'
_cell_length_a   7.40259869
_cell_length_b   7.40281805
_cell_length_c   7.40281837
_cell_angle_alpha   126.90140392
_cell_angle_beta   126.82173185
_cell_angle_gamma   78.47734993
_symmetry_Int_Tables_number   1
_chemical_formula_structural   Ta6MnCr5Si6
_chemical_formula_sum   'Ta6 Mn1 Cr5 Si6'
_cell_volume   251.43498516
_cell_formula_units_Z   1
loop_
 _symmetry_equiv_pos_site_id
 _symmetry_equiv_pos_as_xyz
  1  'x, y, z'
loop_
 _atom_site_type_symbol
 _atom_site_label
 _atom_site_symmetry_multiplicity
 _atom_site_fract_x
 _atom_site_fract_y
 _atom_site_fract_z
 _atom_site_occupancy
  Ta  Ta0  1  0.546272  0.093617  0.045737  1
  Ta  Ta1  1  0.453728  0.499465  0.547345  1
  Ta  Ta2  1  0.952673  0.499412  0.045196  1
  Ta  Ta3  1  0.047327  0.092523  0.546739  1
  Ta  Ta4  1  0.749233  0.897773  0.646634  1
  Ta  Ta5  1  0.250767  0.897401  0.148541  1
  Mn  Mn6  1  0.000000  0.243075  0.243075  1
  Cr  Cr7  1  0.127116  0.750062  0.623777  1
  Cr  Cr8  1  0.872884  0.496660  0.622946  1
  Cr  Cr9  1  0.626722  0.750987  0.123513  1
  Cr  Cr10  1  0.373278  0.496791  0.124266  1
  Cr  Cr11  1  0.500000  0.241524  0.741524  1
  Si  Si12  1  0.333952  0.831564  0.498189  1
  Si  Si13  1  0.666048  0.164236  0.497612  1
  Si  Si14  1  0.834708  0.834690  0.999413  1
  Si  Si15  1  0.165292  0.164704  0.999982  1
  Si  Si16  1  0.751126  0.494123  0.244516  1
  Si  Si17  1  0.248874  0.493390  0.742998  1
