# generated using pymatgen
data_Ba6Gd2Y(WO6)3
_symmetry_space_group_name_H-M   'P 1'
_cell_length_a   10.41529856
_cell_length_b   10.41529916
_cell_length_c   6.03565531
_cell_angle_alpha   73.92359573
_cell_angle_beta   73.92359774
_cell_angle_gamma   49.14101183
_symmetry_Int_Tables_number   1
_chemical_formula_structural   Ba6Gd2Y(WO6)3
_chemical_formula_sum   'Ba6 Gd2 Y1 W3 O18'
_cell_volume   471.67905887
_cell_formula_units_Z   1
loop_
 _symmetry_equiv_pos_site_id
 _symmetry_equiv_pos_as_xyz
  1  'x, y, z'
loop_
 _atom_site_type_symbol
 _atom_site_label
 _atom_site_symmetry_multiplicity
 _atom_site_fract_x
 _atom_site_fract_y
 _atom_site_fract_z
 _atom_site_occupancy
  Ba  Ba0  1  0.916795  0.415555  0.335329  1
  Ba  Ba1  1  0.252540  0.747460  0.000000  1
  Ba  Ba2  1  0.584445  0.083205  0.664671  1
  Ba  Ba3  1  0.747460  0.252540  0.000000  1
  Ba  Ba4  1  0.083205  0.584445  0.664671  1
  Ba  Ba5  1  0.415555  0.916795  0.335329  1
  Gd  Gd6  1  0.166784  0.166784  0.834406  1
  Gd  Gd7  1  0.833216  0.833216  0.165594  1
  Y  Y8  1  0.500000  0.500000  0.500000  1
  W  W9  1  0.000000  0.000000  0.500000  1
  W  W10  1  0.334195  0.334195  0.165365  1
  W  W11  1  0.665805  0.665805  0.834635  1
  O  O12  1  0.902831  0.428649  0.833794  1
  O  O13  1  0.238250  0.761750  0.500000  1
  O  O14  1  0.571351  0.097169  0.166206  1
  O  O15  1  0.761750  0.238250  0.500000  1
  O  O16  1  0.097169  0.571351  0.166206  1
  O  O17  1  0.428649  0.902831  0.833794  1
  O  O18  1  0.754399  0.754399  0.538463  1
  O  O19  1  0.423071  0.423071  0.868276  1
  O  O20  1  0.090429  0.090429  0.207263  1
  O  O21  1  0.909571  0.909571  0.792737  1
  O  O22  1  0.576929  0.576929  0.131724  1
  O  O23  1  0.245601  0.245601  0.461537  1
  O  O24  1  0.066114  0.066114  0.695276  1
  O  O25  1  0.731639  0.731639  0.031428  1
  O  O26  1  0.401232  0.401232  0.359988  1
  O  O27  1  0.933886  0.933886  0.304724  1
  O  O28  1  0.598768  0.598768  0.640012  1
  O  O29  1  0.268361  0.268361  0.968572  1
