# generated using pymatgen
data_CeSm2Cr(Co4P3)2
_symmetry_space_group_name_H-M   'P 1'
_cell_length_a   3.73480400
_cell_length_b   10.64110500
_cell_length_c   12.26298100
_cell_angle_alpha   90.00000000
_cell_angle_beta   90.00000000
_cell_angle_gamma   90.00000000
_symmetry_Int_Tables_number   1
_chemical_formula_structural   CeSm2Cr(Co4P3)2
_chemical_formula_sum   'Ce2 Sm4 Cr2 Co16 P12'
_cell_volume   487.36080523
_cell_formula_units_Z   2
loop_
 _symmetry_equiv_pos_site_id
 _symmetry_equiv_pos_as_xyz
  1  'x, y, z'
loop_
 _atom_site_type_symbol
 _atom_site_label
 _atom_site_symmetry_multiplicity
 _atom_site_fract_x
 _atom_site_fract_y
 _atom_site_fract_z
 _atom_site_occupancy
  Ce  Ce0  1  0.000000  0.500000  0.526769  1
  Ce  Ce1  1  0.500000  0.000000  0.473231  1
  Sm  Sm2  1  0.500000  0.816207  0.204238  1
  Sm  Sm3  1  0.500000  0.183793  0.204238  1
  Sm  Sm4  1  0.000000  0.683793  0.795762  1
  Sm  Sm5  1  0.000000  0.316207  0.795762  1
  Cr  Cr6  1  0.500000  0.500000  0.154195  1
  Cr  Cr7  1  0.000000  0.000000  0.845805  1
  Co  Co8  1  0.500000  0.500000  0.698192  1
  Co  Co9  1  0.000000  0.000000  0.301808  1
  Co  Co10  1  0.000000  0.500000  0.986356  1
  Co  Co11  1  0.500000  0.000000  0.013644  1
  Co  Co12  1  0.500000  0.333086  0.993077  1
  Co  Co13  1  0.500000  0.666914  0.993077  1
  Co  Co14  1  0.000000  0.166914  0.006923  1
  Co  Co15  1  0.000000  0.833086  0.006923  1
  Co  Co16  1  0.500000  0.298159  0.431332  1
  Co  Co17  1  0.500000  0.701841  0.431332  1
  Co  Co18  1  0.000000  0.201841  0.568668  1
  Co  Co19  1  0.000000  0.798159  0.568668  1
  Co  Co20  1  0.500000  0.881736  0.709917  1
  Co  Co21  1  0.500000  0.118264  0.709917  1
  Co  Co22  1  0.000000  0.618264  0.290083  1
  Co  Co23  1  0.000000  0.381736  0.290083  1
  P  P24  1  0.500000  0.500000  0.882717  1
  P  P25  1  0.000000  0.000000  0.117283  1
  P  P26  1  0.500000  0.500000  0.342081  1
  P  P27  1  0.000000  0.000000  0.657919  1
  P  P28  1  0.500000  0.306249  0.615190  1
  P  P29  1  0.500000  0.693751  0.615190  1
  P  P30  1  0.000000  0.193751  0.384810  1
  P  P31  1  0.000000  0.806249  0.384810  1
  P  P32  1  0.500000  0.848940  0.894359  1
  P  P33  1  0.500000  0.151060  0.894359  1
  P  P34  1  0.000000  0.651060  0.105641  1
  P  P35  1  0.000000  0.348940  0.105641  1
