# generated using pymatgen
data_Pr17Y3(Ga5Sn)2
_symmetry_space_group_name_H-M   'P 1'
_cell_length_a   7.96126500
_cell_length_b   7.96126500
_cell_length_c   14.83271500
_cell_angle_alpha   90.00000000
_cell_angle_beta   90.00000000
_cell_angle_gamma   90.00000000
_symmetry_Int_Tables_number   1
_chemical_formula_structural   Pr17Y3(Ga5Sn)2
_chemical_formula_sum   'Pr17 Y3 Ga10 Sn2'
_cell_volume   940.12329156
_cell_formula_units_Z   1
loop_
 _symmetry_equiv_pos_site_id
 _symmetry_equiv_pos_as_xyz
  1  'x, y, z'
loop_
 _atom_site_type_symbol
 _atom_site_label
 _atom_site_symmetry_multiplicity
 _atom_site_fract_x
 _atom_site_fract_y
 _atom_site_fract_z
 _atom_site_occupancy
  Pr  Pr0  1  0.817493  0.839957  0.609049  1
  Pr  Pr1  1  0.181209  0.839856  0.101723  1
  Pr  Pr2  1  0.160865  0.820608  0.390280  1
  Pr  Pr3  1  0.839135  0.179392  0.390280  1
  Pr  Pr4  1  0.679392  0.660865  0.390280  1
  Pr  Pr5  1  0.660043  0.317493  0.609049  1
  Pr  Pr6  1  0.339957  0.682507  0.609049  1
  Pr  Pr7  1  0.660144  0.681209  0.101723  1
  Pr  Pr8  1  0.684761  0.342914  0.898112  1
  Pr  Pr9  1  0.842914  0.815239  0.898112  1
  Pr  Pr10  1  0.320608  0.339135  0.390280  1
  Pr  Pr11  1  0.182507  0.160043  0.609049  1
  Pr  Pr12  1  0.818791  0.160144  0.101723  1
  Pr  Pr13  1  0.315239  0.657086  0.898112  1
  Pr  Pr14  1  0.339856  0.318791  0.101723  1
  Pr  Pr15  1  0.157086  0.184761  0.898112  1
  Pr  Pr16  1  0.500000  0.000000  0.792349  1
  Y  Y17  1  0.000000  0.500000  0.734796  1
  Y  Y18  1  0.000000  0.500000  0.217996  1
  Y  Y19  1  0.500000  0.000000  0.260564  1
  Ga  Ga20  1  0.622839  0.376366  0.247390  1
  Ga  Ga21  1  0.118537  0.874737  0.750971  1
  Ga  Ga22  1  0.374737  0.381463  0.750971  1
  Ga  Ga23  1  0.377161  0.623634  0.247390  1
  Ga  Ga24  1  0.876366  0.877161  0.247390  1
  Ga  Ga25  1  0.625263  0.618537  0.750971  1
  Ga  Ga26  1  0.881463  0.125263  0.750971  1
  Ga  Ga27  1  0.500000  0.000000  0.000842  1
  Ga  Ga28  1  0.123634  0.122839  0.247390  1
  Ga  Ga29  1  0.000000  0.500000  0.007814  1
  Sn  Sn30  1  0.000000  0.500000  0.512150  1
  Sn  Sn31  1  0.500000  0.000000  0.483388  1
