# generated using pymatgen
data_CdTe3O8
_symmetry_space_group_name_H-M   'P 1'
_cell_length_a   6.89683605
_cell_length_b   6.89683549
_cell_length_c   10.26942342
_cell_angle_alpha   65.96332868
_cell_angle_beta   65.96333092
_cell_angle_gamma   49.35088792
_symmetry_Int_Tables_number   1
_chemical_formula_structural   CdTe3O8
_chemical_formula_sum   'Cd2 Te6 O16'
_cell_volume   331.29571553
_cell_formula_units_Z   2
loop_
 _symmetry_equiv_pos_site_id
 _symmetry_equiv_pos_as_xyz
  1  'x, y, z'
loop_
 _atom_site_type_symbol
 _atom_site_label
 _atom_site_symmetry_multiplicity
 _atom_site_fract_x
 _atom_site_fract_y
 _atom_site_fract_z
 _atom_site_occupancy
  Cd  Cd0  1  0.432088  0.567912  0.250000  1
  Cd  Cd1  1  0.567912  0.432088  0.750000  1
  Te  Te2  1  0.000000  0.000000  0.500000  1
  Te  Te3  1  0.000000  0.000000  0.000000  1
  Te  Te4  1  0.308688  0.126335  0.642695  1
  Te  Te5  1  0.873665  0.691312  0.857305  1
  Te  Te6  1  0.691312  0.873665  0.357305  1
  Te  Te7  1  0.126335  0.308688  0.142695  1
  O  O8  1  0.785653  0.573325  0.090455  1
  O  O9  1  0.426675  0.214347  0.409545  1
  O  O10  1  0.214347  0.426675  0.909545  1
  O  O11  1  0.573325  0.785653  0.590455  1
  O  O12  1  0.196209  0.012410  0.092229  1
  O  O13  1  0.987590  0.803791  0.407771  1
  O  O14  1  0.803791  0.987590  0.907771  1
  O  O15  1  0.012410  0.196209  0.592229  1
  O  O16  1  0.858007  0.307388  0.341820  1
  O  O17  1  0.692612  0.141993  0.158180  1
  O  O18  1  0.141993  0.692612  0.658180  1
  O  O19  1  0.307388  0.858007  0.841820  1
  O  O20  1  0.866818  0.343526  0.874601  1
  O  O21  1  0.656474  0.133182  0.625399  1
  O  O22  1  0.133182  0.656474  0.125399  1
  O  O23  1  0.343526  0.866818  0.374601  1
