# generated using pymatgen
data_RbIn2Au3
_symmetry_space_group_name_H-M   'P 1'
_cell_length_a   7.06772500
_cell_length_b   7.07228200
_cell_length_c   13.35227800
_cell_angle_alpha   90.00000000
_cell_angle_beta   90.00000000
_cell_angle_gamma   90.00000000
_symmetry_Int_Tables_number   1
_chemical_formula_structural   RbIn2Au3
_chemical_formula_sum   'Rb4 In8 Au12'
_cell_volume   667.41287209
_cell_formula_units_Z   4
loop_
 _symmetry_equiv_pos_site_id
 _symmetry_equiv_pos_as_xyz
  1  'x, y, z'
loop_
 _atom_site_type_symbol
 _atom_site_label
 _atom_site_symmetry_multiplicity
 _atom_site_fract_x
 _atom_site_fract_y
 _atom_site_fract_z
 _atom_site_occupancy
  Rb  Rb0  1  0.250000  0.107870  0.075888  1
  Rb  Rb1  1  0.250000  0.392130  0.575888  1
  Rb  Rb2  1  0.750000  0.892130  0.924112  1
  Rb  Rb3  1  0.750000  0.607870  0.424112  1
  In  In4  1  0.998612  0.901354  0.656308  1
  In  In5  1  0.501388  0.598646  0.156308  1
  In  In6  1  0.498612  0.098646  0.343692  1
  In  In7  1  0.001388  0.401354  0.843692  1
  In  In8  1  0.001388  0.098646  0.343692  1
  In  In9  1  0.498612  0.401354  0.843692  1
  In  In10  1  0.501388  0.901354  0.656308  1
  In  In11  1  0.998612  0.598646  0.156308  1
  Au  Au12  1  0.250000  0.106986  0.798901  1
  Au  Au13  1  0.250000  0.393014  0.298901  1
  Au  Au14  1  0.750000  0.893014  0.201099  1
  Au  Au15  1  0.750000  0.606986  0.701099  1
  Au  Au16  1  0.250000  0.714408  0.797281  1
  Au  Au17  1  0.250000  0.785592  0.297281  1
  Au  Au18  1  0.750000  0.285592  0.202719  1
  Au  Au19  1  0.750000  0.214408  0.702719  1
  Au  Au20  1  0.250000  0.601370  0.996377  1
  Au  Au21  1  0.250000  0.898630  0.496377  1
  Au  Au22  1  0.750000  0.398630  0.003623  1
  Au  Au23  1  0.750000  0.101370  0.503623  1
