# generated using pymatgen
data_Tb4Y8Tc3Rh
_symmetry_space_group_name_H-M   'P 1'
_cell_length_a   6.34765704
_cell_length_b   7.39977743
_cell_length_c   9.26091100
_cell_angle_alpha   90.00000000
_cell_angle_beta   90.00000000
_cell_angle_gamma   89.90706566
_symmetry_Int_Tables_number   1
_chemical_formula_structural   Tb4Y8Tc3Rh
_chemical_formula_sum   'Tb4 Y8 Tc3 Rh1'
_cell_volume   434.99598705
_cell_formula_units_Z   1
loop_
 _symmetry_equiv_pos_site_id
 _symmetry_equiv_pos_as_xyz
  1  'x, y, z'
loop_
 _atom_site_type_symbol
 _atom_site_label
 _atom_site_symmetry_multiplicity
 _atom_site_fract_x
 _atom_site_fract_y
 _atom_site_fract_z
 _atom_site_occupancy
  Tb  Tb0  1  0.871388  0.543470  0.250000  1
  Tb  Tb1  1  0.626166  0.039793  0.250000  1
  Tb  Tb2  1  0.132817  0.456733  0.750000  1
  Tb  Tb3  1  0.369040  0.957518  0.750000  1
  Y  Y4  1  0.333022  0.676763  0.067306  1
  Y  Y5  1  0.162574  0.177098  0.435416  1
  Y  Y6  1  0.663681  0.320932  0.561728  1
  Y  Y7  1  0.837648  0.825850  0.937869  1
  Y  Y8  1  0.663681  0.320932  0.938272  1
  Y  Y9  1  0.837648  0.825850  0.562131  1
  Y  Y10  1  0.333022  0.676763  0.432694  1
  Y  Y11  1  0.162574  0.177098  0.064584  1
  Tc  Tc12  1  0.032574  0.883584  0.250000  1
  Tc  Tc13  1  0.468709  0.386015  0.250000  1
  Tc  Tc14  1  0.965195  0.116493  0.750000  1
  Rh  Rh15  1  0.540260  0.615105  0.750000  1
