# generated using pymatgen
data_Y3Tm13(CdRh)4
_symmetry_space_group_name_H-M   'P 1'
_cell_length_a   9.51119053
_cell_length_b   9.50127026
_cell_length_c   9.51028800
_cell_angle_alpha   59.83925680
_cell_angle_beta   59.75514135
_cell_angle_gamma   59.78630980
_symmetry_Int_Tables_number   1
_chemical_formula_structural   Y3Tm13(CdRh)4
_chemical_formula_sum   'Y3 Tm13 Cd4 Rh4'
_cell_volume   604.85977969
_cell_formula_units_Z   1
loop_
 _symmetry_equiv_pos_site_id
 _symmetry_equiv_pos_as_xyz
  1  'x, y, z'
loop_
 _atom_site_type_symbol
 _atom_site_label
 _atom_site_symmetry_multiplicity
 _atom_site_fract_x
 _atom_site_fract_y
 _atom_site_fract_z
 _atom_site_occupancy
  Y  Y0  1  0.062715  0.063218  0.436942  1
  Y  Y1  1  0.436138  0.063640  0.434388  1
  Y  Y2  1  0.064651  0.436522  0.063551  1
  Tm  Tm3  1  0.050026  0.648384  0.649768  1
  Tm  Tm4  1  0.437240  0.437424  0.060490  1
  Tm  Tm5  1  0.648496  0.049351  0.649004  1
  Tm  Tm6  1  0.187914  0.812761  0.187511  1
  Tm  Tm7  1  0.187610  0.187814  0.813266  1
  Tm  Tm8  1  0.812032  0.811874  0.189995  1
  Tm  Tm9  1  0.438978  0.062377  0.060910  1
  Tm  Tm10  1  0.812432  0.187901  0.187438  1
  Tm  Tm11  1  0.060420  0.439299  0.437418  1
  Tm  Tm12  1  0.811386  0.189572  0.812756  1
  Tm  Tm13  1  0.190233  0.811338  0.812632  1
  Tm  Tm14  1  0.649101  0.648330  0.049805  1
  Tm  Tm15  1  0.649690  0.651233  0.650466  1
  Cd  Cd16  1  0.419668  0.421250  0.419956  1
  Cd  Cd17  1  0.742748  0.420183  0.420387  1
  Cd  Cd18  1  0.420547  0.742609  0.419081  1
  Cd  Cd19  1  0.420434  0.418702  0.744387  1
  Rh  Rh20  1  0.857227  0.854514  0.429413  1
  Rh  Rh21  1  0.855353  0.857295  0.857118  1
  Rh  Rh22  1  0.429248  0.855177  0.857763  1
  Rh  Rh23  1  0.855715  0.429236  0.855555  1
