# generated using pymatgen
data_Y7CoSn23Os5
_symmetry_space_group_name_H-M   'P 1'
_cell_length_a   9.86420100
_cell_length_b   9.84484982
_cell_length_c   10.10477774
_cell_angle_alpha   90.03821298
_cell_angle_beta   90.00000000
_cell_angle_gamma   120.06505342
_symmetry_Int_Tables_number   1
_chemical_formula_structural   Y7CoSn23Os5
_chemical_formula_sum   'Y7 Co1 Sn23 Os5'
_cell_volume   849.26497604
_cell_formula_units_Z   1
loop_
 _symmetry_equiv_pos_site_id
 _symmetry_equiv_pos_as_xyz
  1  'x, y, z'
loop_
 _atom_site_type_symbol
 _atom_site_label
 _atom_site_symmetry_multiplicity
 _atom_site_fract_x
 _atom_site_fract_y
 _atom_site_fract_z
 _atom_site_occupancy
  Y  Y0  1  0.004548  0.009095  0.993861  1
  Y  Y1  1  0.034528  0.515886  0.304468  1
  Y  Y2  1  0.482374  0.964747  0.303575  1
  Y  Y3  1  0.481358  0.515886  0.304468  1
  Y  Y4  1  0.967341  0.483590  0.696791  1
  Y  Y5  1  0.516286  0.032572  0.697456  1
  Y  Y6  1  0.516250  0.483590  0.696791  1
  Co  Co7  1  0.829508  0.659016  0.199653  1
  Sn  Sn8  1  0.999663  0.999327  0.498326  1
  Sn  Sn9  1  0.109923  0.878253  0.272573  1
  Sn  Sn10  1  0.768329  0.878253  0.272573  1
  Sn  Sn11  1  0.117653  0.235308  0.274832  1
  Sn  Sn12  1  0.882125  0.116360  0.722558  1
  Sn  Sn13  1  0.234236  0.116360  0.722558  1
  Sn  Sn14  1  0.882130  0.764258  0.724978  1
  Sn  Sn15  1  0.349981  0.000168  0.000173  1
  Sn  Sn16  1  0.654820  0.652520  0.005426  1
  Sn  Sn17  1  0.998881  0.351069  0.000166  1
  Sn  Sn18  1  0.352187  0.351069  0.000166  1
  Sn  Sn19  1  0.997701  0.652520  0.005426  1
  Sn  Sn20  1  0.650187  0.000168  0.000173  1
  Sn  Sn21  1  0.782296  0.564592  0.454205  1
  Sn  Sn22  1  0.780067  0.219058  0.461150  1
  Sn  Sn23  1  0.438991  0.219058  0.461150  1
  Sn  Sn24  1  0.219878  0.439757  0.540061  1
  Sn  Sn25  1  0.219605  0.780584  0.539379  1
  Sn  Sn26  1  0.560978  0.780584  0.539379  1
  Sn  Sn27  1  0.667752  0.335503  0.179826  1
  Sn  Sn28  1  0.333241  0.666484  0.823653  1
  Sn  Sn29  1  0.666960  0.333919  0.875128  1
  Sn  Sn30  1  0.333144  0.666289  0.125844  1
  Os  Os31  1  0.168127  0.829023  0.799740  1
  Os  Os32  1  0.660896  0.829023  0.799740  1
  Os  Os33  1  0.168925  0.337849  0.800232  1
  Os  Os34  1  0.830263  0.169132  0.201759  1
  Os  Os35  1  0.338869  0.169132  0.201759  1
