# generated using pymatgen
data_Sc12Ga2RhI16
_symmetry_space_group_name_H-M   'P 1'
_cell_length_a   9.33633132
_cell_length_b   12.19436738
_cell_length_c   12.86316811
_cell_angle_alpha   116.77338149
_cell_angle_beta   101.25365925
_cell_angle_gamma   100.62220236
_symmetry_Int_Tables_number   1
_chemical_formula_structural   Sc12Ga2RhI16
_chemical_formula_sum   'Sc12 Ga2 Rh1 I16'
_cell_volume   1218.78819382
_cell_formula_units_Z   1
loop_
 _symmetry_equiv_pos_site_id
 _symmetry_equiv_pos_as_xyz
  1  'x, y, z'
loop_
 _atom_site_type_symbol
 _atom_site_label
 _atom_site_symmetry_multiplicity
 _atom_site_fract_x
 _atom_site_fract_y
 _atom_site_fract_z
 _atom_site_occupancy
  Sc  Sc0  1  0.090009  0.275793  0.362612  1
  Sc  Sc1  1  0.902250  0.726086  0.638416  1
  Sc  Sc2  1  0.773961  0.535671  0.331777  1
  Sc  Sc3  1  0.217394  0.464754  0.666960  1
  Sc  Sc4  1  0.272139  0.724407  0.636967  1
  Sc  Sc5  1  0.718492  0.273553  0.361742  1
  Sc  Sc6  1  0.145014  0.535743  0.333102  1
  Sc  Sc7  1  0.846889  0.464097  0.668442  1
  Sc  Sc8  1  0.414332  0.365543  0.283392  1
  Sc  Sc9  1  0.595363  0.634350  0.716576  1
  Sc  Sc10  1  0.465683  0.314930  0.521206  1
  Sc  Sc11  1  0.544336  0.685033  0.478729  1
  Ga  Ga12  1  0.993762  0.500070  0.500022  1
  Ga  Ga13  1  0.349691  0.500208  0.499947  1
  Rh  Rh14  1  0.660575  0.499912  0.500141  1
  I  I15  1  0.391496  0.730067  0.870374  1
  I  I16  1  0.607894  0.266541  0.124107  1
  I  I17  1  0.180817  0.948953  0.774251  1
  I  I18  1  0.817142  0.050984  0.225777  1
  I  I19  1  0.342710  0.106412  0.259549  1
  I  I20  1  0.661236  0.893479  0.740416  1
  I  I21  1  0.564658  0.437306  0.792534  1
  I  I22  1  0.439239  0.562603  0.207405  1
  I  I23  1  0.303353  0.817052  0.463397  1
  I  I24  1  0.697270  0.178409  0.537233  1
  I  I25  1  0.169213  0.183479  0.536197  1
  I  I26  1  0.833534  0.821216  0.463188  1
  I  I27  1  0.926342  0.571922  0.167018  1
  I  I28  1  0.071366  0.428030  0.832999  1
  I  I29  1  0.922026  0.733035  0.876031  1
  I  I30  1  0.081814  0.270364  0.129496  1
