# generated using pymatgen
data_Y7ErTa2(Ti5Si8)2
_symmetry_space_group_name_H-M   'P 1'
_cell_length_a   7.05206022
_cell_length_b   7.05059014
_cell_length_c   12.97475225
_cell_angle_alpha   90.01521468
_cell_angle_beta   89.99746376
_cell_angle_gamma   89.98699046
_symmetry_Int_Tables_number   1
_chemical_formula_structural   Y7ErTa2(Ti5Si8)2
_chemical_formula_sum   'Y7 Er1 Ta2 Ti10 Si16'
_cell_volume   645.12003324
_cell_formula_units_Z   1
loop_
 _symmetry_equiv_pos_site_id
 _symmetry_equiv_pos_as_xyz
  1  'x, y, z'
loop_
 _atom_site_type_symbol
 _atom_site_label
 _atom_site_symmetry_multiplicity
 _atom_site_fract_x
 _atom_site_fract_y
 _atom_site_fract_z
 _atom_site_occupancy
  Y  Y0  1  0.341141  0.002346  0.466642  1
  Y  Y1  1  0.497548  0.840273  0.716916  1
  Y  Y2  1  0.502200  0.158537  0.216253  1
  Y  Y3  1  0.840600  0.497511  0.283047  1
  Y  Y4  1  0.158774  0.502435  0.783501  1
  Y  Y5  1  0.659698  0.997644  0.967066  1
  Y  Y6  1  0.002563  0.340124  0.533205  1
  Er  Er7  1  0.998711  0.658363  0.033371  1
  Ta  Ta8  1  0.325991  0.326856  0.000105  1
  Ta  Ta9  1  0.173733  0.826088  0.249626  1
  Ti  Ti10  1  0.826937  0.173805  0.750179  1
  Ti  Ti11  1  0.673066  0.673723  0.500056  1
  Ti  Ti12  1  0.152337  0.009133  0.876754  1
  Ti  Ti13  1  0.490721  0.652685  0.125651  1
  Ti  Ti14  1  0.507859  0.348480  0.626099  1
  Ti  Ti15  1  0.651690  0.492243  0.874899  1
  Ti  Ti16  1  0.347015  0.508785  0.373448  1
  Ti  Ti17  1  0.848351  0.991470  0.375274  1
  Ti  Ti18  1  0.009232  0.152268  0.124004  1
  Ti  Ti19  1  0.992121  0.848476  0.624072  1
  Si  Si20  1  0.201368  0.129804  0.684943  1
  Si  Si21  1  0.368875  0.701452  0.934798  1
  Si  Si22  1  0.630311  0.298321  0.434955  1
  Si  Si23  1  0.702380  0.370563  0.065235  1
  Si  Si24  1  0.298709  0.630055  0.565065  1
  Si  Si25  1  0.798905  0.868537  0.184016  1
  Si  Si26  1  0.130099  0.201481  0.315317  1
  Si  Si27  1  0.869948  0.797979  0.815719  1
  Si  Si28  1  0.291361  0.952593  0.064036  1
  Si  Si29  1  0.547194  0.791016  0.314616  1
  Si  Si30  1  0.453530  0.208505  0.814165  1
  Si  Si31  1  0.791011  0.547244  0.685511  1
  Si  Si32  1  0.207504  0.453787  0.185422  1
  Si  Si33  1  0.708905  0.046952  0.564752  1
  Si  Si34  1  0.953146  0.292311  0.935357  1
  Si  Si35  1  0.046469  0.708159  0.435929  1
