# generated using pymatgen
data_Nd8In2IrRh
_symmetry_space_group_name_H-M   'P 1'
_cell_length_a   9.99253391
_cell_length_b   9.99253396
_cell_length_c   9.94534400
_cell_angle_alpha   60.15609719
_cell_angle_beta   60.15609703
_cell_angle_gamma   60.39544534
_symmetry_Int_Tables_number   1
_chemical_formula_structural   Nd8In2IrRh
_chemical_formula_sum   'Nd16 In4 Ir2 Rh2'
_cell_volume   705.93384275
_cell_formula_units_Z   2
loop_
 _symmetry_equiv_pos_site_id
 _symmetry_equiv_pos_as_xyz
  1  'x, y, z'
loop_
 _atom_site_type_symbol
 _atom_site_label
 _atom_site_symmetry_multiplicity
 _atom_site_fract_x
 _atom_site_fract_y
 _atom_site_fract_z
 _atom_site_occupancy
  Nd  Nd0  1  0.348691  0.348691  0.347858  1
  Nd  Nd1  1  0.348691  0.348691  0.954759  1
  Nd  Nd2  1  0.349476  0.953533  0.348496  1
  Nd  Nd3  1  0.953533  0.349476  0.348496  1
  Nd  Nd4  1  0.808441  0.190699  0.191385  1
  Nd  Nd5  1  0.190699  0.808441  0.809475  1
  Nd  Nd6  1  0.190699  0.808441  0.191385  1
  Nd  Nd7  1  0.808441  0.190699  0.809475  1
  Nd  Nd8  1  0.190854  0.190854  0.809146  1
  Nd  Nd9  1  0.808783  0.808783  0.191217  1
  Nd  Nd10  1  0.939792  0.561528  0.559961  1
  Nd  Nd11  1  0.561528  0.939792  0.938719  1
  Nd  Nd12  1  0.561528  0.939792  0.559961  1
  Nd  Nd13  1  0.939792  0.561528  0.938719  1
  Nd  Nd14  1  0.560164  0.560164  0.939836  1
  Nd  Nd15  1  0.938835  0.938835  0.561165  1
  In  In16  1  0.581042  0.581042  0.580992  1
  In  In17  1  0.581042  0.581042  0.256923  1
  In  In18  1  0.580934  0.256842  0.581112  1
  In  In19  1  0.256842  0.580934  0.581112  1
  Ir  Ir20  1  0.141893  0.575218  0.141444  1
  Ir  Ir21  1  0.575218  0.141893  0.141444  1
  Rh  Rh22  1  0.141540  0.141540  0.141301  1
  Rh  Rh23  1  0.141540  0.141540  0.575617  1
