# generated using pymatgen
data_Y14Ho2MgHg3Pt4
_symmetry_space_group_name_H-M   'P 1'
_cell_length_a   9.69446092
_cell_length_b   9.70968587
_cell_length_c   9.71289300
_cell_angle_alpha   59.98907648
_cell_angle_beta   59.93708896
_cell_angle_gamma   59.95340602
_symmetry_Int_Tables_number   1
_chemical_formula_structural   Y14Ho2MgHg3Pt4
_chemical_formula_sum   'Y14 Ho2 Mg1 Hg3 Pt4'
_cell_volume   645.90212771
_cell_formula_units_Z   1
loop_
 _symmetry_equiv_pos_site_id
 _symmetry_equiv_pos_as_xyz
  1  'x, y, z'
loop_
 _atom_site_type_symbol
 _atom_site_label
 _atom_site_symmetry_multiplicity
 _atom_site_fract_x
 _atom_site_fract_y
 _atom_site_fract_z
 _atom_site_occupancy
  Y  Y0  1  0.605954  0.189459  0.602294  1
  Y  Y1  1  0.179453  0.608338  0.606105  1
  Y  Y2  1  0.058440  0.441640  0.441710  1
  Y  Y3  1  0.437495  0.061825  0.060811  1
  Y  Y4  1  0.437495  0.061825  0.439869  1
  Y  Y5  1  0.058440  0.441640  0.058210  1
  Y  Y6  1  0.438859  0.440893  0.060124  1
  Y  Y7  1  0.058882  0.059743  0.440687  1
  Y  Y8  1  0.185351  0.813641  0.814395  1
  Y  Y9  1  0.812333  0.187182  0.185872  1
  Y  Y10  1  0.812333  0.187182  0.814615  1
  Y  Y11  1  0.185351  0.813641  0.186613  1
  Y  Y12  1  0.813219  0.814060  0.186361  1
  Y  Y13  1  0.185265  0.187418  0.813658  1
  Ho  Ho14  1  0.602256  0.601084  0.598997  1
  Ho  Ho15  1  0.602256  0.601084  0.197665  1
  Mg  Mg16  1  0.534554  0.819713  0.822866  1
  Hg  Hg17  1  0.832286  0.837612  0.839272  1
  Hg  Hg18  1  0.832286  0.837612  0.490830  1
  Hg  Hg19  1  0.831829  0.490148  0.839011  1
  Pt  Pt20  1  0.392571  0.395997  0.395353  1
  Pt  Pt21  1  0.392571  0.395997  0.816081  1
  Pt  Pt22  1  0.392493  0.817125  0.395192  1
  Pt  Pt23  1  0.818034  0.395144  0.393412  1
