# generated using pymatgen
data_Sm6Th2Be3Si12Pd
_symmetry_space_group_name_H-M   'P 1'
_cell_length_a   8.01381200
_cell_length_b   8.01381256
_cell_length_c   8.40056800
_cell_angle_alpha   90.00000000
_cell_angle_beta   90.00000000
_cell_angle_gamma   119.99998942
_symmetry_Int_Tables_number   1
_chemical_formula_structural   Sm6Th2Be3Si12Pd
_chemical_formula_sum   'Sm6 Th2 Be3 Si12 Pd1'
_cell_volume   467.21594937
_cell_formula_units_Z   1
loop_
 _symmetry_equiv_pos_site_id
 _symmetry_equiv_pos_as_xyz
  1  'x, y, z'
loop_
 _atom_site_type_symbol
 _atom_site_label
 _atom_site_symmetry_multiplicity
 _atom_site_fract_x
 _atom_site_fract_y
 _atom_site_fract_z
 _atom_site_occupancy
  Sm  Sm0  1  0.498058  0.501942  0.752504  1
  Sm  Sm1  1  0.498181  0.501819  0.247551  1
  Sm  Sm2  1  0.003883  0.501942  0.752504  1
  Sm  Sm3  1  0.003636  0.501819  0.247551  1
  Sm  Sm4  1  0.498058  0.996117  0.752504  1
  Sm  Sm5  1  0.498181  0.996364  0.247551  1
  Th  Th6  1  0.000000  0.000000  0.750414  1
  Th  Th7  1  0.000000  0.000000  0.249634  1
  Be  Be8  1  0.666667  0.333333  0.999034  1
  Be  Be9  1  0.333333  0.666667  0.000878  1
  Be  Be10  1  0.333333  0.666667  0.499375  1
  Si  Si11  1  0.828110  0.171890  0.000038  1
  Si  Si12  1  0.173020  0.826980  0.000053  1
  Si  Si13  1  0.343782  0.171890  0.000038  1
  Si  Si14  1  0.171637  0.828363  0.499821  1
  Si  Si15  1  0.653962  0.826980  0.000053  1
  Si  Si16  1  0.833825  0.166175  0.500168  1
  Si  Si17  1  0.828110  0.656218  0.000038  1
  Si  Si18  1  0.656728  0.828363  0.499821  1
  Si  Si19  1  0.173020  0.346038  0.000053  1
  Si  Si20  1  0.332351  0.166175  0.500168  1
  Si  Si21  1  0.171637  0.343272  0.499821  1
  Si  Si22  1  0.833825  0.667649  0.500168  1
  Pd  Pd23  1  0.666667  0.333333  0.500253  1
