# generated using pymatgen
data_Pa6Mn3Ni3Sb8
_symmetry_space_group_name_H-M   'P 1'
_cell_length_a   8.13861411
_cell_length_b   8.13861365
_cell_length_c   8.17987485
_cell_angle_alpha   109.98643735
_cell_angle_beta   109.08414246
_cell_angle_gamma   109.13866377
_symmetry_Int_Tables_number   1
_chemical_formula_structural   Pa6Mn3Ni3Sb8
_chemical_formula_sum   'Pa6 Mn3 Ni3 Sb8'
_cell_volume   418.11042530
_cell_formula_units_Z   1
loop_
 _symmetry_equiv_pos_site_id
 _symmetry_equiv_pos_as_xyz
  1  'x, y, z'
loop_
 _atom_site_type_symbol
 _atom_site_label
 _atom_site_symmetry_multiplicity
 _atom_site_fract_x
 _atom_site_fract_y
 _atom_site_fract_z
 _atom_site_occupancy
  Pa  Pa0  1  0.633259  0.383259  0.250000  1
  Pa  Pa1  1  0.377137  0.261075  0.628642  1
  Pa  Pa2  1  0.132433  0.748495  0.871358  1
  Pa  Pa3  1  0.741574  0.873880  0.124293  1
  Pa  Pa4  1  0.249587  0.617281  0.375707  1
  Pa  Pa5  1  0.870272  0.120272  0.750000  1
  Mn  Mn6  1  0.871905  0.252503  0.125123  1
  Mn  Mn7  1  0.367819  0.617819  0.750000  1
  Mn  Mn8  1  0.627380  0.746783  0.374877  1
  Ni  Ni9  1  0.749068  0.375992  0.624748  1
  Ni  Ni10  1  0.251244  0.124320  0.875252  1
  Ni  Ni11  1  0.127055  0.877055  0.250000  1
  Sb  Sb12  1  0.499362  0.997789  0.831315  1
  Sb  Sb13  1  0.163690  0.162066  0.162984  1
  Sb  Sb14  1  0.838571  0.503777  0.999037  1
  Sb  Sb15  1  0.004740  0.839534  0.500963  1
  Sb  Sb16  1  0.331581  0.498276  0.000508  1
  Sb  Sb17  1  0.997767  0.331073  0.499492  1
  Sb  Sb18  1  0.499082  0.000706  0.337016  1
  Sb  Sb19  1  0.666473  0.668047  0.668685  1
