# generated using pymatgen
data_Y4Al18(PdRh)3
_symmetry_space_group_name_H-M   'P 1'
_cell_length_a   7.61901676
_cell_length_b   7.61901747
_cell_length_c   9.46976215
_cell_angle_alpha   89.98998108
_cell_angle_beta   89.98997842
_cell_angle_gamma   119.56189010
_symmetry_Int_Tables_number   1
_chemical_formula_structural   Y4Al18(PdRh)3
_chemical_formula_sum   'Y4 Al18 Pd3 Rh3'
_cell_volume   478.15419414
_cell_formula_units_Z   1
loop_
 _symmetry_equiv_pos_site_id
 _symmetry_equiv_pos_as_xyz
  1  'x, y, z'
loop_
 _atom_site_type_symbol
 _atom_site_label
 _atom_site_symmetry_multiplicity
 _atom_site_fract_x
 _atom_site_fract_y
 _atom_site_fract_z
 _atom_site_occupancy
  Y  Y0  1  0.995613  0.670122  0.250182  1
  Y  Y1  1  0.005514  0.330585  0.749936  1
  Y  Y2  1  0.669415  0.994486  0.250064  1
  Y  Y3  1  0.329878  0.004387  0.749818  1
  Al  Al4  1  0.126142  0.126856  0.250569  1
  Al  Al5  1  0.873144  0.873858  0.749431  1
  Al  Al6  1  0.000410  0.331167  0.075977  1
  Al  Al7  1  0.999226  0.668979  0.923579  1
  Al  Al8  1  0.996286  0.664916  0.574638  1
  Al  Al9  1  0.335084  0.003714  0.425362  1
  Al  Al10  1  0.996348  0.330984  0.425400  1
  Al  Al11  1  0.669016  0.003652  0.574600  1
  Al  Al12  1  0.668833  0.999590  0.924023  1
  Al  Al13  1  0.331021  0.000774  0.076421  1
  Al  Al14  1  0.332789  0.329596  0.551830  1
  Al  Al15  1  0.670404  0.667211  0.448170  1
  Al  Al16  1  0.669491  0.669410  0.054333  1
  Al  Al17  1  0.330590  0.330509  0.945667  1
  Al  Al18  1  0.340033  0.545961  0.250555  1
  Al  Al19  1  0.659433  0.451810  0.746795  1
  Al  Al20  1  0.548190  0.340567  0.253205  1
  Al  Al21  1  0.454039  0.659967  0.749445  1
  Pd  Pd22  1  0.672148  0.327852  0.000000  1
  Pd  Pd23  1  0.327499  0.672501  0.000000  1
  Pd  Pd24  1  0.327436  0.672564  0.500000  1
  Rh  Rh25  1  0.671865  0.328135  0.500000  1
  Rh  Rh26  1  0.999937  0.000063  0.000000  1
  Rh  Rh27  1  0.000216  0.999784  0.500000  1
