# generated using pymatgen
data_Rb4GeSbAu7
_symmetry_space_group_name_H-M   'P 1'
_cell_length_a   10.70623380
_cell_length_b   10.70623466
_cell_length_c   10.70623438
_cell_angle_alpha   37.09560897
_cell_angle_beta   37.09560532
_cell_angle_gamma   37.09560405
_symmetry_Int_Tables_number   1
_chemical_formula_structural   Rb4GeSbAu7
_chemical_formula_sum   'Rb4 Ge1 Sb1 Au7'
_cell_volume   400.07962076
_cell_formula_units_Z   1
loop_
 _symmetry_equiv_pos_site_id
 _symmetry_equiv_pos_as_xyz
  1  'x, y, z'
loop_
 _atom_site_type_symbol
 _atom_site_label
 _atom_site_symmetry_multiplicity
 _atom_site_fract_x
 _atom_site_fract_y
 _atom_site_fract_z
 _atom_site_occupancy
  Rb  Rb0  1  0.683482  0.683482  0.683482  1
  Rb  Rb1  1  0.314717  0.314717  0.314717  1
  Rb  Rb2  1  0.812846  0.812846  0.812846  1
  Rb  Rb3  1  0.188956  0.188956  0.188956  1
  Ge  Ge4  1  0.554515  0.554515  0.554515  1
  Sb  Sb5  1  0.453261  0.453261  0.453261  1
  Au  Au6  1  0.998436  0.998436  0.998436  1
  Au  Au7  1  0.200048  0.781461  0.781461  1
  Au  Au8  1  0.781461  0.781461  0.200048  1
  Au  Au9  1  0.781461  0.200048  0.781461  1
  Au  Au10  1  0.213853  0.803112  0.213853  1
  Au  Au11  1  0.803112  0.213853  0.213853  1
  Au  Au12  1  0.213853  0.213853  0.803112  1
