# generated using pymatgen
data_Ta3GaOs2N
_symmetry_space_group_name_H-M   'P 1'
_cell_length_a   8.30008348
_cell_length_b   8.30008387
_cell_length_c   8.30008200
_cell_angle_alpha   59.99999948
_cell_angle_beta   59.99999794
_cell_angle_gamma   59.99999787
_symmetry_Int_Tables_number   1
_chemical_formula_structural   Ta3GaOs2N
_chemical_formula_sum   'Ta12 Ga4 Os8 N4'
_cell_volume   404.32659738
_cell_formula_units_Z   4
loop_
 _symmetry_equiv_pos_site_id
 _symmetry_equiv_pos_as_xyz
  1  'x, y, z'
loop_
 _atom_site_type_symbol
 _atom_site_label
 _atom_site_symmetry_multiplicity
 _atom_site_fract_x
 _atom_site_fract_y
 _atom_site_fract_z
 _atom_site_occupancy
  Ta  Ta0  1  0.807132  0.807132  0.192868  1
  Ta  Ta1  1  0.192868  0.192868  0.807132  1
  Ta  Ta2  1  0.807132  0.192868  0.807132  1
  Ta  Ta3  1  0.192868  0.807132  0.192868  1
  Ta  Ta4  1  0.192868  0.807132  0.807132  1
  Ta  Ta5  1  0.807132  0.192868  0.192868  1
  Ta  Ta6  1  0.442868  0.442868  0.057132  1
  Ta  Ta7  1  0.057132  0.057132  0.442868  1
  Ta  Ta8  1  0.442868  0.057132  0.442868  1
  Ta  Ta9  1  0.057132  0.442868  0.057132  1
  Ta  Ta10  1  0.057132  0.442868  0.442868  1
  Ta  Ta11  1  0.442868  0.057132  0.057132  1
  Ga  Ga12  1  0.125000  0.625000  0.625000  1
  Ga  Ga13  1  0.625000  0.125000  0.625000  1
  Ga  Ga14  1  0.625000  0.625000  0.125000  1
  Ga  Ga15  1  0.625000  0.625000  0.625000  1
  Os  Os16  1  0.758513  0.413829  0.413829  1
  Os  Os17  1  0.413829  0.758513  0.413829  1
  Os  Os18  1  0.413829  0.413829  0.758513  1
  Os  Os19  1  0.413829  0.413829  0.413829  1
  Os  Os20  1  0.491487  0.836171  0.836171  1
  Os  Os21  1  0.836171  0.491487  0.836171  1
  Os  Os22  1  0.836171  0.836171  0.491487  1
  Os  Os23  1  0.836171  0.836171  0.836171  1
  N  N24  1  0.625000  0.125000  0.125000  1
  N  N25  1  0.125000  0.625000  0.125000  1
  N  N26  1  0.125000  0.125000  0.625000  1
  N  N27  1  0.125000  0.125000  0.125000  1
