# generated using pymatgen
data_LiLa5PrOsI12
_symmetry_space_group_name_H-M   'P 1'
_cell_length_a   10.18276235
_cell_length_b   10.17521550
_cell_length_c   10.21215800
_cell_angle_alpha   107.20014658
_cell_angle_beta   106.97396237
_cell_angle_gamma   107.19135442
_symmetry_Int_Tables_number   1
_chemical_formula_structural   LiLa5PrOsI12
_chemical_formula_sum   'Li1 La5 Pr1 Os1 I12'
_cell_volume   878.24769357
_cell_formula_units_Z   1
loop_
 _symmetry_equiv_pos_site_id
 _symmetry_equiv_pos_as_xyz
  1  'x, y, z'
loop_
 _atom_site_type_symbol
 _atom_site_label
 _atom_site_symmetry_multiplicity
 _atom_site_fract_x
 _atom_site_fract_y
 _atom_site_fract_z
 _atom_site_occupancy
  Li  Li0  1  0.499815  0.499350  0.500236  1
  La  La1  1  0.308274  0.104616  0.031009  1
  La  La2  1  0.032024  0.309106  0.105280  1
  La  La3  1  0.895701  0.968359  0.689717  1
  La  La4  1  0.691578  0.895600  0.968334  1
  La  La5  1  0.968303  0.691591  0.896020  1
  Pr  Pr6  1  0.104071  0.031641  0.306727  1
  Os  Os7  1  0.999101  0.000073  0.997243  1
  I  I8  1  0.161147  0.379620  0.458902  1
  I  I9  1  0.456208  0.159992  0.381288  1
  I  I10  1  0.383104  0.460561  0.163063  1
  I  I11  1  0.837992  0.616396  0.541277  1
  I  I12  1  0.540542  0.837778  0.618356  1
  I  I13  1  0.617148  0.539881  0.838389  1
  I  I14  1  0.316961  0.774180  0.926563  1
  I  I15  1  0.926807  0.317844  0.776214  1
  I  I16  1  0.777348  0.927138  0.316783  1
  I  I17  1  0.683487  0.226289  0.074671  1
  I  I18  1  0.074376  0.686121  0.226787  1
  I  I19  1  0.226019  0.073871  0.683143  1
