# generated using pymatgen
data_Tb2NdCo9(SiB2)2
_symmetry_space_group_name_H-M   'P 1'
_cell_length_a   5.16556210
_cell_length_b   5.16436601
_cell_length_c   9.38359100
_cell_angle_alpha   90.00001303
_cell_angle_beta   90.00000773
_cell_angle_gamma   120.01228246
_symmetry_Int_Tables_number   1
_chemical_formula_structural   Tb2NdCo9(SiB2)2
_chemical_formula_sum   'Tb2 Nd1 Co9 Si2 B4'
_cell_volume   216.76069655
_cell_formula_units_Z   1
loop_
 _symmetry_equiv_pos_site_id
 _symmetry_equiv_pos_as_xyz
  1  'x, y, z'
loop_
 _atom_site_type_symbol
 _atom_site_label
 _atom_site_symmetry_multiplicity
 _atom_site_fract_x
 _atom_site_fract_y
 _atom_site_fract_z
 _atom_site_occupancy
  Tb  Tb0  1  0.999993  0.000000  0.339473  1
  Tb  Tb1  1  0.999995  0.000000  0.660543  1
  Nd  Nd2  1  0.999995  0.000000  0.999966  1
  Co  Co3  1  0.499994  0.000000  0.500035  1
  Co  Co4  1  0.499994  0.500000  0.500004  1
  Co  Co5  1  0.999995  0.500000  0.499987  1
  Co  Co6  1  0.499994  0.000000  0.197939  1
  Co  Co7  1  0.499994  0.500000  0.198001  1
  Co  Co8  1  0.999994  0.500000  0.198002  1
  Co  Co9  1  0.499995  0.000000  0.802041  1
  Co  Co10  1  0.499995  0.500000  0.802005  1
  Co  Co11  1  0.999994  0.499999  0.802009  1
  Si  Si12  1  0.333409  0.666786  0.999982  1
  Si  Si13  1  0.666581  0.333212  0.999982  1
  B  B14  1  0.333426  0.666815  0.346489  1
  B  B15  1  0.666564  0.333186  0.346488  1
  B  B16  1  0.666741  0.333376  0.653529  1
  B  B17  1  0.333249  0.666622  0.653528  1
