# generated using pymatgen
data_NdEu2Al11
_symmetry_space_group_name_H-M   'P 1'
_cell_length_a   8.43677658
_cell_length_b   8.43677666
_cell_length_c   8.43677667
_cell_angle_alpha   149.12160687
_cell_angle_beta   107.53493264
_cell_angle_gamma   80.81946585
_symmetry_Int_Tables_number   1
_chemical_formula_structural   NdEu2Al11
_chemical_formula_sum   'Nd1 Eu2 Al11'
_cell_volume   287.79712648
_cell_formula_units_Z   1
loop_
 _symmetry_equiv_pos_site_id
 _symmetry_equiv_pos_as_xyz
  1  'x, y, z'
loop_
 _atom_site_type_symbol
 _atom_site_label
 _atom_site_symmetry_multiplicity
 _atom_site_fract_x
 _atom_site_fract_y
 _atom_site_fract_z
 _atom_site_occupancy
  Nd  Nd0  1  0.000000  0.000000  0.000000  1
  Eu  Eu1  1  0.314077  0.314077  0.000000  1
  Eu  Eu2  1  0.685923  0.685923  0.000000  1
  Al  Al3  1  0.702402  0.335165  0.367236  1
  Al  Al4  1  0.297598  0.664835  0.632763  1
  Al  Al5  1  0.967928  0.335165  0.632763  1
  Al  Al6  1  0.032072  0.664835  0.367236  1
  Al  Al7  1  0.709708  0.500000  0.209708  1
  Al  Al8  1  0.290292  0.500000  0.790292  1
  Al  Al9  1  0.410434  0.135761  0.274675  1
  Al  Al10  1  0.589566  0.864239  0.725325  1
  Al  Al11  1  0.861086  0.135761  0.725325  1
  Al  Al12  1  0.138914  0.864239  0.274675  1
  Al  Al13  1  0.500000  0.000000  0.500000  1
