# generated using pymatgen
data_Nd2Er4Al24Os5Pt3
_symmetry_space_group_name_H-M   'P 1'
_cell_length_a   8.85069534
_cell_length_b   8.84713118
_cell_length_c   9.57385025
_cell_angle_alpha   90.08893709
_cell_angle_beta   89.78132221
_cell_angle_gamma   119.59141549
_symmetry_Int_Tables_number   1
_chemical_formula_structural   Nd2Er4Al24Os5Pt3
_chemical_formula_sum   'Nd2 Er4 Al24 Os5 Pt3'
_cell_volume   651.87947309
_cell_formula_units_Z   1
loop_
 _symmetry_equiv_pos_site_id
 _symmetry_equiv_pos_as_xyz
  1  'x, y, z'
loop_
 _atom_site_type_symbol
 _atom_site_label
 _atom_site_symmetry_multiplicity
 _atom_site_fract_x
 _atom_site_fract_y
 _atom_site_fract_z
 _atom_site_occupancy
  Nd  Nd0  1  0.186531  0.378194  0.250047  1
  Nd  Nd1  1  0.813469  0.621806  0.749953  1
  Er  Er2  1  0.610707  0.813299  0.252271  1
  Er  Er3  1  0.389293  0.186701  0.747729  1
  Er  Er4  1  0.196429  0.808442  0.251722  1
  Er  Er5  1  0.803571  0.191558  0.748278  1
  Al  Al6  1  0.335364  0.671649  0.028249  1
  Al  Al7  1  0.664636  0.328351  0.971751  1
  Al  Al8  1  0.669384  0.331407  0.527084  1
  Al  Al9  1  0.330616  0.668593  0.472916  1
  Al  Al10  1  0.157610  0.325160  0.576167  1
  Al  Al11  1  0.842390  0.674840  0.423833  1
  Al  Al12  1  0.673057  0.841802  0.573894  1
  Al  Al13  1  0.836985  0.676605  0.079412  1
  Al  Al14  1  0.326943  0.158198  0.426106  1
  Al  Al15  1  0.163015  0.323395  0.920588  1
  Al  Al16  1  0.165283  0.836099  0.575066  1
  Al  Al17  1  0.325972  0.157589  0.074878  1
  Al  Al18  1  0.834717  0.163901  0.424934  1
  Al  Al19  1  0.674028  0.842411  0.925122  1
  Al  Al20  1  0.830180  0.157897  0.076936  1
  Al  Al21  1  0.169820  0.842103  0.923064  1
  Al  Al22  1  0.560101  0.124208  0.249908  1
  Al  Al23  1  0.439899  0.875792  0.750092  1
  Al  Al24  1  0.873233  0.438153  0.252783  1
  Al  Al25  1  0.126767  0.561847  0.747217  1
  Al  Al26  1  0.563760  0.436813  0.249855  1
  Al  Al27  1  0.436240  0.563187  0.750145  1
  Al  Al28  1  0.994502  0.995447  0.250256  1
  Al  Al29  1  0.005498  0.004553  0.749744  1
  Os  Os30  1  0.500000  0.000000  0.000000  1
  Os  Os31  1  0.500000  0.000000  0.500000  1
  Os  Os32  1  0.000000  0.500000  0.500000  1
  Os  Os33  1  0.000000  0.000000  0.000000  1
  Os  Os34  1  0.000000  0.000000  0.500000  1
  Pt  Pt35  1  0.000000  0.500000  0.000000  1
  Pt  Pt36  1  0.500000  0.500000  0.000000  1
  Pt  Pt37  1  0.500000  0.500000  0.500000  1
