# generated using pymatgen
data_Tb3ZnIn3CuRu
_symmetry_space_group_name_H-M   'P 1'
_cell_length_a   7.62524300
_cell_length_b   7.62524362
_cell_length_c   3.91825400
_cell_angle_alpha   90.00000000
_cell_angle_beta   90.00000000
_cell_angle_gamma   120.00001032
_symmetry_Int_Tables_number   1
_chemical_formula_structural   Tb3ZnIn3CuRu
_chemical_formula_sum   'Tb3 Zn1 In3 Cu1 Ru1'
_cell_volume   197.30158954
_cell_formula_units_Z   1
loop_
 _symmetry_equiv_pos_site_id
 _symmetry_equiv_pos_as_xyz
  1  'x, y, z'
loop_
 _atom_site_type_symbol
 _atom_site_label
 _atom_site_symmetry_multiplicity
 _atom_site_fract_x
 _atom_site_fract_y
 _atom_site_fract_z
 _atom_site_occupancy
  Tb  Tb0  1  0.023464  0.603339  0.500000  1
  Tb  Tb1  1  0.396661  0.420127  0.500000  1
  Tb  Tb2  1  0.579873  0.976536  0.500000  1
  Zn  Zn3  1  0.666667  0.333333  0.000000  1
  In  In4  1  0.747916  0.746815  0.000000  1
  In  In5  1  0.998899  0.252084  0.000000  1
  In  In6  1  0.253185  0.001101  0.000000  1
  Cu  Cu7  1  0.000000  0.000000  0.500000  1
  Ru  Ru8  1  0.333333  0.666667  0.000000  1
