# generated using pymatgen
data_La2NdMgAu5
_symmetry_space_group_name_H-M   'P 1'
_cell_length_a   8.19220834
_cell_length_b   8.17983917
_cell_length_c   8.15999156
_cell_angle_alpha   65.99837936
_cell_angle_beta   65.83796200
_cell_angle_gamma   65.85177819
_symmetry_Int_Tables_number   1
_chemical_formula_structural   La2NdMgAu5
_chemical_formula_sum   'La4 Nd2 Mg2 Au10'
_cell_volume   436.03225034
_cell_formula_units_Z   2
loop_
 _symmetry_equiv_pos_site_id
 _symmetry_equiv_pos_as_xyz
  1  'x, y, z'
loop_
 _atom_site_type_symbol
 _atom_site_label
 _atom_site_symmetry_multiplicity
 _atom_site_fract_x
 _atom_site_fract_y
 _atom_site_fract_z
 _atom_site_occupancy
  La  La0  1  0.892645  0.191137  0.622072  1
  La  La1  1  0.622231  0.893706  0.191130  1
  La  La2  1  0.191399  0.619806  0.892963  1
  La  La3  1  0.105855  0.806717  0.379919  1
  Nd  Nd4  1  0.381153  0.107514  0.806551  1
  Nd  Nd5  1  0.804644  0.382122  0.107411  1
  Mg  Mg6  1  0.653728  0.653794  0.654624  1
  Mg  Mg7  1  0.347417  0.343433  0.345966  1
  Au  Au8  1  0.003295  0.006904  0.999485  1
  Au  Au9  1  0.501291  0.496345  0.500049  1
  Au  Au10  1  0.796477  0.798029  0.799764  1
  Au  Au11  1  0.199719  0.200822  0.197354  1
  Au  Au12  1  0.940051  0.546756  0.320302  1
  Au  Au13  1  0.321271  0.942915  0.549848  1
  Au  Au14  1  0.548826  0.320679  0.942071  1
  Au  Au15  1  0.060144  0.446756  0.683150  1
  Au  Au16  1  0.680220  0.062033  0.449231  1
  Au  Au17  1  0.449633  0.680533  0.058108  1
