# generated using pymatgen
data_Dy14Er2MgNi4Hg3
_symmetry_space_group_name_H-M   'P 1'
_cell_length_a   9.49758319
_cell_length_b   9.51836278
_cell_length_c   9.50686800
_cell_angle_alpha   60.03993353
_cell_angle_beta   59.96764909
_cell_angle_gamma   60.09668173
_symmetry_Int_Tables_number   1
_chemical_formula_structural   Dy14Er2MgNi4Hg3
_chemical_formula_sum   'Dy14 Er2 Mg1 Ni4 Hg3'
_cell_volume   608.18922959
_cell_formula_units_Z   1
loop_
 _symmetry_equiv_pos_site_id
 _symmetry_equiv_pos_as_xyz
  1  'x, y, z'
loop_
 _atom_site_type_symbol
 _atom_site_label
 _atom_site_symmetry_multiplicity
 _atom_site_fract_x
 _atom_site_fract_y
 _atom_site_fract_z
 _atom_site_occupancy
  Dy  Dy0  1  0.186146  0.813609  0.814476  1
  Dy  Dy1  1  0.811493  0.187378  0.186551  1
  Dy  Dy2  1  0.811493  0.187378  0.814578  1
  Dy  Dy3  1  0.186146  0.813609  0.185769  1
  Dy  Dy4  1  0.812293  0.814367  0.186670  1
  Dy  Dy5  1  0.186069  0.186735  0.813598  1
  Dy  Dy6  1  0.598140  0.597430  0.597974  1
  Dy  Dy7  1  0.598140  0.597430  0.206456  1
  Dy  Dy8  1  0.600437  0.203673  0.597945  1
  Dy  Dy9  1  0.195407  0.602534  0.601029  1
  Dy  Dy10  1  0.059582  0.440201  0.440564  1
  Dy  Dy11  1  0.435316  0.063521  0.062363  1
  Dy  Dy12  1  0.435316  0.063521  0.438802  1
  Dy  Dy13  1  0.059582  0.440201  0.059652  1
  Er  Er14  1  0.436987  0.439444  0.061785  1
  Er  Er15  1  0.058784  0.059805  0.440705  1
  Mg  Mg16  1  0.534969  0.821041  0.821994  1
  Ni  Ni17  1  0.390128  0.394135  0.393931  1
  Ni  Ni18  1  0.390128  0.394135  0.821807  1
  Ni  Ni19  1  0.388680  0.823154  0.394083  1
  Ni  Ni20  1  0.822825  0.391412  0.392881  1
  Hg  Hg21  1  0.833949  0.836051  0.835657  1
  Hg  Hg22  1  0.833949  0.836051  0.494343  1
  Hg  Hg23  1  0.834043  0.493183  0.836386  1
