# generated using pymatgen
data_Sc2P7(IrRu5)2
_symmetry_space_group_name_H-M   'P 1'
_cell_length_a   9.34768390
_cell_length_b   9.41818665
_cell_length_c   3.92045200
_cell_angle_alpha   90.00000000
_cell_angle_beta   90.00000000
_cell_angle_gamma   120.12907760
_symmetry_Int_Tables_number   1
_chemical_formula_structural   Sc2P7(IrRu5)2
_chemical_formula_sum   'Sc2 P7 Ir2 Ru10'
_cell_volume   298.51883526
_cell_formula_units_Z   1
loop_
 _symmetry_equiv_pos_site_id
 _symmetry_equiv_pos_as_xyz
  1  'x, y, z'
loop_
 _atom_site_type_symbol
 _atom_site_label
 _atom_site_symmetry_multiplicity
 _atom_site_fract_x
 _atom_site_fract_y
 _atom_site_fract_z
 _atom_site_occupancy
  Sc  Sc0  1  0.668850  0.334301  0.500000  1
  Sc  Sc1  1  0.330066  0.665302  0.000000  1
  P  P2  1  0.598424  0.717769  0.500000  1
  P  P3  1  0.000713  0.001031  0.000000  1
  P  P4  1  0.277128  0.876147  0.500000  1
  P  P5  1  0.117059  0.404357  0.500000  1
  P  P6  1  0.882395  0.573836  0.000000  1
  P  P7  1  0.427879  0.304126  0.000000  1
  P  P8  1  0.697172  0.121594  0.000000  1
  Ir  Ir9  1  0.548086  0.939761  0.500000  1
  Ir  Ir10  1  0.390593  0.449781  0.500000  1
  Ru  Ru11  1  0.914215  0.126367  0.500000  1
  Ru  Ru12  1  0.214353  0.087312  0.500000  1
  Ru  Ru13  1  0.874023  0.789957  0.500000  1
  Ru  Ru14  1  0.724944  0.891339  0.000000  1
  Ru  Ru15  1  0.109832  0.836607  0.000000  1
  Ru  Ru16  1  0.167580  0.274050  0.000000  1
  Ru  Ru17  1  0.433097  0.068657  0.000000  1
  Ru  Ru18  1  0.933683  0.361675  0.000000  1
  Ru  Ru19  1  0.638092  0.568529  0.000000  1
  Ru  Ru20  1  0.051816  0.607501  0.500000  1
