# generated using pymatgen
data_NdTh3(Pd3Pt)3
_symmetry_space_group_name_H-M   'P 1'
_cell_length_a   5.94946900
_cell_length_b   5.95056216
_cell_length_c   9.79724961
_cell_angle_alpha   89.94370870
_cell_angle_beta   90.00000000
_cell_angle_gamma   119.99391767
_symmetry_Int_Tables_number   1
_chemical_formula_structural   NdTh3(Pd3Pt)3
_chemical_formula_sum   'Nd1 Th3 Pd9 Pt3'
_cell_volume   300.39821078
_cell_formula_units_Z   1
loop_
 _symmetry_equiv_pos_site_id
 _symmetry_equiv_pos_as_xyz
  1  'x, y, z'
loop_
 _atom_site_type_symbol
 _atom_site_label
 _atom_site_symmetry_multiplicity
 _atom_site_fract_x
 _atom_site_fract_y
 _atom_site_fract_z
 _atom_site_occupancy
  Nd  Nd0  1  0.999578  0.999157  0.499637  1
  Th  Th1  1  0.999393  0.998787  0.000688  1
  Th  Th2  1  0.336423  0.672848  0.253160  1
  Th  Th3  1  0.664793  0.329585  0.746692  1
  Pd  Pd4  1  0.499937  0.499441  0.500506  1
  Pd  Pd5  1  0.999504  0.499441  0.500506  1
  Pd  Pd6  1  0.499378  0.498762  0.999350  1
  Pd  Pd7  1  0.999385  0.498762  0.999350  1
  Pd  Pd8  1  0.353682  0.180285  0.248475  1
  Pd  Pd9  1  0.826603  0.180285  0.248475  1
  Pd  Pd10  1  0.173835  0.347669  0.751937  1
  Pd  Pd11  1  0.647304  0.820714  0.751709  1
  Pd  Pd12  1  0.173410  0.820714  0.751709  1
  Pt  Pt13  1  0.499644  0.999287  0.501350  1
  Pt  Pt14  1  0.499631  0.999260  0.998792  1
  Pt  Pt15  1  0.827501  0.655002  0.247666  1
