# generated using pymatgen
data_LaNdPd2F14
_symmetry_space_group_name_H-M   'P 1'
_cell_length_a   5.73301600
_cell_length_b   9.21850380
_cell_length_c   12.32761871
_cell_angle_alpha   61.97606001
_cell_angle_beta   90.00000000
_cell_angle_gamma   90.00000000
_symmetry_Int_Tables_number   1
_chemical_formula_structural   LaNdPd2F14
_chemical_formula_sum   'La2 Nd2 Pd4 F28'
_cell_volume   575.12358744
_cell_formula_units_Z   2
loop_
 _symmetry_equiv_pos_site_id
 _symmetry_equiv_pos_as_xyz
  1  'x, y, z'
loop_
 _atom_site_type_symbol
 _atom_site_label
 _atom_site_symmetry_multiplicity
 _atom_site_fract_x
 _atom_site_fract_y
 _atom_site_fract_z
 _atom_site_occupancy
  La  La0  1  0.239292  0.190627  0.734752  1
  La  La1  1  0.739292  0.809373  0.765248  1
  Nd  Nd2  1  0.761612  0.811767  0.264636  1
  Nd  Nd3  1  0.261612  0.188233  0.235364  1
  Pd  Pd4  1  0.243488  0.727765  0.540715  1
  Pd  Pd5  1  0.743488  0.272235  0.959285  1
  Pd  Pd6  1  0.757107  0.275674  0.453949  1
  Pd  Pd7  1  0.257107  0.724326  0.046051  1
  F  F8  1  0.959716  0.714914  0.457581  1
  F  F9  1  0.459716  0.285086  0.042419  1
  F  F10  1  0.038443  0.287897  0.537967  1
  F  F11  1  0.538443  0.712103  0.962033  1
  F  F12  1  0.063654  0.704951  0.923712  1
  F  F13  1  0.563654  0.295049  0.576288  1
  F  F14  1  0.940065  0.293001  0.080378  1
  F  F15  1  0.440065  0.706999  0.419622  1
  F  F16  1  0.736893  0.510763  0.861926  1
  F  F17  1  0.236893  0.489237  0.638074  1
  F  F18  1  0.263071  0.484714  0.141571  1
  F  F19  1  0.763071  0.515286  0.358429  1
  F  F20  1  0.741617  0.032893  0.049932  1
  F  F21  1  0.241617  0.967107  0.450068  1
  F  F22  1  0.259010  0.963038  0.954278  1
  F  F23  1  0.759010  0.036962  0.545722  1
  F  F24  1  0.053033  0.741953  0.666604  1
  F  F25  1  0.553033  0.258047  0.833396  1
  F  F26  1  0.950324  0.258735  0.329678  1
  F  F27  1  0.450324  0.741265  0.170322  1
  F  F28  1  0.020557  0.269819  0.869302  1
  F  F29  1  0.520557  0.730181  0.630698  1
  F  F30  1  0.978521  0.729776  0.134822  1
  F  F31  1  0.478521  0.270224  0.365178  1
  F  F32  1  0.088281  0.969390  0.231800  1
  F  F33  1  0.588281  0.030610  0.268200  1
  F  F34  1  0.905315  0.033269  0.769298  1
  F  F35  1  0.405315  0.966731  0.730702  1
