# generated using pymatgen
data_HgBi3(Rh2O7)2
_symmetry_space_group_name_H-M   'P 1'
_cell_length_a   7.41447191
_cell_length_b   7.21467306
_cell_length_c   7.41447200
_cell_angle_alpha   59.07960157
_cell_angle_beta   59.99999958
_cell_angle_gamma   59.07959904
_symmetry_Int_Tables_number   1
_chemical_formula_structural   HgBi3(Rh2O7)2
_chemical_formula_sum   'Hg1 Bi3 Rh4 O14'
_cell_volume   276.48912769
_cell_formula_units_Z   1
loop_
 _symmetry_equiv_pos_site_id
 _symmetry_equiv_pos_as_xyz
  1  'x, y, z'
loop_
 _atom_site_type_symbol
 _atom_site_label
 _atom_site_symmetry_multiplicity
 _atom_site_fract_x
 _atom_site_fract_y
 _atom_site_fract_z
 _atom_site_occupancy
  Hg  Hg0  1  0.125000  0.625000  0.125000  1
  Bi  Bi1  1  0.125000  0.125000  0.125000  1
  Bi  Bi2  1  0.625000  0.125000  0.125000  1
  Bi  Bi3  1  0.125000  0.125000  0.625000  1
  Rh  Rh4  1  0.625000  0.625000  0.625000  1
  Rh  Rh5  1  0.625000  0.625000  0.125000  1
  Rh  Rh6  1  0.125000  0.625000  0.625000  1
  Rh  Rh7  1  0.625000  0.125000  0.625000  1
  O  O8  1  0.252746  0.241763  0.252746  1
  O  O9  1  0.295122  0.710140  0.295122  1
  O  O10  1  0.955336  0.960805  0.541930  1
  O  O11  1  0.541930  0.960805  0.541930  1
  O  O12  1  0.699616  0.710140  0.295122  1
  O  O13  1  0.954878  0.539860  0.550384  1
  O  O14  1  0.708070  0.289195  0.708070  1
  O  O15  1  0.294664  0.289195  0.708070  1
  O  O16  1  0.708070  0.289195  0.294664  1
  O  O17  1  0.295122  0.710140  0.699616  1
  O  O18  1  0.954878  0.539860  0.954878  1
  O  O19  1  0.550384  0.539860  0.954878  1
  O  O20  1  0.997254  0.008237  0.997254  1
  O  O21  1  0.541930  0.960805  0.955336  1
