# generated using pymatgen
data_CeSm2Th(CoB10)2
_symmetry_space_group_name_H-M   'P 1'
_cell_length_a   4.16851200
_cell_length_b   5.60015048
_cell_length_c   11.18099606
_cell_angle_alpha   90.03888639
_cell_angle_beta   90.00000000
_cell_angle_gamma   90.00000000
_symmetry_Int_Tables_number   1
_chemical_formula_structural   CeSm2Th(CoB10)2
_chemical_formula_sum   'Ce1 Sm2 Th1 Co2 B20'
_cell_volume   261.01240431
_cell_formula_units_Z   1
loop_
 _symmetry_equiv_pos_site_id
 _symmetry_equiv_pos_as_xyz
  1  'x, y, z'
loop_
 _atom_site_type_symbol
 _atom_site_label
 _atom_site_symmetry_multiplicity
 _atom_site_fract_x
 _atom_site_fract_y
 _atom_site_fract_z
 _atom_site_occupancy
  Ce  Ce0  1  0.500000  0.302912  0.865214  1
  Sm  Sm1  1  0.500000  0.697237  0.132541  1
  Sm  Sm2  1  0.500000  0.803340  0.637237  1
  Th  Th3  1  0.500000  0.198043  0.365849  1
  Co  Co4  1  0.000000  0.497588  0.499490  1
  Co  Co5  1  0.000000  0.001291  0.999691  1
  B  B6  1  0.000000  0.126269  0.540818  1
  B  B7  1  0.000000  0.871349  0.460376  1
  B  B8  1  0.000000  0.626481  0.959249  1
  B  B9  1  0.000000  0.372712  0.039519  1
  B  B10  1  0.000000  0.156733  0.698737  1
  B  B11  1  0.000000  0.846103  0.302863  1
  B  B12  1  0.300198  0.201924  0.112492  1
  B  B13  1  0.300165  0.799857  0.886628  1
  B  B14  1  0.700122  0.700081  0.386337  1
  B  B15  1  0.699818  0.297541  0.613515  1
  B  B16  1  0.699835  0.799857  0.886628  1
  B  B17  1  0.699802  0.201924  0.112492  1
  B  B18  1  0.300182  0.297541  0.613515  1
  B  B19  1  0.299878  0.700081  0.386337  1
  B  B20  1  0.000000  0.033580  0.186796  1
  B  B21  1  0.000000  0.967888  0.813853  1
  B  B22  1  0.000000  0.533687  0.312853  1
  B  B23  1  0.000000  0.467322  0.686830  1
  B  B24  1  0.000000  0.344528  0.197265  1
  B  B25  1  0.000000  0.654133  0.802874  1
