# generated using pymatgen
data_CaY3Lu2(Si3Ru)8
_symmetry_space_group_name_H-M   'P 1'
_cell_length_a   10.12975507
_cell_length_b   10.12975601
_cell_length_c   8.13803734
_cell_angle_alpha   89.90383558
_cell_angle_beta   90.09616129
_cell_angle_gamma   132.62252884
_symmetry_Int_Tables_number   1
_chemical_formula_structural   CaY3Lu2(Si3Ru)8
_chemical_formula_sum   'Ca1 Y3 Lu2 Si24 Ru8'
_cell_volume   614.46179924
_cell_formula_units_Z   1
loop_
 _symmetry_equiv_pos_site_id
 _symmetry_equiv_pos_as_xyz
  1  'x, y, z'
loop_
 _atom_site_type_symbol
 _atom_site_label
 _atom_site_symmetry_multiplicity
 _atom_site_fract_x
 _atom_site_fract_y
 _atom_site_fract_z
 _atom_site_occupancy
  Ca  Ca0  1  0.001957  0.501957  0.250000  1
  Y  Y1  1  0.498406  0.998406  0.750000  1
  Y  Y2  1  0.997123  0.497123  0.750000  1
  Y  Y3  1  0.502674  0.002674  0.250000  1
  Lu  Lu4  1  0.000261  0.000373  0.000532  1
  Lu  Lu5  1  0.500373  0.500261  0.499468  1
  Si  Si6  1  0.293855  0.704536  0.000215  1
  Si  Si7  1  0.795253  0.206215  0.498804  1
  Si  Si8  1  0.706215  0.295253  0.001196  1
  Si  Si9  1  0.204536  0.793855  0.499785  1
  Si  Si10  1  0.832373  0.833818  0.332844  1
  Si  Si11  1  0.167122  0.168657  0.667036  1
  Si  Si12  1  0.668657  0.667122  0.832964  1
  Si  Si13  1  0.333818  0.332373  0.167156  1
  Si  Si14  1  0.620202  0.386457  0.228437  1
  Si  Si15  1  0.610909  0.377966  0.772076  1
  Si  Si16  1  0.111558  0.878622  0.728644  1
  Si  Si17  1  0.123339  0.889939  0.271612  1
  Si  Si18  1  0.378622  0.611558  0.771356  1
  Si  Si19  1  0.389939  0.623339  0.228388  1
  Si  Si20  1  0.886457  0.120202  0.271563  1
  Si  Si21  1  0.877966  0.110909  0.727924  1
  Si  Si22  1  0.844709  0.611959  0.002689  1
  Si  Si23  1  0.387951  0.155400  0.994741  1
  Si  Si24  1  0.887654  0.654558  0.505978  1
  Si  Si25  1  0.344293  0.112166  0.495171  1
  Si  Si26  1  0.154558  0.387654  0.994022  1
  Si  Si27  1  0.612166  0.844293  0.004829  1
  Si  Si28  1  0.111959  0.344709  0.497311  1
  Si  Si29  1  0.655400  0.887951  0.505259  1
  Ru  Ru30  1  0.169585  0.831809  0.999447  1
  Ru  Ru31  1  0.667110  0.329991  0.501712  1
  Ru  Ru32  1  0.829991  0.167110  0.998288  1
  Ru  Ru33  1  0.331809  0.669585  0.500553  1
  Ru  Ru34  1  0.627054  0.626917  0.127372  1
  Ru  Ru35  1  0.373238  0.373991  0.872872  1
  Ru  Ru36  1  0.873991  0.873238  0.627128  1
  Ru  Ru37  1  0.126917  0.127054  0.372628  1
