# generated using pymatgen
data_Tb5YbYRuI12
_symmetry_space_group_name_H-M   'P 1'
_cell_length_a   9.80783831
_cell_length_b   9.87508088
_cell_length_c   9.81999900
_cell_angle_alpha   107.36362495
_cell_angle_beta   106.80296577
_cell_angle_gamma   106.92111543
_symmetry_Int_Tables_number   1
_chemical_formula_structural   Tb5YbYRuI12
_chemical_formula_sum   'Tb5 Yb1 Y1 Ru1 I12'
_cell_volume   791.43491103
_cell_formula_units_Z   1
loop_
 _symmetry_equiv_pos_site_id
 _symmetry_equiv_pos_as_xyz
  1  'x, y, z'
loop_
 _atom_site_type_symbol
 _atom_site_label
 _atom_site_symmetry_multiplicity
 _atom_site_fract_x
 _atom_site_fract_y
 _atom_site_fract_z
 _atom_site_occupancy
  Tb  Tb0  1  0.974970  0.904801  0.704416  1
  Tb  Tb1  1  0.706125  0.974949  0.904442  1
  Tb  Tb2  1  0.099648  0.305622  0.025003  1
  Tb  Tb3  1  0.024912  0.094969  0.295314  1
  Tb  Tb4  1  0.293705  0.025028  0.095457  1
  Yb  Yb5  1  0.500068  0.499953  0.500140  1
  Y  Y6  1  0.900264  0.693603  0.974984  1
  Ru  Ru7  1  0.999946  0.000366  0.999810  1
  I  I8  1  0.619495  0.846434  0.542288  1
  I  I9  1  0.542105  0.621084  0.847740  1
  I  I10  1  0.848198  0.543274  0.620697  1
  I  I11  1  0.380411  0.153413  0.457661  1
  I  I12  1  0.458842  0.379123  0.152845  1
  I  I13  1  0.152011  0.456859  0.380032  1
  I  I14  1  0.682058  0.073466  0.224019  1
  I  I15  1  0.225044  0.681913  0.073937  1
  I  I16  1  0.073212  0.224029  0.679678  1
  I  I17  1  0.317909  0.926386  0.775890  1
  I  I18  1  0.774483  0.319089  0.926003  1
  I  I19  1  0.926594  0.775641  0.319644  1
