# generated using pymatgen
data_Dy6ZnSi5Rh12
_symmetry_space_group_name_H-M   'P 1'
_cell_length_a   5.56511200
_cell_length_b   5.56511168
_cell_length_c   15.19054700
_cell_angle_alpha   90.00000000
_cell_angle_beta   90.00000000
_cell_angle_gamma   120.00000189
_symmetry_Int_Tables_number   1
_chemical_formula_structural   Dy6ZnSi5Rh12
_chemical_formula_sum   'Dy6 Zn1 Si5 Rh12'
_cell_volume   407.42889830
_cell_formula_units_Z   1
loop_
 _symmetry_equiv_pos_site_id
 _symmetry_equiv_pos_as_xyz
  1  'x, y, z'
loop_
 _atom_site_type_symbol
 _atom_site_label
 _atom_site_symmetry_multiplicity
 _atom_site_fract_x
 _atom_site_fract_y
 _atom_site_fract_z
 _atom_site_occupancy
  Dy  Dy0  1  0.666667  0.333334  0.037101  1
  Dy  Dy1  1  0.666667  0.333334  0.249549  1
  Dy  Dy2  1  0.666667  0.333334  0.462114  1
  Dy  Dy3  1  0.333333  0.666667  0.537886  1
  Dy  Dy4  1  0.333333  0.666667  0.750451  1
  Dy  Dy5  1  0.333333  0.666667  0.962899  1
  Zn  Zn6  1  0.000000  0.000000  0.000000  1
  Si  Si7  1  0.000000  0.000000  0.251492  1
  Si  Si8  1  0.333333  0.666667  0.251714  1
  Si  Si9  1  0.000000  0.000000  0.500000  1
  Si  Si10  1  0.000000  0.000000  0.748508  1
  Si  Si11  1  0.666667  0.333334  0.748286  1
  Rh  Rh12  1  0.167649  0.335300  0.134706  1
  Rh  Rh13  1  0.167650  0.832351  0.134706  1
  Rh  Rh14  1  0.664700  0.832351  0.134706  1
  Rh  Rh15  1  0.166803  0.333606  0.370169  1
  Rh  Rh16  1  0.166804  0.833197  0.370169  1
  Rh  Rh17  1  0.666394  0.833197  0.370169  1
  Rh  Rh18  1  0.333606  0.166803  0.629830  1
  Rh  Rh19  1  0.833198  0.166803  0.629830  1
  Rh  Rh20  1  0.833197  0.666395  0.629830  1
  Rh  Rh21  1  0.335300  0.167649  0.865294  1
  Rh  Rh22  1  0.832352  0.167649  0.865294  1
  Rh  Rh23  1  0.832351  0.664701  0.865294  1
