# generated using pymatgen
data_Lu8Tc3B24Os
_symmetry_space_group_name_H-M   'P 1'
_cell_length_a   3.61161900
_cell_length_b   9.04918296
_cell_length_c   11.40446321
_cell_angle_alpha   89.94724055
_cell_angle_beta   90.00000000
_cell_angle_gamma   90.00000000
_symmetry_Int_Tables_number   1
_chemical_formula_structural   Lu8Tc3B24Os
_chemical_formula_sum   'Lu8 Tc3 B24 Os1'
_cell_volume   372.72280212
_cell_formula_units_Z   1
loop_
 _symmetry_equiv_pos_site_id
 _symmetry_equiv_pos_as_xyz
  1  'x, y, z'
loop_
 _atom_site_type_symbol
 _atom_site_label
 _atom_site_symmetry_multiplicity
 _atom_site_fract_x
 _atom_site_fract_y
 _atom_site_fract_z
 _atom_site_occupancy
  Lu  Lu0  1  0.000000  0.323628  0.413691  1
  Lu  Lu1  1  0.000000  0.675371  0.584283  1
  Lu  Lu2  1  0.000000  0.822559  0.087601  1
  Lu  Lu3  1  0.000000  0.178278  0.914380  1
  Lu  Lu4  1  0.000000  0.942975  0.370607  1
  Lu  Lu5  1  0.000000  0.057779  0.629354  1
  Lu  Lu6  1  0.000000  0.443377  0.129640  1
  Lu  Lu7  1  0.000000  0.556561  0.870129  1
  Tc  Tc8  1  0.000000  0.638905  0.320366  1
  Tc  Tc9  1  0.000000  0.361224  0.680214  1
  Tc  Tc10  1  0.000000  0.138421  0.178334  1
  B  B11  1  0.500000  0.552757  0.433667  1
  B  B12  1  0.500000  0.447158  0.566266  1
  B  B13  1  0.500000  0.052610  0.066050  1
  B  B14  1  0.500000  0.946534  0.933531  1
  B  B15  1  0.500000  0.749868  0.419892  1
  B  B16  1  0.500000  0.249787  0.580216  1
  B  B17  1  0.500000  0.250420  0.080113  1
  B  B18  1  0.500000  0.750079  0.919511  1
  B  B19  1  0.500000  0.793193  0.265322  1
  B  B20  1  0.500000  0.206916  0.735388  1
  B  B21  1  0.500000  0.293103  0.234969  1
  B  B22  1  0.500000  0.707625  0.764934  1
  B  B23  1  0.500000  0.631081  0.184578  1
  B  B24  1  0.500000  0.368813  0.816141  1
  B  B25  1  0.500000  0.130586  0.315142  1
  B  B26  1  0.500000  0.868911  0.684565  1
  B  B27  1  0.500000  0.980633  0.212029  1
  B  B28  1  0.500000  0.018133  0.787832  1
  B  B29  1  0.500000  0.480883  0.287784  1
  B  B30  1  0.500000  0.519027  0.712194  1
  B  B31  1  0.500000  0.601605  0.028008  1
  B  B32  1  0.500000  0.399664  0.971968  1
  B  B33  1  0.500000  0.101269  0.471890  1
  B  B34  1  0.500000  0.898924  0.528457  1
  Os  Os35  1  0.000000  0.861343  0.820953  1
