# generated using pymatgen
data_PrSmGd2Se3N2
_symmetry_space_group_name_H-M   'P 1'
_cell_length_a   8.24092583
_cell_length_b   8.24092362
_cell_length_c   6.37278326
_cell_angle_alpha   90.19368407
_cell_angle_beta   90.19368426
_cell_angle_gamma   75.23012867
_symmetry_Int_Tables_number   1
_chemical_formula_structural   PrSmGd2Se3N2
_chemical_formula_sum   'Pr2 Sm2 Gd4 Se6 N4'
_cell_volume   418.48944673
_cell_formula_units_Z   2
loop_
 _symmetry_equiv_pos_site_id
 _symmetry_equiv_pos_as_xyz
  1  'x, y, z'
loop_
 _atom_site_type_symbol
 _atom_site_label
 _atom_site_symmetry_multiplicity
 _atom_site_fract_x
 _atom_site_fract_y
 _atom_site_fract_z
 _atom_site_occupancy
  Pr  Pr0  1  0.058713  0.691898  0.470003  1
  Pr  Pr1  1  0.308102  0.941287  0.029997  1
  Sm  Sm2  1  0.942162  0.312379  0.529536  1
  Sm  Sm3  1  0.687621  0.057838  0.970464  1
  Gd  Gd4  1  0.588318  0.742962  0.572790  1
  Gd  Gd5  1  0.257038  0.411682  0.927210  1
  Gd  Gd6  1  0.413082  0.257134  0.427336  1
  Gd  Gd7  1  0.742866  0.586918  0.072664  1
  Se  Se8  1  0.981690  0.250287  0.034263  1
  Se  Se9  1  0.408765  0.591235  0.250000  1
  Se  Se10  1  0.749713  0.018310  0.465737  1
  Se  Se11  1  0.015434  0.749928  0.966483  1
  Se  Se12  1  0.593217  0.406783  0.750000  1
  Se  Se13  1  0.250072  0.984566  0.533517  1
  N  N14  1  0.824505  0.582393  0.413805  1
  N  N15  1  0.587347  0.826251  0.912587  1
  N  N16  1  0.173749  0.412653  0.587413  1
  N  N17  1  0.417607  0.175495  0.086195  1
