# generated using pymatgen
data_Tb6Ga17Pd5
_symmetry_space_group_name_H-M   'P 1'
_cell_length_a   8.20847820
_cell_length_b   8.20847843
_cell_length_c   15.84341261
_cell_angle_alpha   75.40387381
_cell_angle_beta   75.40387315
_cell_angle_gamma   30.25598114
_symmetry_Int_Tables_number   1
_chemical_formula_structural   Tb6Ga17Pd5
_chemical_formula_sum   'Tb6 Ga17 Pd5'
_cell_volume   519.23159621
_cell_formula_units_Z   1
loop_
 _symmetry_equiv_pos_site_id
 _symmetry_equiv_pos_as_xyz
  1  'x, y, z'
loop_
 _atom_site_type_symbol
 _atom_site_label
 _atom_site_symmetry_multiplicity
 _atom_site_fract_x
 _atom_site_fract_y
 _atom_site_fract_z
 _atom_site_occupancy
  Tb  Tb0  1  0.752481  0.752481  0.750080  1
  Tb  Tb1  1  0.247519  0.247519  0.249920  1
  Tb  Tb2  1  0.599693  0.599693  0.597874  1
  Tb  Tb3  1  0.092022  0.092022  0.093875  1
  Tb  Tb4  1  0.907978  0.907978  0.906125  1
  Tb  Tb5  1  0.400307  0.400307  0.402126  1
  Ga  Ga6  1  0.821169  0.821169  0.539494  1
  Ga  Ga7  1  0.326926  0.326926  0.043224  1
  Ga  Ga8  1  0.673074  0.673074  0.956776  1
  Ga  Ga9  1  0.178831  0.178831  0.460506  1
  Ga  Ga10  1  0.544269  0.544269  0.827017  1
  Ga  Ga11  1  0.039813  0.039813  0.321418  1
  Ga  Ga12  1  0.960187  0.960187  0.678582  1
  Ga  Ga13  1  0.455731  0.455731  0.172983  1
  Ga  Ga14  1  0.268175  0.268175  0.897608  1
  Ga  Ga15  1  0.760763  0.760763  0.394341  1
  Ga  Ga16  1  0.239237  0.239237  0.605659  1
  Ga  Ga17  1  0.731825  0.731825  0.102392  1
  Ga  Ga18  1  0.397731  0.397731  0.763576  1
  Ga  Ga19  1  0.894203  0.894203  0.265599  1
  Ga  Ga20  1  0.105797  0.105797  0.734401  1
  Ga  Ga21  1  0.602269  0.602269  0.236424  1
  Ga  Ga22  1  0.000000  0.000000  0.500000  1
  Pd  Pd23  1  0.107460  0.107460  0.894374  1
  Pd  Pd24  1  0.593077  0.593077  0.405591  1
  Pd  Pd25  1  0.406923  0.406923  0.594409  1
  Pd  Pd26  1  0.892540  0.892540  0.105626  1
  Pd  Pd27  1  0.500000  0.500000  0.000000  1
