# generated using pymatgen
data_PrNd3(HoBi)6
_symmetry_space_group_name_H-M   'P 1'
_cell_length_a   8.34360800
_cell_length_b   9.56380500
_cell_length_c   12.26758600
_cell_angle_alpha   90.00000000
_cell_angle_beta   90.00000000
_cell_angle_gamma   90.00000000
_symmetry_Int_Tables_number   1
_chemical_formula_structural   PrNd3(HoBi)6
_chemical_formula_sum   'Pr2 Nd6 Ho12 Bi12'
_cell_volume   978.91214259
_cell_formula_units_Z   2
loop_
 _symmetry_equiv_pos_site_id
 _symmetry_equiv_pos_as_xyz
  1  'x, y, z'
loop_
 _atom_site_type_symbol
 _atom_site_label
 _atom_site_symmetry_multiplicity
 _atom_site_fract_x
 _atom_site_fract_y
 _atom_site_fract_z
 _atom_site_occupancy
  Pr  Pr0  1  0.647732  0.250000  0.784026  1
  Pr  Pr1  1  0.147732  0.250000  0.715974  1
  Nd  Nd2  1  0.184126  0.750000  0.720620  1
  Nd  Nd3  1  0.684126  0.750000  0.779380  1
  Nd  Nd4  1  0.815869  0.250000  0.279287  1
  Nd  Nd5  1  0.315869  0.250000  0.220713  1
  Nd  Nd6  1  0.352654  0.750000  0.215817  1
  Nd  Nd7  1  0.852654  0.750000  0.284183  1
  Ho  Ho8  1  0.024665  0.750000  0.987670  1
  Ho  Ho9  1  0.524665  0.750000  0.512330  1
  Ho  Ho10  1  0.974890  0.250000  0.011656  1
  Ho  Ho11  1  0.474890  0.250000  0.488344  1
  Ho  Ho12  1  0.308576  0.436456  0.941578  1
  Ho  Ho13  1  0.808576  0.063544  0.558422  1
  Ho  Ho14  1  0.691411  0.936119  0.057902  1
  Ho  Ho15  1  0.191411  0.563881  0.442098  1
  Ho  Ho16  1  0.691411  0.563881  0.057902  1
  Ho  Ho17  1  0.191411  0.936119  0.442098  1
  Ho  Ho18  1  0.308576  0.063544  0.941578  1
  Ho  Ho19  1  0.808576  0.436456  0.558422  1
  Bi  Bi20  1  0.434298  0.003609  0.668726  1
  Bi  Bi21  1  0.934298  0.496391  0.831274  1
  Bi  Bi22  1  0.565762  0.504732  0.331692  1
  Bi  Bi23  1  0.065762  0.995268  0.168308  1
  Bi  Bi24  1  0.565762  0.995268  0.331692  1
  Bi  Bi25  1  0.065762  0.504732  0.168308  1
  Bi  Bi26  1  0.434298  0.496391  0.668726  1
  Bi  Bi27  1  0.934298  0.003609  0.831274  1
  Bi  Bi28  1  0.406348  0.750000  0.957640  1
  Bi  Bi29  1  0.906348  0.750000  0.542360  1
  Bi  Bi30  1  0.593624  0.250000  0.042982  1
  Bi  Bi31  1  0.093624  0.250000  0.457018  1
