# generated using pymatgen
data_Nd3Np(Tl2Br5)4
_symmetry_space_group_name_H-M   'P 1'
_cell_length_a   8.78909838
_cell_length_b   9.27078800
_cell_length_c   13.99265800
_cell_angle_alpha   90.00000000
_cell_angle_beta   90.61988043
_cell_angle_gamma   90.00000000
_symmetry_Int_Tables_number   1
_chemical_formula_structural   Nd3Np(Tl2Br5)4
_chemical_formula_sum   'Nd3 Np1 Tl8 Br20'
_cell_volume   1140.08118232
_cell_formula_units_Z   1
loop_
 _symmetry_equiv_pos_site_id
 _symmetry_equiv_pos_as_xyz
  1  'x, y, z'
loop_
 _atom_site_type_symbol
 _atom_site_label
 _atom_site_symmetry_multiplicity
 _atom_site_fract_x
 _atom_site_fract_y
 _atom_site_fract_z
 _atom_site_occupancy
  Nd  Nd0  1  0.075508  0.250000  0.495096  1
  Nd  Nd1  1  0.423740  0.250000  0.994793  1
  Nd  Nd2  1  0.575894  0.750000  0.005409  1
  Np  Np3  1  0.927386  0.750000  0.504961  1
  Tl  Tl4  1  0.943816  0.002634  0.826657  1
  Tl  Tl5  1  0.055315  0.997598  0.173889  1
  Tl  Tl6  1  0.444998  0.997579  0.672882  1
  Tl  Tl7  1  0.055315  0.502402  0.173889  1
  Tl  Tl8  1  0.556907  0.001876  0.327109  1
  Tl  Tl9  1  0.943816  0.497366  0.826657  1
  Tl  Tl10  1  0.556907  0.498124  0.327109  1
  Tl  Tl11  1  0.444998  0.502421  0.672882  1
  Br  Br12  1  0.117342  0.750000  0.679893  1
  Br  Br13  1  0.880216  0.250000  0.321521  1
  Br  Br14  1  0.618397  0.250000  0.822512  1
  Br  Br15  1  0.381664  0.750000  0.177023  1
  Br  Br16  1  0.836459  0.044676  0.573549  1
  Br  Br17  1  0.163195  0.955739  0.425524  1
  Br  Br18  1  0.336165  0.955846  0.925090  1
  Br  Br19  1  0.163195  0.544261  0.425524  1
  Br  Br20  1  0.663858  0.044291  0.074324  1
  Br  Br21  1  0.836459  0.455324  0.573549  1
  Br  Br22  1  0.663858  0.455709  0.074324  1
  Br  Br23  1  0.336165  0.544154  0.925090  1
  Br  Br24  1  0.584475  0.750000  0.508461  1
  Br  Br25  1  0.415166  0.250000  0.491287  1
  Br  Br26  1  0.082816  0.250000  0.990203  1
  Br  Br27  1  0.916844  0.750000  0.010004  1
  Br  Br28  1  0.657170  0.750000  0.800305  1
  Br  Br29  1  0.342924  0.250000  0.199465  1
  Br  Br30  1  0.158753  0.250000  0.701196  1
  Br  Br31  1  0.840282  0.750000  0.299823  1
