# generated using pymatgen
data_Tm4TcMo3Os4
_symmetry_space_group_name_H-M   'P 1'
_cell_length_a   5.64494000
_cell_length_b   5.37056778
_cell_length_c   8.60015900
_cell_angle_alpha   90.00000000
_cell_angle_beta   90.00000000
_cell_angle_gamma   121.70357775
_symmetry_Int_Tables_number   1
_chemical_formula_structural   Tm4TcMo3Os4
_chemical_formula_sum   'Tm4 Tc1 Mo3 Os4'
_cell_volume   221.82087520
_cell_formula_units_Z   1
loop_
 _symmetry_equiv_pos_site_id
 _symmetry_equiv_pos_as_xyz
  1  'x, y, z'
loop_
 _atom_site_type_symbol
 _atom_site_label
 _atom_site_symmetry_multiplicity
 _atom_site_fract_x
 _atom_site_fract_y
 _atom_site_fract_z
 _atom_site_occupancy
  Tm  Tm0  1  0.666645  0.333288  0.563526  1
  Tm  Tm1  1  0.334307  0.668581  0.434322  1
  Tm  Tm2  1  0.334307  0.668581  0.065678  1
  Tm  Tm3  1  0.666645  0.333288  0.936474  1
  Tc  Tc4  1  0.820801  0.641575  0.250000  1
  Mo  Mo5  1  0.998401  0.996762  0.495324  1
  Mo  Mo6  1  0.998401  0.996762  0.004676  1
  Mo  Mo7  1  0.176459  0.352982  0.750000  1
  Os  Os8  1  0.168070  0.829159  0.750000  1
  Os  Os9  1  0.661080  0.829187  0.750000  1
  Os  Os10  1  0.834000  0.174929  0.250000  1
  Os  Os11  1  0.340886  0.174905  0.250000  1
