# generated using pymatgen
data_CaAc3(PbAu2)2
_symmetry_space_group_name_H-M   'P 1'
_cell_length_a   8.36444814
_cell_length_b   8.36444814
_cell_length_c   4.16680800
_cell_angle_alpha   90.00000000
_cell_angle_beta   90.00000000
_cell_angle_gamma   90.65619828
_symmetry_Int_Tables_number   1
_chemical_formula_structural   CaAc3(PbAu2)2
_chemical_formula_sum   'Ca1 Ac3 Pb2 Au4'
_cell_volume   291.50740546
_cell_formula_units_Z   1
loop_
 _symmetry_equiv_pos_site_id
 _symmetry_equiv_pos_as_xyz
  1  'x, y, z'
loop_
 _atom_site_type_symbol
 _atom_site_label
 _atom_site_symmetry_multiplicity
 _atom_site_fract_x
 _atom_site_fract_y
 _atom_site_fract_z
 _atom_site_occupancy
  Ca  Ca0  1  0.324458  0.824458  0.500000  1
  Ac  Ac1  1  0.673476  0.173476  0.500000  1
  Ac  Ac2  1  0.178518  0.325383  0.500000  1
  Ac  Ac3  1  0.825383  0.678518  0.500000  1
  Pb  Pb4  1  0.007088  0.994420  0.000000  1
  Pb  Pb5  1  0.494420  0.507088  0.000000  1
  Au  Au6  1  0.128737  0.628737  0.000000  1
  Au  Au7  1  0.614772  0.874344  0.000000  1
  Au  Au8  1  0.374344  0.114772  0.000000  1
  Au  Au9  1  0.878806  0.378806  0.000000  1
