# generated using pymatgen
data_Cs2Cr5(TcS2)7
_symmetry_space_group_name_H-M   'P 1'
_cell_length_a   9.38574767
_cell_length_b   9.40937931
_cell_length_c   9.37888900
_cell_angle_alpha   59.79965108
_cell_angle_beta   60.43642944
_cell_angle_gamma   60.15060292
_symmetry_Int_Tables_number   1
_chemical_formula_structural   Cs2Cr5(TcS2)7
_chemical_formula_sum   'Cs2 Cr5 Tc7 S14'
_cell_volume   587.36185080
_cell_formula_units_Z   1
loop_
 _symmetry_equiv_pos_site_id
 _symmetry_equiv_pos_as_xyz
  1  'x, y, z'
loop_
 _atom_site_type_symbol
 _atom_site_label
 _atom_site_symmetry_multiplicity
 _atom_site_fract_x
 _atom_site_fract_y
 _atom_site_fract_z
 _atom_site_occupancy
  Cs  Cs0  1  0.384623  0.379754  0.378237  1
  Cs  Cs1  1  0.619897  0.619616  0.624528  1
  Cr  Cr2  1  0.874318  0.005175  0.698494  1
  Cr  Cr3  1  0.130147  0.995170  0.304730  1
  Cr  Cr4  1  0.000788  0.702765  0.874065  1
  Cr  Cr5  1  0.699594  0.874884  0.001928  1
  Cr  Cr6  1  0.059993  0.199052  0.884862  1
  Tc  Tc7  1  0.305427  0.130120  0.987874  1
  Tc  Tc8  1  0.201735  0.880413  0.061920  1
  Tc  Tc9  1  0.882635  0.058239  0.202469  1
  Tc  Tc10  1  0.939167  0.794211  0.121795  1
  Tc  Tc11  1  0.800005  0.115928  0.939268  1
  Tc  Tc12  1  0.118307  0.936584  0.799587  1
  Tc  Tc13  1  0.989561  0.307469  0.124444  1
  S  S14  1  0.983620  0.233310  0.651109  1
  S  S15  1  0.233861  0.642110  0.985381  1
  S  S16  1  0.649739  0.975725  0.237751  1
  S  S17  1  0.020913  0.761130  0.353750  1
  S  S18  1  0.770538  0.350906  0.013293  1
  S  S19  1  0.345492  0.025935  0.764531  1
  S  S20  1  0.155811  0.418461  0.818671  1
  S  S21  1  0.415302  0.829730  0.168141  1
  S  S22  1  0.832828  0.158973  0.416772  1
  S  S23  1  0.829004  0.591052  0.168404  1
  S  S24  1  0.592230  0.170972  0.828030  1
  S  S25  1  0.164761  0.835505  0.588774  1
  S  S26  1  0.780372  0.788677  0.781266  1
  S  S27  1  0.219330  0.218136  0.219926  1
