# generated using pymatgen
data_Y2HoMg3Al2Hg
_symmetry_space_group_name_H-M   'P 1'
_cell_length_a   7.49459664
_cell_length_b   7.50478888
_cell_length_c   4.42240200
_cell_angle_alpha   90.00000000
_cell_angle_beta   90.00000000
_cell_angle_gamma   120.04500974
_symmetry_Int_Tables_number   1
_chemical_formula_structural   Y2HoMg3Al2Hg
_chemical_formula_sum   'Y2 Ho1 Mg3 Al2 Hg1'
_cell_volume   215.31705982
_cell_formula_units_Z   1
loop_
 _symmetry_equiv_pos_site_id
 _symmetry_equiv_pos_as_xyz
  1  'x, y, z'
loop_
 _atom_site_type_symbol
 _atom_site_label
 _atom_site_symmetry_multiplicity
 _atom_site_fract_x
 _atom_site_fract_y
 _atom_site_fract_z
 _atom_site_occupancy
  Y  Y0  1  0.424774  0.424926  0.000000  1
  Y  Y1  1  0.575226  0.000152  0.000000  1
  Ho  Ho2  1  0.000000  0.574980  0.000000  1
  Mg  Mg3  1  0.752823  0.752673  0.500000  1
  Mg  Mg4  1  0.247177  0.999850  0.500000  1
  Mg  Mg5  1  0.000000  0.247562  0.500000  1
  Al  Al6  1  0.667788  0.334351  0.500000  1
  Al  Al7  1  0.332212  0.666566  0.500000  1
  Hg  Hg8  1  0.000000  0.998940  0.000000  1
