# generated using pymatgen
data_Er3Mn(Al4Co)3
_symmetry_space_group_name_H-M   'P 1'
_cell_length_a   8.63498900
_cell_length_b   8.63498803
_cell_length_c   9.31512500
_cell_angle_alpha   90.00000000
_cell_angle_beta   90.00000000
_cell_angle_gamma   119.99999990
_symmetry_Int_Tables_number   1
_chemical_formula_structural   Er3Mn(Al4Co)3
_chemical_formula_sum   'Er6 Mn2 Al24 Co6'
_cell_volume   601.50999416
_cell_formula_units_Z   2
loop_
 _symmetry_equiv_pos_site_id
 _symmetry_equiv_pos_as_xyz
  1  'x, y, z'
loop_
 _atom_site_type_symbol
 _atom_site_label
 _atom_site_symmetry_multiplicity
 _atom_site_fract_x
 _atom_site_fract_y
 _atom_site_fract_z
 _atom_site_occupancy
  Er  Er0  1  0.193823  0.387646  0.250000  1
  Er  Er1  1  0.806177  0.612354  0.750000  1
  Er  Er2  1  0.612354  0.806177  0.250000  1
  Er  Er3  1  0.387646  0.193823  0.750000  1
  Er  Er4  1  0.193823  0.806177  0.250000  1
  Er  Er5  1  0.806177  0.193823  0.750000  1
  Mn  Mn6  1  0.000000  0.000000  0.000000  1
  Mn  Mn7  1  0.000000  0.000000  0.500000  1
  Al  Al8  1  0.333333  0.666667  0.017772  1
  Al  Al9  1  0.666667  0.333333  0.982228  1
  Al  Al10  1  0.666667  0.333333  0.517772  1
  Al  Al11  1  0.333333  0.666667  0.482228  1
  Al  Al12  1  0.162139  0.324279  0.575064  1
  Al  Al13  1  0.837861  0.675721  0.424936  1
  Al  Al14  1  0.675721  0.837861  0.575064  1
  Al  Al15  1  0.837861  0.675721  0.075064  1
  Al  Al16  1  0.324279  0.162139  0.424936  1
  Al  Al17  1  0.162139  0.324279  0.924936  1
  Al  Al18  1  0.162139  0.837861  0.575064  1
  Al  Al19  1  0.324279  0.162139  0.075064  1
  Al  Al20  1  0.837861  0.162139  0.424936  1
  Al  Al21  1  0.675721  0.837861  0.924936  1
  Al  Al22  1  0.837861  0.162139  0.075064  1
  Al  Al23  1  0.162139  0.837861  0.924936  1
  Al  Al24  1  0.560282  0.120564  0.250000  1
  Al  Al25  1  0.439718  0.879436  0.750000  1
  Al  Al26  1  0.879436  0.439718  0.250000  1
  Al  Al27  1  0.120564  0.560282  0.750000  1
  Al  Al28  1  0.560282  0.439718  0.250000  1
  Al  Al29  1  0.439718  0.560282  0.750000  1
  Al  Al30  1  0.000000  0.000000  0.250000  1
  Al  Al31  1  0.000000  0.000000  0.750000  1
  Co  Co32  1  0.500000  0.000000  0.000000  1
  Co  Co33  1  0.000000  0.500000  0.000000  1
  Co  Co34  1  0.500000  0.000000  0.500000  1
  Co  Co35  1  0.500000  0.500000  0.000000  1
  Co  Co36  1  0.000000  0.500000  0.500000  1
  Co  Co37  1  0.500000  0.500000  0.500000  1
