# generated using pymatgen
data_La8Si15Pd
_symmetry_space_group_name_H-M   'P 1'
_cell_length_a   8.28327800
_cell_length_b   8.28327871
_cell_length_c   8.73113400
_cell_angle_alpha   90.00000000
_cell_angle_beta   90.00000000
_cell_angle_gamma   119.99999715
_symmetry_Int_Tables_number   1
_chemical_formula_structural   La8Si15Pd
_chemical_formula_sum   'La8 Si15 Pd1'
_cell_volume   518.80697908
_cell_formula_units_Z   1
loop_
 _symmetry_equiv_pos_site_id
 _symmetry_equiv_pos_as_xyz
  1  'x, y, z'
loop_
 _atom_site_type_symbol
 _atom_site_label
 _atom_site_symmetry_multiplicity
 _atom_site_fract_x
 _atom_site_fract_y
 _atom_site_fract_z
 _atom_site_occupancy
  La  La0  1  0.498596  0.501404  0.754417  1
  La  La1  1  0.498622  0.501378  0.245451  1
  La  La2  1  0.002808  0.501404  0.754417  1
  La  La3  1  0.002755  0.501378  0.245451  1
  La  La4  1  0.498596  0.997192  0.754417  1
  La  La5  1  0.498622  0.997245  0.245451  1
  La  La6  1  0.000000  0.000000  0.751275  1
  La  La7  1  0.000000  0.000000  0.248932  1
  Si  Si8  1  0.666667  0.333333  0.999846  1
  Si  Si9  1  0.333333  0.666667  0.999909  1
  Si  Si10  1  0.333333  0.666667  0.499875  1
  Si  Si11  1  0.833916  0.166084  0.000104  1
  Si  Si12  1  0.167025  0.832975  0.000040  1
  Si  Si13  1  0.332167  0.166084  0.000104  1
  Si  Si14  1  0.164315  0.835685  0.500099  1
  Si  Si15  1  0.665951  0.832975  0.000040  1
  Si  Si16  1  0.832695  0.167305  0.500095  1
  Si  Si17  1  0.833916  0.667833  0.000104  1
  Si  Si18  1  0.671368  0.835685  0.500099  1
  Si  Si19  1  0.167025  0.334049  0.000040  1
  Si  Si20  1  0.334610  0.167305  0.500095  1
  Si  Si21  1  0.164315  0.328632  0.500099  1
  Si  Si22  1  0.832695  0.665390  0.500095  1
  Pd  Pd23  1  0.666667  0.333333  0.499546  1
