# generated using pymatgen
data_Li6In11AgPd6
_symmetry_space_group_name_H-M   'P 1'
_cell_length_a   4.64296091
_cell_length_b   6.77427005
_cell_length_c   13.75858000
_cell_angle_alpha   89.99741190
_cell_angle_beta   90.83911234
_cell_angle_gamma   89.99382205
_symmetry_Int_Tables_number   1
_chemical_formula_structural   Li6In11AgPd6
_chemical_formula_sum   'Li6 In11 Ag1 Pd6'
_cell_volume   432.69768010
_cell_formula_units_Z   1
loop_
 _symmetry_equiv_pos_site_id
 _symmetry_equiv_pos_as_xyz
  1  'x, y, z'
loop_
 _atom_site_type_symbol
 _atom_site_label
 _atom_site_symmetry_multiplicity
 _atom_site_fract_x
 _atom_site_fract_y
 _atom_site_fract_z
 _atom_site_occupancy
  Li  Li0  1  0.000013  0.993687  0.994620  1
  Li  Li1  1  0.499962  0.503063  0.164700  1
  Li  Li2  1  0.999626  0.997444  0.333337  1
  Li  Li3  1  0.499945  0.502528  0.501821  1
  Li  Li4  1  0.000783  0.993162  0.672177  1
  Li  Li5  1  0.499694  0.506310  0.833288  1
  In  In6  1  0.499908  0.251366  0.000075  1
  In  In7  1  0.499234  0.749922  0.992018  1
  In  In8  1  0.999851  0.247126  0.166246  1
  In  In9  1  0.999528  0.750529  0.164287  1
  In  In10  1  0.499844  0.250113  0.333270  1
  In  In11  1  0.499710  0.750589  0.333328  1
  In  In12  1  0.999955  0.247057  0.500527  1
  In  In13  1  0.000439  0.750455  0.502367  1
  In  In14  1  0.500606  0.251411  0.666611  1
  In  In15  1  0.501141  0.749768  0.674503  1
  In  In16  1  0.999892  0.254608  0.833334  1
  Ag  Ag17  1  0.999823  0.750253  0.833485  1
  Pd  Pd18  1  0.999901  0.493411  0.004412  1
  Pd  Pd19  1  0.499713  0.998413  0.166005  1
  Pd  Pd20  1  0.999590  0.499615  0.333372  1
  Pd  Pd21  1  0.500222  0.998579  0.500602  1
  Pd  Pd22  1  0.000760  0.493622  0.662335  1
  Pd  Pd23  1  0.499860  0.016977  0.833280  1
