# generated using pymatgen
data_Hf2InBr9
_symmetry_space_group_name_H-M   'P 1'
_cell_length_a   8.05359500
_cell_length_b   11.00538037
_cell_length_c   12.91462896
_cell_angle_alpha   59.53464767
_cell_angle_beta   90.00000000
_cell_angle_gamma   90.00000000
_symmetry_Int_Tables_number   1
_chemical_formula_structural   Hf2InBr9
_chemical_formula_sum   'Hf4 In2 Br18'
_cell_volume   986.62418234
_cell_formula_units_Z   2
loop_
 _symmetry_equiv_pos_site_id
 _symmetry_equiv_pos_as_xyz
  1  'x, y, z'
loop_
 _atom_site_type_symbol
 _atom_site_label
 _atom_site_symmetry_multiplicity
 _atom_site_fract_x
 _atom_site_fract_y
 _atom_site_fract_z
 _atom_site_occupancy
  Hf  Hf0  1  0.284538  0.813609  0.871258  1
  Hf  Hf1  1  0.715462  0.186391  0.128742  1
  Hf  Hf2  1  0.284538  0.186391  0.628742  1
  Hf  Hf3  1  0.715462  0.813609  0.371258  1
  In  In4  1  0.553168  0.500000  0.750000  1
  In  In5  1  0.446832  0.500000  0.250000  1
  Br  Br6  1  0.160241  0.739823  0.075425  1
  Br  Br7  1  0.839759  0.260177  0.924575  1
  Br  Br8  1  0.160241  0.260177  0.424575  1
  Br  Br9  1  0.839759  0.739823  0.575425  1
  Br  Br10  1  0.158006  0.625854  0.840507  1
  Br  Br11  1  0.841994  0.374146  0.159493  1
  Br  Br12  1  0.158006  0.374146  0.659493  1
  Br  Br13  1  0.841994  0.625854  0.340507  1
  Br  Br14  1  0.032136  0.000000  0.750000  1
  Br  Br15  1  0.967864  0.000000  0.250000  1
  Br  Br16  1  0.409075  0.056292  0.855715  1
  Br  Br17  1  0.590925  0.943708  0.144285  1
  Br  Br18  1  0.409075  0.943708  0.644285  1
  Br  Br19  1  0.590925  0.056292  0.355715  1
  Br  Br20  1  0.563767  0.695373  0.951908  1
  Br  Br21  1  0.436233  0.304627  0.048092  1
  Br  Br22  1  0.563767  0.304627  0.548092  1
  Br  Br23  1  0.436233  0.695373  0.451908  1
