# generated using pymatgen
data_Np(S2O7)2
_symmetry_space_group_name_H-M   'P 1'
_cell_length_a   6.89262646
_cell_length_b   6.91918650
_cell_length_c   12.12235124
_cell_angle_alpha   79.48408573
_cell_angle_beta   79.07990737
_cell_angle_gamma   78.96576404
_symmetry_Int_Tables_number   1
_chemical_formula_structural   Np(S2O7)2
_chemical_formula_sum   'Np2 S8 O28'
_cell_volume   550.71561859
_cell_formula_units_Z   2
loop_
 _symmetry_equiv_pos_site_id
 _symmetry_equiv_pos_as_xyz
  1  'x, y, z'
loop_
 _atom_site_type_symbol
 _atom_site_label
 _atom_site_symmetry_multiplicity
 _atom_site_fract_x
 _atom_site_fract_y
 _atom_site_fract_z
 _atom_site_occupancy
  Np  Np0  1  0.996443  0.008244  0.750289  1
  Np  Np1  1  0.011205  0.993166  0.249315  1
  S  S2  1  0.452657  0.950487  0.850185  1
  S  S3  1  0.961830  0.448143  0.344742  1
  S  S4  1  0.194965  0.710938  0.005757  1
  S  S5  1  0.282645  0.801353  0.498931  1
  S  S6  1  0.718664  0.194525  0.505749  1
  S  S7  1  0.803997  0.280929  0.999095  1
  S  S8  1  0.188256  0.504303  0.690135  1
  S  S9  1  0.548155  0.040593  0.159140  1
  O  O10  1  0.667857  0.907687  0.808429  1
  O  O11  1  0.916949  0.664312  0.308868  1
  O  O12  1  0.337669  0.948869  0.757195  1
  O  O13  1  0.420062  0.740890  0.934914  1
  O  O14  1  0.619012  0.868017  0.104819  1
  O  O15  1  0.825487  0.200828  0.891640  1
  O  O16  1  0.492706  0.775587  0.497413  1
  O  O17  1  0.941014  0.339037  0.253273  1
  O  O18  1  0.159608  0.947465  0.570449  1
  O  O19  1  0.759802  0.417805  0.440060  1
  O  O20  1  0.053588  0.837326  0.934537  1
  O  O21  1  0.218763  0.833368  0.386790  1
  O  O22  1  0.796401  0.489867  0.986606  1
  O  O23  1  0.795838  0.174377  0.614002  1
  O  O24  1  0.384319  0.466037  0.719279  1
  O  O25  1  0.200309  0.501778  0.021573  1
  O  O26  1  0.945555  0.153835  0.071289  1
  O  O27  1  0.046083  0.663544  0.744194  1
  O  O28  1  0.199941  0.590273  0.553002  1
  O  O29  1  0.845582  0.052403  0.433531  1
  O  O30  1  0.181043  0.793338  0.112407  1
  O  O31  1  0.508188  0.204664  0.517422  1
  O  O32  1  0.379293  0.113595  0.912014  1
  O  O33  1  0.658268  0.052658  0.251435  1
  O  O34  1  0.581139  0.243920  0.067553  1
  O  O35  1  0.089560  0.331529  0.696304  1
  O  O36  1  0.136596  0.371215  0.395990  1
  O  O37  1  0.330723  0.090831  0.195780  1
