# generated using pymatgen
data_Zr4AlCo6Mo
_symmetry_space_group_name_H-M   'P 1'
_cell_length_a   5.09150700
_cell_length_b   5.09150603
_cell_length_c   7.85367800
_cell_angle_alpha   90.00000000
_cell_angle_beta   90.00000000
_cell_angle_gamma   120.00001278
_symmetry_Int_Tables_number   1
_chemical_formula_structural   Zr4AlCo6Mo
_chemical_formula_sum   'Zr4 Al1 Co6 Mo1'
_cell_volume   176.31784734
_cell_formula_units_Z   1
loop_
 _symmetry_equiv_pos_site_id
 _symmetry_equiv_pos_as_xyz
  1  'x, y, z'
loop_
 _atom_site_type_symbol
 _atom_site_label
 _atom_site_symmetry_multiplicity
 _atom_site_fract_x
 _atom_site_fract_y
 _atom_site_fract_z
 _atom_site_occupancy
  Zr  Zr0  1  0.333333  0.666667  0.435181  1
  Zr  Zr1  1  0.666667  0.333333  0.564819  1
  Zr  Zr2  1  0.666667  0.333333  0.940226  1
  Zr  Zr3  1  0.333333  0.666667  0.059774  1
  Al  Al4  1  0.000000  0.000000  0.500000  1
  Co  Co5  1  0.828492  0.171508  0.251053  1
  Co  Co6  1  0.828492  0.656984  0.251053  1
  Co  Co7  1  0.343016  0.171508  0.251053  1
  Co  Co8  1  0.171508  0.828492  0.748947  1
  Co  Co9  1  0.171508  0.343016  0.748947  1
  Co  Co10  1  0.656984  0.828492  0.748947  1
  Mo  Mo11  1  0.000000  0.000000  0.000000  1
