# generated using pymatgen
data_Dy2HfCrF14
_symmetry_space_group_name_H-M   'P 1'
_cell_length_a   5.59253000
_cell_length_b   8.92082976
_cell_length_c   11.96723400
_cell_angle_alpha   63.16846290
_cell_angle_beta   90.00000000
_cell_angle_gamma   90.00000000
_symmetry_Int_Tables_number   1
_chemical_formula_structural   Dy2HfCrF14
_chemical_formula_sum   'Dy4 Hf2 Cr2 F28'
_cell_volume   532.76600519
_cell_formula_units_Z   2
loop_
 _symmetry_equiv_pos_site_id
 _symmetry_equiv_pos_as_xyz
  1  'x, y, z'
loop_
 _atom_site_type_symbol
 _atom_site_label
 _atom_site_symmetry_multiplicity
 _atom_site_fract_x
 _atom_site_fract_y
 _atom_site_fract_z
 _atom_site_occupancy
  Dy  Dy0  1  0.757662  0.810649  0.761541  1
  Dy  Dy1  1  0.257662  0.189351  0.738459  1
  Dy  Dy2  1  0.240668  0.190021  0.225191  1
  Dy  Dy3  1  0.740668  0.809979  0.274809  1
  Hf  Hf4  1  0.245474  0.729734  0.042209  1
  Hf  Hf5  1  0.745474  0.270266  0.457791  1
  Cr  Cr6  1  0.755037  0.276831  0.953240  1
  Cr  Cr7  1  0.255037  0.723169  0.546760  1
  F  F8  1  0.456380  0.708361  0.915705  1
  F  F9  1  0.956380  0.291639  0.584295  1
  F  F10  1  0.549176  0.293492  0.069878  1
  F  F11  1  0.049176  0.706508  0.430122  1
  F  F12  1  0.447362  0.279163  0.548850  1
  F  F13  1  0.947362  0.720837  0.951150  1
  F  F14  1  0.529657  0.715886  0.455507  1
  F  F15  1  0.029657  0.284114  0.044493  1
  F  F16  1  0.769638  0.508221  0.863335  1
  F  F17  1  0.269638  0.491779  0.636665  1
  F  F18  1  0.231932  0.478817  0.141866  1
  F  F19  1  0.731932  0.521183  0.358134  1
  F  F20  1  0.755373  0.048480  0.042622  1
  F  F21  1  0.255373  0.951520  0.457378  1
  F  F22  1  0.242062  0.979662  0.944293  1
  F  F23  1  0.742062  0.020338  0.555707  1
  F  F24  1  0.992071  0.725035  0.643899  1
  F  F25  1  0.492071  0.274965  0.856101  1
  F  F26  1  0.030197  0.261358  0.358308  1
  F  F27  1  0.530197  0.738642  0.141692  1
  F  F28  1  0.039500  0.754589  0.172212  1
  F  F29  1  0.539500  0.245411  0.327788  1
  F  F30  1  0.956381  0.260213  0.833504  1
  F  F31  1  0.456381  0.739787  0.666496  1
  F  F32  1  0.424812  0.972931  0.230983  1
  F  F33  1  0.924812  0.027069  0.269017  1
  F  F34  1  0.576619  0.026793  0.765688  1
  F  F35  1  0.076619  0.973207  0.734312  1
