# generated using pymatgen
data_TbEr9In8(PdRh)2
_symmetry_space_group_name_H-M   'P 1'
_cell_length_a   8.08385829
_cell_length_b   18.20560620
_cell_length_c   3.59417000
_cell_angle_alpha   90.00000000
_cell_angle_beta   90.00000000
_cell_angle_gamma   89.97603188
_symmetry_Int_Tables_number   1
_chemical_formula_structural   TbEr9In8(PdRh)2
_chemical_formula_sum   'Tb1 Er9 In8 Pd2 Rh2'
_cell_volume   528.95949011
_cell_formula_units_Z   1
loop_
 _symmetry_equiv_pos_site_id
 _symmetry_equiv_pos_as_xyz
  1  'x, y, z'
loop_
 _atom_site_type_symbol
 _atom_site_label
 _atom_site_symmetry_multiplicity
 _atom_site_fract_x
 _atom_site_fract_y
 _atom_site_fract_z
 _atom_site_occupancy
  Tb  Tb0  1  0.000000  0.000000  0.000000  1
  Er  Er1  1  0.500000  0.500000  0.000000  1
  Er  Er2  1  0.734321  0.278084  0.000000  1
  Er  Er3  1  0.265679  0.721916  0.000000  1
  Er  Er4  1  0.745578  0.779670  0.000000  1
  Er  Er5  1  0.254422  0.220330  0.000000  1
  Er  Er6  1  0.615904  0.086653  0.000000  1
  Er  Er7  1  0.384096  0.913347  0.000000  1
  Er  Er8  1  0.882224  0.584332  0.000000  1
  Er  Er9  1  0.117776  0.415668  0.000000  1
  In  In10  1  0.707865  0.931036  0.500000  1
  In  In11  1  0.292135  0.068964  0.500000  1
  In  In12  1  0.791575  0.431787  0.500000  1
  In  In13  1  0.208425  0.568213  0.500000  1
  In  In14  1  0.575041  0.649386  0.500000  1
  In  In15  1  0.424959  0.350614  0.500000  1
  In  In16  1  0.924530  0.150212  0.500000  1
  In  In17  1  0.075470  0.849788  0.500000  1
  Pd  Pd18  1  0.976737  0.696179  0.500000  1
  Pd  Pd19  1  0.023263  0.303821  0.500000  1
  Rh  Rh20  1  0.523380  0.195077  0.500000  1
  Rh  Rh21  1  0.476620  0.804923  0.500000  1
