# generated using pymatgen
data_Ta2TeCS
_symmetry_space_group_name_H-M   'P 1'
_cell_length_a   10.07264193
_cell_length_b   10.07264219
_cell_length_c   10.07264261
_cell_angle_alpha   19.13663996
_cell_angle_beta   19.13663653
_cell_angle_gamma   19.13663760
_symmetry_Int_Tables_number   1
_chemical_formula_structural   Ta2TeCS
_chemical_formula_sum   'Ta2 Te1 C1 S1'
_cell_volume   95.99640682
_cell_formula_units_Z   1
loop_
 _symmetry_equiv_pos_site_id
 _symmetry_equiv_pos_as_xyz
  1  'x, y, z'
loop_
 _atom_site_type_symbol
 _atom_site_label
 _atom_site_symmetry_multiplicity
 _atom_site_fract_x
 _atom_site_fract_y
 _atom_site_fract_z
 _atom_site_occupancy
  Ta  Ta0  1  0.624540  0.624540  0.624540  1
  Ta  Ta1  1  0.368098  0.368098  0.368098  1
  Te  Te2  1  0.772344  0.772344  0.772344  1
  C  C3  1  0.997929  0.997929  0.997929  1
  S  S4  1  0.237088  0.237088  0.237088  1
