# generated using pymatgen
data_NdEr7Cd2OsPd
_symmetry_space_group_name_H-M   'P 1'
_cell_length_a   9.63584824
_cell_length_b   9.63584832
_cell_length_c   9.72321800
_cell_angle_alpha   59.69960508
_cell_angle_beta   59.69960479
_cell_angle_gamma   59.12171464
_symmetry_Int_Tables_number   1
_chemical_formula_structural   NdEr7Cd2OsPd
_chemical_formula_sum   'Nd2 Er14 Cd4 Os2 Pd2'
_cell_volume   631.17273535
_cell_formula_units_Z   2
loop_
 _symmetry_equiv_pos_site_id
 _symmetry_equiv_pos_as_xyz
  1  'x, y, z'
loop_
 _atom_site_type_symbol
 _atom_site_label
 _atom_site_symmetry_multiplicity
 _atom_site_fract_x
 _atom_site_fract_y
 _atom_site_fract_z
 _atom_site_occupancy
  Nd  Nd0  1  0.569197  0.569197  0.930803  1
  Nd  Nd1  1  0.934226  0.934226  0.565774  1
  Er  Er2  1  0.351756  0.351756  0.349990  1
  Er  Er3  1  0.351756  0.351756  0.946499  1
  Er  Er4  1  0.342779  0.954954  0.351134  1
  Er  Er5  1  0.954954  0.342779  0.351134  1
  Er  Er6  1  0.817913  0.185775  0.188730  1
  Er  Er7  1  0.185775  0.817913  0.807583  1
  Er  Er8  1  0.185775  0.817913  0.188730  1
  Er  Er9  1  0.817913  0.185775  0.807583  1
  Er  Er10  1  0.188236  0.188236  0.811764  1
  Er  Er11  1  0.808684  0.808684  0.191316  1
  Er  Er12  1  0.941717  0.551003  0.564505  1
  Er  Er13  1  0.551003  0.941717  0.942774  1
  Er  Er14  1  0.551003  0.941717  0.564505  1
  Er  Er15  1  0.941717  0.551003  0.942774  1
  Cd  Cd16  1  0.580469  0.580469  0.579179  1
  Cd  Cd17  1  0.580469  0.580469  0.259884  1
  Cd  Cd18  1  0.577518  0.256676  0.582904  1
  Cd  Cd19  1  0.256676  0.577518  0.582904  1
  Os  Os20  1  0.147990  0.147990  0.131963  1
  Os  Os21  1  0.147990  0.147990  0.572057  1
  Pd  Pd22  1  0.141652  0.572834  0.142756  1
  Pd  Pd23  1  0.572834  0.141652  0.142756  1
