# generated using pymatgen
data_Cs6K2ThSb4
_symmetry_space_group_name_H-M   'P 1'
_cell_length_a   12.54306180
_cell_length_b   12.54309747
_cell_length_c   12.54300100
_cell_angle_alpha   60.00025705
_cell_angle_beta   60.00016298
_cell_angle_gamma   60.00007037
_symmetry_Int_Tables_number   1
_chemical_formula_structural   Cs6K2ThSb4
_chemical_formula_sum   'Cs12 K4 Th2 Sb8'
_cell_volume   1395.39263925
_cell_formula_units_Z   2
loop_
 _symmetry_equiv_pos_site_id
 _symmetry_equiv_pos_as_xyz
  1  'x, y, z'
loop_
 _atom_site_type_symbol
 _atom_site_label
 _atom_site_symmetry_multiplicity
 _atom_site_fract_x
 _atom_site_fract_y
 _atom_site_fract_z
 _atom_site_occupancy
  Cs  Cs0  1  0.029462  0.029456  0.470541  1
  Cs  Cs1  1  0.779449  0.220544  0.220545  1
  Cs  Cs2  1  0.220547  0.779447  0.779460  1
  Cs  Cs3  1  0.779455  0.779445  0.220549  1
  Cs  Cs4  1  0.779449  0.220544  0.779461  1
  Cs  Cs5  1  0.220547  0.779447  0.220546  1
  Cs  Cs6  1  0.470551  0.029456  0.470539  1
  Cs  Cs7  1  0.470551  0.029456  0.029455  1
  Cs  Cs8  1  0.029453  0.470553  0.470540  1
  Cs  Cs9  1  0.029453  0.470553  0.029454  1
  Cs  Cs10  1  0.220538  0.220544  0.779459  1
  Cs  Cs11  1  0.470545  0.470555  0.029451  1
  K  K12  1  0.625000  0.125000  0.625000  1
  K  K13  1  0.625000  0.625000  0.125000  1
  K  K14  1  0.125000  0.625000  0.625000  1
  K  K15  1  0.625000  0.625000  0.625000  1
  Th  Th16  1  0.750002  0.749999  0.750000  1
  Th  Th17  1  0.499999  0.500001  0.500000  1
  Sb  Sb18  1  0.399359  0.801929  0.399356  1
  Sb  Sb19  1  0.850645  0.850644  0.448069  1
  Sb  Sb20  1  0.448071  0.850643  0.850643  1
  Sb  Sb21  1  0.850645  0.850644  0.850643  1
  Sb  Sb22  1  0.801928  0.399357  0.399357  1
  Sb  Sb23  1  0.399356  0.399356  0.399357  1
  Sb  Sb24  1  0.399356  0.399356  0.801931  1
  Sb  Sb25  1  0.850642  0.448070  0.850644  1
