# generated using pymatgen
data_Hf4NbSi2GeN
_symmetry_space_group_name_H-M   'P 1'
_cell_length_a   7.83450452
_cell_length_b   7.81805969
_cell_length_c   5.48848037
_cell_angle_alpha   90.02098201
_cell_angle_beta   89.95813138
_cell_angle_gamma   120.06959726
_symmetry_Int_Tables_number   1
_chemical_formula_structural   Hf4NbSi2GeN
_chemical_formula_sum   'Hf8 Nb2 Si4 Ge2 N2'
_cell_volume   290.92975848
_cell_formula_units_Z   2
loop_
 _symmetry_equiv_pos_site_id
 _symmetry_equiv_pos_as_xyz
  1  'x, y, z'
loop_
 _atom_site_type_symbol
 _atom_site_label
 _atom_site_symmetry_multiplicity
 _atom_site_fract_x
 _atom_site_fract_y
 _atom_site_fract_z
 _atom_site_occupancy
  Hf  Hf0  1  0.232392  0.000000  0.250504  1
  Hf  Hf1  1  0.767608  0.000000  0.749496  1
  Hf  Hf2  1  0.002222  0.237643  0.250065  1
  Hf  Hf3  1  0.997778  0.762357  0.749935  1
  Hf  Hf4  1  0.764579  0.762357  0.250065  1
  Hf  Hf5  1  0.235421  0.237643  0.749935  1
  Hf  Hf6  1  0.330923  0.661847  0.000000  1
  Hf  Hf7  1  0.669077  0.338153  0.000000  1
  Nb  Nb8  1  0.669239  0.338476  0.500000  1
  Nb  Nb9  1  0.330761  0.661524  0.500000  1
  Si  Si10  1  0.000838  0.593557  0.260142  1
  Si  Si11  1  0.999162  0.406443  0.739858  1
  Si  Si12  1  0.407281  0.406443  0.260142  1
  Si  Si13  1  0.592719  0.593557  0.739858  1
  Ge  Ge14  1  0.594701  0.000000  0.256296  1
  Ge  Ge15  1  0.405299  0.000000  0.743704  1
  N  N16  1  0.000000  0.000000  0.000000  1
  N  N17  1  0.000000  0.000000  0.500000  1
