# generated using pymatgen
data_Tm17Mg3(Cd3Ru)2
_symmetry_space_group_name_H-M   'P 1'
_cell_length_a   9.37933385
_cell_length_b   9.37933458
_cell_length_c   9.56624800
_cell_angle_alpha   90.00000000
_cell_angle_beta   90.00000000
_cell_angle_gamma   120.34233070
_symmetry_Int_Tables_number   1
_chemical_formula_structural   Tm17Mg3(Cd3Ru)2
_chemical_formula_sum   'Tm17 Mg3 Cd6 Ru2'
_cell_volume   726.28622891
_cell_formula_units_Z   1
loop_
 _symmetry_equiv_pos_site_id
 _symmetry_equiv_pos_as_xyz
  1  'x, y, z'
loop_
 _atom_site_type_symbol
 _atom_site_label
 _atom_site_symmetry_multiplicity
 _atom_site_fract_x
 _atom_site_fract_y
 _atom_site_fract_z
 _atom_site_occupancy
  Tm  Tm0  1  0.208672  0.791328  0.441057  1
  Tm  Tm1  1  0.211388  0.417634  0.440557  1
  Tm  Tm2  1  0.582366  0.788612  0.440557  1
  Tm  Tm3  1  0.791731  0.208269  0.558289  1
  Tm  Tm4  1  0.790456  0.582372  0.556743  1
  Tm  Tm5  1  0.417628  0.209544  0.556743  1
  Tm  Tm6  1  0.791731  0.208269  0.941711  1
  Tm  Tm7  1  0.790456  0.582372  0.943257  1
  Tm  Tm8  1  0.417628  0.209544  0.943257  1
  Tm  Tm9  1  0.208672  0.791328  0.058943  1
  Tm  Tm10  1  0.211388  0.417634  0.059443  1
  Tm  Tm11  1  0.582366  0.788612  0.059443  1
  Tm  Tm12  1  0.539307  0.081696  0.250000  1
  Tm  Tm13  1  0.918304  0.460693  0.250000  1
  Tm  Tm14  1  0.457897  0.542103  0.750000  1
  Tm  Tm15  1  0.458659  0.918052  0.750000  1
  Tm  Tm16  1  0.081948  0.541341  0.750000  1
  Mg  Mg17  1  0.000334  0.999666  0.499437  1
  Mg  Mg18  1  0.000334  0.999666  0.000563  1
  Mg  Mg19  1  0.541387  0.458613  0.250000  1
  Cd  Cd20  1  0.888075  0.111925  0.250000  1
  Cd  Cd21  1  0.885174  0.773350  0.250000  1
  Cd  Cd22  1  0.226650  0.114826  0.250000  1
  Cd  Cd23  1  0.111072  0.888928  0.750000  1
  Cd  Cd24  1  0.111064  0.222584  0.750000  1
  Cd  Cd25  1  0.777416  0.888936  0.750000  1
  Ru  Ru26  1  0.330189  0.669811  0.250000  1
  Ru  Ru27  1  0.667706  0.332294  0.750000  1
