# generated using pymatgen
data_Li4La23Rh7
_symmetry_space_group_name_H-M   'P 1'
_cell_length_a   10.20321100
_cell_length_b   10.20321081
_cell_length_c   23.18276400
_cell_angle_alpha   90.00000000
_cell_angle_beta   90.00000000
_cell_angle_gamma   119.99999736
_symmetry_Int_Tables_number   1
_chemical_formula_structural   Li4La23Rh7
_chemical_formula_sum   'Li8 La46 Rh14'
_cell_volume   2090.11212741
_cell_formula_units_Z   2
loop_
 _symmetry_equiv_pos_site_id
 _symmetry_equiv_pos_as_xyz
  1  'x, y, z'
loop_
 _atom_site_type_symbol
 _atom_site_label
 _atom_site_symmetry_multiplicity
 _atom_site_fract_x
 _atom_site_fract_y
 _atom_site_fract_z
 _atom_site_occupancy
  Li  Li0  1  0.210419  0.105210  0.136414  1
  Li  Li1  1  0.105210  0.894790  0.636414  1
  Li  Li2  1  0.000000  0.000000  0.248587  1
  Li  Li3  1  0.894790  0.789581  0.136414  1
  Li  Li4  1  0.000000  0.000000  0.748587  1
  Li  Li5  1  0.105210  0.210419  0.636414  1
  Li  Li6  1  0.894790  0.105210  0.136414  1
  Li  Li7  1  0.789581  0.894790  0.636414  1
  La  La8  1  0.416931  0.208466  0.550116  1
  La  La9  1  0.743932  0.871965  0.365624  1
  La  La10  1  0.256068  0.128035  0.865624  1
  La  La11  1  0.420077  0.210039  0.008542  1
  La  La12  1  0.459933  0.919864  0.643001  1
  La  La13  1  0.540364  0.080731  0.413857  1
  La  La14  1  0.794293  0.205707  0.717542  1
  La  La15  1  0.208466  0.416931  0.050116  1
  La  La16  1  0.540364  0.459636  0.413857  1
  La  La17  1  0.459636  0.919269  0.913857  1
  La  La18  1  0.080136  0.540067  0.643001  1
  La  La19  1  0.583026  0.791513  0.779990  1
  La  La20  1  0.919864  0.459933  0.143001  1
  La  La21  1  0.210039  0.420077  0.508542  1
  La  La22  1  0.666667  0.333333  0.853373  1
  La  La23  1  0.459933  0.540067  0.643001  1
  La  La24  1  0.210039  0.789961  0.508542  1
  La  La25  1  0.411415  0.205707  0.717542  1
  La  La26  1  0.789961  0.579923  0.008542  1
  La  La27  1  0.794293  0.588585  0.717542  1
  La  La28  1  0.128035  0.871965  0.365624  1
  La  La29  1  0.208487  0.791513  0.779990  1
  La  La30  1  0.205707  0.794293  0.217542  1
  La  La31  1  0.080731  0.540364  0.913857  1
  La  La32  1  0.208487  0.416974  0.779990  1
  La  La33  1  0.919269  0.459636  0.413857  1
  La  La34  1  0.459636  0.540364  0.913857  1
  La  La35  1  0.791513  0.208487  0.279990  1
  La  La36  1  0.871965  0.743932  0.865624  1
  La  La37  1  0.000000  0.000000  0.999739  1
  La  La38  1  0.789961  0.210039  0.008542  1
  La  La39  1  0.588585  0.794293  0.217542  1
  La  La40  1  0.540067  0.459933  0.143001  1
  La  La41  1  0.000000  0.000000  0.499739  1
  La  La42  1  0.579923  0.789961  0.508542  1
  La  La43  1  0.791534  0.583069  0.550116  1
  La  La44  1  0.583069  0.791534  0.050116  1
  La  La45  1  0.791534  0.208466  0.550116  1
  La  La46  1  0.208466  0.791534  0.050116  1
  La  La47  1  0.205707  0.411415  0.217542  1
  La  La48  1  0.333333  0.666667  0.353373  1
  La  La49  1  0.871965  0.128035  0.865624  1
  La  La50  1  0.128035  0.256068  0.365624  1
  La  La51  1  0.791513  0.583026  0.279990  1
  La  La52  1  0.416974  0.208487  0.279990  1
  La  La53  1  0.540067  0.080136  0.143001  1
  Rh  Rh54  1  0.480108  0.960216  0.287247  1
  Rh  Rh55  1  0.856093  0.143907  0.437504  1
  Rh  Rh56  1  0.856093  0.712186  0.437504  1
  Rh  Rh57  1  0.666667  0.333333  0.633545  1
  Rh  Rh58  1  0.333333  0.666667  0.133545  1
  Rh  Rh59  1  0.519892  0.480108  0.787247  1
  Rh  Rh60  1  0.143907  0.856093  0.937504  1
  Rh  Rh61  1  0.960216  0.480108  0.787247  1
  Rh  Rh62  1  0.287814  0.143907  0.437504  1
  Rh  Rh63  1  0.519892  0.039784  0.787247  1
  Rh  Rh64  1  0.143907  0.287814  0.937504  1
  Rh  Rh65  1  0.039784  0.519892  0.287247  1
  Rh  Rh66  1  0.480108  0.519892  0.287247  1
  Rh  Rh67  1  0.712186  0.856093  0.937504  1
