# generated using pymatgen
data_Zr10Sn5BiS
_symmetry_space_group_name_H-M   'P 1'
_cell_length_a   5.84989548
_cell_length_b   8.62704134
_cell_length_c   8.61988624
_cell_angle_alpha   120.02775858
_cell_angle_beta   89.97368159
_cell_angle_gamma   90.04566881
_symmetry_Int_Tables_number   1
_chemical_formula_structural   Zr10Sn5BiS
_chemical_formula_sum   'Zr10 Sn5 Bi1 S1'
_cell_volume   376.63481865
_cell_formula_units_Z   1
loop_
 _symmetry_equiv_pos_site_id
 _symmetry_equiv_pos_as_xyz
  1  'x, y, z'
loop_
 _atom_site_type_symbol
 _atom_site_label
 _atom_site_symmetry_multiplicity
 _atom_site_fract_x
 _atom_site_fract_y
 _atom_site_fract_z
 _atom_site_occupancy
  Zr  Zr0  1  0.498711  0.331619  0.664663  1
  Zr  Zr1  1  0.498705  0.667004  0.335341  1
  Zr  Zr2  1  0.001477  0.667138  0.335574  1
  Zr  Zr3  1  0.001473  0.331578  0.664421  1
  Zr  Zr4  1  0.756548  0.247510  0.999990  1
  Zr  Zr5  1  0.756563  0.751383  0.746927  1
  Zr  Zr6  1  0.756596  0.004458  0.253048  1
  Zr  Zr7  1  0.244000  0.750904  0.000005  1
  Zr  Zr8  1  0.243396  0.250180  0.250606  1
  Zr  Zr9  1  0.243371  0.999578  0.749417  1
  Sn  Sn10  1  0.751030  0.394500  0.394145  1
  Sn  Sn11  1  0.751009  0.000354  0.605846  1
  Sn  Sn12  1  0.249051  0.391868  0.000011  1
  Sn  Sn13  1  0.248685  0.606044  0.606307  1
  Sn  Sn14  1  0.248691  0.999738  0.393711  1
  Bi  Bi15  1  0.750799  0.606487  0.999987  1
  S  S16  1  0.499894  0.999661  0.000002  1
