# generated using pymatgen
data_CeEr(Si2Ni9)2
_symmetry_space_group_name_H-M   'P 1'
_cell_length_a   7.56238711
_cell_length_b   7.56238684
_cell_length_c   7.56238616
_cell_angle_alpha   99.55939510
_cell_angle_beta   99.55939774
_cell_angle_gamma   131.90211731
_symmetry_Int_Tables_number   1
_chemical_formula_structural   CeEr(Si2Ni9)2
_chemical_formula_sum   'Ce1 Er1 Si4 Ni18'
_cell_volume   293.95564839
_cell_formula_units_Z   1
loop_
 _symmetry_equiv_pos_site_id
 _symmetry_equiv_pos_as_xyz
  1  'x, y, z'
loop_
 _atom_site_type_symbol
 _atom_site_label
 _atom_site_symmetry_multiplicity
 _atom_site_fract_x
 _atom_site_fract_y
 _atom_site_fract_z
 _atom_site_occupancy
  Ce  Ce0  1  0.750000  0.250000  0.500000  1
  Er  Er1  1  0.500000  0.500000  0.000000  1
  Si  Si2  1  0.625370  0.874893  0.750477  1
  Si  Si3  1  0.125107  0.374630  0.249523  1
  Si  Si4  1  0.125107  0.875585  0.750477  1
  Si  Si5  1  0.124415  0.874893  0.249523  1
  Ni  Ni6  1  0.250000  0.750000  0.500000  1
  Ni  Ni7  1  0.000000  0.000000  0.000000  1
  Ni  Ni8  1  0.686926  0.013131  0.079030  1
  Ni  Ni9  1  0.686926  0.607896  0.673794  1
  Ni  Ni10  1  0.262837  0.436477  0.579228  1
  Ni  Ni11  1  0.262837  0.683609  0.826360  1
  Ni  Ni12  1  0.934101  0.013131  0.326206  1
  Ni  Ni13  1  0.934101  0.607896  0.920970  1
  Ni  Ni14  1  0.857251  0.436477  0.173640  1
  Ni  Ni15  1  0.857251  0.683609  0.420772  1
  Ni  Ni16  1  0.563523  0.737163  0.420772  1
  Ni  Ni17  1  0.563523  0.142749  0.826360  1
  Ni  Ni18  1  0.986869  0.313074  0.920970  1
  Ni  Ni19  1  0.986869  0.065899  0.673794  1
  Ni  Ni20  1  0.316391  0.737163  0.173640  1
  Ni  Ni21  1  0.316391  0.142749  0.579228  1
  Ni  Ni22  1  0.392104  0.313074  0.326206  1
  Ni  Ni23  1  0.392104  0.065899  0.079030  1
