# generated using pymatgen
data_Er4Sc4B24IrW3
_symmetry_space_group_name_H-M   'P 1'
_cell_length_a   3.50955500
_cell_length_b   9.09867495
_cell_length_c   11.48369719
_cell_angle_alpha   90.05223967
_cell_angle_beta   90.00000000
_cell_angle_gamma   90.00000000
_symmetry_Int_Tables_number   1
_chemical_formula_structural   Er4Sc4B24IrW3
_chemical_formula_sum   'Er4 Sc4 B24 Ir1 W3'
_cell_volume   366.70071317
_cell_formula_units_Z   1
loop_
 _symmetry_equiv_pos_site_id
 _symmetry_equiv_pos_as_xyz
  1  'x, y, z'
loop_
 _atom_site_type_symbol
 _atom_site_label
 _atom_site_symmetry_multiplicity
 _atom_site_fract_x
 _atom_site_fract_y
 _atom_site_fract_z
 _atom_site_occupancy
  Er  Er0  1  0.500000  0.317727  0.414621  1
  Er  Er1  1  0.500000  0.680896  0.587681  1
  Er  Er2  1  0.500000  0.179640  0.913095  1
  Er  Er3  1  0.500000  0.822024  0.083517  1
  Sc  Sc4  1  0.500000  0.443768  0.126749  1
  Sc  Sc5  1  0.500000  0.555302  0.873254  1
  Sc  Sc6  1  0.500000  0.053846  0.626626  1
  Sc  Sc7  1  0.500000  0.945289  0.372853  1
  B  B8  1  0.000000  0.095405  0.473448  1
  B  B9  1  0.000000  0.900573  0.525065  1
  B  B10  1  0.000000  0.403470  0.974373  1
  B  B11  1  0.000000  0.597711  0.028332  1
  B  B12  1  0.000000  0.129467  0.320634  1
  B  B13  1  0.000000  0.870243  0.680279  1
  B  B14  1  0.000000  0.371324  0.819102  1
  B  B15  1  0.000000  0.629845  0.182317  1
  B  B16  1  0.000000  0.051733  0.065458  1
  B  B17  1  0.000000  0.947670  0.935147  1
  B  B18  1  0.000000  0.449026  0.563113  1
  B  B19  1  0.000000  0.556437  0.432902  1
  B  B20  1  0.000000  0.483124  0.286144  1
  B  B21  1  0.000000  0.522427  0.714533  1
  B  B22  1  0.000000  0.021733  0.784565  1
  B  B23  1  0.000000  0.976602  0.214984  1
  B  B24  1  0.000000  0.256863  0.079204  1
  B  B25  1  0.000000  0.743525  0.921654  1
  B  B26  1  0.000000  0.242414  0.578370  1
  B  B27  1  0.000000  0.753717  0.419330  1
  B  B28  1  0.000000  0.299555  0.237580  1
  B  B29  1  0.000000  0.702085  0.764535  1
  B  B30  1  0.000000  0.202513  0.735793  1
  B  B31  1  0.000000  0.793314  0.264919  1
  Ir  Ir32  1  0.500000  0.640636  0.318760  1
  W  W33  1  0.500000  0.141292  0.182444  1
  W  W34  1  0.500000  0.859136  0.818887  1
  W  W35  1  0.500000  0.359666  0.679732  1
