# generated using pymatgen
data_NdLuPa2(Al3Ir)6
_symmetry_space_group_name_H-M   'P 1'
_cell_length_a   7.60582849
_cell_length_b   7.61324837
_cell_length_c   9.38328600
_cell_angle_alpha   90.00000000
_cell_angle_beta   90.00000000
_cell_angle_gamma   119.66201479
_symmetry_Int_Tables_number   1
_chemical_formula_structural   NdLuPa2(Al3Ir)6
_chemical_formula_sum   'Nd1 Lu1 Pa2 Al18 Ir6'
_cell_volume   472.14039979
_cell_formula_units_Z   1
loop_
 _symmetry_equiv_pos_site_id
 _symmetry_equiv_pos_as_xyz
  1  'x, y, z'
loop_
 _atom_site_type_symbol
 _atom_site_label
 _atom_site_symmetry_multiplicity
 _atom_site_fract_x
 _atom_site_fract_y
 _atom_site_fract_z
 _atom_site_occupancy
  Nd  Nd0  1  0.669194  0.993319  0.250000  1
  Lu  Lu1  1  0.329019  0.006828  0.750000  1
  Pa  Pa2  1  0.998383  0.671063  0.250000  1
  Pa  Pa3  1  0.001635  0.328510  0.750000  1
  Al  Al4  1  0.133024  0.127417  0.250000  1
  Al  Al5  1  0.870129  0.872728  0.750000  1
  Al  Al6  1  0.002381  0.333182  0.075856  1
  Al  Al7  1  0.000561  0.669387  0.921102  1
  Al  Al8  1  0.000561  0.669387  0.578898  1
  Al  Al9  1  0.336599  0.003277  0.428725  1
  Al  Al10  1  0.002381  0.333182  0.424144  1
  Al  Al11  1  0.660252  0.996426  0.577506  1
  Al  Al12  1  0.660252  0.996426  0.922494  1
  Al  Al13  1  0.336599  0.003277  0.071275  1
  Al  Al14  1  0.335142  0.332868  0.555270  1
  Al  Al15  1  0.665242  0.665315  0.449478  1
  Al  Al16  1  0.665242  0.665315  0.050522  1
  Al  Al17  1  0.335142  0.332868  0.944730  1
  Al  Al18  1  0.339326  0.545239  0.250000  1
  Al  Al19  1  0.657883  0.451300  0.750000  1
  Al  Al20  1  0.549250  0.342405  0.250000  1
  Al  Al21  1  0.449777  0.658811  0.750000  1
  Ir  Ir22  1  0.675887  0.329930  0.998303  1
  Ir  Ir23  1  0.323662  0.670046  0.999371  1
  Ir  Ir24  1  0.323662  0.670046  0.500629  1
  Ir  Ir25  1  0.675887  0.329930  0.501697  1
  Ir  Ir26  1  0.001464  0.000758  0.998343  1
  Ir  Ir27  1  0.001464  0.000758  0.501657  1
