# generated using pymatgen
data_Pr2Zn19CuNi2
_symmetry_space_group_name_H-M   'P 1'
_cell_length_a   8.29123433
_cell_length_b   8.27585121
_cell_length_c   8.30929500
_cell_angle_alpha   99.76942182
_cell_angle_beta   99.80717521
_cell_angle_gamma   131.26763804
_symmetry_Int_Tables_number   1
_chemical_formula_structural   Pr2Zn19CuNi2
_chemical_formula_sum   'Pr2 Zn19 Cu1 Ni2'
_cell_volume   390.47569935
_cell_formula_units_Z   1
loop_
 _symmetry_equiv_pos_site_id
 _symmetry_equiv_pos_as_xyz
  1  'x, y, z'
loop_
 _atom_site_type_symbol
 _atom_site_label
 _atom_site_symmetry_multiplicity
 _atom_site_fract_x
 _atom_site_fract_y
 _atom_site_fract_z
 _atom_site_occupancy
  Pr  Pr0  1  0.497606  0.496833  0.997304  1
  Pr  Pr1  1  0.752394  0.253167  0.502696  1
  Zn  Zn2  1  0.861977  0.440629  0.176876  1
  Zn  Zn3  1  0.125000  0.875000  0.750000  1
  Zn  Zn4  1  0.317730  0.140584  0.573866  1
  Zn  Zn5  1  0.259829  0.438166  0.575697  1
  Zn  Zn6  1  0.315739  0.734891  0.175536  1
  Zn  Zn7  1  0.990171  0.311834  0.924303  1
  Zn  Zn8  1  0.267759  0.678962  0.829704  1
  Zn  Zn9  1  0.249574  0.746195  0.487190  1
  Zn  Zn10  1  0.982241  0.071038  0.670296  1
  Zn  Zn11  1  0.000426  0.003805  0.012810  1
  Zn  Zn12  1  0.691919  0.019092  0.084951  1
  Zn  Zn13  1  0.388023  0.309371  0.323124  1
  Zn  Zn14  1  0.934261  0.015109  0.324464  1
  Zn  Zn15  1  0.851084  0.681106  0.409042  1
  Zn  Zn16  1  0.558081  0.730908  0.415049  1
  Zn  Zn17  1  0.683130  0.604154  0.673807  1
  Zn  Zn18  1  0.398916  0.068894  0.090958  1
  Zn  Zn19  1  0.932270  0.609416  0.926134  1
  Zn  Zn20  1  0.566870  0.145846  0.826193  1
  Cu  Cu21  1  0.625000  0.875000  0.750000  1
  Ni  Ni22  1  0.125000  0.875000  0.250000  1
  Ni  Ni23  1  0.125000  0.375000  0.250000  1
