# generated using pymatgen
data_Ga12CoTc2Rh
_symmetry_space_group_name_H-M   'P 1'
_cell_length_a   6.49779421
_cell_length_b   6.50558034
_cell_length_c   6.80895800
_cell_angle_alpha   90.00000000
_cell_angle_beta   90.00000000
_cell_angle_gamma   90.21339323
_symmetry_Int_Tables_number   1
_chemical_formula_structural   Ga12CoTc2Rh
_chemical_formula_sum   'Ga12 Co1 Tc2 Rh1'
_cell_volume   287.82574688
_cell_formula_units_Z   1
loop_
 _symmetry_equiv_pos_site_id
 _symmetry_equiv_pos_as_xyz
  1  'x, y, z'
loop_
 _atom_site_type_symbol
 _atom_site_label
 _atom_site_symmetry_multiplicity
 _atom_site_fract_x
 _atom_site_fract_y
 _atom_site_fract_z
 _atom_site_occupancy
  Ga  Ga0  1  0.496526  0.994854  0.000000  1
  Ga  Ga1  1  0.497174  0.999879  0.500000  1
  Ga  Ga2  1  0.008414  0.506199  0.000000  1
  Ga  Ga3  1  0.996806  0.501384  0.500000  1
  Ga  Ga4  1  0.658521  0.347446  0.739556  1
  Ga  Ga5  1  0.845926  0.844870  0.764221  1
  Ga  Ga6  1  0.154962  0.152905  0.769560  1
  Ga  Ga7  1  0.342266  0.663865  0.739813  1
  Ga  Ga8  1  0.342266  0.663865  0.260187  1
  Ga  Ga9  1  0.658521  0.347446  0.260444  1
  Ga  Ga10  1  0.845926  0.844870  0.235779  1
  Ga  Ga11  1  0.154962  0.152905  0.230440  1
  Co  Co12  1  0.163713  0.836772  0.000000  1
  Tc  Tc13  1  0.847892  0.151685  0.000000  1
  Tc  Tc14  1  0.652062  0.654738  0.500000  1
  Rh  Rh15  1  0.334062  0.336313  0.500000  1
