# generated using pymatgen
data_Rb2Hf3ZrTe8
_symmetry_space_group_name_H-M   'P 1'
_cell_length_a   7.04149100
_cell_length_b   8.13538600
_cell_length_c   18.48674900
_cell_angle_alpha   90.00000000
_cell_angle_beta   90.00000000
_cell_angle_gamma   90.00000000
_symmetry_Int_Tables_number   1
_chemical_formula_structural   Rb2Hf3ZrTe8
_chemical_formula_sum   'Rb4 Hf6 Zr2 Te16'
_cell_volume   1059.01798825
_cell_formula_units_Z   2
loop_
 _symmetry_equiv_pos_site_id
 _symmetry_equiv_pos_as_xyz
  1  'x, y, z'
loop_
 _atom_site_type_symbol
 _atom_site_label
 _atom_site_symmetry_multiplicity
 _atom_site_fract_x
 _atom_site_fract_y
 _atom_site_fract_z
 _atom_site_occupancy
  Rb  Rb0  1  0.350669  0.000000  0.000000  1
  Rb  Rb1  1  0.653021  0.500000  0.500000  1
  Rb  Rb2  1  0.029943  0.000000  0.500000  1
  Rb  Rb3  1  0.971227  0.500000  0.000000  1
  Hf  Hf4  1  0.001710  0.000000  0.249466  1
  Hf  Hf5  1  0.001710  0.000000  0.750534  1
  Hf  Hf6  1  0.500126  0.251781  0.250080  1
  Hf  Hf7  1  0.500126  0.748219  0.749920  1
  Hf  Hf8  1  0.500126  0.748219  0.250080  1
  Hf  Hf9  1  0.500126  0.251781  0.749920  1
  Zr  Zr10  1  0.997883  0.500000  0.250627  1
  Zr  Zr11  1  0.997883  0.500000  0.749373  1
  Te  Te12  1  0.831877  0.246129  0.344947  1
  Te  Te13  1  0.831877  0.753871  0.655053  1
  Te  Te14  1  0.167567  0.751010  0.155073  1
  Te  Te15  1  0.167567  0.248990  0.844927  1
  Te  Te16  1  0.167567  0.248990  0.155073  1
  Te  Te17  1  0.167567  0.751010  0.844927  1
  Te  Te18  1  0.831877  0.753871  0.344947  1
  Te  Te19  1  0.831877  0.246129  0.655053  1
  Te  Te20  1  0.669548  0.000000  0.156859  1
  Te  Te21  1  0.669548  0.000000  0.843141  1
  Te  Te22  1  0.333959  0.500000  0.344552  1
  Te  Te23  1  0.333959  0.500000  0.655448  1
  Te  Te24  1  0.335478  0.000000  0.342363  1
  Te  Te25  1  0.335478  0.000000  0.657637  1
  Te  Te26  1  0.659852  0.500000  0.155774  1
  Te  Te27  1  0.659852  0.500000  0.844226  1
