# generated using pymatgen
data_Ac5SnGe2O
_symmetry_space_group_name_H-M   'P 1'
_cell_length_a   9.62721122
_cell_length_b   9.62721054
_cell_length_c   9.62721200
_cell_angle_alpha   126.70551450
_cell_angle_beta   126.70551148
_cell_angle_gamma   78.73164948
_symmetry_Int_Tables_number   1
_chemical_formula_structural   Ac5SnGe2O
_chemical_formula_sum   'Ac10 Sn2 Ge4 O2'
_cell_volume   555.03643671
_cell_formula_units_Z   2
loop_
 _symmetry_equiv_pos_site_id
 _symmetry_equiv_pos_as_xyz
  1  'x, y, z'
loop_
 _atom_site_type_symbol
 _atom_site_label
 _atom_site_symmetry_multiplicity
 _atom_site_fract_x
 _atom_site_fract_y
 _atom_site_fract_z
 _atom_site_occupancy
  Ac  Ac0  1  0.488767  0.300245  0.500000  1
  Ac  Ac1  1  0.800245  0.988767  0.500000  1
  Ac  Ac2  1  0.988767  0.488767  0.188521  1
  Ac  Ac3  1  0.300245  0.800245  0.811479  1
  Ac  Ac4  1  0.513587  0.702070  0.500000  1
  Ac  Ac5  1  0.202070  0.013587  0.500000  1
  Ac  Ac6  1  0.013587  0.513587  0.811517  1
  Ac  Ac7  1  0.702070  0.202070  0.188483  1
  Ac  Ac8  1  0.502181  0.502181  0.000000  1
  Ac  Ac9  1  0.002181  0.002181  0.000000  1
  Sn  Sn10  1  0.751429  0.751429  0.000000  1
  Sn  Sn11  1  0.251429  0.251429  0.000000  1
  Ge  Ge12  1  0.145074  0.357017  0.500000  1
  Ge  Ge13  1  0.857017  0.645074  0.500000  1
  Ge  Ge14  1  0.645074  0.145074  0.788056  1
  Ge  Ge15  1  0.357017  0.857017  0.211944  1
  O  O16  1  0.751050  0.251050  0.500000  1
  O  O17  1  0.251050  0.751050  0.500000  1
