# generated using pymatgen
data_Tb15NdMgHg3PdPt3
_symmetry_space_group_name_H-M   'P 1'
_cell_length_a   9.73087368
_cell_length_b   9.75018469
_cell_length_c   9.73226200
_cell_angle_alpha   60.06078821
_cell_angle_beta   59.99528036
_cell_angle_gamma   59.87722503
_symmetry_Int_Tables_number   1
_chemical_formula_structural   Tb15NdMgHg3PdPt3
_chemical_formula_sum   'Tb15 Nd1 Mg1 Hg3 Pd1 Pt3'
_cell_volume   652.59261208
_cell_formula_units_Z   1
loop_
 _symmetry_equiv_pos_site_id
 _symmetry_equiv_pos_as_xyz
  1  'x, y, z'
loop_
 _atom_site_type_symbol
 _atom_site_label
 _atom_site_symmetry_multiplicity
 _atom_site_fract_x
 _atom_site_fract_y
 _atom_site_fract_z
 _atom_site_occupancy
  Tb  Tb0  1  0.352034  0.351160  0.348815  1
  Tb  Tb1  1  0.353195  0.352134  0.946707  1
  Tb  Tb2  1  0.356379  0.942100  0.351719  1
  Tb  Tb3  1  0.933529  0.357123  0.355761  1
  Tb  Tb4  1  0.806872  0.192717  0.191164  1
  Tb  Tb5  1  0.188792  0.812152  0.811196  1
  Tb  Tb6  1  0.188394  0.810785  0.188407  1
  Tb  Tb7  1  0.808294  0.192813  0.808136  1
  Tb  Tb8  1  0.187260  0.191534  0.809356  1
  Tb  Tb9  1  0.808524  0.809990  0.191034  1
  Tb  Tb10  1  0.934379  0.562552  0.564900  1
  Tb  Tb11  1  0.561924  0.937253  0.936060  1
  Tb  Tb12  1  0.560614  0.937717  0.565105  1
  Tb  Tb13  1  0.933964  0.563862  0.937559  1
  Tb  Tb14  1  0.564127  0.565741  0.935108  1
  Nd  Nd15  1  0.935907  0.931181  0.567079  1
  Mg  Mg16  1  0.285358  0.569317  0.572593  1
  Hg  Hg17  1  0.582744  0.587862  0.588506  1
  Hg  Hg18  1  0.582594  0.587685  0.241167  1
  Hg  Hg19  1  0.579641  0.241823  0.589140  1
  Pd  Pd20  1  0.142750  0.145078  0.144449  1
  Pt  Pt21  1  0.142538  0.144852  0.568068  1
  Pt  Pt22  1  0.139755  0.569908  0.144860  1
  Pt  Pt23  1  0.570430  0.142662  0.143110  1
