# generated using pymatgen
data_Yb(Tl3I4)2
_symmetry_space_group_name_H-M   'P 1'
_cell_length_a   10.14434347
_cell_length_b   10.14434335
_cell_length_c   10.14434200
_cell_angle_alpha   59.99999789
_cell_angle_beta   59.99999828
_cell_angle_gamma   59.99999093
_symmetry_Int_Tables_number   1
_chemical_formula_structural   Yb(Tl3I4)2
_chemical_formula_sum   'Yb1 Tl6 I8'
_cell_volume   738.17057237
_cell_formula_units_Z   1
loop_
 _symmetry_equiv_pos_site_id
 _symmetry_equiv_pos_as_xyz
  1  'x, y, z'
loop_
 _atom_site_type_symbol
 _atom_site_label
 _atom_site_symmetry_multiplicity
 _atom_site_fract_x
 _atom_site_fract_y
 _atom_site_fract_z
 _atom_site_occupancy
  Yb  Yb0  1  0.000000  0.000000  0.000000  1
  Tl  Tl1  1  0.500001  0.000000  0.000000  1
  Tl  Tl2  1  0.000000  0.500001  0.000000  1
  Tl  Tl3  1  0.500000  0.500000  0.000000  1
  Tl  Tl4  1  0.000000  0.000000  0.500001  1
  Tl  Tl5  1  0.500000  0.000000  0.500000  1
  Tl  Tl6  1  0.000000  0.500000  0.500000  1
  I  I7  1  0.778820  0.221179  0.221179  1
  I  I8  1  0.221179  0.778820  0.221179  1
  I  I9  1  0.778820  0.778820  0.221179  1
  I  I10  1  0.250000  0.250000  0.250000  1
  I  I11  1  0.750000  0.750000  0.750000  1
  I  I12  1  0.221179  0.221179  0.778820  1
  I  I13  1  0.778820  0.221179  0.778820  1
  I  I14  1  0.221179  0.778820  0.778820  1
