# generated using pymatgen
data_Ca3Ac16NdSn16
_symmetry_space_group_name_H-M   'P 1'
_cell_length_a   8.62297508
_cell_length_b   8.84368340
_cell_length_c   16.99207000
_cell_angle_alpha   90.00000000
_cell_angle_beta   90.00000000
_cell_angle_gamma   90.12405514
_symmetry_Int_Tables_number   1
_chemical_formula_structural   Ca3Ac16NdSn16
_chemical_formula_sum   'Ca3 Ac16 Nd1 Sn16'
_cell_volume   1295.79287695
_cell_formula_units_Z   1
loop_
 _symmetry_equiv_pos_site_id
 _symmetry_equiv_pos_as_xyz
  1  'x, y, z'
loop_
 _atom_site_type_symbol
 _atom_site_label
 _atom_site_symmetry_multiplicity
 _atom_site_fract_x
 _atom_site_fract_y
 _atom_site_fract_z
 _atom_site_occupancy
  Ca  Ca0  1  0.191349  0.494962  0.250000  1
  Ca  Ca1  1  0.690935  0.002525  0.250000  1
  Ca  Ca2  1  0.308415  0.997827  0.750000  1
  Ac  Ac3  1  0.006017  0.183958  0.403572  1
  Ac  Ac4  1  0.359755  0.833398  0.122215  1
  Ac  Ac5  1  0.142366  0.334963  0.621728  1
  Ac  Ac6  1  0.490128  0.685496  0.902256  1
  Ac  Ac7  1  0.859531  0.662578  0.120455  1
  Ac  Ac8  1  0.142366  0.334963  0.878272  1
  Ac  Ac9  1  0.490128  0.685496  0.597744  1
  Ac  Ac10  1  0.640788  0.164163  0.621980  1
  Ac  Ac11  1  0.859531  0.662578  0.379545  1
  Ac  Ac12  1  0.006017  0.183958  0.096428  1
  Ac  Ac13  1  0.993264  0.819297  0.903201  1
  Ac  Ac14  1  0.640788  0.164163  0.878020  1
  Ac  Ac15  1  0.507155  0.314919  0.096507  1
  Ac  Ac16  1  0.359755  0.833398  0.377785  1
  Ac  Ac17  1  0.993264  0.819297  0.596799  1
  Ac  Ac18  1  0.507155  0.314919  0.403493  1
  Nd  Nd19  1  0.810338  0.506171  0.750000  1
  Sn  Sn20  1  0.801062  0.466346  0.544755  1
  Sn  Sn21  1  0.697438  0.962024  0.459459  1
  Sn  Sn22  1  0.693462  0.854595  0.750000  1
  Sn  Sn23  1  0.200130  0.535286  0.458932  1
  Sn  Sn24  1  0.302807  0.037558  0.960412  1
  Sn  Sn25  1  0.809304  0.356133  0.250000  1
  Sn  Sn26  1  0.801062  0.466346  0.955245  1
  Sn  Sn27  1  0.557587  0.601508  0.250000  1
  Sn  Sn28  1  0.200130  0.535286  0.041068  1
  Sn  Sn29  1  0.445920  0.397148  0.750000  1
  Sn  Sn30  1  0.185919  0.642847  0.750000  1
  Sn  Sn31  1  0.943571  0.107996  0.750000  1
  Sn  Sn32  1  0.302807  0.037558  0.539588  1
  Sn  Sn33  1  0.697438  0.962024  0.040541  1
  Sn  Sn34  1  0.307055  0.140509  0.250000  1
  Sn  Sn35  1  0.055264  0.897808  0.250000  1
