# generated using pymatgen
data_Y7ErIn3Ru
_symmetry_space_group_name_H-M   'P 1'
_cell_length_a   10.43344400
_cell_length_b   10.43344302
_cell_length_c   7.05356800
_cell_angle_alpha   90.00000000
_cell_angle_beta   90.00000000
_cell_angle_gamma   119.99999676
_symmetry_Int_Tables_number   1
_chemical_formula_structural   Y7ErIn3Ru
_chemical_formula_sum   'Y14 Er2 In6 Ru2'
_cell_volume   664.95895860
_cell_formula_units_Z   2
loop_
 _symmetry_equiv_pos_site_id
 _symmetry_equiv_pos_as_xyz
  1  'x, y, z'
loop_
 _atom_site_type_symbol
 _atom_site_label
 _atom_site_symmetry_multiplicity
 _atom_site_fract_x
 _atom_site_fract_y
 _atom_site_fract_z
 _atom_site_occupancy
  Y  Y0  1  0.532797  0.065594  0.794531  1
  Y  Y1  1  0.934406  0.467203  0.794531  1
  Y  Y2  1  0.532797  0.467203  0.794531  1
  Y  Y3  1  0.467203  0.934406  0.294531  1
  Y  Y4  1  0.065594  0.532797  0.294531  1
  Y  Y5  1  0.467203  0.532797  0.294531  1
  Y  Y6  1  0.823362  0.646724  0.499415  1
  Y  Y7  1  0.353276  0.176638  0.499415  1
  Y  Y8  1  0.823362  0.176638  0.499415  1
  Y  Y9  1  0.176638  0.353276  0.999415  1
  Y  Y10  1  0.646724  0.823362  0.999415  1
  Y  Y11  1  0.176638  0.823362  0.999415  1
  Y  Y12  1  0.666667  0.333333  0.170450  1
  Y  Y13  1  0.333333  0.666667  0.670450  1
  Er  Er14  1  0.000000  0.000000  0.778602  1
  Er  Er15  1  0.000000  0.000000  0.278602  1
  In  In16  1  0.837453  0.674906  0.039317  1
  In  In17  1  0.325094  0.162547  0.039317  1
  In  In18  1  0.837453  0.162547  0.039317  1
  In  In19  1  0.162547  0.325094  0.539317  1
  In  In20  1  0.674906  0.837453  0.539317  1
  In  In21  1  0.162547  0.837453  0.539317  1
  Ru  Ru22  1  0.666667  0.333333  0.569110  1
  Ru  Ru23  1  0.333333  0.666667  0.069110  1
