# generated using pymatgen
data_Hf4Zr6Zn2BiPb5
_symmetry_space_group_name_H-M   'P 1'
_cell_length_a   8.81480500
_cell_length_b   8.81252245
_cell_length_c   5.92917300
_cell_angle_alpha   90.00000000
_cell_angle_beta   90.00000000
_cell_angle_gamma   120.00857216
_symmetry_Int_Tables_number   1
_chemical_formula_structural   Hf4Zr6Zn2BiPb5
_chemical_formula_sum   'Hf4 Zr6 Zn2 Bi1 Pb5'
_cell_volume   398.84135183
_cell_formula_units_Z   1
loop_
 _symmetry_equiv_pos_site_id
 _symmetry_equiv_pos_as_xyz
  1  'x, y, z'
loop_
 _atom_site_type_symbol
 _atom_site_label
 _atom_site_symmetry_multiplicity
 _atom_site_fract_x
 _atom_site_fract_y
 _atom_site_fract_z
 _atom_site_occupancy
  Hf  Hf0  1  0.332646  0.666151  0.999406  1
  Hf  Hf1  1  0.666497  0.333849  0.500594  1
  Hf  Hf2  1  0.666497  0.333849  0.999406  1
  Hf  Hf3  1  0.332646  0.666151  0.500594  1
  Zr  Zr4  1  0.264971  0.000000  0.250000  1
  Zr  Zr5  1  0.264966  0.265199  0.750000  1
  Zr  Zr6  1  0.999766  0.734801  0.750000  1
  Zr  Zr7  1  0.001428  0.265545  0.250000  1
  Zr  Zr8  1  0.735883  0.734455  0.250000  1
  Zr  Zr9  1  0.734800  0.000000  0.750000  1
  Zn  Zn10  1  0.000576  0.000000  0.999241  1
  Zn  Zn11  1  0.000576  0.000000  0.500759  1
  Bi  Bi12  1  0.613940  0.000000  0.250000  1
  Pb  Pb13  1  0.613886  0.613944  0.750000  1
  Pb  Pb14  1  0.999942  0.386056  0.750000  1
  Pb  Pb15  1  0.999964  0.613852  0.250000  1
  Pb  Pb16  1  0.386112  0.386148  0.250000  1
  Pb  Pb17  1  0.384904  0.000000  0.750000  1
