# generated using pymatgen
data_RbSrNbO4
_symmetry_space_group_name_H-M   'P 1'
_cell_length_a   6.22288200
_cell_length_b   7.77806500
_cell_length_c   10.48874400
_cell_angle_alpha   90.00000000
_cell_angle_beta   90.00000000
_cell_angle_gamma   90.00000000
_symmetry_Int_Tables_number   1
_chemical_formula_structural   RbSrNbO4
_chemical_formula_sum   'Rb4 Sr4 Nb4 O16'
_cell_volume   507.67598448
_cell_formula_units_Z   4
loop_
 _symmetry_equiv_pos_site_id
 _symmetry_equiv_pos_as_xyz
  1  'x, y, z'
loop_
 _atom_site_type_symbol
 _atom_site_label
 _atom_site_symmetry_multiplicity
 _atom_site_fract_x
 _atom_site_fract_y
 _atom_site_fract_z
 _atom_site_occupancy
  Rb  Rb0  1  0.487310  0.089246  0.577494  1
  Rb  Rb1  1  0.512690  0.589246  0.922506  1
  Rb  Rb2  1  0.012690  0.910754  0.077494  1
  Rb  Rb3  1  0.987310  0.410754  0.422506  1
  Sr  Sr4  1  0.985820  0.249957  0.791826  1
  Sr  Sr5  1  0.485820  0.250043  0.208174  1
  Sr  Sr6  1  0.514180  0.750043  0.291826  1
  Sr  Sr7  1  0.014180  0.749957  0.708174  1
  Nb  Nb8  1  0.484921  0.528392  0.582102  1
  Nb  Nb9  1  0.015079  0.471608  0.082102  1
  Nb  Nb10  1  0.984921  0.971608  0.417898  1
  Nb  Nb11  1  0.515079  0.028392  0.917898  1
  O  O12  1  0.506805  0.921790  0.078992  1
  O  O13  1  0.247955  0.555574  0.178062  1
  O  O14  1  0.252045  0.444426  0.678062  1
  O  O15  1  0.088051  0.243885  0.050151  1
  O  O16  1  0.747955  0.944426  0.821938  1
  O  O17  1  0.588051  0.256115  0.949849  1
  O  O18  1  0.755464  0.508074  0.173070  1
  O  O19  1  0.255464  0.991926  0.826930  1
  O  O20  1  0.993195  0.078210  0.578992  1
  O  O21  1  0.752045  0.055574  0.321938  1
  O  O22  1  0.006805  0.578210  0.921008  1
  O  O23  1  0.493195  0.421790  0.421008  1
  O  O24  1  0.244536  0.008074  0.326930  1
  O  O25  1  0.411949  0.756115  0.550151  1
  O  O26  1  0.744536  0.491926  0.673070  1
  O  O27  1  0.911949  0.743885  0.449849  1
