# generated using pymatgen
data_Zr5Ge2BiH
_symmetry_space_group_name_H-M   'P 1'
_cell_length_a   8.30035930
_cell_length_b   8.30035890
_cell_length_c   8.30035968
_cell_angle_alpha   128.40660228
_cell_angle_beta   128.40659391
_cell_angle_gamma   75.96727629
_symmetry_Int_Tables_number   1
_chemical_formula_structural   Zr5Ge2BiH
_chemical_formula_sum   'Zr10 Ge4 Bi2 H2'
_cell_volume   341.44130276
_cell_formula_units_Z   2
loop_
 _symmetry_equiv_pos_site_id
 _symmetry_equiv_pos_as_xyz
  1  'x, y, z'
loop_
 _atom_site_type_symbol
 _atom_site_label
 _atom_site_symmetry_multiplicity
 _atom_site_fract_x
 _atom_site_fract_y
 _atom_site_fract_z
 _atom_site_occupancy
  Zr  Zr0  1  0.500000  0.500000  0.000000  1
  Zr  Zr1  1  0.000000  0.000000  0.000000  1
  Zr  Zr2  1  0.518779  0.018779  0.820255  1
  Zr  Zr3  1  0.198524  0.698524  0.179745  1
  Zr  Zr4  1  0.018779  0.198524  0.500000  1
  Zr  Zr5  1  0.698524  0.518779  0.500000  1
  Zr  Zr6  1  0.481221  0.981221  0.179745  1
  Zr  Zr7  1  0.801476  0.301476  0.820255  1
  Zr  Zr8  1  0.981221  0.801476  0.500000  1
  Zr  Zr9  1  0.301476  0.481221  0.500000  1
  Ge  Ge10  1  0.864191  0.364191  0.228383  1
  Ge  Ge11  1  0.135809  0.635809  0.771617  1
  Ge  Ge12  1  0.364191  0.135809  0.500000  1
  Ge  Ge13  1  0.635809  0.864191  0.500000  1
  Bi  Bi14  1  0.250000  0.250000  0.000000  1
  Bi  Bi15  1  0.750000  0.750000  0.000000  1
  H  H16  1  0.250000  0.750000  0.500000  1
  H  H17  1  0.750000  0.250000  0.500000  1
