# generated using pymatgen
data_Li2CeThSi2Ge
_symmetry_space_group_name_H-M   'P 1'
_cell_length_a   9.46732292
_cell_length_b   9.46732263
_cell_length_c   6.78393200
_cell_angle_alpha   90.00000000
_cell_angle_beta   90.00000000
_cell_angle_gamma   152.99370284
_symmetry_Int_Tables_number   1
_chemical_formula_structural   Li2CeThSi2Ge
_chemical_formula_sum   'Li4 Ce2 Th2 Si4 Ge2'
_cell_volume   276.10627993
_cell_formula_units_Z   2
loop_
 _symmetry_equiv_pos_site_id
 _symmetry_equiv_pos_as_xyz
  1  'x, y, z'
loop_
 _atom_site_type_symbol
 _atom_site_label
 _atom_site_symmetry_multiplicity
 _atom_site_fract_x
 _atom_site_fract_y
 _atom_site_fract_z
 _atom_site_occupancy
  Li  Li0  1  0.811144  0.188856  0.561117  1
  Li  Li1  1  0.188856  0.811144  0.438883  1
  Li  Li2  1  0.188856  0.811144  0.061117  1
  Li  Li3  1  0.811144  0.188856  0.938883  1
  Ce  Ce4  1  0.344694  0.655306  0.250000  1
  Ce  Ce5  1  0.655306  0.344694  0.750000  1
  Th  Th6  1  0.549952  0.450048  0.250000  1
  Th  Th7  1  0.450048  0.549952  0.750000  1
  Si  Si8  1  0.940122  0.059878  0.071645  1
  Si  Si9  1  0.059878  0.940122  0.928355  1
  Si  Si10  1  0.059878  0.940122  0.571645  1
  Si  Si11  1  0.940122  0.059878  0.428355  1
  Ge  Ge12  1  0.720216  0.279784  0.250000  1
  Ge  Ge13  1  0.279784  0.720216  0.750000  1
