# generated using pymatgen
data_Cs5Rb4GaBi4
_symmetry_space_group_name_H-M   'P 1'
_cell_length_a   11.49255540
_cell_length_b   11.50268113
_cell_length_c   12.09521805
_cell_angle_alpha   89.87059829
_cell_angle_beta   90.06475845
_cell_angle_gamma   120.02923203
_symmetry_Int_Tables_number   1
_chemical_formula_structural   Cs5Rb4GaBi4
_chemical_formula_sum   'Cs10 Rb8 Ga2 Bi8'
_cell_volume   1384.30220684
_cell_formula_units_Z   2
loop_
 _symmetry_equiv_pos_site_id
 _symmetry_equiv_pos_as_xyz
  1  'x, y, z'
loop_
 _atom_site_type_symbol
 _atom_site_label
 _atom_site_symmetry_multiplicity
 _atom_site_fract_x
 _atom_site_fract_y
 _atom_site_fract_z
 _atom_site_occupancy
  Cs  Cs0  1  0.209060  0.791079  0.957847  1
  Cs  Cs1  1  0.208632  0.417643  0.957368  1
  Cs  Cs2  1  0.582239  0.791377  0.957787  1
  Cs  Cs3  1  0.417760  0.209140  0.457789  1
  Cs  Cs4  1  0.790956  0.581532  0.042437  1
  Cs  Cs5  1  0.791368  0.209011  0.457368  1
  Cs  Cs6  1  0.790939  0.582021  0.457846  1
  Cs  Cs7  1  0.209043  0.790574  0.542437  1
  Cs  Cs8  1  0.581711  0.790586  0.542322  1
  Cs  Cs9  1  0.418289  0.208878  0.042323  1
  Rb  Rb10  1  0.238642  0.119862  0.749802  1
  Rb  Rb11  1  0.880943  0.119986  0.750372  1
  Rb  Rb12  1  0.761358  0.881217  0.249801  1
  Rb  Rb13  1  0.119054  0.239042  0.250368  1
  Rb  Rb14  1  0.119347  0.880788  0.249980  1
  Rb  Rb15  1  0.880659  0.761445  0.749981  1
  Rb  Rb16  1  0.791756  0.208069  0.041680  1
  Rb  Rb17  1  0.208247  0.416313  0.541681  1
  Ga  Ga18  1  0.333493  0.666326  0.249773  1
  Ga  Ga19  1  0.666508  0.332835  0.749773  1
  Bi  Bi20  1  0.999204  0.000524  0.000123  1
  Bi  Bi21  1  0.050033  0.524802  0.250293  1
  Bi  Bi22  1  0.474888  0.949762  0.249381  1
  Bi  Bi23  1  0.525684  0.050956  0.750834  1
  Bi  Bi24  1  0.525114  0.474874  0.749381  1
  Bi  Bi25  1  0.000797  0.001321  0.500124  1
  Bi  Bi26  1  0.474315  0.525271  0.250834  1
  Bi  Bi27  1  0.949967  0.474769  0.750294  1
