# generated using pymatgen
data_LuNb6SnSe12
_symmetry_space_group_name_H-M   'P 1'
_cell_length_a   6.09361600
_cell_length_b   6.09361541
_cell_length_c   14.61704700
_cell_angle_alpha   90.00000000
_cell_angle_beta   90.00000000
_cell_angle_gamma   120.00001405
_symmetry_Int_Tables_number   1
_chemical_formula_structural   LuNb6SnSe12
_chemical_formula_sum   'Lu1 Nb6 Sn1 Se12'
_cell_volume   470.04597426
_cell_formula_units_Z   1
loop_
 _symmetry_equiv_pos_site_id
 _symmetry_equiv_pos_as_xyz
  1  'x, y, z'
loop_
 _atom_site_type_symbol
 _atom_site_label
 _atom_site_symmetry_multiplicity
 _atom_site_fract_x
 _atom_site_fract_y
 _atom_site_fract_z
 _atom_site_occupancy
  Lu  Lu0  1  0.000000  0.000000  0.500000  1
  Nb  Nb1  1  0.333333  0.666667  0.257489  1
  Nb  Nb2  1  0.666667  0.333333  0.742511  1
  Nb  Nb3  1  0.666667  0.333333  0.257489  1
  Nb  Nb4  1  0.333333  0.666667  0.742511  1
  Nb  Nb5  1  0.000000  0.000000  0.257603  1
  Nb  Nb6  1  0.000000  0.000000  0.742397  1
  Sn  Sn7  1  0.000000  0.000000  0.000000  1
  Se  Se8  1  0.337535  0.000000  0.143809  1
  Se  Se9  1  0.000000  0.337535  0.143809  1
  Se  Se10  1  0.662465  0.662465  0.143809  1
  Se  Se11  1  0.338509  0.338509  0.627933  1
  Se  Se12  1  0.661491  0.661491  0.372067  1
  Se  Se13  1  0.661491  0.000000  0.627933  1
  Se  Se14  1  0.000000  0.661491  0.627933  1
  Se  Se15  1  0.000000  0.662465  0.856191  1
  Se  Se16  1  0.337535  0.337535  0.856191  1
  Se  Se17  1  0.000000  0.338509  0.372067  1
  Se  Se18  1  0.338509  0.000000  0.372067  1
  Se  Se19  1  0.662465  0.000000  0.856191  1
