# generated using pymatgen
data_TbThInAu2
_symmetry_space_group_name_H-M   'P 1'
_cell_length_a   8.07366500
_cell_length_b   8.06911100
_cell_length_c   3.84600900
_cell_angle_alpha   90.00000000
_cell_angle_beta   90.00000000
_cell_angle_gamma   90.00000000
_symmetry_Int_Tables_number   1
_chemical_formula_structural   TbThInAu2
_chemical_formula_sum   'Tb2 Th2 In2 Au4'
_cell_volume   250.55709852
_cell_formula_units_Z   2
loop_
 _symmetry_equiv_pos_site_id
 _symmetry_equiv_pos_as_xyz
  1  'x, y, z'
loop_
 _atom_site_type_symbol
 _atom_site_label
 _atom_site_symmetry_multiplicity
 _atom_site_fract_x
 _atom_site_fract_y
 _atom_site_fract_z
 _atom_site_occupancy
  Tb  Tb0  1  0.672602  0.176265  0.500000  1
  Tb  Tb1  1  0.172602  0.323735  0.500000  1
  Th  Th2  1  0.326463  0.830196  0.500000  1
  Th  Th3  1  0.826463  0.669804  0.500000  1
  In  In4  1  0.498190  0.493117  0.000000  1
  In  In5  1  0.998190  0.006883  0.000000  1
  Au  Au6  1  0.129295  0.621329  0.000000  1
  Au  Au7  1  0.629295  0.878671  0.000000  1
  Au  Au8  1  0.373451  0.132841  0.000000  1
  Au  Au9  1  0.873451  0.367159  0.000000  1
