# generated using pymatgen
data_Hf5Al6SiRu12
_symmetry_space_group_name_H-M   'P 1'
_cell_length_a   4.38840300
_cell_length_b   6.25932800
_cell_length_c   13.10639200
_cell_angle_alpha   89.99987035
_cell_angle_beta   90.00181011
_cell_angle_gamma   89.99996864
_symmetry_Int_Tables_number   1
_chemical_formula_structural   Hf5Al6SiRu12
_chemical_formula_sum   'Hf5 Al6 Si1 Ru12'
_cell_volume   360.01232269
_cell_formula_units_Z   1
loop_
 _symmetry_equiv_pos_site_id
 _symmetry_equiv_pos_as_xyz
  1  'x, y, z'
loop_
 _atom_site_type_symbol
 _atom_site_label
 _atom_site_symmetry_multiplicity
 _atom_site_fract_x
 _atom_site_fract_y
 _atom_site_fract_z
 _atom_site_occupancy
  Hf  Hf0  1  0.499952  0.499975  0.160839  1
  Hf  Hf1  1  0.999934  0.999997  0.331873  1
  Hf  Hf2  1  0.500000  0.500008  0.499997  1
  Hf  Hf3  1  0.000063  0.999997  0.668124  1
  Hf  Hf4  1  0.500049  0.499976  0.839164  1
  Al  Al5  1  0.000000  0.499895  0.999995  1
  Al  Al6  1  0.499946  0.000060  0.170348  1
  Al  Al7  1  0.999937  0.499996  0.328410  1
  Al  Al8  1  0.499999  0.000007  0.500005  1
  Al  Al9  1  0.000061  0.499995  0.671589  1
  Al  Al10  1  0.500056  0.000057  0.829651  1
  Si  Si11  1  0.000000  0.000140  0.999997  1
  Ru  Ru12  1  0.500001  0.223275  0.000005  1
  Ru  Ru13  1  0.500000  0.776634  0.000008  1
  Ru  Ru14  1  0.999963  0.239040  0.156090  1
  Ru  Ru15  1  0.999956  0.760949  0.156061  1
  Ru  Ru16  1  0.499940  0.250281  0.330123  1
  Ru  Ru17  1  0.499947  0.749728  0.330117  1
  Ru  Ru18  1  0.999999  0.249911  0.499994  1
  Ru  Ru19  1  0.999999  0.750093  0.499993  1
  Ru  Ru20  1  0.500056  0.250283  0.669875  1
  Ru  Ru21  1  0.500049  0.749726  0.669880  1
  Ru  Ru22  1  0.000044  0.239031  0.843916  1
  Ru  Ru23  1  0.000046  0.760950  0.843946  1
