# generated using pymatgen
data_Sm8Sn(Pd7Pt)3
_symmetry_space_group_name_H-M   'P 1'
_cell_length_a   8.50078200
_cell_length_b   8.49410000
_cell_length_c   8.49410000
_cell_angle_alpha   90.00000000
_cell_angle_beta   90.00000000
_cell_angle_gamma   90.00000000
_symmetry_Int_Tables_number   1
_chemical_formula_structural   Sm8Sn(Pd7Pt)3
_chemical_formula_sum   'Sm8 Sn1 Pd21 Pt3'
_cell_volume   613.32916698
_cell_formula_units_Z   1
loop_
 _symmetry_equiv_pos_site_id
 _symmetry_equiv_pos_as_xyz
  1  'x, y, z'
loop_
 _atom_site_type_symbol
 _atom_site_label
 _atom_site_symmetry_multiplicity
 _atom_site_fract_x
 _atom_site_fract_y
 _atom_site_fract_z
 _atom_site_occupancy
  Sm  Sm0  1  0.252294  0.252397  0.252397  1
  Sm  Sm1  1  0.747705  0.747032  0.747032  1
  Sm  Sm2  1  0.747705  0.747032  0.252968  1
  Sm  Sm3  1  0.747705  0.252968  0.747032  1
  Sm  Sm4  1  0.252294  0.252397  0.747603  1
  Sm  Sm5  1  0.252294  0.747603  0.252397  1
  Sm  Sm6  1  0.252294  0.747603  0.747603  1
  Sm  Sm7  1  0.747705  0.252968  0.252968  1
  Sn  Sn8  1  0.000551  0.000000  0.000000  1
  Pd  Pd9  1  0.265650  0.500000  0.000000  1
  Pd  Pd10  1  0.734089  0.500000  0.000000  1
  Pd  Pd11  1  0.999952  0.265736  0.500000  1
  Pd  Pd12  1  0.499928  0.265788  0.000000  1
  Pd  Pd13  1  0.999952  0.734264  0.500000  1
  Pd  Pd14  1  0.499928  0.734212  0.000000  1
  Pd  Pd15  1  0.499928  0.000000  0.265788  1
  Pd  Pd16  1  0.265650  0.000000  0.500000  1
  Pd  Pd17  1  0.499928  0.000000  0.734212  1
  Pd  Pd18  1  0.734089  0.000000  0.500000  1
  Pd  Pd19  1  0.999952  0.500000  0.265736  1
  Pd  Pd20  1  0.999952  0.500000  0.734264  1
  Pd  Pd21  1  0.500097  0.254885  0.500000  1
  Pd  Pd22  1  0.500097  0.745115  0.500000  1
  Pd  Pd23  1  0.500097  0.500000  0.254885  1
  Pd  Pd24  1  0.500097  0.500000  0.745115  1
  Pd  Pd25  1  0.690541  0.000000  0.000000  1
  Pd  Pd26  1  0.999739  0.310074  0.000000  1
  Pd  Pd27  1  0.999739  0.689926  0.000000  1
  Pd  Pd28  1  0.999739  0.000000  0.310074  1
  Pd  Pd29  1  0.999739  0.000000  0.689926  1
  Pt  Pt30  1  0.254562  0.500000  0.500000  1
  Pt  Pt31  1  0.745600  0.500000  0.500000  1
  Pt  Pt32  1  0.310410  0.000000  0.000000  1
