# generated using pymatgen
data_Ho8BeInPd23
_symmetry_space_group_name_H-M   'P 1'
_cell_length_a   8.21442000
_cell_length_b   8.43720700
_cell_length_c   8.43090100
_cell_angle_alpha   90.00000000
_cell_angle_beta   90.00000000
_cell_angle_gamma   90.00000000
_symmetry_Int_Tables_number   1
_chemical_formula_structural   Ho8BeInPd23
_chemical_formula_sum   'Ho8 Be1 In1 Pd23'
_cell_volume   584.31844842
_cell_formula_units_Z   1
loop_
 _symmetry_equiv_pos_site_id
 _symmetry_equiv_pos_as_xyz
  1  'x, y, z'
loop_
 _atom_site_type_symbol
 _atom_site_label
 _atom_site_symmetry_multiplicity
 _atom_site_fract_x
 _atom_site_fract_y
 _atom_site_fract_z
 _atom_site_occupancy
  Ho  Ho0  1  0.250473  0.239199  0.264352  1
  Ho  Ho1  1  0.748549  0.747781  0.749341  1
  Ho  Ho2  1  0.748549  0.747781  0.250659  1
  Ho  Ho3  1  0.748549  0.252219  0.749341  1
  Ho  Ho4  1  0.250473  0.239199  0.735648  1
  Ho  Ho5  1  0.250473  0.760801  0.264352  1
  Ho  Ho6  1  0.250473  0.760801  0.735648  1
  Ho  Ho7  1  0.748549  0.252219  0.250659  1
  Be  Be8  1  0.999288  0.000000  0.000000  1
  In  In9  1  0.260614  0.500000  0.000000  1
  Pd  Pd10  1  0.746023  0.500000  0.000000  1
  Pd  Pd11  1  0.996889  0.254517  0.500000  1
  Pd  Pd12  1  0.493998  0.254544  0.000000  1
  Pd  Pd13  1  0.996889  0.745483  0.500000  1
  Pd  Pd14  1  0.493998  0.745456  0.000000  1
  Pd  Pd15  1  0.502502  0.000000  0.255954  1
  Pd  Pd16  1  0.254255  0.000000  0.500000  1
  Pd  Pd17  1  0.502502  0.000000  0.744046  1
  Pd  Pd18  1  0.745196  0.000000  0.500000  1
  Pd  Pd19  1  0.005041  0.500000  0.255686  1
  Pd  Pd20  1  0.005041  0.500000  0.744314  1
  Pd  Pd21  1  0.251970  0.500000  0.500000  1
  Pd  Pd22  1  0.748147  0.500000  0.500000  1
  Pd  Pd23  1  0.502578  0.252846  0.500000  1
  Pd  Pd24  1  0.502578  0.747154  0.500000  1
  Pd  Pd25  1  0.495051  0.500000  0.255011  1
  Pd  Pd26  1  0.495051  0.500000  0.744989  1
  Pd  Pd27  1  0.269812  0.000000  0.000000  1
  Pd  Pd28  1  0.729194  0.000000  0.000000  1
  Pd  Pd29  1  0.007796  0.267860  0.000000  1
  Pd  Pd30  1  0.007796  0.732140  0.000000  1
  Pd  Pd31  1  0.995850  0.000000  0.267920  1
  Pd  Pd32  1  0.995850  0.000000  0.732080  1
