# generated using pymatgen
data_LuTa8BiS16
_symmetry_space_group_name_H-M   'P 1'
_cell_length_a   6.70222500
_cell_length_b   6.70222429
_cell_length_c   13.76493300
_cell_angle_alpha   90.00000000
_cell_angle_beta   90.00000000
_cell_angle_gamma   120.00000845
_symmetry_Int_Tables_number   1
_chemical_formula_structural   LuTa8BiS16
_chemical_formula_sum   'Lu1 Ta8 Bi1 S16'
_cell_volume   535.47926323
_cell_formula_units_Z   1
loop_
 _symmetry_equiv_pos_site_id
 _symmetry_equiv_pos_as_xyz
  1  'x, y, z'
loop_
 _atom_site_type_symbol
 _atom_site_label
 _atom_site_symmetry_multiplicity
 _atom_site_fract_x
 _atom_site_fract_y
 _atom_site_fract_z
 _atom_site_occupancy
  Lu  Lu0  1  0.000000  0.000000  0.000000  1
  Ta  Ta1  1  0.505873  0.494127  0.755516  1
  Ta  Ta2  1  0.011745  0.505873  0.244484  1
  Ta  Ta3  1  0.494127  0.988255  0.244484  1
  Ta  Ta4  1  0.505873  0.011745  0.755516  1
  Ta  Ta5  1  0.988255  0.494127  0.755516  1
  Ta  Ta6  1  0.494127  0.505873  0.244484  1
  Ta  Ta7  1  0.000000  0.000000  0.756034  1
  Ta  Ta8  1  0.000000  0.000000  0.243966  1
  Bi  Bi9  1  0.000000  0.000000  0.500000  1
  S  S10  1  0.829497  0.170503  0.356330  1
  S  S11  1  0.829497  0.658994  0.356330  1
  S  S12  1  0.341006  0.170503  0.356330  1
  S  S13  1  0.663029  0.831515  0.869053  1
  S  S14  1  0.170503  0.341006  0.643670  1
  S  S15  1  0.168485  0.831515  0.869053  1
  S  S16  1  0.168485  0.336971  0.869053  1
  S  S17  1  0.831515  0.168485  0.130947  1
  S  S18  1  0.336971  0.168485  0.130947  1
  S  S19  1  0.658994  0.829497  0.643670  1
  S  S20  1  0.333333  0.666667  0.127710  1
  S  S21  1  0.666667  0.333333  0.638657  1
  S  S22  1  0.666667  0.333333  0.872290  1
  S  S23  1  0.333333  0.666667  0.361343  1
  S  S24  1  0.831515  0.663029  0.130947  1
  S  S25  1  0.170503  0.829497  0.643670  1
