# generated using pymatgen
data_TbY3(B4W)4
_symmetry_space_group_name_H-M   'P 1'
_cell_length_a   6.05007203
_cell_length_b   11.69334005
_cell_length_c   3.63133300
_cell_angle_alpha   90.00000000
_cell_angle_beta   90.00000000
_cell_angle_gamma   89.98935646
_symmetry_Int_Tables_number   1
_chemical_formula_structural   TbY3(B4W)4
_chemical_formula_sum   'Tb1 Y3 B16 W4'
_cell_volume   256.90064418
_cell_formula_units_Z   1
loop_
 _symmetry_equiv_pos_site_id
 _symmetry_equiv_pos_as_xyz
  1  'x, y, z'
loop_
 _atom_site_type_symbol
 _atom_site_label
 _atom_site_symmetry_multiplicity
 _atom_site_fract_x
 _atom_site_fract_y
 _atom_site_fract_z
 _atom_site_occupancy
  Tb  Tb0  1  0.626840  0.350211  0.000000  1
  Y  Y1  1  0.373142  0.649756  0.000000  1
  Y  Y2  1  0.126861  0.149738  0.000000  1
  Y  Y3  1  0.873133  0.850258  0.000000  1
  B  B4  1  0.786510  0.186392  0.500000  1
  B  B5  1  0.213440  0.813579  0.500000  1
  B  B6  1  0.286490  0.313602  0.500000  1
  B  B7  1  0.713456  0.686433  0.500000  1
  B  B8  1  0.866395  0.032127  0.500000  1
  B  B9  1  0.133622  0.967868  0.500000  1
  B  B10  1  0.366297  0.467867  0.500000  1
  B  B11  1  0.633676  0.532147  0.500000  1
  B  B12  1  0.886161  0.452823  0.500000  1
  B  B13  1  0.113923  0.547224  0.500000  1
  B  B14  1  0.386084  0.047208  0.500000  1
  B  B15  1  0.613911  0.952788  0.500000  1
  B  B16  1  0.975903  0.306929  0.500000  1
  B  B17  1  0.024098  0.693101  0.500000  1
  B  B18  1  0.475910  0.193029  0.500000  1
  B  B19  1  0.524107  0.806901  0.500000  1
  W  W20  1  0.630664  0.084377  0.000000  1
  W  W21  1  0.369313  0.915603  0.000000  1
  W  W22  1  0.130732  0.415606  0.000000  1
  W  W23  1  0.869335  0.584432  0.000000  1
