# generated using pymatgen
data_LiYb3(HoCd2)4
_symmetry_space_group_name_H-M   'P 1'
_cell_length_a   7.41859117
_cell_length_b   7.41441200
_cell_length_c   7.38340900
_cell_angle_alpha   90.00000000
_cell_angle_beta   89.98789764
_cell_angle_gamma   90.00000000
_symmetry_Int_Tables_number   1
_chemical_formula_structural   LiYb3(HoCd2)4
_chemical_formula_sum   'Li1 Yb3 Ho4 Cd8'
_cell_volume   406.12064749
_cell_formula_units_Z   1
loop_
 _symmetry_equiv_pos_site_id
 _symmetry_equiv_pos_as_xyz
  1  'x, y, z'
loop_
 _atom_site_type_symbol
 _atom_site_label
 _atom_site_symmetry_multiplicity
 _atom_site_fract_x
 _atom_site_fract_y
 _atom_site_fract_z
 _atom_site_occupancy
  Li  Li0  1  0.750008  0.250000  0.999447  1
  Yb  Yb1  1  0.249993  0.750000  0.000067  1
  Yb  Yb2  1  0.749993  0.250000  0.499837  1
  Yb  Yb3  1  0.250010  0.750000  0.500211  1
  Ho  Ho4  1  0.249993  0.250000  0.000038  1
  Ho  Ho5  1  0.750005  0.750000  0.000030  1
  Ho  Ho6  1  0.749988  0.750000  0.500031  1
  Ho  Ho7  1  0.249992  0.250000  0.500033  1
  Cd  Cd8  1  0.505909  0.005918  0.243072  1
  Cd  Cd9  1  0.505909  0.494082  0.243072  1
  Cd  Cd10  1  0.994169  0.494157  0.243137  1
  Cd  Cd11  1  0.994169  0.005843  0.243137  1
  Cd  Cd12  1  0.994006  0.006006  0.756976  1
  Cd  Cd13  1  0.994006  0.493994  0.756976  1
  Cd  Cd14  1  0.505924  0.494062  0.756970  1
  Cd  Cd15  1  0.505924  0.005938  0.756970  1
