# generated using pymatgen
data_Np3PaGa12Pd
_symmetry_space_group_name_H-M   'P 1'
_cell_length_a   7.51811416
_cell_length_b   7.53058692
_cell_length_c   7.51811471
_cell_angle_alpha   109.50482076
_cell_angle_beta   109.43759192
_cell_angle_gamma   109.50484060
_symmetry_Int_Tables_number   1
_chemical_formula_structural   Np3PaGa12Pd
_chemical_formula_sum   'Np3 Pa1 Ga12 Pd1'
_cell_volume   327.52501593
_cell_formula_units_Z   1
loop_
 _symmetry_equiv_pos_site_id
 _symmetry_equiv_pos_as_xyz
  1  'x, y, z'
loop_
 _atom_site_type_symbol
 _atom_site_label
 _atom_site_symmetry_multiplicity
 _atom_site_fract_x
 _atom_site_fract_y
 _atom_site_fract_z
 _atom_site_occupancy
  Np  Np0  1  0.500000  0.500000  0.500000  1
  Np  Np1  1  0.000000  0.000000  0.500000  1
  Np  Np2  1  0.500000  0.000000  0.000000  1
  Pa  Pa3  1  0.000000  0.500000  0.000000  1
  Ga  Ga4  1  0.749610  0.500000  0.250390  1
  Ga  Ga5  1  0.500781  0.750390  0.250390  1
  Ga  Ga6  1  0.499219  0.249610  0.749610  1
  Ga  Ga7  1  0.749610  0.249610  0.499219  1
  Ga  Ga8  1  0.250390  0.750390  0.500781  1
  Ga  Ga9  1  0.250390  0.500000  0.749610  1
  Ga  Ga10  1  0.296037  0.001656  0.296037  1
  Ga  Ga11  1  0.000000  0.294382  0.296037  1
  Ga  Ga12  1  0.000000  0.705618  0.703963  1
  Ga  Ga13  1  0.296037  0.294382  0.000000  1
  Ga  Ga14  1  0.703963  0.705618  0.000000  1
  Ga  Ga15  1  0.703963  0.998344  0.703963  1
  Pd  Pd16  1  0.000000  0.000000  0.000000  1
