# generated using pymatgen
data_HoEr5(FeCo3)4
_symmetry_space_group_name_H-M   'P 1'
_cell_length_a   7.56866899
_cell_length_b   7.56866851
_cell_length_c   7.56866913
_cell_angle_alpha   109.46062239
_cell_angle_beta   109.46061824
_cell_angle_gamma   109.49241689
_symmetry_Int_Tables_number   1
_chemical_formula_structural   HoEr5(FeCo3)4
_chemical_formula_sum   'Ho1 Er5 Fe4 Co12'
_cell_volume   333.76179006
_cell_formula_units_Z   1
loop_
 _symmetry_equiv_pos_site_id
 _symmetry_equiv_pos_as_xyz
  1  'x, y, z'
loop_
 _atom_site_type_symbol
 _atom_site_label
 _atom_site_symmetry_multiplicity
 _atom_site_fract_x
 _atom_site_fract_y
 _atom_site_fract_z
 _atom_site_occupancy
  Ho  Ho0  1  0.717553  0.717553  0.000000  1
  Er  Er1  1  0.283309  0.000116  0.283193  1
  Er  Er2  1  0.000116  0.283309  0.283193  1
  Er  Er3  1  0.283022  0.283022  0.000000  1
  Er  Er4  1  0.716923  0.000116  0.716807  1
  Er  Er5  1  0.000116  0.716923  0.716807  1
  Fe  Fe6  1  0.000139  0.000139  0.500325  1
  Fe  Fe7  1  0.000139  0.499814  0.000000  1
  Fe  Fe8  1  0.499814  0.000139  0.000000  1
  Fe  Fe9  1  0.499814  0.499814  0.499675  1
  Co  Co10  1  0.335427  0.335427  0.671216  1
  Co  Co11  1  0.664184  0.000168  0.335984  1
  Co  Co12  1  0.000168  0.664184  0.335984  1
  Co  Co13  1  0.664209  0.335427  0.000000  1
  Co  Co14  1  0.335761  0.671510  0.335751  1
  Co  Co15  1  0.000011  0.335761  0.664249  1
  Co  Co16  1  0.335427  0.664209  0.000000  1
  Co  Co17  1  0.335761  0.000011  0.664249  1
  Co  Co18  1  0.671510  0.335761  0.335751  1
  Co  Co19  1  0.664209  0.664209  0.328784  1
  Co  Co20  1  0.664184  0.328202  0.664016  1
  Co  Co21  1  0.328202  0.664184  0.664016  1
