# generated using pymatgen
data_Ta3Be2Ru5
_symmetry_space_group_name_H-M   'P 1'
_cell_length_a   9.38132000
_cell_length_b   9.38132000
_cell_length_c   3.15771000
_cell_angle_alpha   90.00000000
_cell_angle_beta   90.00000000
_cell_angle_gamma   90.00000000
_symmetry_Int_Tables_number   1
_chemical_formula_structural   Ta3Be2Ru5
_chemical_formula_sum   'Ta6 Be4 Ru10'
_cell_volume   277.90742023
_cell_formula_units_Z   2
loop_
 _symmetry_equiv_pos_site_id
 _symmetry_equiv_pos_as_xyz
  1  'x, y, z'
loop_
 _atom_site_type_symbol
 _atom_site_label
 _atom_site_symmetry_multiplicity
 _atom_site_fract_x
 _atom_site_fract_y
 _atom_site_fract_z
 _atom_site_occupancy
  Ta  Ta0  1  0.825196  0.674804  0.000000  1
  Ta  Ta1  1  0.174804  0.325196  0.000000  1
  Ta  Ta2  1  0.325196  0.825196  0.000000  1
  Ta  Ta3  1  0.674804  0.174804  0.000000  1
  Ta  Ta4  1  0.500000  0.500000  0.000000  1
  Ta  Ta5  1  0.000000  0.000000  0.000000  1
  Be  Be6  1  0.620872  0.879128  0.000000  1
  Be  Be7  1  0.379128  0.120872  0.000000  1
  Be  Be8  1  0.120872  0.620872  0.000000  1
  Be  Be9  1  0.879128  0.379128  0.000000  1
  Ru  Ru10  1  0.573076  0.711717  0.500000  1
  Ru  Ru11  1  0.426924  0.288283  0.500000  1
  Ru  Ru12  1  0.073076  0.788283  0.500000  1
  Ru  Ru13  1  0.926924  0.211717  0.500000  1
  Ru  Ru14  1  0.288283  0.573076  0.500000  1
  Ru  Ru15  1  0.711717  0.426924  0.500000  1
  Ru  Ru16  1  0.211717  0.073076  0.500000  1
  Ru  Ru17  1  0.788283  0.926924  0.500000  1
  Ru  Ru18  1  0.500000  0.000000  0.500000  1
  Ru  Ru19  1  0.000000  0.500000  0.500000  1
