# generated using pymatgen
data_Tb11Nd5MgAg3Pt4
_symmetry_space_group_name_H-M   'P 1'
_cell_length_a   9.73171838
_cell_length_b   9.75367596
_cell_length_c   9.75367659
_cell_angle_alpha   60.25326932
_cell_angle_beta   60.09196382
_cell_angle_gamma   60.09197119
_symmetry_Int_Tables_number   1
_chemical_formula_structural   Tb11Nd5MgAg3Pt4
_chemical_formula_sum   'Tb11 Nd5 Mg1 Ag3 Pt4'
_cell_volume   656.81070137
_cell_formula_units_Z   1
loop_
 _symmetry_equiv_pos_site_id
 _symmetry_equiv_pos_as_xyz
  1  'x, y, z'
loop_
 _atom_site_type_symbol
 _atom_site_label
 _atom_site_symmetry_multiplicity
 _atom_site_fract_x
 _atom_site_fract_y
 _atom_site_fract_z
 _atom_site_occupancy
  Tb  Tb0  1  0.350699  0.349625  0.349625  1
  Tb  Tb1  1  0.352938  0.353510  0.945635  1
  Tb  Tb2  1  0.352938  0.945635  0.353510  1
  Tb  Tb3  1  0.930866  0.357860  0.357860  1
  Tb  Tb4  1  0.810341  0.189778  0.189778  1
  Tb  Tb5  1  0.184801  0.813106  0.813106  1
  Tb  Tb6  1  0.185049  0.813246  0.188986  1
  Tb  Tb7  1  0.811236  0.187010  0.810309  1
  Tb  Tb8  1  0.185049  0.188986  0.813246  1
  Tb  Tb9  1  0.811236  0.810309  0.187010  1
  Tb  Tb10  1  0.936334  0.561786  0.561786  1
  Nd  Nd11  1  0.560443  0.937392  0.937392  1
  Nd  Nd12  1  0.563263  0.936089  0.564307  1
  Nd  Nd13  1  0.937505  0.562857  0.933789  1
  Nd  Nd14  1  0.563263  0.564307  0.936089  1
  Nd  Nd15  1  0.937505  0.933789  0.562857  1
  Mg  Mg16  1  0.289032  0.569516  0.569516  1
  Ag  Ag17  1  0.584418  0.583562  0.583562  1
  Ag  Ag18  1  0.579949  0.584115  0.252189  1
  Ag  Ag19  1  0.579949  0.252189  0.584115  1
  Pt  Pt20  1  0.142399  0.145822  0.145822  1
  Pt  Pt21  1  0.140047  0.147124  0.569240  1
  Pt  Pt22  1  0.140047  0.569240  0.147124  1
  Pt  Pt23  1  0.570696  0.143149  0.143149  1
