# generated using pymatgen
data_Yb6Mn3CrC12
_symmetry_space_group_name_H-M   'P 1'
_cell_length_a   8.04972700
_cell_length_b   8.04972755
_cell_length_c   5.00935300
_cell_angle_alpha   90.00000000
_cell_angle_beta   90.00000000
_cell_angle_gamma   119.99999363
_symmetry_Int_Tables_number   1
_chemical_formula_structural   Yb6Mn3CrC12
_chemical_formula_sum   'Yb6 Mn3 Cr1 C12'
_cell_volume   281.10892201
_cell_formula_units_Z   1
loop_
 _symmetry_equiv_pos_site_id
 _symmetry_equiv_pos_as_xyz
  1  'x, y, z'
loop_
 _atom_site_type_symbol
 _atom_site_label
 _atom_site_symmetry_multiplicity
 _atom_site_fract_x
 _atom_site_fract_y
 _atom_site_fract_z
 _atom_site_occupancy
  Yb  Yb0  1  0.608814  0.685752  0.748345  1
  Yb  Yb1  1  0.923062  0.608814  0.251655  1
  Yb  Yb2  1  0.685752  0.076938  0.251655  1
  Yb  Yb3  1  0.314248  0.923062  0.748345  1
  Yb  Yb4  1  0.076938  0.391186  0.748345  1
  Yb  Yb5  1  0.391186  0.314248  0.251655  1
  Mn  Mn6  1  0.000000  0.000000  0.000000  1
  Mn  Mn7  1  0.666667  0.333333  0.752332  1
  Mn  Mn8  1  0.333333  0.666667  0.247668  1
  Cr  Cr9  1  0.000000  0.000000  0.500000  1
  C  C10  1  0.952912  0.773547  0.747511  1
  C  C11  1  0.179366  0.952912  0.252489  1
  C  C12  1  0.773547  0.820634  0.252489  1
  C  C13  1  0.226453  0.179366  0.747511  1
  C  C14  1  0.820634  0.047088  0.747511  1
  C  C15  1  0.047088  0.226453  0.252489  1
  C  C16  1  0.856661  0.580095  0.752503  1
  C  C17  1  0.276567  0.856661  0.247497  1
  C  C18  1  0.580095  0.723433  0.247497  1
  C  C19  1  0.419905  0.276567  0.752503  1
  C  C20  1  0.143339  0.419905  0.247497  1
  C  C21  1  0.723433  0.143339  0.752503  1
