# generated using pymatgen
data_Gd5(RhO6)2
_symmetry_space_group_name_H-M   'P 1'
_cell_length_a   6.96037114
_cell_length_b   6.96037122
_cell_length_c   7.51379100
_cell_angle_alpha   74.26443062
_cell_angle_beta   74.26442189
_cell_angle_gamma   50.24985152
_symmetry_Int_Tables_number   1
_chemical_formula_structural   Gd5(RhO6)2
_chemical_formula_sum   'Gd5 Rh2 O12'
_cell_volume   267.02171470
_cell_formula_units_Z   1
loop_
 _symmetry_equiv_pos_site_id
 _symmetry_equiv_pos_as_xyz
  1  'x, y, z'
loop_
 _atom_site_type_symbol
 _atom_site_label
 _atom_site_symmetry_multiplicity
 _atom_site_fract_x
 _atom_site_fract_y
 _atom_site_fract_z
 _atom_site_occupancy
  Gd  Gd0  1  0.696017  0.696017  0.641485  1
  Gd  Gd1  1  0.690759  0.690759  0.169062  1
  Gd  Gd2  1  0.000000  0.000000  0.500000  1
  Gd  Gd3  1  0.309241  0.309241  0.830938  1
  Gd  Gd4  1  0.303983  0.303983  0.358515  1
  Rh  Rh5  1  0.246025  0.753975  0.000000  1
  Rh  Rh6  1  0.753975  0.246025  0.000000  1
  O  O7  1  0.999703  0.999703  0.180639  1
  O  O8  1  0.902016  0.426798  0.916999  1
  O  O9  1  0.426798  0.902016  0.916999  1
  O  O10  1  0.903867  0.402931  0.424838  1
  O  O11  1  0.402931  0.903867  0.424838  1
  O  O12  1  0.500050  0.500050  0.814857  1
  O  O13  1  0.499950  0.499950  0.185143  1
  O  O14  1  0.096133  0.597069  0.575162  1
  O  O15  1  0.597069  0.096133  0.575162  1
  O  O16  1  0.097984  0.573202  0.083001  1
  O  O17  1  0.573202  0.097984  0.083001  1
  O  O18  1  0.000297  0.000297  0.819361  1
