# generated using pymatgen
data_LiPa2B8Os
_symmetry_space_group_name_H-M   'P 1'
_cell_length_a   5.91494620
_cell_length_b   5.91494750
_cell_length_c   3.62367700
_cell_angle_alpha   90.00000000
_cell_angle_beta   90.00000000
_cell_angle_gamma   104.17295753
_symmetry_Int_Tables_number   1
_chemical_formula_structural   LiPa2B8Os
_chemical_formula_sum   'Li1 Pa2 B8 Os1'
_cell_volume   122.92106675
_cell_formula_units_Z   1
loop_
 _symmetry_equiv_pos_site_id
 _symmetry_equiv_pos_as_xyz
  1  'x, y, z'
loop_
 _atom_site_type_symbol
 _atom_site_label
 _atom_site_symmetry_multiplicity
 _atom_site_fract_x
 _atom_site_fract_y
 _atom_site_fract_z
 _atom_site_occupancy
  Li  Li0  1  0.179582  0.179582  0.000000  1
  Pa  Pa1  1  0.299453  0.696298  0.000000  1
  Pa  Pa2  1  0.696298  0.299453  0.000000  1
  B  B3  1  0.382832  0.064328  0.500000  1
  B  B4  1  0.617268  0.932976  0.500000  1
  B  B5  1  0.064328  0.382832  0.500000  1
  B  B6  1  0.932976  0.617268  0.500000  1
  B  B7  1  0.377044  0.377044  0.500000  1
  B  B8  1  0.622912  0.622912  0.500000  1
  B  B9  1  0.091123  0.906460  0.500000  1
  B  B10  1  0.906460  0.091123  0.500000  1
  Os  Os11  1  0.829725  0.829725  0.000000  1
