# generated using pymatgen
data_Hf12Co5Tc6Ru
_symmetry_space_group_name_H-M   'P 1'
_cell_length_a   4.54729500
_cell_length_b   6.44563900
_cell_length_c   13.66449700
_cell_angle_alpha   90.00000000
_cell_angle_beta   89.99765415
_cell_angle_gamma   90.00000000
_symmetry_Int_Tables_number   1
_chemical_formula_structural   Hf12Co5Tc6Ru
_chemical_formula_sum   'Hf12 Co5 Tc6 Ru1'
_cell_volume   400.50944037
_cell_formula_units_Z   1
loop_
 _symmetry_equiv_pos_site_id
 _symmetry_equiv_pos_as_xyz
  1  'x, y, z'
loop_
 _atom_site_type_symbol
 _atom_site_label
 _atom_site_symmetry_multiplicity
 _atom_site_fract_x
 _atom_site_fract_y
 _atom_site_fract_z
 _atom_site_occupancy
  Hf  Hf0  1  0.500001  0.251004  0.000000  1
  Hf  Hf1  1  0.500001  0.748996  0.000000  1
  Hf  Hf2  1  0.999739  0.251217  0.166980  1
  Hf  Hf3  1  0.999739  0.748784  0.166980  1
  Hf  Hf4  1  0.499741  0.249316  0.333298  1
  Hf  Hf5  1  0.499741  0.750685  0.333298  1
  Hf  Hf6  1  0.000000  0.250411  0.500000  1
  Hf  Hf7  1  0.000000  0.749590  0.500000  1
  Hf  Hf8  1  0.500259  0.249316  0.666702  1
  Hf  Hf9  1  0.500259  0.750685  0.666702  1
  Hf  Hf10  1  0.000260  0.251217  0.833019  1
  Hf  Hf11  1  0.000260  0.748784  0.833019  1
  Co  Co12  1  0.499524  0.500000  0.167216  1
  Co  Co13  1  0.999533  0.000000  0.333480  1
  Co  Co14  1  0.500001  0.500000  0.500000  1
  Co  Co15  1  0.000467  0.000000  0.666520  1
  Co  Co16  1  0.500476  0.500000  0.832784  1
  Tc  Tc17  1  0.000000  0.500000  0.000000  1
  Tc  Tc18  1  0.499713  0.000000  0.168623  1
  Tc  Tc19  1  0.999687  0.500000  0.334103  1
  Tc  Tc20  1  0.500001  0.000000  0.500000  1
  Tc  Tc21  1  0.000313  0.500000  0.665897  1
  Tc  Tc22  1  0.500287  0.000000  0.831377  1
  Ru  Ru23  1  0.000000  0.000000  0.000000  1
