# generated using pymatgen
data_NdPuTc2F14
_symmetry_space_group_name_H-M   'P 1'
_cell_length_a   5.73563700
_cell_length_b   9.22727020
_cell_length_c   12.38786200
_cell_angle_alpha   62.10103163
_cell_angle_beta   90.00000000
_cell_angle_gamma   90.00000000
_symmetry_Int_Tables_number   1
_chemical_formula_structural   NdPuTc2F14
_chemical_formula_sum   'Nd2 Pu2 Tc4 F28'
_cell_volume   579.41869314
_cell_formula_units_Z   2
loop_
 _symmetry_equiv_pos_site_id
 _symmetry_equiv_pos_as_xyz
  1  'x, y, z'
loop_
 _atom_site_type_symbol
 _atom_site_label
 _atom_site_symmetry_multiplicity
 _atom_site_fract_x
 _atom_site_fract_y
 _atom_site_fract_z
 _atom_site_occupancy
  Nd  Nd0  1  0.758926  0.811413  0.764491  1
  Nd  Nd1  1  0.258926  0.188587  0.735509  1
  Pu  Pu2  1  0.242440  0.188396  0.234795  1
  Pu  Pu3  1  0.742440  0.811604  0.265205  1
  Tc  Tc4  1  0.756437  0.273786  0.957216  1
  Tc  Tc5  1  0.256437  0.726214  0.542784  1
  Tc  Tc6  1  0.244072  0.726599  0.041833  1
  Tc  Tc7  1  0.744072  0.273401  0.458167  1
  F  F8  1  0.443416  0.709321  0.919315  1
  F  F9  1  0.943416  0.290679  0.580685  1
  F  F10  1  0.555586  0.289373  0.080267  1
  F  F11  1  0.055586  0.710627  0.419733  1
  F  F12  1  0.459066  0.282119  0.544782  1
  F  F13  1  0.959066  0.717881  0.955218  1
  F  F14  1  0.540900  0.719642  0.454355  1
  F  F15  1  0.040900  0.280358  0.045645  1
  F  F16  1  0.766634  0.514360  0.861411  1
  F  F17  1  0.266634  0.485640  0.638589  1
  F  F18  1  0.234206  0.485482  0.138171  1
  F  F19  1  0.734206  0.514518  0.361829  1
  F  F20  1  0.758848  0.033616  0.053280  1
  F  F21  1  0.258848  0.966384  0.446720  1
  F  F22  1  0.241381  0.966757  0.948033  1
  F  F23  1  0.741381  0.033243  0.551967  1
  F  F24  1  0.980913  0.730918  0.635511  1
  F  F25  1  0.480913  0.269082  0.864489  1
  F  F26  1  0.020675  0.268835  0.365625  1
  F  F27  1  0.520675  0.731165  0.134375  1
  F  F28  1  0.047759  0.744298  0.166686  1
  F  F29  1  0.547759  0.255702  0.333314  1
  F  F30  1  0.952769  0.256765  0.832728  1
  F  F31  1  0.452769  0.743235  0.667272  1
  F  F32  1  0.408509  0.968613  0.230282  1
  F  F33  1  0.908509  0.031387  0.269718  1
  F  F34  1  0.587465  0.030713  0.769110  1
  F  F35  1  0.087465  0.969287  0.730890  1
