# generated using pymatgen
data_TaAl(SeO3)4
_symmetry_space_group_name_H-M   'P 1'
_cell_length_a   8.16265000
_cell_length_b   8.24843010
_cell_length_c   8.23593886
_cell_angle_alpha   90.73498932
_cell_angle_beta   90.00000000
_cell_angle_gamma   90.00000000
_symmetry_Int_Tables_number   1
_chemical_formula_structural   TaAl(SeO3)4
_chemical_formula_sum   'Ta2 Al2 Se8 O24'
_cell_volume   554.47229808
_cell_formula_units_Z   2
loop_
 _symmetry_equiv_pos_site_id
 _symmetry_equiv_pos_as_xyz
  1  'x, y, z'
loop_
 _atom_site_type_symbol
 _atom_site_label
 _atom_site_symmetry_multiplicity
 _atom_site_fract_x
 _atom_site_fract_y
 _atom_site_fract_z
 _atom_site_occupancy
  Ta  Ta0  1  0.000000  0.500000  0.000000  1
  Ta  Ta1  1  0.500000  0.500000  0.500000  1
  Al  Al2  1  0.000000  0.000000  0.500000  1
  Al  Al3  1  0.500000  0.000000  0.000000  1
  Se  Se4  1  0.330212  0.701431  0.166205  1
  Se  Se5  1  0.830212  0.298569  0.333795  1
  Se  Se6  1  0.690610  0.844918  0.692331  1
  Se  Se7  1  0.190610  0.155082  0.807669  1
  Se  Se8  1  0.669788  0.298569  0.833795  1
  Se  Se9  1  0.169788  0.701431  0.666205  1
  Se  Se10  1  0.309390  0.155082  0.307669  1
  Se  Se11  1  0.809390  0.844918  0.192331  1
  O  O12  1  0.234329  0.546293  0.052942  1
  O  O13  1  0.734329  0.453707  0.447058  1
  O  O14  1  0.771465  0.965360  0.545924  1
  O  O15  1  0.271465  0.034640  0.954076  1
  O  O16  1  0.544934  0.972063  0.772694  1
  O  O17  1  0.464781  0.576953  0.272788  1
  O  O18  1  0.964781  0.423047  0.227212  1
  O  O19  1  0.044934  0.027937  0.727306  1
  O  O20  1  0.958720  0.228975  0.478335  1
  O  O21  1  0.559198  0.722474  0.567969  1
  O  O22  1  0.458720  0.771025  0.021665  1
  O  O23  1  0.059198  0.277526  0.932031  1
  O  O24  1  0.765671  0.453707  0.947058  1
  O  O25  1  0.265671  0.546293  0.552942  1
  O  O26  1  0.228535  0.034640  0.454076  1
  O  O27  1  0.728535  0.965360  0.045924  1
  O  O28  1  0.455066  0.027937  0.227306  1
  O  O29  1  0.535219  0.423047  0.727212  1
  O  O30  1  0.035219  0.576953  0.772788  1
  O  O31  1  0.955066  0.972063  0.272694  1
  O  O32  1  0.041280  0.771025  0.521665  1
  O  O33  1  0.440802  0.277526  0.432031  1
  O  O34  1  0.541280  0.228975  0.978335  1
  O  O35  1  0.940802  0.722474  0.067969  1
