# generated using pymatgen
data_SrNb8CuS16
_symmetry_space_group_name_H-M   'P 1'
_cell_length_a   6.65683000
_cell_length_b   6.65683146
_cell_length_c   13.61597800
_cell_angle_alpha   90.00000000
_cell_angle_beta   90.00000000
_cell_angle_gamma   120.00000267
_symmetry_Int_Tables_number   1
_chemical_formula_structural   SrNb8CuS16
_chemical_formula_sum   'Sr1 Nb8 Cu1 S16'
_cell_volume   522.53392144
_cell_formula_units_Z   1
loop_
 _symmetry_equiv_pos_site_id
 _symmetry_equiv_pos_as_xyz
  1  'x, y, z'
loop_
 _atom_site_type_symbol
 _atom_site_label
 _atom_site_symmetry_multiplicity
 _atom_site_fract_x
 _atom_site_fract_y
 _atom_site_fract_z
 _atom_site_occupancy
  Sr  Sr0  1  0.000000  0.000000  0.000000  1
  Nb  Nb1  1  0.000000  0.000000  0.277326  1
  Nb  Nb2  1  0.000000  0.000000  0.722674  1
  Nb  Nb3  1  0.505641  0.011282  0.276539  1
  Nb  Nb4  1  0.494359  0.988718  0.723461  1
  Nb  Nb5  1  0.988718  0.494359  0.276539  1
  Nb  Nb6  1  0.011282  0.505641  0.723461  1
  Nb  Nb7  1  0.505641  0.494359  0.276539  1
  Nb  Nb8  1  0.494359  0.505641  0.723461  1
  Cu  Cu9  1  0.000000  0.000000  0.500000  1
  S  S10  1  0.333334  0.666667  0.605739  1
  S  S11  1  0.666666  0.333333  0.394261  1
  S  S12  1  0.666666  0.333333  0.156039  1
  S  S13  1  0.333334  0.666667  0.843961  1
  S  S14  1  0.168431  0.336862  0.161732  1
  S  S15  1  0.831569  0.663138  0.838268  1
  S  S16  1  0.663137  0.831569  0.161732  1
  S  S17  1  0.830488  0.660976  0.609930  1
  S  S18  1  0.336863  0.168431  0.838268  1
  S  S19  1  0.169512  0.339024  0.390070  1
  S  S20  1  0.168431  0.831570  0.161732  1
  S  S21  1  0.339024  0.169512  0.609930  1
  S  S22  1  0.831569  0.168430  0.838268  1
  S  S23  1  0.660976  0.830488  0.390070  1
  S  S24  1  0.830488  0.169512  0.609930  1
  S  S25  1  0.169512  0.830488  0.390070  1
