# generated using pymatgen
data_DyEr2Fe9
_symmetry_space_group_name_H-M   'P 1'
_cell_length_a   8.60127935
_cell_length_b   8.60127906
_cell_length_c   8.60127883
_cell_angle_alpha   34.36730272
_cell_angle_beta   34.36730463
_cell_angle_gamma   34.36730014
_symmetry_Int_Tables_number   1
_chemical_formula_structural   DyEr2Fe9
_chemical_formula_sum   'Dy1 Er2 Fe9'
_cell_volume   180.85840474
_cell_formula_units_Z   1
loop_
 _symmetry_equiv_pos_site_id
 _symmetry_equiv_pos_as_xyz
  1  'x, y, z'
loop_
 _atom_site_type_symbol
 _atom_site_label
 _atom_site_symmetry_multiplicity
 _atom_site_fract_x
 _atom_site_fract_y
 _atom_site_fract_z
 _atom_site_occupancy
  Dy  Dy0  1  0.000000  0.000000  0.000000  1
  Er  Er1  1  0.142052  0.142052  0.142052  1
  Er  Er2  1  0.857948  0.857948  0.857948  1
  Fe  Fe3  1  0.418136  0.418136  0.917500  1
  Fe  Fe4  1  0.917500  0.418136  0.418136  1
  Fe  Fe5  1  0.581864  0.082500  0.581864  1
  Fe  Fe6  1  0.581864  0.581864  0.082500  1
  Fe  Fe7  1  0.418136  0.917500  0.418136  1
  Fe  Fe8  1  0.082500  0.581864  0.581864  1
  Fe  Fe9  1  0.332637  0.332637  0.332637  1
  Fe  Fe10  1  0.667363  0.667363  0.667363  1
  Fe  Fe11  1  0.500000  0.500000  0.500000  1
