# generated using pymatgen
data_Ba2Zn(GeRh2)3
_symmetry_space_group_name_H-M   'P 1'
_cell_length_a   6.88649409
_cell_length_b   6.88706128
_cell_length_c   6.88649300
_cell_angle_alpha   130.43171573
_cell_angle_beta   113.41538889
_cell_angle_gamma   87.36429707
_symmetry_Int_Tables_number   1
_chemical_formula_structural   Ba2Zn(GeRh2)3
_chemical_formula_sum   'Ba2 Zn1 Ge3 Rh6'
_cell_volume   217.40111702
_cell_formula_units_Z   1
loop_
 _symmetry_equiv_pos_site_id
 _symmetry_equiv_pos_as_xyz
  1  'x, y, z'
loop_
 _atom_site_type_symbol
 _atom_site_label
 _atom_site_symmetry_multiplicity
 _atom_site_fract_x
 _atom_site_fract_y
 _atom_site_fract_z
 _atom_site_occupancy
  Ba  Ba0  1  0.747630  0.003393  0.255763  1
  Ba  Ba1  1  0.253363  0.998311  0.744948  1
  Zn  Zn2  1  0.584071  0.342136  0.758065  1
  Ge  Ge3  1  0.424927  0.666745  0.241818  1
  Ge  Ge4  1  0.081668  0.324968  0.243300  1
  Ge  Ge5  1  0.907034  0.663591  0.756557  1
  Rh  Rh6  1  0.236432  0.502450  0.739835  1
  Rh  Rh7  1  0.754519  0.996658  0.752160  1
  Rh  Rh8  1  0.762615  0.502450  0.266018  1
  Rh  Rh9  1  0.244498  0.996658  0.242139  1
  Rh  Rh10  1  0.489429  0.501321  0.487506  1
  Rh  Rh11  1  0.013815  0.501321  0.011892  1
