# generated using pymatgen
data_VSb2RuF20
_symmetry_space_group_name_H-M   'P 1'
_cell_length_a   5.61967194
_cell_length_b   7.59723624
_cell_length_c   10.04385657
_cell_angle_alpha   87.81080756
_cell_angle_beta   105.77015100
_cell_angle_gamma   98.67759181
_symmetry_Int_Tables_number   1
_chemical_formula_structural   VSb2RuF20
_chemical_formula_sum   'V1 Sb2 Ru1 F20'
_cell_volume   407.94591325
_cell_formula_units_Z   1
loop_
 _symmetry_equiv_pos_site_id
 _symmetry_equiv_pos_as_xyz
  1  'x, y, z'
loop_
 _atom_site_type_symbol
 _atom_site_label
 _atom_site_symmetry_multiplicity
 _atom_site_fract_x
 _atom_site_fract_y
 _atom_site_fract_z
 _atom_site_occupancy
  V  V0  1  0.343146  0.393046  0.222884  1
  Sb  Sb1  1  0.964209  0.764831  0.313222  1
  Sb  Sb2  1  0.033300  0.227655  0.685061  1
  Ru  Ru3  1  0.652142  0.596679  0.772810  1
  F  F4  1  0.048123  0.270003  0.174275  1
  F  F5  1  0.965038  0.727383  0.826551  1
  F  F6  1  0.495373  0.245123  0.163052  1
  F  F7  1  0.502446  0.757751  0.840654  1
  F  F8  1  0.110774  0.234118  0.880114  1
  F  F9  1  0.888400  0.773277  0.118034  1
  F  F10  1  0.964016  0.284158  0.495444  1
  F  F11  1  0.035055  0.708985  0.503622  1
  F  F12  1  0.756046  0.049005  0.665302  1
  F  F13  1  0.241352  0.946463  0.336294  1
  F  F14  1  0.272301  0.081034  0.680726  1
  F  F15  1  0.732759  0.917011  0.321889  1
  F  F16  1  0.304884  0.444712  0.706382  1
  F  F17  1  0.688031  0.555136  0.288612  1
  F  F18  1  0.800578  0.409385  0.689481  1
  F  F19  1  0.185464  0.582610  0.303039  1
  F  F20  1  0.703179  0.461290  0.935175  1
  F  F21  1  0.308678  0.542035  0.083489  1
  F  F22  1  0.581006  0.694038  0.595992  1
  F  F23  1  0.423699  0.334272  0.397896  1
