# generated using pymatgen
data_La3Sm5(Si3Ir)4
_symmetry_space_group_name_H-M   'P 1'
_cell_length_a   8.24619600
_cell_length_b   8.24619667
_cell_length_c   8.56549400
_cell_angle_alpha   90.00000000
_cell_angle_beta   90.00000000
_cell_angle_gamma   119.99999729
_symmetry_Int_Tables_number   1
_chemical_formula_structural   La3Sm5(Si3Ir)4
_chemical_formula_sum   'La3 Sm5 Si12 Ir4'
_cell_volume   504.41779642
_cell_formula_units_Z   1
loop_
 _symmetry_equiv_pos_site_id
 _symmetry_equiv_pos_as_xyz
  1  'x, y, z'
loop_
 _atom_site_type_symbol
 _atom_site_label
 _atom_site_symmetry_multiplicity
 _atom_site_fract_x
 _atom_site_fract_y
 _atom_site_fract_z
 _atom_site_occupancy
  La  La0  1  0.499210  0.500790  0.750000  1
  La  La1  1  0.499210  0.998417  0.750000  1
  La  La2  1  0.001583  0.500790  0.750000  1
  Sm  Sm3  1  0.000000  0.000000  0.250000  1
  Sm  Sm4  1  0.000000  0.000000  0.750000  1
  Sm  Sm5  1  0.500456  0.499544  0.250000  1
  Sm  Sm6  1  0.500456  0.000912  0.250000  1
  Sm  Sm7  1  0.999088  0.499544  0.250000  1
  Si  Si8  1  0.166251  0.833749  0.495653  1
  Si  Si9  1  0.166251  0.332503  0.495653  1
  Si  Si10  1  0.667497  0.833749  0.495653  1
  Si  Si11  1  0.833653  0.166347  0.495501  1
  Si  Si12  1  0.833653  0.667306  0.495501  1
  Si  Si13  1  0.332694  0.166347  0.495501  1
  Si  Si14  1  0.833653  0.166347  0.004499  1
  Si  Si15  1  0.833653  0.667306  0.004499  1
  Si  Si16  1  0.332694  0.166347  0.004499  1
  Si  Si17  1  0.166251  0.833749  0.004347  1
  Si  Si18  1  0.166251  0.332503  0.004347  1
  Si  Si19  1  0.667497  0.833749  0.004347  1
  Ir  Ir20  1  0.333333  0.666667  0.491383  1
  Ir  Ir21  1  0.666667  0.333333  0.493779  1
  Ir  Ir22  1  0.666667  0.333333  0.006221  1
  Ir  Ir23  1  0.333333  0.666667  0.008617  1
