# generated using pymatgen
data_Dy2Y4Al19Si5Os8
_symmetry_space_group_name_H-M   'P 1'
_cell_length_a   8.71750009
_cell_length_b   8.70070280
_cell_length_c   9.59156400
_cell_angle_alpha   90.00000000
_cell_angle_beta   90.00000000
_cell_angle_gamma   120.06405906
_symmetry_Int_Tables_number   1
_chemical_formula_structural   Dy2Y4Al19Si5Os8
_chemical_formula_sum   'Dy2 Y4 Al19 Si5 Os8'
_cell_volume   629.63035194
_cell_formula_units_Z   1
loop_
 _symmetry_equiv_pos_site_id
 _symmetry_equiv_pos_as_xyz
  1  'x, y, z'
loop_
 _atom_site_type_symbol
 _atom_site_label
 _atom_site_symmetry_multiplicity
 _atom_site_fract_x
 _atom_site_fract_y
 _atom_site_fract_z
 _atom_site_occupancy
  Dy  Dy0  1  0.198551  0.806671  0.250000  1
  Dy  Dy1  1  0.806274  0.195491  0.750000  1
  Y  Y2  1  0.194298  0.388713  0.250000  1
  Y  Y3  1  0.806108  0.612074  0.750000  1
  Y  Y4  1  0.608463  0.806632  0.250000  1
  Y  Y5  1  0.388784  0.195037  0.750000  1
  Al  Al6  1  0.164788  0.329604  0.577853  1
  Al  Al7  1  0.834523  0.668891  0.422405  1
  Al  Al8  1  0.669675  0.835400  0.576374  1
  Al  Al9  1  0.834523  0.668891  0.077595  1
  Al  Al10  1  0.329335  0.165520  0.422588  1
  Al  Al11  1  0.164788  0.329604  0.922147  1
  Al  Al12  1  0.165638  0.835266  0.576043  1
  Al  Al13  1  0.329335  0.165520  0.077412  1
  Al  Al14  1  0.836096  0.165538  0.422938  1
  Al  Al15  1  0.669675  0.835400  0.923626  1
  Al  Al16  1  0.836096  0.165538  0.077062  1
  Al  Al17  1  0.165638  0.835266  0.923957  1
  Al  Al18  1  0.437468  0.874706  0.750000  1
  Al  Al19  1  0.872821  0.433437  0.250000  1
  Al  Al20  1  0.128245  0.564886  0.750000  1
  Al  Al21  1  0.560510  0.433371  0.250000  1
  Al  Al22  1  0.436829  0.564839  0.750000  1
  Al  Al23  1  0.999826  0.998648  0.250000  1
  Al  Al24  1  0.000011  0.000965  0.750000  1
  Si  Si25  1  0.332429  0.664898  0.036705  1
  Si  Si26  1  0.667177  0.334428  0.961367  1
  Si  Si27  1  0.667177  0.334428  0.538633  1
  Si  Si28  1  0.332429  0.664898  0.463295  1
  Si  Si29  1  0.564018  0.128163  0.250000  1
  Os  Os30  1  0.500722  0.001558  0.006206  1
  Os  Os31  1  0.999007  0.498925  0.000261  1
  Os  Os32  1  0.500722  0.001558  0.493794  1
  Os  Os33  1  0.499969  0.499018  0.000296  1
  Os  Os34  1  0.999007  0.498925  0.499739  1
  Os  Os35  1  0.499969  0.499018  0.499704  1
  Os  Os36  1  0.999539  0.999137  0.000134  1
  Os  Os37  1  0.999539  0.999137  0.499866  1
