# generated using pymatgen
data_Y4Er8ZnNi4Bi
_symmetry_space_group_name_H-M   'P 1'
_cell_length_a   8.33091172
_cell_length_b   8.33091140
_cell_length_c   8.33091300
_cell_angle_alpha   109.66232693
_cell_angle_beta   111.40208842
_cell_angle_gamma   107.37432009
_symmetry_Int_Tables_number   1
_chemical_formula_structural   Y4Er8ZnNi4Bi
_chemical_formula_sum   'Y4 Er8 Zn1 Ni4 Bi1'
_cell_volume   444.54644130
_cell_formula_units_Z   1
loop_
 _symmetry_equiv_pos_site_id
 _symmetry_equiv_pos_as_xyz
  1  'x, y, z'
loop_
 _atom_site_type_symbol
 _atom_site_label
 _atom_site_symmetry_multiplicity
 _atom_site_fract_x
 _atom_site_fract_y
 _atom_site_fract_z
 _atom_site_occupancy
  Y  Y0  1  0.288436  0.180222  0.468584  1
  Y  Y1  1  0.711564  0.819778  0.531416  1
  Y  Y2  1  0.288360  0.819778  0.108214  1
  Y  Y3  1  0.711640  0.180222  0.891786  1
  Er  Er4  1  0.630012  0.321359  0.308588  1
  Er  Er5  1  0.369988  0.678641  0.691412  1
  Er  Er6  1  0.012772  0.321359  0.691348  1
  Er  Er7  1  0.987228  0.678641  0.308652  1
  Er  Er8  1  0.221652  0.424171  0.202518  1
  Er  Er9  1  0.778348  0.575829  0.797482  1
  Er  Er10  1  0.221650  0.019079  0.797429  1
  Er  Er11  1  0.778350  0.980921  0.202571  1
  Zn  Zn12  1  0.000000  0.000000  0.000000  1
  Ni  Ni13  1  0.000124  0.359976  0.359852  1
  Ni  Ni14  1  0.999876  0.640024  0.640148  1
  Ni  Ni15  1  0.374047  0.874066  0.500019  1
  Ni  Ni16  1  0.625953  0.125934  0.499981  1
  Bi  Bi17  1  0.500000  0.500000  0.000000  1
