# generated using pymatgen
data_Pr8Sm12Si15Ag
_symmetry_space_group_name_H-M   'P 1'
_cell_length_a   7.68529548
_cell_length_b   7.93171919
_cell_length_c   15.13033605
_cell_angle_alpha   89.76923236
_cell_angle_beta   89.15990379
_cell_angle_gamma   90.23863917
_symmetry_Int_Tables_number   1
_chemical_formula_structural   Pr8Sm12Si15Ag
_chemical_formula_sum   'Pr8 Sm12 Si15 Ag1'
_cell_volume   922.19420770
_cell_formula_units_Z   1
loop_
 _symmetry_equiv_pos_site_id
 _symmetry_equiv_pos_as_xyz
  1  'x, y, z'
loop_
 _atom_site_type_symbol
 _atom_site_label
 _atom_site_symmetry_multiplicity
 _atom_site_fract_x
 _atom_site_fract_y
 _atom_site_fract_z
 _atom_site_occupancy
  Pr  Pr0  1  0.017975  0.174282  0.398271  1
  Pr  Pr1  1  0.523391  0.316628  0.398809  1
  Pr  Pr2  1  0.472965  0.683859  0.900923  1
  Pr  Pr3  1  0.483851  0.686305  0.602417  1
  Pr  Pr4  1  0.975521  0.826755  0.600405  1
  Pr  Pr5  1  0.971961  0.818410  0.900667  1
  Pr  Pr6  1  0.526706  0.317135  0.098658  1
  Pr  Pr7  1  0.028495  0.182799  0.100746  1
  Sm  Sm8  1  0.331848  0.175050  0.624078  1
  Sm  Sm9  1  0.670496  0.819815  0.376747  1
  Sm  Sm10  1  0.656268  0.986907  0.749677  1
  Sm  Sm11  1  0.172908  0.676989  0.375351  1
  Sm  Sm12  1  0.820801  0.318684  0.878819  1
  Sm  Sm13  1  0.821872  0.324044  0.621595  1
  Sm  Sm14  1  0.845739  0.485891  0.252486  1
  Sm  Sm15  1  0.346333  0.009571  0.250204  1
  Sm  Sm16  1  0.319905  0.180617  0.878224  1
  Sm  Sm17  1  0.178917  0.680557  0.121806  1
  Sm  Sm18  1  0.680415  0.819572  0.121647  1
  Sm  Sm19  1  0.157279  0.512811  0.751914  1
  Si  Si20  1  0.267226  0.881312  0.751128  1
  Si  Si21  1  0.468560  0.604733  0.247589  1
  Si  Si22  1  0.032088  0.111355  0.751252  1
  Si  Si23  1  0.532995  0.394703  0.751947  1
  Si  Si24  1  0.968527  0.891886  0.248925  1
  Si  Si25  1  0.731758  0.118916  0.248302  1
  Si  Si26  1  0.858014  0.529419  0.039260  1
  Si  Si27  1  0.358514  0.970998  0.039704  1
  Si  Si28  1  0.140381  0.470447  0.961806  1
  Si  Si29  1  0.649577  0.032202  0.537553  1
  Si  Si30  1  0.348014  0.968670  0.461346  1
  Si  Si31  1  0.841447  0.532376  0.458331  1
  Si  Si32  1  0.770586  0.619574  0.752485  1
  Si  Si33  1  0.233456  0.378159  0.248817  1
  Si  Si34  1  0.640671  0.029329  0.960519  1
  Ag  Ag35  1  0.154539  0.469246  0.537592  1
