# generated using pymatgen
data_Ca2Fe2RhN3
_symmetry_space_group_name_H-M   'P 1'
_cell_length_a   6.26158395
_cell_length_b   6.26158349
_cell_length_c   6.26868667
_cell_angle_alpha   89.48307105
_cell_angle_beta   89.48305745
_cell_angle_gamma   116.30430876
_symmetry_Int_Tables_number   1
_chemical_formula_structural   Ca2Fe2RhN3
_chemical_formula_sum   'Ca4 Fe4 Rh2 N6'
_cell_volume   220.29722767
_cell_formula_units_Z   2
loop_
 _symmetry_equiv_pos_site_id
 _symmetry_equiv_pos_as_xyz
  1  'x, y, z'
loop_
 _atom_site_type_symbol
 _atom_site_label
 _atom_site_symmetry_multiplicity
 _atom_site_fract_x
 _atom_site_fract_y
 _atom_site_fract_z
 _atom_site_occupancy
  Ca  Ca0  1  0.832145  0.677657  0.893285  1
  Ca  Ca1  1  0.322343  0.167855  0.606715  1
  Ca  Ca2  1  0.167855  0.322343  0.106715  1
  Ca  Ca3  1  0.677657  0.832145  0.393285  1
  Fe  Fe4  1  0.562845  0.169232  0.105111  1
  Fe  Fe5  1  0.437155  0.830768  0.894889  1
  Fe  Fe6  1  0.830768  0.437155  0.394889  1
  Fe  Fe7  1  0.169232  0.562845  0.605111  1
  Rh  Rh8  1  0.815773  0.184227  0.750000  1
  Rh  Rh9  1  0.184227  0.815773  0.250000  1
  N  N10  1  0.420591  0.579409  0.750000  1
  N  N11  1  0.579409  0.420591  0.250000  1
  N  N12  1  0.998634  0.729452  0.524910  1
  N  N13  1  0.729452  0.998634  0.024910  1
  N  N14  1  0.001366  0.270548  0.475090  1
  N  N15  1  0.270548  0.001366  0.975090  1
