# generated using pymatgen
data_Ac3YO6
_symmetry_space_group_name_H-M   'P 1'
_cell_length_a   7.28180714
_cell_length_b   7.28180732
_cell_length_c   7.28180899
_cell_angle_alpha   92.16877795
_cell_angle_beta   92.16877697
_cell_angle_gamma   92.16877498
_symmetry_Int_Tables_number   1
_chemical_formula_structural   Ac3YO6
_chemical_formula_sum   'Ac6 Y2 O12'
_cell_volume   385.26455125
_cell_formula_units_Z   2
loop_
 _symmetry_equiv_pos_site_id
 _symmetry_equiv_pos_as_xyz
  1  'x, y, z'
loop_
 _atom_site_type_symbol
 _atom_site_label
 _atom_site_symmetry_multiplicity
 _atom_site_fract_x
 _atom_site_fract_y
 _atom_site_fract_z
 _atom_site_occupancy
  Ac  Ac0  1  0.934582  0.440885  0.746450  1
  Ac  Ac1  1  0.746450  0.934582  0.440885  1
  Ac  Ac2  1  0.559115  0.253550  0.065418  1
  Ac  Ac3  1  0.440885  0.746450  0.934582  1
  Ac  Ac4  1  0.253550  0.065418  0.559115  1
  Ac  Ac5  1  0.065418  0.559115  0.253550  1
  Y  Y6  1  0.000000  0.000000  0.000000  1
  Y  Y7  1  0.500000  0.500000  0.500000  1
  O  O8  1  0.914549  0.302487  0.062425  1
  O  O9  1  0.937575  0.085451  0.697513  1
  O  O10  1  0.802094  0.592510  0.463561  1
  O  O11  1  0.697513  0.937575  0.085451  1
  O  O12  1  0.592510  0.463561  0.802094  1
  O  O13  1  0.536439  0.197906  0.407490  1
  O  O14  1  0.463561  0.802094  0.592510  1
  O  O15  1  0.407490  0.536439  0.197906  1
  O  O16  1  0.302487  0.062425  0.914549  1
  O  O17  1  0.197906  0.407490  0.536439  1
  O  O18  1  0.062425  0.914549  0.302487  1
  O  O19  1  0.085451  0.697513  0.937575  1
