# generated using pymatgen
data_Ho16MnIn6Ag
_symmetry_space_group_name_H-M   'P 1'
_cell_length_a   10.49670600
_cell_length_b   10.49670595
_cell_length_c   6.88095600
_cell_angle_alpha   90.00000000
_cell_angle_beta   90.00000000
_cell_angle_gamma   120.00000014
_symmetry_Int_Tables_number   1
_chemical_formula_structural   Ho16MnIn6Ag
_chemical_formula_sum   'Ho16 Mn1 In6 Ag1'
_cell_volume   656.57671480
_cell_formula_units_Z   1
loop_
 _symmetry_equiv_pos_site_id
 _symmetry_equiv_pos_as_xyz
  1  'x, y, z'
loop_
 _atom_site_type_symbol
 _atom_site_label
 _atom_site_symmetry_multiplicity
 _atom_site_fract_x
 _atom_site_fract_y
 _atom_site_fract_z
 _atom_site_occupancy
  Ho  Ho0  1  0.520038  0.040079  0.520747  1
  Ho  Ho1  1  0.959921  0.479962  0.520747  1
  Ho  Ho2  1  0.520038  0.479962  0.520747  1
  Ho  Ho3  1  0.467216  0.934430  0.016487  1
  Ho  Ho4  1  0.065570  0.532784  0.016487  1
  Ho  Ho5  1  0.467216  0.532784  0.016487  1
  Ho  Ho6  1  0.174001  0.348003  0.731218  1
  Ho  Ho7  1  0.651997  0.825999  0.731218  1
  Ho  Ho8  1  0.174001  0.825999  0.731218  1
  Ho  Ho9  1  0.826835  0.653670  0.224237  1
  Ho  Ho10  1  0.346330  0.173165  0.224237  1
  Ho  Ho11  1  0.826835  0.173165  0.224237  1
  Ho  Ho12  1  0.666667  0.333333  0.874625  1
  Ho  Ho13  1  0.333333  0.666667  0.388564  1
  Ho  Ho14  1  0.000000  0.000000  0.499717  1
  Ho  Ho15  1  0.000000  0.000000  0.001728  1
  Mn  Mn16  1  0.333333  0.666667  0.775709  1
  In  In17  1  0.835175  0.670351  0.754283  1
  In  In18  1  0.329649  0.164825  0.754283  1
  In  In19  1  0.835175  0.164825  0.754283  1
  In  In20  1  0.163248  0.326494  0.259833  1
  In  In21  1  0.673506  0.836752  0.259833  1
  In  In22  1  0.163248  0.836752  0.259833  1
  Ag  Ag23  1  0.666667  0.333333  0.297247  1
