# generated using pymatgen
data_HoEr3Ga4(RuPt)2
_symmetry_space_group_name_H-M   'P 1'
_cell_length_a   4.33357600
_cell_length_b   6.82683500
_cell_length_c   7.75495000
_cell_angle_alpha   90.00299415
_cell_angle_beta   90.00000000
_cell_angle_gamma   90.00000000
_symmetry_Int_Tables_number   1
_chemical_formula_structural   HoEr3Ga4(RuPt)2
_chemical_formula_sum   'Ho1 Er3 Ga4 Ru2 Pt2'
_cell_volume   229.42715808
_cell_formula_units_Z   1
loop_
 _symmetry_equiv_pos_site_id
 _symmetry_equiv_pos_as_xyz
  1  'x, y, z'
loop_
 _atom_site_type_symbol
 _atom_site_label
 _atom_site_symmetry_multiplicity
 _atom_site_fract_x
 _atom_site_fract_y
 _atom_site_fract_z
 _atom_site_occupancy
  Ho  Ho0  1  0.250000  0.975621  0.313902  1
  Er  Er1  1  0.250000  0.475365  0.185644  1
  Er  Er2  1  0.750000  0.018711  0.695126  1
  Er  Er3  1  0.750000  0.518483  0.804878  1
  Ga  Ga4  1  0.250000  0.342713  0.573806  1
  Ga  Ga5  1  0.250000  0.841863  0.926181  1
  Ga  Ga6  1  0.750000  0.664997  0.434090  1
  Ga  Ga7  1  0.750000  0.165377  0.065949  1
  Ru  Ru8  1  0.250000  0.228400  0.892602  1
  Ru  Ru9  1  0.250000  0.728998  0.606988  1
  Pt  Pt10  1  0.750000  0.768278  0.108172  1
  Pt  Pt11  1  0.750000  0.271194  0.392663  1
