# generated using pymatgen
data_Ce3Dy3IrI10
_symmetry_space_group_name_H-M   'P 1'
_cell_length_a   7.95407780
_cell_length_b   9.97657937
_cell_length_c   10.02520500
_cell_angle_alpha   107.05482855
_cell_angle_beta   104.64841693
_cell_angle_gamma   96.86655472
_symmetry_Int_Tables_number   1
_chemical_formula_structural   Ce3Dy3IrI10
_chemical_formula_sum   'Ce3 Dy3 Ir1 I10'
_cell_volume   719.51862392
_cell_formula_units_Z   1
loop_
 _symmetry_equiv_pos_site_id
 _symmetry_equiv_pos_as_xyz
  1  'x, y, z'
loop_
 _atom_site_type_symbol
 _atom_site_label
 _atom_site_symmetry_multiplicity
 _atom_site_fract_x
 _atom_site_fract_y
 _atom_site_fract_z
 _atom_site_occupancy
  Ce  Ce0  1  0.967796  0.089977  0.294531  1
  Ce  Ce1  1  0.112153  0.767292  0.041346  1
  Ce  Ce2  1  0.885127  0.232435  0.956881  1
  Dy  Dy3  1  0.652984  0.832476  0.874574  1
  Dy  Dy4  1  0.348102  0.166389  0.121478  1
  Dy  Dy5  1  0.031092  0.912863  0.717237  1
  Ir  Ir6  1  0.999329  0.000736  0.999107  1
  I  I7  1  0.655996  0.732808  0.557775  1
  I  I8  1  0.359922  0.271343  0.442155  1
  I  I9  1  0.225901  0.662909  0.742528  1
  I  I10  1  0.765800  0.344854  0.252621  1
  I  I11  1  0.451383  0.084269  0.820991  1
  I  I12  1  0.542295  0.910298  0.173564  1
  I  I13  1  0.262061  0.454356  0.087086  1
  I  I14  1  0.736149  0.544675  0.909926  1
  I  I15  1  0.085249  0.819698  0.377305  1
  I  I16  1  0.918661  0.172622  0.630895  1
