# generated using pymatgen
data_Ho8Ti10ReSi16W
_symmetry_space_group_name_H-M   'P 1'
_cell_length_a   6.98901450
_cell_length_b   6.98901419
_cell_length_c   12.84648473
_cell_angle_alpha   90.01066057
_cell_angle_beta   89.98934339
_cell_angle_gamma   90.06717038
_symmetry_Int_Tables_number   1
_chemical_formula_structural   Ho8Ti10ReSi16W
_chemical_formula_sum   'Ho8 Ti10 Re1 Si16 W1'
_cell_volume   627.50307019
_cell_formula_units_Z   1
loop_
 _symmetry_equiv_pos_site_id
 _symmetry_equiv_pos_as_xyz
  1  'x, y, z'
loop_
 _atom_site_type_symbol
 _atom_site_label
 _atom_site_symmetry_multiplicity
 _atom_site_fract_x
 _atom_site_fract_y
 _atom_site_fract_z
 _atom_site_occupancy
  Ho  Ho0  1  0.342031  0.001340  0.467716  1
  Ho  Ho1  1  0.498908  0.839698  0.716170  1
  Ho  Ho2  1  0.501717  0.159682  0.216557  1
  Ho  Ho3  1  0.839698  0.498908  0.283830  1
  Ho  Ho4  1  0.159682  0.501717  0.783443  1
  Ho  Ho5  1  0.658204  0.998321  0.967522  1
  Ho  Ho6  1  0.001340  0.342031  0.532284  1
  Ho  Ho7  1  0.998321  0.658204  0.032478  1
  Ti  Ti8  1  0.172931  0.826334  0.250347  1
  Ti  Ti9  1  0.826334  0.172931  0.749653  1
  Ti  Ti10  1  0.153588  0.008052  0.876447  1
  Ti  Ti11  1  0.492149  0.650870  0.125355  1
  Ti  Ti12  1  0.507847  0.348589  0.625163  1
  Ti  Ti13  1  0.650870  0.492149  0.874645  1
  Ti  Ti14  1  0.348589  0.507847  0.374837  1
  Ti  Ti15  1  0.847047  0.992291  0.376370  1
  Ti  Ti16  1  0.008052  0.153588  0.123553  1
  Ti  Ti17  1  0.992291  0.847047  0.623630  1
  Re  Re18  1  0.673334  0.673334  0.500000  1
  Si  Si19  1  0.202496  0.131024  0.684216  1
  Si  Si20  1  0.369218  0.701449  0.934431  1
  Si  Si21  1  0.630241  0.299436  0.434304  1
  Si  Si22  1  0.701449  0.369218  0.065569  1
  Si  Si23  1  0.299436  0.630241  0.565696  1
  Si  Si24  1  0.797841  0.868970  0.184199  1
  Si  Si25  1  0.131024  0.202496  0.315784  1
  Si  Si26  1  0.868970  0.797841  0.815801  1
  Si  Si27  1  0.291160  0.953479  0.064849  1
  Si  Si28  1  0.548376  0.791455  0.316297  1
  Si  Si29  1  0.452508  0.207888  0.815796  1
  Si  Si30  1  0.791455  0.548376  0.683703  1
  Si  Si31  1  0.207888  0.452508  0.184204  1
  Si  Si32  1  0.709403  0.045976  0.565078  1
  Si  Si33  1  0.953479  0.291160  0.935151  1
  Si  Si34  1  0.045976  0.709403  0.434922  1
  W  W35  1  0.326147  0.326147  0.000000  1
