# generated using pymatgen
data_Yb5ZnCu2
_symmetry_space_group_name_H-M   'P 1'
_cell_length_a   8.89926700
_cell_length_b   8.89926690
_cell_length_c   8.89926653
_cell_angle_alpha   128.78560423
_cell_angle_beta   128.78560019
_cell_angle_gamma   75.35579182
_symmetry_Int_Tables_number   1
_chemical_formula_structural   Yb5ZnCu2
_chemical_formula_sum   'Yb10 Zn2 Cu4'
_cell_volume   416.79158283
_cell_formula_units_Z   2
loop_
 _symmetry_equiv_pos_site_id
 _symmetry_equiv_pos_as_xyz
  1  'x, y, z'
loop_
 _atom_site_type_symbol
 _atom_site_label
 _atom_site_symmetry_multiplicity
 _atom_site_fract_x
 _atom_site_fract_y
 _atom_site_fract_z
 _atom_site_occupancy
  Yb  Yb0  1  0.500000  0.500000  0.000000  1
  Yb  Yb1  1  0.000000  0.000000  0.000000  1
  Yb  Yb2  1  0.528113  0.028113  0.836743  1
  Yb  Yb3  1  0.191371  0.691371  0.163257  1
  Yb  Yb4  1  0.028113  0.191371  0.500000  1
  Yb  Yb5  1  0.691371  0.528113  0.500000  1
  Yb  Yb6  1  0.471887  0.971887  0.163257  1
  Yb  Yb7  1  0.808629  0.308629  0.836743  1
  Yb  Yb8  1  0.971887  0.808629  0.500000  1
  Yb  Yb9  1  0.308629  0.471887  0.500000  1
  Zn  Zn10  1  0.250000  0.250000  0.000000  1
  Zn  Zn11  1  0.750000  0.750000  0.000000  1
  Cu  Cu12  1  0.117454  0.617454  0.734909  1
  Cu  Cu13  1  0.882546  0.382546  0.265091  1
  Cu  Cu14  1  0.617454  0.882546  0.500000  1
  Cu  Cu15  1  0.382546  0.117454  0.500000  1
