# generated using pymatgen
data_TbY7(InRu)2
_symmetry_space_group_name_H-M   'P 1'
_cell_length_a   9.71063166
_cell_length_b   9.70693115
_cell_length_c   9.70645671
_cell_angle_alpha   59.65369338
_cell_angle_beta   59.75151203
_cell_angle_gamma   59.75364524
_symmetry_Int_Tables_number   1
_chemical_formula_structural   TbY7(InRu)2
_chemical_formula_sum   'Tb2 Y14 In4 Ru4'
_cell_volume   642.83543689
_cell_formula_units_Z   2
loop_
 _symmetry_equiv_pos_site_id
 _symmetry_equiv_pos_as_xyz
  1  'x, y, z'
loop_
 _atom_site_type_symbol
 _atom_site_label
 _atom_site_symmetry_multiplicity
 _atom_site_fract_x
 _atom_site_fract_y
 _atom_site_fract_z
 _atom_site_occupancy
  Tb  Tb0  1  0.707169  0.098401  0.098462  1
  Tb  Tb1  1  0.558403  0.941230  0.941225  1
  Y  Y2  1  0.099141  0.707487  0.096487  1
  Y  Y3  1  0.942017  0.941306  0.557737  1
  Y  Y4  1  0.942023  0.557758  0.941309  1
  Y  Y5  1  0.308313  0.690054  0.308467  1
  Y  Y6  1  0.939806  0.557393  0.557349  1
  Y  Y7  1  0.308307  0.308475  0.690053  1
  Y  Y8  1  0.099296  0.099544  0.099589  1
  Y  Y9  1  0.558135  0.557312  0.938959  1
  Y  Y10  1  0.099155  0.096470  0.707461  1
  Y  Y11  1  0.692263  0.306770  0.692978  1
  Y  Y12  1  0.692257  0.692977  0.306772  1
  Y  Y13  1  0.688889  0.309078  0.309063  1
  Y  Y14  1  0.308827  0.690548  0.690543  1
  Y  Y15  1  0.558163  0.938962  0.557293  1
  In  In16  1  0.332136  0.332670  0.332661  1
  In  In17  1  0.001022  0.332944  0.332944  1
  In  In18  1  0.331585  0.002167  0.333659  1
  In  In19  1  0.331579  0.333657  0.002171  1
  Ru  Ru20  1  0.884417  0.890507  0.890518  1
  Ru  Ru21  1  0.891425  0.891418  0.330564  1
  Ru  Ru22  1  0.334245  0.892292  0.892300  1
  Ru  Ru23  1  0.891426  0.330579  0.891437  1
