# generated using pymatgen
data_La4RhAu3
_symmetry_space_group_name_H-M   'P 1'
_cell_length_a   4.82197200
_cell_length_b   5.93255819
_cell_length_c   7.60770147
_cell_angle_alpha   92.47427609
_cell_angle_beta   90.00000000
_cell_angle_gamma   90.00000000
_symmetry_Int_Tables_number   1
_chemical_formula_structural   La4RhAu3
_chemical_formula_sum   'La4 Rh1 Au3'
_cell_volume   217.42780096
_cell_formula_units_Z   1
loop_
 _symmetry_equiv_pos_site_id
 _symmetry_equiv_pos_as_xyz
  1  'x, y, z'
loop_
 _atom_site_type_symbol
 _atom_site_label
 _atom_site_symmetry_multiplicity
 _atom_site_fract_x
 _atom_site_fract_y
 _atom_site_fract_z
 _atom_site_occupancy
  La  La0  1  0.250000  0.629265  0.177784  1
  La  La1  1  0.750000  0.345212  0.823371  1
  La  La2  1  0.750000  0.143425  0.302979  1
  La  La3  1  0.250000  0.858601  0.692303  1
  Rh  Rh4  1  0.250000  0.172646  0.042347  1
  Au  Au5  1  0.750000  0.848729  0.958517  1
  Au  Au6  1  0.750000  0.654593  0.461384  1
  Au  Au7  1  0.250000  0.347530  0.541315  1
