# generated using pymatgen
data_CaInAu5
_symmetry_space_group_name_H-M   'P 1'
_cell_length_a   5.84041550
_cell_length_b   5.84041564
_cell_length_c   5.84041678
_cell_angle_alpha   102.82019675
_cell_angle_beta   102.82019092
_cell_angle_gamma   123.79447921
_symmetry_Int_Tables_number   1
_chemical_formula_structural   CaInAu5
_chemical_formula_sum   'Ca1 In1 Au5'
_cell_volume   146.04011457
_cell_formula_units_Z   1
loop_
 _symmetry_equiv_pos_site_id
 _symmetry_equiv_pos_as_xyz
  1  'x, y, z'
loop_
 _atom_site_type_symbol
 _atom_site_label
 _atom_site_symmetry_multiplicity
 _atom_site_fract_x
 _atom_site_fract_y
 _atom_site_fract_z
 _atom_site_occupancy
  Ca  Ca0  1  0.000000  0.000000  0.000000  1
  In  In1  1  0.750000  0.250000  0.500000  1
  Au  Au2  1  0.305694  0.694306  0.000000  1
  Au  Au3  1  0.694306  0.305694  0.000000  1
  Au  Au4  1  0.694306  0.694306  0.388610  1
  Au  Au5  1  0.305694  0.305694  0.611390  1
  Au  Au6  1  0.250000  0.750000  0.500000  1
