# generated using pymatgen
data_Lu8Hf5Si16W7
_symmetry_space_group_name_H-M   'P 1'
_cell_length_a   6.75550027
_cell_length_b   6.98400020
_cell_length_c   13.28566130
_cell_angle_alpha   89.93985778
_cell_angle_beta   90.06774020
_cell_angle_gamma   89.87335607
_symmetry_Int_Tables_number   1
_chemical_formula_structural   Lu8Hf5Si16W7
_chemical_formula_sum   'Lu8 Hf5 Si16 W7'
_cell_volume   626.82070003
_cell_formula_units_Z   1
loop_
 _symmetry_equiv_pos_site_id
 _symmetry_equiv_pos_as_xyz
  1  'x, y, z'
loop_
 _atom_site_type_symbol
 _atom_site_label
 _atom_site_symmetry_multiplicity
 _atom_site_fract_x
 _atom_site_fract_y
 _atom_site_fract_z
 _atom_site_occupancy
  Lu  Lu0  1  0.502758  0.672116  0.597476  1
  Lu  Lu1  1  0.002649  0.828070  0.906351  1
  Lu  Lu2  1  0.497261  0.326382  0.092584  1
  Lu  Lu3  1  0.995770  0.174205  0.404487  1
  Lu  Lu4  1  0.497963  0.327601  0.403467  1
  Lu  Lu5  1  0.996569  0.175085  0.094756  1
  Lu  Lu6  1  0.502911  0.674534  0.903707  1
  Lu  Lu7  1  0.003313  0.827621  0.596255  1
  Hf  Hf8  1  0.665466  0.173234  0.625899  1
  Hf  Hf9  1  0.164159  0.330096  0.875998  1
  Hf  Hf10  1  0.336562  0.829412  0.122697  1
  Hf  Hf11  1  0.834169  0.669082  0.374408  1
  Hf  Hf12  1  0.328550  0.825068  0.373910  1
  Si  Si13  1  0.665143  0.967984  0.456668  1
  Si  Si14  1  0.154448  0.533510  0.045938  1
  Si  Si15  1  0.346083  0.033878  0.953305  1
  Si  Si16  1  0.844118  0.466723  0.546836  1
  Si  Si17  1  0.327541  0.040803  0.543826  1
  Si  Si18  1  0.826975  0.461685  0.959597  1
  Si  Si19  1  0.673413  0.962523  0.039411  1
  Si  Si20  1  0.169384  0.530741  0.465635  1
  Si  Si21  1  0.468021  0.382744  0.753124  1
  Si  Si22  1  0.968033  0.116741  0.749689  1
  Si  Si23  1  0.536039  0.612143  0.247270  1
  Si  Si24  1  0.027018  0.881440  0.245044  1
  Si  Si25  1  0.704632  0.865851  0.750739  1
  Si  Si26  1  0.203071  0.636805  0.750512  1
  Si  Si27  1  0.293048  0.139141  0.248985  1
  Si  Si28  1  0.796260  0.362919  0.247795  1
  W  W29  1  0.824464  0.669260  0.122434  1
  W  W30  1  0.674636  0.170344  0.874486  1
  W  W31  1  0.171144  0.329268  0.629900  1
  W  W32  1  0.839654  0.495027  0.751037  1
  W  W33  1  0.340410  0.008339  0.751480  1
  W  W34  1  0.159316  0.505069  0.247103  1
  W  W35  1  0.659047  0.994558  0.247193  1
