# generated using pymatgen
data_K8Ba4ZrSnP8
_symmetry_space_group_name_H-M   'P 1'
_cell_length_a   10.39332404
_cell_length_b   10.38667913
_cell_length_c   7.94459756
_cell_angle_alpha   88.93243636
_cell_angle_beta   89.06200541
_cell_angle_gamma   119.86916380
_symmetry_Int_Tables_number   1
_chemical_formula_structural   K8Ba4ZrSnP8
_chemical_formula_sum   'K8 Ba4 Zr1 Sn1 P8'
_cell_volume   743.25743615
_cell_formula_units_Z   1
loop_
 _symmetry_equiv_pos_site_id
 _symmetry_equiv_pos_as_xyz
  1  'x, y, z'
loop_
 _atom_site_type_symbol
 _atom_site_label
 _atom_site_symmetry_multiplicity
 _atom_site_fract_x
 _atom_site_fract_y
 _atom_site_fract_z
 _atom_site_occupancy
  K  K0  1  0.057857  0.527943  0.616293  1
  K  K1  1  0.527752  0.058545  0.116023  1
  K  K2  1  0.274779  0.133111  0.814105  1
  K  K3  1  0.869635  0.725568  0.772788  1
  K  K4  1  0.862160  0.144469  0.793450  1
  K  K5  1  0.723764  0.868672  0.271546  1
  K  K6  1  0.134864  0.277337  0.312457  1
  K  K7  1  0.145271  0.861947  0.292012  1
  Ba  Ba8  1  0.467720  0.941037  0.607153  1
  Ba  Ba9  1  0.466888  0.523776  0.617562  1
  Ba  Ba10  1  0.935177  0.465237  0.114089  1
  Ba  Ba11  1  0.524996  0.462721  0.119501  1
  Zr  Zr12  1  0.335963  0.668825  0.011275  1
  Sn  Sn13  1  0.669849  0.336853  0.505871  1
  P  P14  1  0.668020  0.346909  0.831363  1
  P  P15  1  0.347555  0.669024  0.334874  1
  P  P16  1  0.598628  0.793263  0.882765  1
  P  P17  1  0.203464  0.397643  0.919375  1
  P  P18  1  0.198144  0.796501  0.904115  1
  P  P19  1  0.393227  0.199962  0.417416  1
  P  P20  1  0.796589  0.605424  0.380991  1
  P  P21  1  0.797697  0.195234  0.402471  1
