# generated using pymatgen
data_Hf2Zr2Mn3Si4Ni
_symmetry_space_group_name_H-M   'P 1'
_cell_length_a   3.74333700
_cell_length_b   6.52153043
_cell_length_c   7.50202600
_cell_angle_alpha   90.19150312
_cell_angle_beta   90.00000000
_cell_angle_gamma   90.00000000
_symmetry_Int_Tables_number   1
_chemical_formula_structural   Hf2Zr2Mn3Si4Ni
_chemical_formula_sum   'Hf2 Zr2 Mn3 Si4 Ni1'
_cell_volume   183.14058257
_cell_formula_units_Z   1
loop_
 _symmetry_equiv_pos_site_id
 _symmetry_equiv_pos_as_xyz
  1  'x, y, z'
loop_
 _atom_site_type_symbol
 _atom_site_label
 _atom_site_symmetry_multiplicity
 _atom_site_fract_x
 _atom_site_fract_y
 _atom_site_fract_z
 _atom_site_occupancy
  Hf  Hf0  1  0.750000  0.017311  0.682819  1
  Hf  Hf1  1  0.750000  0.524241  0.818355  1
  Zr  Zr2  1  0.250000  0.975220  0.321933  1
  Zr  Zr3  1  0.250000  0.474722  0.180535  1
  Mn  Mn4  1  0.250000  0.862253  0.932008  1
  Mn  Mn5  1  0.750000  0.645246  0.436032  1
  Mn  Mn6  1  0.750000  0.143181  0.060776  1
  Si  Si7  1  0.250000  0.723007  0.624608  1
  Si  Si8  1  0.250000  0.228469  0.873120  1
  Si  Si9  1  0.750000  0.274881  0.388620  1
  Si  Si10  1  0.750000  0.773232  0.116840  1
  Ni  Ni11  1  0.250000  0.358237  0.564353  1
