# generated using pymatgen
data_Tm6Lu6CdCo4Rh
_symmetry_space_group_name_H-M   'P 1'
_cell_length_a   8.13610251
_cell_length_b   8.13610350
_cell_length_c   8.13395890
_cell_angle_alpha   110.98093136
_cell_angle_beta   110.89091049
_cell_angle_gamma   106.59120905
_symmetry_Int_Tables_number   1
_chemical_formula_structural   Tm6Lu6CdCo4Rh
_chemical_formula_sum   'Tm6 Lu6 Cd1 Co4 Rh1'
_cell_volume   413.64761282
_cell_formula_units_Z   1
loop_
 _symmetry_equiv_pos_site_id
 _symmetry_equiv_pos_as_xyz
  1  'x, y, z'
loop_
 _atom_site_type_symbol
 _atom_site_label
 _atom_site_symmetry_multiplicity
 _atom_site_fract_x
 _atom_site_fract_y
 _atom_site_fract_z
 _atom_site_occupancy
  Tm  Tm0  1  0.413664  0.218330  0.194284  1
  Tm  Tm1  1  0.586336  0.781670  0.805716  1
  Tm  Tm2  1  0.024046  0.219380  0.805716  1
  Tm  Tm3  1  0.975954  0.780620  0.194284  1
  Tm  Tm4  1  0.184323  0.286680  0.471004  1
  Tm  Tm5  1  0.815677  0.713320  0.528996  1
  Lu  Lu6  1  0.184591  0.713669  0.898259  1
  Lu  Lu7  1  0.815409  0.286331  0.101741  1
  Lu  Lu8  1  0.314913  0.622132  0.306351  1
  Lu  Lu9  1  0.685087  0.377868  0.693649  1
  Lu  Lu10  1  0.315780  0.008562  0.693649  1
  Lu  Lu11  1  0.684220  0.991438  0.306351  1
  Cd  Cd12  1  0.500000  0.500000  0.000000  1
  Co  Co13  1  0.374816  0.999406  0.374222  1
  Co  Co14  1  0.625184  0.000594  0.625778  1
  Co  Co15  1  0.113810  0.613810  0.500000  1
  Co  Co16  1  0.886190  0.386190  0.500000  1
  Rh  Rh17  1  0.000000  0.000000  0.000000  1
