# generated using pymatgen
data_TbY7(Ho3Pb4)4
_symmetry_space_group_name_H-M   'P 1'
_cell_length_a   8.20823206
_cell_length_b   8.28692703
_cell_length_c   15.64140215
_cell_angle_alpha   90.00850516
_cell_angle_beta   89.98663827
_cell_angle_gamma   90.00353649
_symmetry_Int_Tables_number   1
_chemical_formula_structural   TbY7(Ho3Pb4)4
_chemical_formula_sum   'Tb1 Y7 Ho12 Pb16'
_cell_volume   1063.94408728
_cell_formula_units_Z   1
loop_
 _symmetry_equiv_pos_site_id
 _symmetry_equiv_pos_as_xyz
  1  'x, y, z'
loop_
 _atom_site_type_symbol
 _atom_site_label
 _atom_site_symmetry_multiplicity
 _atom_site_fract_x
 _atom_site_fract_y
 _atom_site_fract_z
 _atom_site_occupancy
  Tb  Tb0  1  0.034203  0.176933  0.900007  1
  Y  Y1  1  0.534363  0.323220  0.899970  1
  Y  Y2  1  0.034369  0.176846  0.600062  1
  Y  Y3  1  0.465633  0.676809  0.399975  1
  Y  Y4  1  0.965646  0.823162  0.100060  1
  Y  Y5  1  0.465671  0.676863  0.100013  1
  Y  Y6  1  0.965639  0.823182  0.399964  1
  Y  Y7  1  0.534372  0.323197  0.600023  1
  Ho  Ho8  1  0.376607  0.840809  0.879321  1
  Ho  Ho9  1  0.876580  0.659105  0.620678  1
  Ho  Ho10  1  0.623417  0.159080  0.379287  1
  Ho  Ho11  1  0.123413  0.340910  0.120711  1
  Ho  Ho12  1  0.623437  0.159043  0.120691  1
  Ho  Ho13  1  0.123424  0.340902  0.379278  1
  Ho  Ho14  1  0.376571  0.840894  0.620704  1
  Ho  Ho15  1  0.876511  0.659118  0.879324  1
  Ho  Ho16  1  0.208312  0.504165  0.749996  1
  Ho  Ho17  1  0.708242  0.995759  0.749951  1
  Ho  Ho18  1  0.791728  0.495834  0.249996  1
  Ho  Ho19  1  0.291724  0.004156  0.249972  1
  Pb  Pb20  1  0.282158  0.033743  0.042805  1
  Pb  Pb21  1  0.782068  0.466175  0.457213  1
  Pb  Pb22  1  0.717954  0.966210  0.542776  1
  Pb  Pb23  1  0.218002  0.533858  0.957221  1
  Pb  Pb24  1  0.717924  0.966136  0.957246  1
  Pb  Pb25  1  0.217941  0.533801  0.542768  1
  Pb  Pb26  1  0.282068  0.033827  0.457232  1
  Pb  Pb27  1  0.782103  0.466127  0.042748  1
  Pb  Pb28  1  0.571596  0.627023  0.750005  1
  Pb  Pb29  1  0.071577  0.873016  0.750060  1
  Pb  Pb30  1  0.428418  0.372985  0.249989  1
  Pb  Pb31  1  0.928416  0.127012  0.250005  1
  Pb  Pb32  1  0.345480  0.152075  0.750011  1
  Pb  Pb33  1  0.845411  0.348024  0.749942  1
  Pb  Pb34  1  0.654515  0.847923  0.249999  1
  Pb  Pb35  1  0.154508  0.652078  0.249998  1
