# generated using pymatgen
data_Ce2HoLu(AlIr)4
_symmetry_space_group_name_H-M   'P 1'
_cell_length_a   6.81275278
_cell_length_b   4.29508400
_cell_length_c   7.92484404
_cell_angle_alpha   90.00000000
_cell_angle_beta   90.17312851
_cell_angle_gamma   90.00000000
_symmetry_Int_Tables_number   1
_chemical_formula_structural   Ce2HoLu(AlIr)4
_chemical_formula_sum   'Ce2 Ho1 Lu1 Al4 Ir4'
_cell_volume   231.89054053
_cell_formula_units_Z   1
loop_
 _symmetry_equiv_pos_site_id
 _symmetry_equiv_pos_as_xyz
  1  'x, y, z'
loop_
 _atom_site_type_symbol
 _atom_site_label
 _atom_site_symmetry_multiplicity
 _atom_site_fract_x
 _atom_site_fract_y
 _atom_site_fract_z
 _atom_site_occupancy
  Ce  Ce0  1  0.033122  0.750000  0.821949  1
  Ce  Ce1  1  0.532421  0.750000  0.677212  1
  Ho  Ho2  1  0.965166  0.250000  0.184812  1
  Lu  Lu3  1  0.464552  0.250000  0.315742  1
  Al  Al4  1  0.862735  0.250000  0.556047  1
  Al  Al5  1  0.363446  0.250000  0.944491  1
  Al  Al6  1  0.139012  0.750000  0.433277  1
  Al  Al7  1  0.637610  0.750000  0.067242  1
  Ir  Ir8  1  0.738472  0.250000  0.876980  1
  Ir  Ir9  1  0.238923  0.250000  0.621556  1
  Ir  Ir10  1  0.263976  0.750000  0.117885  1
  Ir  Ir11  1  0.760564  0.750000  0.382808  1
