# generated using pymatgen
data_DyEr19Bi7Sb5
_symmetry_space_group_name_H-M   'P 1'
_cell_length_a   8.12471454
_cell_length_b   9.38726064
_cell_length_c   11.88306303
_cell_angle_alpha   90.04590878
_cell_angle_beta   89.94172356
_cell_angle_gamma   89.98801478
_symmetry_Int_Tables_number   1
_chemical_formula_structural   DyEr19Bi7Sb5
_chemical_formula_sum   'Dy1 Er19 Bi7 Sb5'
_cell_volume   906.30633240
_cell_formula_units_Z   1
loop_
 _symmetry_equiv_pos_site_id
 _symmetry_equiv_pos_as_xyz
  1  'x, y, z'
loop_
 _atom_site_type_symbol
 _atom_site_label
 _atom_site_symmetry_multiplicity
 _atom_site_fract_x
 _atom_site_fract_y
 _atom_site_fract_z
 _atom_site_occupancy
  Dy  Dy0  1  0.184532  0.749932  0.717933  1
  Er  Er1  1  0.356060  0.753101  0.214346  1
  Er  Er2  1  0.849966  0.752494  0.287221  1
  Er  Er3  1  0.647105  0.250202  0.786606  1
  Er  Er4  1  0.147031  0.249969  0.713219  1
  Er  Er5  1  0.689464  0.563507  0.057772  1
  Er  Er6  1  0.191567  0.937499  0.441472  1
  Er  Er7  1  0.310467  0.063182  0.942309  1
  Er  Er8  1  0.810179  0.436554  0.557373  1
  Er  Er9  1  0.310750  0.436661  0.942448  1
  Er  Er10  1  0.809359  0.062632  0.556011  1
  Er  Er11  1  0.688107  0.937132  0.059976  1
  Er  Er12  1  0.189939  0.563223  0.441966  1
  Er  Er13  1  0.473006  0.247763  0.486523  1
  Er  Er14  1  0.972068  0.249984  0.012333  1
  Er  Er15  1  0.528634  0.752209  0.510287  1
  Er  Er16  1  0.027399  0.750180  0.988054  1
  Er  Er17  1  0.317304  0.247691  0.218635  1
  Er  Er18  1  0.812287  0.246603  0.282761  1
  Er  Er19  1  0.684759  0.750058  0.782143  1
  Bi  Bi20  1  0.065104  0.504305  0.175307  1
  Bi  Bi21  1  0.435543  0.495562  0.674196  1
  Bi  Bi22  1  0.934640  0.004426  0.825044  1
  Bi  Bi23  1  0.435255  0.004505  0.675114  1
  Bi  Bi24  1  0.934789  0.495505  0.825117  1
  Bi  Bi25  1  0.564902  0.504073  0.324959  1
  Bi  Bi26  1  0.065248  0.995766  0.174755  1
  Sb  Sb27  1  0.407662  0.750032  0.958282  1
  Sb  Sb28  1  0.907934  0.749859  0.541741  1
  Sb  Sb29  1  0.592424  0.250058  0.041979  1
  Sb  Sb30  1  0.092123  0.249987  0.457645  1
  Sb  Sb31  1  0.564389  0.995351  0.326471  1
