# generated using pymatgen
data_CaLa(SiRh2)2
_symmetry_space_group_name_H-M   'P 1'
_cell_length_a   4.13409866
_cell_length_b   4.15954800
_cell_length_c   9.00082200
_cell_angle_alpha   90.00000000
_cell_angle_beta   103.27651283
_cell_angle_gamma   90.00000000
_symmetry_Int_Tables_number   1
_chemical_formula_structural   CaLa(SiRh2)2
_chemical_formula_sum   'Ca1 La1 Si2 Rh4'
_cell_volume   150.64123536
_cell_formula_units_Z   1
loop_
 _symmetry_equiv_pos_site_id
 _symmetry_equiv_pos_as_xyz
  1  'x, y, z'
loop_
 _atom_site_type_symbol
 _atom_site_label
 _atom_site_symmetry_multiplicity
 _atom_site_fract_x
 _atom_site_fract_y
 _atom_site_fract_z
 _atom_site_occupancy
  Ca  Ca0  1  0.600374  0.250000  0.200747  1
  La  La1  1  0.408049  0.750000  0.816099  1
  Si  Si2  1  0.818510  0.250000  0.637019  1
  Si  Si3  1  0.178094  0.750000  0.356189  1
  Rh  Rh4  1  0.953014  0.250000  0.906026  1
  Rh  Rh5  1  0.045729  0.750000  0.091458  1
  Rh  Rh6  1  0.248021  0.250000  0.496042  1
  Rh  Rh7  1  0.748208  0.750000  0.496417  1
