# generated using pymatgen
data_Rb3AlBi2
_symmetry_space_group_name_H-M   'P 1'
_cell_length_a   9.85899185
_cell_length_b   9.85899337
_cell_length_c   9.85899282
_cell_angle_alpha   125.04409951
_cell_angle_beta   74.01841400
_cell_angle_gamma   134.51706346
_symmetry_Int_Tables_number   1
_chemical_formula_structural   Rb3AlBi2
_chemical_formula_sum   'Rb6 Al2 Bi4'
_cell_volume   545.97186193
_cell_formula_units_Z   2
loop_
 _symmetry_equiv_pos_site_id
 _symmetry_equiv_pos_as_xyz
  1  'x, y, z'
loop_
 _atom_site_type_symbol
 _atom_site_label
 _atom_site_symmetry_multiplicity
 _atom_site_fract_x
 _atom_site_fract_y
 _atom_site_fract_z
 _atom_site_occupancy
  Rb  Rb0  1  0.324862  0.693342  0.018205  1
  Rb  Rb1  1  0.175138  0.193342  0.368480  1
  Rb  Rb2  1  0.750000  0.250000  0.500000  1
  Rb  Rb3  1  0.250000  0.749999  0.499999  1
  Rb  Rb4  1  0.824862  0.806659  0.631521  1
  Rb  Rb5  1  0.675138  0.306659  0.981796  1
  Al  Al6  1  0.250000  0.250000  0.000000  1
  Al  Al7  1  0.750000  0.750000  0.000000  1
  Bi  Bi8  1  0.910803  0.180284  0.091086  1
  Bi  Bi9  1  0.589198  0.680285  0.269482  1
  Bi  Bi10  1  0.410802  0.319715  0.730517  1
  Bi  Bi11  1  0.089198  0.819715  0.908913  1
