# generated using pymatgen
data_Dy7Er13(Cd3Pt)2
_symmetry_space_group_name_H-M   'P 1'
_cell_length_a   9.67761700
_cell_length_b   9.67761574
_cell_length_c   9.68437700
_cell_angle_alpha   90.00000000
_cell_angle_beta   90.00000000
_cell_angle_gamma   120.00000090
_symmetry_Int_Tables_number   1
_chemical_formula_structural   Dy7Er13(Cd3Pt)2
_chemical_formula_sum   'Dy7 Er13 Cd6 Pt2'
_cell_volume   785.48721340
_cell_formula_units_Z   1
loop_
 _symmetry_equiv_pos_site_id
 _symmetry_equiv_pos_as_xyz
  1  'x, y, z'
loop_
 _atom_site_type_symbol
 _atom_site_label
 _atom_site_symmetry_multiplicity
 _atom_site_fract_x
 _atom_site_fract_y
 _atom_site_fract_z
 _atom_site_occupancy
  Dy  Dy0  1  0.542193  0.457807  0.749934  1
  Dy  Dy1  1  0.542193  0.084385  0.749934  1
  Dy  Dy2  1  0.915615  0.457807  0.749934  1
  Dy  Dy3  1  0.457807  0.542193  0.250066  1
  Dy  Dy4  1  0.457807  0.915615  0.250066  1
  Dy  Dy5  1  0.084385  0.542193  0.250066  1
  Dy  Dy6  1  0.000000  0.000000  0.500000  1
  Er  Er7  1  0.207689  0.792311  0.940670  1
  Er  Er8  1  0.207689  0.415377  0.940670  1
  Er  Er9  1  0.584623  0.792311  0.940670  1
  Er  Er10  1  0.792311  0.207689  0.059330  1
  Er  Er11  1  0.792311  0.584623  0.059330  1
  Er  Er12  1  0.415377  0.207689  0.059330  1
  Er  Er13  1  0.791991  0.208009  0.440763  1
  Er  Er14  1  0.791991  0.583981  0.440763  1
  Er  Er15  1  0.416019  0.208009  0.440763  1
  Er  Er16  1  0.208009  0.791991  0.559237  1
  Er  Er17  1  0.208009  0.416019  0.559237  1
  Er  Er18  1  0.583981  0.791991  0.559237  1
  Er  Er19  1  0.000000  0.000000  0.000000  1
  Cd  Cd20  1  0.884249  0.115751  0.750456  1
  Cd  Cd21  1  0.884249  0.768500  0.750456  1
  Cd  Cd22  1  0.231500  0.115751  0.750456  1
  Cd  Cd23  1  0.115751  0.884249  0.249544  1
  Cd  Cd24  1  0.115751  0.231500  0.249544  1
  Cd  Cd25  1  0.768500  0.884249  0.249544  1
  Pt  Pt26  1  0.333333  0.666667  0.750252  1
  Pt  Pt27  1  0.666667  0.333333  0.249748  1
