# generated using pymatgen
data_Tb8Tm2Si5Pb
_symmetry_space_group_name_H-M   'P 1'
_cell_length_a   8.58328875
_cell_length_b   8.58328851
_cell_length_c   6.40150736
_cell_angle_alpha   89.98079192
_cell_angle_beta   89.98079632
_cell_angle_gamma   120.26928911
_symmetry_Int_Tables_number   1
_chemical_formula_structural   Tb8Tm2Si5Pb
_chemical_formula_sum   'Tb8 Tm2 Si5 Pb1'
_cell_volume   407.31962503
_cell_formula_units_Z   1
loop_
 _symmetry_equiv_pos_site_id
 _symmetry_equiv_pos_as_xyz
  1  'x, y, z'
loop_
 _atom_site_type_symbol
 _atom_site_label
 _atom_site_symmetry_multiplicity
 _atom_site_fract_x
 _atom_site_fract_y
 _atom_site_fract_z
 _atom_site_occupancy
  Tb  Tb0  1  0.675128  0.330623  0.503863  1
  Tb  Tb1  1  0.330623  0.675128  0.503863  1
  Tb  Tb2  1  0.766521  0.766521  0.248392  1
  Tb  Tb3  1  0.241827  0.988324  0.248201  1
  Tb  Tb4  1  0.988324  0.241827  0.248201  1
  Tb  Tb5  1  0.241786  0.241786  0.750950  1
  Tb  Tb6  1  0.754287  0.997862  0.751979  1
  Tb  Tb7  1  0.997862  0.754287  0.751979  1
  Tm  Tm8  1  0.330706  0.675660  0.996033  1
  Tm  Tm9  1  0.675660  0.330706  0.996033  1
  Si  Si10  1  0.603113  0.998193  0.244436  1
  Si  Si11  1  0.998193  0.603113  0.244436  1
  Si  Si12  1  0.604473  0.604473  0.754548  1
  Si  Si13  1  0.394170  0.001823  0.755556  1
  Si  Si14  1  0.001823  0.394170  0.755556  1
  Pb  Pb15  1  0.395503  0.395503  0.245976  1
