# generated using pymatgen
data_LaPrB8
_symmetry_space_group_name_H-M   'P 1'
_cell_length_a   7.28655400
_cell_length_b   7.28835300
_cell_length_c   4.16408000
_cell_angle_alpha   90.00000000
_cell_angle_beta   90.00000000
_cell_angle_gamma   90.00000000
_symmetry_Int_Tables_number   1
_chemical_formula_structural   LaPrB8
_chemical_formula_sum   'La2 Pr2 B16'
_cell_volume   221.14170372
_cell_formula_units_Z   2
loop_
 _symmetry_equiv_pos_site_id
 _symmetry_equiv_pos_as_xyz
  1  'x, y, z'
loop_
 _atom_site_type_symbol
 _atom_site_label
 _atom_site_symmetry_multiplicity
 _atom_site_fract_x
 _atom_site_fract_y
 _atom_site_fract_z
 _atom_site_occupancy
  La  La0  1  0.316102  0.184400  0.000000  1
  La  La1  1  0.816102  0.315600  0.000000  1
  Pr  Pr2  1  0.183571  0.683811  0.000000  1
  Pr  Pr3  1  0.683571  0.816189  0.000000  1
  B  B4  1  0.326199  0.461938  0.500000  1
  B  B5  1  0.673420  0.539533  0.500000  1
  B  B6  1  0.538094  0.327194  0.500000  1
  B  B7  1  0.460614  0.674347  0.500000  1
  B  B8  1  0.000405  0.999262  0.205772  1
  B  B9  1  0.500405  0.500738  0.794228  1
  B  B10  1  0.000405  0.999262  0.794228  1
  B  B11  1  0.500405  0.500738  0.205772  1
  B  B12  1  0.588628  0.087752  0.500000  1
  B  B13  1  0.088628  0.412248  0.500000  1
  B  B14  1  0.912563  0.588363  0.500000  1
  B  B15  1  0.412563  0.911637  0.500000  1
  B  B16  1  0.038094  0.172806  0.500000  1
  B  B17  1  0.173420  0.960467  0.500000  1
  B  B18  1  0.826199  0.038062  0.500000  1
  B  B19  1  0.960614  0.825653  0.500000  1
