# generated using pymatgen
data_Tb10Dy2Tc3Ru
_symmetry_space_group_name_H-M   'P 1'
_cell_length_a   6.29089036
_cell_length_b   7.41540868
_cell_length_c   9.23281451
_cell_angle_alpha   90.00006229
_cell_angle_beta   90.03795706
_cell_angle_gamma   89.95715735
_symmetry_Int_Tables_number   1
_chemical_formula_structural   Tb10Dy2Tc3Ru
_chemical_formula_sum   'Tb10 Dy2 Tc3 Ru1'
_cell_volume   430.70617777
_cell_formula_units_Z   1
loop_
 _symmetry_equiv_pos_site_id
 _symmetry_equiv_pos_as_xyz
  1  'x, y, z'
loop_
 _atom_site_type_symbol
 _atom_site_label
 _atom_site_symmetry_multiplicity
 _atom_site_fract_x
 _atom_site_fract_y
 _atom_site_fract_z
 _atom_site_occupancy
  Tb  Tb0  1  0.334761  0.676820  0.063993  1
  Tb  Tb1  1  0.163239  0.175653  0.437065  1
  Tb  Tb2  1  0.662718  0.324155  0.562629  1
  Tb  Tb3  1  0.836157  0.824388  0.937637  1
  Tb  Tb4  1  0.662834  0.323927  0.937356  1
  Tb  Tb5  1  0.836055  0.824149  0.562359  1
  Tb  Tb6  1  0.874311  0.542416  0.250040  1
  Tb  Tb7  1  0.624922  0.040810  0.249956  1
  Tb  Tb8  1  0.131130  0.457215  0.749988  1
  Tb  Tb9  1  0.372829  0.956092  0.750012  1
  Dy  Dy10  1  0.334951  0.676758  0.436102  1
  Dy  Dy11  1  0.163083  0.175596  0.062818  1
  Tc  Tc12  1  0.038797  0.885908  0.250076  1
  Tc  Tc13  1  0.462597  0.387937  0.249934  1
  Tc  Tc14  1  0.962702  0.113893  0.750255  1
  Ru  Ru15  1  0.538915  0.614284  0.749778  1
