# generated using pymatgen
data_CsAl2InI8
_symmetry_space_group_name_H-M   'P 1'
_cell_length_a   12.59510689
_cell_length_b   7.66910636
_cell_length_c   13.16836082
_cell_angle_alpha   82.66426921
_cell_angle_beta   91.57237021
_cell_angle_gamma   92.27272671
_symmetry_Int_Tables_number   1
_chemical_formula_structural   CsAl2InI8
_chemical_formula_sum   'Cs2 Al4 In2 I16'
_cell_volume   1260.24948108
_cell_formula_units_Z   2
loop_
 _symmetry_equiv_pos_site_id
 _symmetry_equiv_pos_as_xyz
  1  'x, y, z'
loop_
 _atom_site_type_symbol
 _atom_site_label
 _atom_site_symmetry_multiplicity
 _atom_site_fract_x
 _atom_site_fract_y
 _atom_site_fract_z
 _atom_site_occupancy
  Cs  Cs0  1  0.491574  0.592458  0.698801  1
  Cs  Cs1  1  0.508426  0.407542  0.301199  1
  Al  Al2  1  0.758495  0.222686  0.553249  1
  Al  Al3  1  0.241505  0.777314  0.446751  1
  Al  Al4  1  0.756476  0.429531  0.024096  1
  Al  Al5  1  0.243524  0.570469  0.975904  1
  In  In6  1  0.975072  0.407654  0.276714  1
  In  In7  1  0.024928  0.592346  0.723286  1
  I  I8  1  0.759917  0.102184  0.378855  1
  I  I9  1  0.918629  0.234421  0.056563  1
  I  I10  1  0.753030  0.559246  0.512798  1
  I  I11  1  0.414460  0.885297  0.355063  1
  I  I12  1  0.767930  0.615647  0.847327  1
  I  I13  1  0.766498  0.644346  0.161879  1
  I  I14  1  0.584987  0.239944  0.037264  1
  I  I15  1  0.081371  0.765579  0.943437  1
  I  I16  1  0.240083  0.897816  0.621145  1
  I  I17  1  0.585540  0.114703  0.644937  1
  I  I18  1  0.075881  0.865402  0.339512  1
  I  I19  1  0.246970  0.440754  0.487202  1
  I  I20  1  0.232070  0.384353  0.152673  1
  I  I21  1  0.924119  0.134598  0.660488  1
  I  I22  1  0.415013  0.760056  0.962736  1
  I  I23  1  0.233502  0.355654  0.838121  1
