# generated using pymatgen
data_KNpSnI6
_symmetry_space_group_name_H-M   'P 1'
_cell_length_a   8.90054601
_cell_length_b   8.90018340
_cell_length_c   8.90033300
_cell_angle_alpha   55.26439729
_cell_angle_beta   55.26497393
_cell_angle_gamma   55.26485132
_symmetry_Int_Tables_number   1
_chemical_formula_structural   KNpSnI6
_chemical_formula_sum   'K1 Np1 Sn1 I6'
_cell_volume   443.68053359
_cell_formula_units_Z   1
loop_
 _symmetry_equiv_pos_site_id
 _symmetry_equiv_pos_as_xyz
  1  'x, y, z'
loop_
 _atom_site_type_symbol
 _atom_site_label
 _atom_site_symmetry_multiplicity
 _atom_site_fract_x
 _atom_site_fract_y
 _atom_site_fract_z
 _atom_site_occupancy
  K  K0  1  0.670308  0.670092  0.670365  1
  Np  Np1  1  0.000200  0.999906  0.998717  1
  Sn  Sn2  1  0.331411  0.331515  0.331166  1
  I  I3  1  0.217978  0.596790  0.946086  1
  I  I4  1  0.596394  0.945983  0.218359  1
  I  I5  1  0.945245  0.217526  0.596631  1
  I  I6  1  0.749097  0.370355  0.118902  1
  I  I7  1  0.369351  0.118074  0.750227  1
  I  I8  1  0.120019  0.749759  0.369547  1
