# generated using pymatgen
data_Na4LuMoO6
_symmetry_space_group_name_H-M   'P 1'
_cell_length_a   5.66011842
_cell_length_b   5.66006692
_cell_length_c   5.81093024
_cell_angle_alpha   99.36727509
_cell_angle_beta   99.36689813
_cell_angle_gamma   120.24408606
_symmetry_Int_Tables_number   1
_chemical_formula_structural   Na4LuMoO6
_chemical_formula_sum   'Na4 Lu1 Mo1 O6'
_cell_volume   151.99759202
_cell_formula_units_Z   1
loop_
 _symmetry_equiv_pos_site_id
 _symmetry_equiv_pos_as_xyz
  1  'x, y, z'
loop_
 _atom_site_type_symbol
 _atom_site_label
 _atom_site_symmetry_multiplicity
 _atom_site_fract_x
 _atom_site_fract_y
 _atom_site_fract_z
 _atom_site_occupancy
  Na  Na0  1  0.502414  0.497572  0.000000  1
  Na  Na1  1  0.658869  0.341131  0.499999  1
  Na  Na2  1  0.341553  0.658442  0.499999  1
  Na  Na3  1  0.999683  0.000321  0.499998  1
  Lu  Lu4  1  0.162987  0.837001  0.999982  1
  Mo  Mo5  1  0.833035  0.166972  0.000000  1
  O  O6  1  0.601833  0.957771  0.201104  1
  O  O7  1  0.931045  0.553675  0.213257  1
  O  O8  1  0.195317  0.215301  0.215069  1
  O  O9  1  0.784720  0.804695  0.784949  1
  O  O10  1  0.446313  0.068956  0.786746  1
  O  O11  1  0.042230  0.398161  0.798897  1
