# generated using pymatgen
data_Tm3Lu7(Cd2Ni)4
_symmetry_space_group_name_H-M   'P 1'
_cell_length_a   3.49366200
_cell_length_b   7.74384431
_cell_length_c   17.93033971
_cell_angle_alpha   89.96770392
_cell_angle_beta   90.00000000
_cell_angle_gamma   90.00000000
_symmetry_Int_Tables_number   1
_chemical_formula_structural   Tm3Lu7(Cd2Ni)4
_chemical_formula_sum   'Tm3 Lu7 Cd8 Ni4'
_cell_volume   485.09405006
_cell_formula_units_Z   1
loop_
 _symmetry_equiv_pos_site_id
 _symmetry_equiv_pos_as_xyz
  1  'x, y, z'
loop_
 _atom_site_type_symbol
 _atom_site_label
 _atom_site_symmetry_multiplicity
 _atom_site_fract_x
 _atom_site_fract_y
 _atom_site_fract_z
 _atom_site_occupancy
  Tm  Tm0  1  0.000000  0.500104  0.500051  1
  Tm  Tm1  1  0.000000  0.000054  0.000017  1
  Tm  Tm2  1  0.000000  0.115647  0.411761  1
  Lu  Lu3  1  0.000000  0.748738  0.278827  1
  Lu  Lu4  1  0.000000  0.250993  0.721160  1
  Lu  Lu5  1  0.000000  0.750982  0.778873  1
  Lu  Lu6  1  0.000000  0.249249  0.220968  1
  Lu  Lu7  1  0.000000  0.615174  0.088616  1
  Lu  Lu8  1  0.000000  0.384841  0.911332  1
  Lu  Lu9  1  0.000000  0.884829  0.588750  1
  Cd  Cd10  1  0.500000  0.709800  0.931082  1
  Cd  Cd11  1  0.500000  0.290212  0.068932  1
  Cd  Cd12  1  0.500000  0.789527  0.431087  1
  Cd  Cd13  1  0.500000  0.209894  0.569135  1
  Cd  Cd14  1  0.500000  0.570215  0.651224  1
  Cd  Cd15  1  0.500000  0.430274  0.348659  1
  Cd  Cd16  1  0.500000  0.929746  0.151128  1
  Cd  Cd17  1  0.500000  0.070150  0.848739  1
  Ni  Ni18  1  0.500000  0.529220  0.195980  1
  Ni  Ni19  1  0.500000  0.470722  0.804014  1
  Ni  Ni20  1  0.500000  0.970790  0.695976  1
  Ni  Ni21  1  0.500000  0.028842  0.303690  1
