# generated using pymatgen
data_TbHo7(TmRu2)2
_symmetry_space_group_name_H-M   'P 1'
_cell_length_a   6.30362168
_cell_length_b   7.24736096
_cell_length_c   8.43930748
_cell_angle_alpha   96.69834785
_cell_angle_beta   112.05305939
_cell_angle_gamma   89.97721700
_symmetry_Int_Tables_number   1
_chemical_formula_structural   TbHo7(TmRu2)2
_chemical_formula_sum   'Tb1 Ho7 Tm2 Ru4'
_cell_volume   354.50483519
_cell_formula_units_Z   1
loop_
 _symmetry_equiv_pos_site_id
 _symmetry_equiv_pos_as_xyz
  1  'x, y, z'
loop_
 _atom_site_type_symbol
 _atom_site_label
 _atom_site_symmetry_multiplicity
 _atom_site_fract_x
 _atom_site_fract_y
 _atom_site_fract_z
 _atom_site_occupancy
  Tb  Tb0  1  0.790617  0.084000  0.813196  1
  Ho  Ho1  1  0.977708  0.415643  0.185635  1
  Ho  Ho2  1  0.208390  0.915675  0.186437  1
  Ho  Ho3  1  0.023338  0.584327  0.814894  1
  Ho  Ho4  1  0.205685  0.184582  0.566112  1
  Ho  Ho5  1  0.640066  0.315750  0.433778  1
  Ho  Ho6  1  0.793522  0.814923  0.433302  1
  Ho  Ho7  1  0.359397  0.684753  0.565989  1
  Tm  Tm8  1  0.421036  0.249631  0.000003  1
  Tm  Tm9  1  0.579244  0.750221  0.000444  1
  Ru  Ru10  1  0.602264  0.425087  0.780544  1
  Ru  Ru11  1  0.822557  0.076668  0.219754  1
  Ru  Ru12  1  0.396726  0.575433  0.218943  1
  Ru  Ru13  1  0.179451  0.923306  0.780965  1
