# generated using pymatgen
data_Tm16NiAg4Rh3
_symmetry_space_group_name_H-M   'P 1'
_cell_length_a   9.39932524
_cell_length_b   9.39932424
_cell_length_c   9.36149966
_cell_angle_alpha   59.86624602
_cell_angle_beta   59.86624542
_cell_angle_gamma   59.99999893
_symmetry_Int_Tables_number   1
_chemical_formula_structural   Tm16NiAg4Rh3
_chemical_formula_sum   'Tm16 Ni1 Ag4 Rh3'
_cell_volume   583.63692088
_cell_formula_units_Z   1
loop_
 _symmetry_equiv_pos_site_id
 _symmetry_equiv_pos_as_xyz
  1  'x, y, z'
loop_
 _atom_site_type_symbol
 _atom_site_label
 _atom_site_symmetry_multiplicity
 _atom_site_fract_x
 _atom_site_fract_y
 _atom_site_fract_z
 _atom_site_occupancy
  Tm  Tm0  1  0.065723  0.065723  0.435031  1
  Tm  Tm1  1  0.433524  0.065723  0.435031  1
  Tm  Tm2  1  0.065122  0.436039  0.062801  1
  Tm  Tm3  1  0.053945  0.651791  0.642475  1
  Tm  Tm4  1  0.436039  0.436039  0.062801  1
  Tm  Tm5  1  0.651791  0.053945  0.642475  1
  Tm  Tm6  1  0.185580  0.811606  0.191209  1
  Tm  Tm7  1  0.188321  0.188321  0.811243  1
  Tm  Tm8  1  0.811606  0.811606  0.191209  1
  Tm  Tm9  1  0.436039  0.065122  0.062801  1
  Tm  Tm10  1  0.811606  0.185580  0.191209  1
  Tm  Tm11  1  0.065723  0.433524  0.435031  1
  Tm  Tm12  1  0.812115  0.188321  0.811243  1
  Tm  Tm13  1  0.188321  0.812115  0.811243  1
  Tm  Tm14  1  0.644939  0.644939  0.065185  1
  Tm  Tm15  1  0.651791  0.651791  0.642475  1
  Ni  Ni16  1  0.857639  0.857639  0.427084  1
  Ag  Ag17  1  0.416297  0.416297  0.419714  1
  Ag  Ag18  1  0.747690  0.416297  0.419714  1
  Ag  Ag19  1  0.416297  0.747690  0.419714  1
  Ag  Ag20  1  0.417884  0.417884  0.746349  1
  Rh  Rh21  1  0.855459  0.855459  0.857990  1
  Rh  Rh22  1  0.431092  0.855459  0.857990  1
  Rh  Rh23  1  0.855459  0.431092  0.857990  1
