# generated using pymatgen
data_PrSmP2(Ru2C)2
_symmetry_space_group_name_H-M   'P 1'
_cell_length_a   3.89942100
_cell_length_b   5.84169499
_cell_length_c   7.15794600
_cell_angle_alpha   90.00000000
_cell_angle_beta   90.00000000
_cell_angle_gamma   70.50299508
_symmetry_Int_Tables_number   1
_chemical_formula_structural   PrSmP2(Ru2C)2
_chemical_formula_sum   'Pr1 Sm1 P2 Ru4 C2'
_cell_volume   153.70288229
_cell_formula_units_Z   1
loop_
 _symmetry_equiv_pos_site_id
 _symmetry_equiv_pos_as_xyz
  1  'x, y, z'
loop_
 _atom_site_type_symbol
 _atom_site_label
 _atom_site_symmetry_multiplicity
 _atom_site_fract_x
 _atom_site_fract_y
 _atom_site_fract_z
 _atom_site_occupancy
  Pr  Pr0  1  0.953103  0.093796  0.250000  1
  Sm  Sm1  1  0.046351  0.907299  0.749999  1
  P  P2  1  0.229710  0.540579  0.250000  1
  P  P3  1  0.770148  0.459706  0.749999  1
  Ru  Ru4  1  0.666661  0.666681  0.052437  1
  Ru  Ru5  1  0.666661  0.666681  0.447563  1
  Ru  Ru6  1  0.333325  0.333351  0.555548  1
  Ru  Ru7  1  0.333325  0.333351  0.944452  1
  C  C8  1  0.500361  0.999279  0.995654  1
  C  C9  1  0.500361  0.999279  0.504347  1
