# generated using pymatgen
data_Mn6Nb4SiGe
_symmetry_space_group_name_H-M   'P 1'
_cell_length_a   4.88670200
_cell_length_b   4.88670107
_cell_length_c   7.96344400
_cell_angle_alpha   90.00000000
_cell_angle_beta   90.00000000
_cell_angle_gamma   120.00000629
_symmetry_Int_Tables_number   1
_chemical_formula_structural   Mn6Nb4SiGe
_chemical_formula_sum   'Mn6 Nb4 Si1 Ge1'
_cell_volume   164.68845812
_cell_formula_units_Z   1
loop_
 _symmetry_equiv_pos_site_id
 _symmetry_equiv_pos_as_xyz
  1  'x, y, z'
loop_
 _atom_site_type_symbol
 _atom_site_label
 _atom_site_symmetry_multiplicity
 _atom_site_fract_x
 _atom_site_fract_y
 _atom_site_fract_z
 _atom_site_occupancy
  Mn  Mn0  1  0.172208  0.344417  0.746920  1
  Mn  Mn1  1  0.827792  0.172208  0.253080  1
  Mn  Mn2  1  0.344417  0.172208  0.253080  1
  Mn  Mn3  1  0.655583  0.827792  0.746920  1
  Mn  Mn4  1  0.827792  0.655583  0.253080  1
  Mn  Mn5  1  0.172208  0.827792  0.746920  1
  Nb  Nb6  1  0.333333  0.666667  0.437727  1
  Nb  Nb7  1  0.666667  0.333333  0.935151  1
  Nb  Nb8  1  0.666667  0.333333  0.562273  1
  Nb  Nb9  1  0.333333  0.666667  0.064849  1
  Si  Si10  1  0.000000  0.000000  0.500000  1
  Ge  Ge11  1  0.000000  0.000000  0.000000  1
