# generated using pymatgen
data_Tm8Sc2(PtRh)3
_symmetry_space_group_name_H-M   'P 1'
_cell_length_a   10.78610837
_cell_length_b   10.77941700
_cell_length_c   6.20645500
_cell_angle_alpha   90.00000000
_cell_angle_beta   90.06697368
_cell_angle_gamma   90.00000000
_symmetry_Int_Tables_number   1
_chemical_formula_structural   Tm8Sc2(PtRh)3
_chemical_formula_sum   'Tm16 Sc4 Pt6 Rh6'
_cell_volume   721.61136816
_cell_formula_units_Z   2
loop_
 _symmetry_equiv_pos_site_id
 _symmetry_equiv_pos_as_xyz
  1  'x, y, z'
loop_
 _atom_site_type_symbol
 _atom_site_label
 _atom_site_symmetry_multiplicity
 _atom_site_fract_x
 _atom_site_fract_y
 _atom_site_fract_z
 _atom_site_occupancy
  Tm  Tm0  1  0.291224  0.087529  0.374647  1
  Tm  Tm1  1  0.291224  0.912471  0.874647  1
  Tm  Tm2  1  0.708251  0.086124  0.874711  1
  Tm  Tm3  1  0.708251  0.913876  0.374711  1
  Tm  Tm4  1  0.584233  0.789068  0.874152  1
  Tm  Tm5  1  0.584233  0.210932  0.374152  1
  Tm  Tm6  1  0.412277  0.790252  0.378436  1
  Tm  Tm7  1  0.412277  0.209748  0.878436  1
  Tm  Tm8  1  0.211744  0.414066  0.623812  1
  Tm  Tm9  1  0.211744  0.585934  0.123812  1
  Tm  Tm10  1  0.791329  0.413626  0.123495  1
  Tm  Tm11  1  0.791329  0.586374  0.623495  1
  Tm  Tm12  1  0.914767  0.708669  0.125592  1
  Tm  Tm13  1  0.914767  0.291331  0.625592  1
  Tm  Tm14  1  0.088459  0.708433  0.625086  1
  Tm  Tm15  1  0.088459  0.291567  0.125086  1
  Sc  Sc16  1  0.999994  0.999572  0.499947  1
  Sc  Sc17  1  0.999994  0.000428  0.999947  1
  Sc  Sc18  1  0.497179  0.498956  0.000061  1
  Sc  Sc19  1  0.497179  0.501044  0.500061  1
  Pt  Pt20  1  0.849978  0.149854  0.250077  1
  Pt  Pt21  1  0.849978  0.850146  0.750077  1
  Pt  Pt22  1  0.149890  0.149872  0.749905  1
  Pt  Pt23  1  0.149890  0.850128  0.249905  1
  Pt  Pt24  1  0.649633  0.350404  0.749805  1
  Pt  Pt25  1  0.649633  0.649596  0.249805  1
  Rh  Rh26  1  0.350562  0.350425  0.250106  1
  Rh  Rh27  1  0.350562  0.649575  0.750106  1
  Rh  Rh28  1  0.499579  0.999948  0.121323  1
  Rh  Rh29  1  0.499579  0.000052  0.621323  1
  Rh  Rh30  1  0.000901  0.500131  0.878845  1
  Rh  Rh31  1  0.000901  0.499869  0.378845  1
