# generated using pymatgen
data_CePr7(As2Au)8
_symmetry_space_group_name_H-M   'P 1'
_cell_length_a   5.86444700
_cell_length_b   5.89339911
_cell_length_c   20.54792420
_cell_angle_alpha   89.47563208
_cell_angle_beta   89.99764149
_cell_angle_gamma   90.00079352
_symmetry_Int_Tables_number   1
_chemical_formula_structural   CePr7(As2Au)8
_chemical_formula_sum   'Ce1 Pr7 As16 Au8'
_cell_volume   710.13789045
_cell_formula_units_Z   1
loop_
 _symmetry_equiv_pos_site_id
 _symmetry_equiv_pos_as_xyz
  1  'x, y, z'
loop_
 _atom_site_type_symbol
 _atom_site_label
 _atom_site_symmetry_multiplicity
 _atom_site_fract_x
 _atom_site_fract_y
 _atom_site_fract_z
 _atom_site_occupancy
  Ce  Ce0  1  0.250007  0.990962  0.621303  1
  Pr  Pr1  1  0.750009  0.009465  0.384441  1
  Pr  Pr2  1  0.750000  0.985289  0.878941  1
  Pr  Pr3  1  0.249989  0.013983  0.120914  1
  Pr  Pr4  1  0.749998  0.492131  0.611751  1
  Pr  Pr5  1  0.250007  0.509835  0.384593  1
  Pr  Pr6  1  0.249997  0.486611  0.883115  1
  Pr  Pr7  1  0.749994  0.513446  0.116901  1
  As  As8  1  0.750008  0.991603  0.655286  1
  As  As9  1  0.250009  0.011202  0.340869  1
  As  As10  1  0.250006  0.987851  0.837661  1
  As  As11  1  0.749986  0.012492  0.160516  1
  As  As12  1  0.249995  0.490897  0.654296  1
  As  As13  1  0.750013  0.510738  0.343755  1
  As  As14  1  0.750001  0.487932  0.838713  1
  As  As15  1  0.249989  0.512384  0.159418  1
  As  As16  1  0.027930  0.220315  0.503398  1
  As  As17  1  0.473880  0.777666  0.503181  1
  As  As18  1  0.971868  0.222398  0.998673  1
  As  As19  1  0.471832  0.778208  0.000341  1
  As  As20  1  0.026122  0.777659  0.503178  1
  As  As21  1  0.472065  0.220321  0.503400  1
  As  As22  1  0.028170  0.778208  0.000340  1
  As  As23  1  0.528139  0.222379  0.998671  1
  Au  Au24  1  0.499843  0.730126  0.747604  1
  Au  Au25  1  0.998732  0.268593  0.251369  1
  Au  Au26  1  0.501272  0.268606  0.251371  1
  Au  Au27  1  0.000147  0.730136  0.747602  1
  Au  Au28  1  0.500614  0.233544  0.747674  1
  Au  Au29  1  0.999621  0.765744  0.251526  1
  Au  Au30  1  0.500372  0.765740  0.251521  1
  Au  Au31  1  0.999385  0.233537  0.747678  1
