# generated using pymatgen
data_Sr10Sn5BiF2
_symmetry_space_group_name_H-M   'P 1'
_cell_length_a   10.14607812
_cell_length_b   10.14607835
_cell_length_c   10.14607780
_cell_angle_alpha   129.95924698
_cell_angle_beta   129.95925487
_cell_angle_gamma   73.47191521
_symmetry_Int_Tables_number   1
_chemical_formula_structural   Sr10Sn5BiF2
_chemical_formula_sum   'Sr10 Sn5 Bi1 F2'
_cell_volume   598.91164130
_cell_formula_units_Z   1
loop_
 _symmetry_equiv_pos_site_id
 _symmetry_equiv_pos_as_xyz
  1  'x, y, z'
loop_
 _atom_site_type_symbol
 _atom_site_label
 _atom_site_symmetry_multiplicity
 _atom_site_fract_x
 _atom_site_fract_y
 _atom_site_fract_z
 _atom_site_occupancy
  Sr  Sr0  1  0.501778  0.501778  0.000000  1
  Sr  Sr1  1  0.998222  0.998222  0.000000  1
  Sr  Sr2  1  0.514265  0.008269  0.822426  1
  Sr  Sr3  1  0.185842  0.691838  0.177574  1
  Sr  Sr4  1  0.008269  0.185842  0.494004  1
  Sr  Sr5  1  0.691838  0.514265  0.505996  1
  Sr  Sr6  1  0.491731  0.985735  0.177574  1
  Sr  Sr7  1  0.808162  0.314158  0.822426  1
  Sr  Sr8  1  0.985735  0.808162  0.494004  1
  Sr  Sr9  1  0.314158  0.491731  0.505996  1
  Sn  Sn10  1  0.750000  0.750000  0.000000  1
  Sn  Sn11  1  0.877324  0.377324  0.254648  1
  Sn  Sn12  1  0.122676  0.622676  0.745353  1
  Sn  Sn13  1  0.377324  0.122676  0.500000  1
  Sn  Sn14  1  0.622676  0.877324  0.500000  1
  Bi  Bi15  1  0.250000  0.250000  0.000000  1
  F  F16  1  0.250000  0.750000  0.500000  1
  F  F17  1  0.750000  0.250000  0.500000  1
