# generated using pymatgen
data_Ti10Ga2(SnSb)3
_symmetry_space_group_name_H-M   'P 1'
_cell_length_a   8.24445600
_cell_length_b   8.24445707
_cell_length_c   5.55340100
_cell_angle_alpha   90.00000000
_cell_angle_beta   90.00000000
_cell_angle_gamma   120.00000371
_symmetry_Int_Tables_number   1
_chemical_formula_structural   Ti10Ga2(SnSb)3
_chemical_formula_sum   'Ti10 Ga2 Sn3 Sb3'
_cell_volume   326.89909278
_cell_formula_units_Z   1
loop_
 _symmetry_equiv_pos_site_id
 _symmetry_equiv_pos_as_xyz
  1  'x, y, z'
loop_
 _atom_site_type_symbol
 _atom_site_label
 _atom_site_symmetry_multiplicity
 _atom_site_fract_x
 _atom_site_fract_y
 _atom_site_fract_z
 _atom_site_occupancy
  Ti  Ti0  1  0.733161  0.733161  0.750000  1
  Ti  Ti1  1  0.266839  0.000000  0.750000  1
  Ti  Ti2  1  0.000000  0.266839  0.750000  1
  Ti  Ti3  1  0.270975  0.270975  0.250000  1
  Ti  Ti4  1  0.729025  0.000000  0.250000  1
  Ti  Ti5  1  0.000000  0.729025  0.250000  1
  Ti  Ti6  1  0.666667  0.333333  0.001298  1
  Ti  Ti7  1  0.333333  0.666667  0.001298  1
  Ti  Ti8  1  0.333333  0.666667  0.498702  1
  Ti  Ti9  1  0.666667  0.333333  0.498702  1
  Ga  Ga10  1  0.000000  0.000000  0.003650  1
  Ga  Ga11  1  0.000000  0.000000  0.496350  1
  Sn  Sn12  1  0.614002  0.614002  0.250000  1
  Sn  Sn13  1  0.385998  0.000000  0.250000  1
  Sn  Sn14  1  0.000000  0.385998  0.250000  1
  Sb  Sb15  1  0.390677  0.390677  0.750000  1
  Sb  Sb16  1  0.609323  0.000000  0.750000  1
  Sb  Sb17  1  0.000000  0.609323  0.750000  1
