# generated using pymatgen
data_Nb3VRh2C
_symmetry_space_group_name_H-M   'P 1'
_cell_length_a   8.34134093
_cell_length_b   8.34122486
_cell_length_c   8.34151100
_cell_angle_alpha   59.99882444
_cell_angle_beta   59.99803348
_cell_angle_gamma   59.99715418
_symmetry_Int_Tables_number   1
_chemical_formula_structural   Nb3VRh2C
_chemical_formula_sum   'Nb12 V4 Rh8 C4'
_cell_volume   410.37016250
_cell_formula_units_Z   4
loop_
 _symmetry_equiv_pos_site_id
 _symmetry_equiv_pos_as_xyz
  1  'x, y, z'
loop_
 _atom_site_type_symbol
 _atom_site_label
 _atom_site_symmetry_multiplicity
 _atom_site_fract_x
 _atom_site_fract_y
 _atom_site_fract_z
 _atom_site_occupancy
  Nb  Nb0  1  0.811300  0.811279  0.188709  1
  Nb  Nb1  1  0.188684  0.188702  0.811304  1
  Nb  Nb2  1  0.811301  0.188718  0.811290  1
  Nb  Nb3  1  0.188705  0.811294  0.188693  1
  Nb  Nb4  1  0.188706  0.811294  0.811304  1
  Nb  Nb5  1  0.811295  0.188723  0.188692  1
  Nb  Nb6  1  0.438700  0.438721  0.061291  1
  Nb  Nb7  1  0.061316  0.061298  0.438696  1
  Nb  Nb8  1  0.438699  0.061282  0.438710  1
  Nb  Nb9  1  0.061295  0.438706  0.061307  1
  Nb  Nb10  1  0.061294  0.438706  0.438696  1
  Nb  Nb11  1  0.438705  0.061277  0.061308  1
  V  V12  1  0.125000  0.625000  0.625000  1
  V  V13  1  0.625000  0.125000  0.625000  1
  V  V14  1  0.625000  0.625000  0.125000  1
  V  V15  1  0.625000  0.625000  0.625000  1
  Rh  Rh16  1  0.748989  0.417006  0.417064  1
  Rh  Rh17  1  0.417079  0.749041  0.417005  1
  Rh  Rh18  1  0.417091  0.416961  0.749050  1
  Rh  Rh19  1  0.417047  0.416910  0.416977  1
  Rh  Rh20  1  0.501011  0.832994  0.832936  1
  Rh  Rh21  1  0.832921  0.500959  0.832995  1
  Rh  Rh22  1  0.832909  0.833039  0.500950  1
  Rh  Rh23  1  0.832953  0.833090  0.833023  1
  C  C24  1  0.625000  0.125000  0.125000  1
  C  C25  1  0.125000  0.625000  0.125000  1
  C  C26  1  0.125000  0.125000  0.625000  1
  C  C27  1  0.125000  0.125000  0.125000  1
