# generated using pymatgen
data_Eu10Zn3Hg2Os
_symmetry_space_group_name_H-M   'P 1'
_cell_length_a   9.40371243
_cell_length_b   9.40371295
_cell_length_c   9.31521160
_cell_angle_alpha   128.57371160
_cell_angle_beta   128.57371460
_cell_angle_gamma   76.39034515
_symmetry_Int_Tables_number   1
_chemical_formula_structural   Eu10Zn3Hg2Os
_chemical_formula_sum   'Eu10 Zn3 Hg2 Os1'
_cell_volume   487.35905598
_cell_formula_units_Z   1
loop_
 _symmetry_equiv_pos_site_id
 _symmetry_equiv_pos_as_xyz
  1  'x, y, z'
loop_
 _atom_site_type_symbol
 _atom_site_label
 _atom_site_symmetry_multiplicity
 _atom_site_fract_x
 _atom_site_fract_y
 _atom_site_fract_z
 _atom_site_occupancy
  Eu  Eu0  1  0.490190  0.503447  0.993637  1
  Eu  Eu1  1  0.003447  0.990190  0.993637  1
  Eu  Eu2  1  0.524431  0.024431  0.836218  1
  Eu  Eu3  1  0.180472  0.680472  0.137954  1
  Eu  Eu4  1  0.027326  0.204793  0.515123  1
  Eu  Eu5  1  0.704793  0.527326  0.515123  1
  Eu  Eu6  1  0.457480  0.957480  0.137954  1
  Eu  Eu7  1  0.811788  0.311788  0.836218  1
  Eu  Eu8  1  0.987797  0.810329  0.515123  1
  Eu  Eu9  1  0.310329  0.487797  0.515123  1
  Zn  Zn10  1  0.883815  0.383815  0.267631  1
  Zn  Zn11  1  0.618196  0.879238  0.497435  1
  Zn  Zn12  1  0.379238  0.118196  0.497435  1
  Hg  Hg13  1  0.253067  0.253067  0.006135  1
  Hg  Hg14  1  0.753067  0.753067  0.006135  1
  Os  Os15  1  0.114562  0.614562  0.729123  1
