# generated using pymatgen
data_YbSmOsC2
_symmetry_space_group_name_H-M   'P 1'
_cell_length_a   5.18943800
_cell_length_b   6.44407600
_cell_length_c   10.26148300
_cell_angle_alpha   90.00000000
_cell_angle_beta   90.00000000
_cell_angle_gamma   90.00000000
_symmetry_Int_Tables_number   1
_chemical_formula_structural   YbSmOsC2
_chemical_formula_sum   'Yb4 Sm4 Os4 C8'
_cell_volume   343.15561644
_cell_formula_units_Z   4
loop_
 _symmetry_equiv_pos_site_id
 _symmetry_equiv_pos_as_xyz
  1  'x, y, z'
loop_
 _atom_site_type_symbol
 _atom_site_label
 _atom_site_symmetry_multiplicity
 _atom_site_fract_x
 _atom_site_fract_y
 _atom_site_fract_z
 _atom_site_occupancy
  Yb  Yb0  1  0.750000  0.468575  0.775717  1
  Yb  Yb1  1  0.250000  0.031425  0.275717  1
  Yb  Yb2  1  0.750000  0.968575  0.724283  1
  Yb  Yb3  1  0.250000  0.531425  0.224283  1
  Sm  Sm4  1  0.750000  0.806263  0.055112  1
  Sm  Sm5  1  0.250000  0.193737  0.944888  1
  Sm  Sm6  1  0.750000  0.306263  0.444888  1
  Sm  Sm7  1  0.250000  0.693737  0.555112  1
  Os  Os8  1  0.750000  0.774119  0.357267  1
  Os  Os9  1  0.250000  0.725881  0.857267  1
  Os  Os10  1  0.250000  0.225881  0.642733  1
  Os  Os11  1  0.750000  0.274119  0.142733  1
  C  C12  1  0.250000  0.965864  0.743988  1
  C  C13  1  0.750000  0.534136  0.243988  1
  C  C14  1  0.250000  0.465864  0.756012  1
  C  C15  1  0.750000  0.034136  0.256012  1
  C  C16  1  0.250000  0.308137  0.465134  1
  C  C17  1  0.750000  0.191863  0.965134  1
  C  C18  1  0.250000  0.808137  0.034866  1
  C  C19  1  0.750000  0.691863  0.534866  1
