# generated using pymatgen
data_CsAs2RuPt
_symmetry_space_group_name_H-M   'P 1'
_cell_length_a   8.06760861
_cell_length_b   8.06760889
_cell_length_c   8.06760872
_cell_angle_alpha   150.71497363
_cell_angle_beta   150.71497991
_cell_angle_gamma   41.89290024
_symmetry_Int_Tables_number   1
_chemical_formula_structural   CsAs2RuPt
_chemical_formula_sum   'Cs1 As2 Ru1 Pt1'
_cell_volume   125.34652560
_cell_formula_units_Z   1
loop_
 _symmetry_equiv_pos_site_id
 _symmetry_equiv_pos_as_xyz
  1  'x, y, z'
loop_
 _atom_site_type_symbol
 _atom_site_label
 _atom_site_symmetry_multiplicity
 _atom_site_fract_x
 _atom_site_fract_y
 _atom_site_fract_z
 _atom_site_occupancy
  Cs  Cs0  1  0.000000  0.000000  0.000000  1
  As  As1  1  0.343409  0.343409  0.000000  1
  As  As2  1  0.656591  0.656591  0.000000  1
  Ru  Ru3  1  0.250000  0.750000  0.500000  1
  Pt  Pt4  1  0.750000  0.250000  0.500000  1
