# generated using pymatgen
data_ZnCu16Si3
_symmetry_space_group_name_H-M   'P 1'
_cell_length_a   6.23697907
_cell_length_b   6.23697905
_cell_length_c   6.23697907
_cell_angle_alpha   89.90187870
_cell_angle_beta   89.90187869
_cell_angle_gamma   89.90186960
_symmetry_Int_Tables_number   1
_chemical_formula_structural   ZnCu16Si3
_chemical_formula_sum   'Zn1 Cu16 Si3'
_cell_volume   242.61684486
_cell_formula_units_Z   1
loop_
 _symmetry_equiv_pos_site_id
 _symmetry_equiv_pos_as_xyz
  1  'x, y, z'
loop_
 _atom_site_type_symbol
 _atom_site_label
 _atom_site_symmetry_multiplicity
 _atom_site_fract_x
 _atom_site_fract_y
 _atom_site_fract_z
 _atom_site_occupancy
  Zn  Zn0  1  0.060505  0.060505  0.060505  1
  Cu  Cu1  1  0.808222  0.317329  0.190237  1
  Cu  Cu2  1  0.317329  0.190237  0.808222  1
  Cu  Cu3  1  0.190237  0.808222  0.317329  1
  Cu  Cu4  1  0.686273  0.686273  0.686273  1
  Cu  Cu5  1  0.048723  0.876009  0.702850  1
  Cu  Cu6  1  0.294598  0.548473  0.622081  1
  Cu  Cu7  1  0.379217  0.794522  0.950777  1
  Cu  Cu8  1  0.548473  0.622081  0.294598  1
  Cu  Cu9  1  0.794522  0.950777  0.379217  1
  Cu  Cu10  1  0.876009  0.702850  0.048723  1
  Cu  Cu11  1  0.950777  0.379217  0.794522  1
  Cu  Cu12  1  0.702850  0.048723  0.876009  1
  Cu  Cu13  1  0.622081  0.294598  0.548473  1
  Cu  Cu14  1  0.453034  0.120056  0.206090  1
  Cu  Cu15  1  0.206090  0.453034  0.120056  1
  Cu  Cu16  1  0.120056  0.206090  0.453034  1
  Si  Si17  1  0.440082  0.941188  0.559731  1
  Si  Si18  1  0.941188  0.559731  0.440082  1
  Si  Si19  1  0.559731  0.440082  0.941188  1
