# generated using pymatgen
data_Nd8Al2IrRh
_symmetry_space_group_name_H-M   'P 1'
_cell_length_a   9.88540609
_cell_length_b   9.88540572
_cell_length_c   9.89154600
_cell_angle_alpha   59.97945053
_cell_angle_beta   59.97945178
_cell_angle_gamma   59.91296205
_symmetry_Int_Tables_number   1
_chemical_formula_structural   Nd8Al2IrRh
_chemical_formula_sum   'Nd16 Al4 Ir2 Rh2'
_cell_volume   682.83680141
_cell_formula_units_Z   2
loop_
 _symmetry_equiv_pos_site_id
 _symmetry_equiv_pos_as_xyz
  1  'x, y, z'
loop_
 _atom_site_type_symbol
 _atom_site_label
 _atom_site_symmetry_multiplicity
 _atom_site_fract_x
 _atom_site_fract_y
 _atom_site_fract_z
 _atom_site_occupancy
  Nd  Nd0  1  0.600807  0.600807  0.600060  1
  Nd  Nd1  1  0.600807  0.600807  0.198325  1
  Nd  Nd2  1  0.602059  0.196093  0.600924  1
  Nd  Nd3  1  0.196093  0.602059  0.600924  1
  Nd  Nd4  1  0.055860  0.442578  0.444656  1
  Nd  Nd5  1  0.442578  0.055860  0.056907  1
  Nd  Nd6  1  0.442578  0.055860  0.444656  1
  Nd  Nd7  1  0.055860  0.442578  0.056907  1
  Nd  Nd8  1  0.443450  0.443450  0.056550  1
  Nd  Nd9  1  0.056100  0.056100  0.443900  1
  Nd  Nd10  1  0.188691  0.811232  0.813268  1
  Nd  Nd11  1  0.811232  0.188691  0.186808  1
  Nd  Nd12  1  0.811232  0.188691  0.813268  1
  Nd  Nd13  1  0.188691  0.811232  0.186808  1
  Nd  Nd14  1  0.813198  0.813198  0.186802  1
  Nd  Nd15  1  0.188631  0.188631  0.811369  1
  Al  Al16  1  0.824167  0.824167  0.824677  1
  Al  Al17  1  0.824167  0.824167  0.526992  1
  Al  Al18  1  0.824248  0.526922  0.824416  1
  Al  Al19  1  0.526922  0.824248  0.824416  1
  Ir  Ir20  1  0.392596  0.392596  0.391064  1
  Ir  Ir21  1  0.392596  0.392596  0.823744  1
  Rh  Rh22  1  0.392505  0.824935  0.391280  1
  Rh  Rh23  1  0.824935  0.392505  0.391280  1
