# generated using pymatgen
data_SrFe2Ni(P2O7)2
_symmetry_space_group_name_H-M   'P 1'
_cell_length_a   7.82805300
_cell_length_b   7.62261538
_cell_length_c   9.65578318
_cell_angle_alpha   67.59577319
_cell_angle_beta   90.00000000
_cell_angle_gamma   90.00000000
_symmetry_Int_Tables_number   1
_chemical_formula_structural   SrFe2Ni(P2O7)2
_chemical_formula_sum   'Sr2 Fe4 Ni2 P8 O28'
_cell_volume   532.67290038
_cell_formula_units_Z   2
loop_
 _symmetry_equiv_pos_site_id
 _symmetry_equiv_pos_as_xyz
  1  'x, y, z'
loop_
 _atom_site_type_symbol
 _atom_site_label
 _atom_site_symmetry_multiplicity
 _atom_site_fract_x
 _atom_site_fract_y
 _atom_site_fract_z
 _atom_site_occupancy
  Sr  Sr0  1  0.500000  0.500000  0.500000  1
  Sr  Sr1  1  0.000000  0.500000  0.000000  1
  Fe  Fe2  1  0.124573  0.811565  0.528726  1
  Fe  Fe3  1  0.624573  0.188435  0.971274  1
  Fe  Fe4  1  0.875427  0.188435  0.471274  1
  Fe  Fe5  1  0.375427  0.811565  0.028726  1
  Ni  Ni6  1  0.500000  0.000000  0.500000  1
  Ni  Ni7  1  0.000000  0.000000  0.000000  1
  P  P8  1  0.944555  0.393604  0.704408  1
  P  P9  1  0.444555  0.606396  0.795592  1
  P  P10  1  0.055445  0.606396  0.295592  1
  P  P11  1  0.555445  0.393604  0.204408  1
  P  P12  1  0.202615  0.112186  0.693524  1
  P  P13  1  0.702615  0.887814  0.806476  1
  P  P14  1  0.797385  0.887814  0.306476  1
  P  P15  1  0.297385  0.112186  0.193524  1
  O  O16  1  0.373625  0.155393  0.611859  1
  O  O17  1  0.873625  0.844607  0.888141  1
  O  O18  1  0.626375  0.844607  0.388141  1
  O  O19  1  0.126375  0.155393  0.111859  1
  O  O20  1  0.392307  0.732706  0.631895  1
  O  O21  1  0.892307  0.267294  0.868105  1
  O  O22  1  0.607693  0.267294  0.368105  1
  O  O23  1  0.107693  0.732706  0.131895  1
  O  O24  1  0.817290  0.377205  0.590896  1
  O  O25  1  0.317290  0.622795  0.909104  1
  O  O26  1  0.182710  0.622795  0.409104  1
  O  O27  1  0.682710  0.377205  0.090896  1
  O  O28  1  0.128895  0.318581  0.674625  1
  O  O29  1  0.628895  0.681419  0.825375  1
  O  O30  1  0.871105  0.681419  0.325375  1
  O  O31  1  0.371105  0.318581  0.174625  1
  O  O32  1  0.514414  0.593730  0.196871  1
  O  O33  1  0.014414  0.406270  0.303129  1
  O  O34  1  0.485586  0.406270  0.803129  1
  O  O35  1  0.985586  0.593730  0.696871  1
  O  O36  1  0.790953  0.995808  0.135524  1
  O  O37  1  0.290953  0.004192  0.364476  1
  O  O38  1  0.209047  0.004192  0.864476  1
  O  O39  1  0.709047  0.995808  0.635524  1
  O  O40  1  0.424570  0.026675  0.115834  1
  O  O41  1  0.924570  0.973325  0.384166  1
  O  O42  1  0.575430  0.973325  0.884166  1
  O  O43  1  0.075430  0.026675  0.615834  1
