# generated using pymatgen
data_Nb3Ga2IrN
_symmetry_space_group_name_H-M   'P 1'
_cell_length_a   8.32040826
_cell_length_b   8.32040747
_cell_length_c   8.32040900
_cell_angle_alpha   59.99999790
_cell_angle_beta   60.00000104
_cell_angle_gamma   59.99999755
_symmetry_Int_Tables_number   1
_chemical_formula_structural   Nb3Ga2IrN
_chemical_formula_sum   'Nb12 Ga8 Ir4 N4'
_cell_volume   407.30420857
_cell_formula_units_Z   4
loop_
 _symmetry_equiv_pos_site_id
 _symmetry_equiv_pos_as_xyz
  1  'x, y, z'
loop_
 _atom_site_type_symbol
 _atom_site_label
 _atom_site_symmetry_multiplicity
 _atom_site_fract_x
 _atom_site_fract_y
 _atom_site_fract_z
 _atom_site_occupancy
  Nb  Nb0  1  0.812776  0.812776  0.187224  1
  Nb  Nb1  1  0.187224  0.187224  0.812776  1
  Nb  Nb2  1  0.812776  0.187224  0.812776  1
  Nb  Nb3  1  0.187224  0.812776  0.187224  1
  Nb  Nb4  1  0.187224  0.812776  0.812776  1
  Nb  Nb5  1  0.812776  0.187224  0.187224  1
  Nb  Nb6  1  0.437224  0.437224  0.062776  1
  Nb  Nb7  1  0.062776  0.062776  0.437224  1
  Nb  Nb8  1  0.437224  0.062776  0.437224  1
  Nb  Nb9  1  0.062776  0.437224  0.062776  1
  Nb  Nb10  1  0.062776  0.437224  0.437224  1
  Nb  Nb11  1  0.437224  0.062776  0.062776  1
  Ga  Ga12  1  0.758189  0.413938  0.413938  1
  Ga  Ga13  1  0.413938  0.758189  0.413938  1
  Ga  Ga14  1  0.413938  0.413938  0.758189  1
  Ga  Ga15  1  0.413938  0.413938  0.413938  1
  Ga  Ga16  1  0.491811  0.836062  0.836062  1
  Ga  Ga17  1  0.836062  0.491811  0.836062  1
  Ga  Ga18  1  0.836062  0.836062  0.491811  1
  Ga  Ga19  1  0.836062  0.836062  0.836062  1
  Ir  Ir20  1  0.125000  0.625000  0.625000  1
  Ir  Ir21  1  0.625000  0.125000  0.625000  1
  Ir  Ir22  1  0.625000  0.625000  0.125000  1
  Ir  Ir23  1  0.625000  0.625000  0.625000  1
  N  N24  1  0.625000  0.125000  0.125000  1
  N  N25  1  0.125000  0.625000  0.125000  1
  N  N26  1  0.125000  0.125000  0.625000  1
  N  N27  1  0.125000  0.125000  0.125000  1
