# generated using pymatgen
data_CsYb(BH4)3
_symmetry_space_group_name_H-M   'P 1'
_cell_length_a   5.82086600
_cell_length_b   8.00393700
_cell_length_c   7.94015200
_cell_angle_alpha   90.00000000
_cell_angle_beta   90.00000000
_cell_angle_gamma   90.00000000
_symmetry_Int_Tables_number   1
_chemical_formula_structural   CsYb(BH4)3
_chemical_formula_sum   'Cs2 Yb2 B6 H24'
_cell_volume   369.93044897
_cell_formula_units_Z   2
loop_
 _symmetry_equiv_pos_site_id
 _symmetry_equiv_pos_as_xyz
  1  'x, y, z'
loop_
 _atom_site_type_symbol
 _atom_site_label
 _atom_site_symmetry_multiplicity
 _atom_site_fract_x
 _atom_site_fract_y
 _atom_site_fract_z
 _atom_site_occupancy
  Cs  Cs0  1  0.465191  0.500000  0.000000  1
  Cs  Cs1  1  0.534809  0.000000  0.500000  1
  Yb  Yb2  1  0.989820  0.500000  0.500000  1
  Yb  Yb3  1  0.010180  0.000000  0.000000  1
  B  B4  1  0.943338  0.719780  0.769809  1
  B  B5  1  0.943338  0.280220  0.230191  1
  B  B6  1  0.056662  0.219780  0.730191  1
  B  B7  1  0.056662  0.780220  0.269809  1
  B  B8  1  0.514255  0.000000  0.000000  1
  B  B9  1  0.485745  0.500000  0.500000  1
  H  H10  1  0.937347  0.567568  0.790050  1
  H  H11  1  0.937347  0.432432  0.209950  1
  H  H12  1  0.062653  0.067568  0.709950  1
  H  H13  1  0.062653  0.932432  0.290050  1
  H  H14  1  0.911764  0.756765  0.621665  1
  H  H15  1  0.911764  0.243235  0.378335  1
  H  H16  1  0.088236  0.256765  0.878335  1
  H  H17  1  0.088236  0.743235  0.121665  1
  H  H18  1  0.791090  0.782908  0.854324  1
  H  H19  1  0.791090  0.217092  0.145676  1
  H  H20  1  0.208910  0.282908  0.645676  1
  H  H21  1  0.208910  0.717092  0.354324  1
  H  H22  1  0.132973  0.770805  0.811556  1
  H  H23  1  0.132973  0.229195  0.188444  1
  H  H24  1  0.867027  0.270805  0.688444  1
  H  H25  1  0.867027  0.729195  0.311556  1
  H  H26  1  0.634418  0.923410  0.101923  1
  H  H27  1  0.634418  0.076590  0.898077  1
  H  H28  1  0.365582  0.423410  0.398077  1
  H  H29  1  0.365582  0.576590  0.601923  1
  H  H30  1  0.395208  0.899325  0.922799  1
  H  H31  1  0.395208  0.100675  0.077201  1
  H  H32  1  0.604792  0.399325  0.577201  1
  H  H33  1  0.604792  0.600675  0.422799  1
