# generated using pymatgen
data_Nb4Co5SiOs2
_symmetry_space_group_name_H-M   'P 1'
_cell_length_a   4.82241869
_cell_length_b   4.82241741
_cell_length_c   8.13531600
_cell_angle_alpha   90.00000000
_cell_angle_beta   90.00000000
_cell_angle_gamma   119.42037792
_symmetry_Int_Tables_number   1
_chemical_formula_structural   Nb4Co5SiOs2
_chemical_formula_sum   'Nb4 Co5 Si1 Os2'
_cell_volume   164.79416097
_cell_formula_units_Z   1
loop_
 _symmetry_equiv_pos_site_id
 _symmetry_equiv_pos_as_xyz
  1  'x, y, z'
loop_
 _atom_site_type_symbol
 _atom_site_label
 _atom_site_symmetry_multiplicity
 _atom_site_fract_x
 _atom_site_fract_y
 _atom_site_fract_z
 _atom_site_occupancy
  Nb  Nb0  1  0.334000  0.666000  0.429416  1
  Nb  Nb1  1  0.668287  0.331713  0.570733  1
  Nb  Nb2  1  0.668287  0.331713  0.929267  1
  Nb  Nb3  1  0.334000  0.666000  0.070584  1
  Co  Co4  1  0.833154  0.656164  0.250000  1
  Co  Co5  1  0.343836  0.166846  0.250000  1
  Co  Co6  1  0.168322  0.831678  0.750000  1
  Co  Co7  1  0.171559  0.344403  0.750000  1
  Co  Co8  1  0.655597  0.828441  0.750000  1
  Si  Si9  1  0.825337  0.174663  0.250000  1
  Os  Os10  1  0.998811  0.001189  0.503548  1
  Os  Os11  1  0.998811  0.001189  0.996452  1
