# generated using pymatgen
data_Ti2Si2MoRu
_symmetry_space_group_name_H-M   'P 1'
_cell_length_a   7.56276986
_cell_length_b   7.54556621
_cell_length_c   7.56259448
_cell_angle_alpha   126.05351255
_cell_angle_beta   128.84175444
_cell_angle_gamma   77.60240400
_symmetry_Int_Tables_number   1
_chemical_formula_structural   Ti2Si2MoRu
_chemical_formula_sum   'Ti6 Si6 Mo3 Ru3'
_cell_volume   263.45681028
_cell_formula_units_Z   3
loop_
 _symmetry_equiv_pos_site_id
 _symmetry_equiv_pos_as_xyz
  1  'x, y, z'
loop_
 _atom_site_type_symbol
 _atom_site_label
 _atom_site_symmetry_multiplicity
 _atom_site_fract_x
 _atom_site_fract_y
 _atom_site_fract_z
 _atom_site_occupancy
  Ti  Ti0  1  0.244982  0.903652  0.156839  1
  Ti  Ti1  1  0.948388  0.484199  0.032856  1
  Ti  Ti2  1  0.052783  0.098913  0.544159  1
  Ti  Ti3  1  0.451129  0.483565  0.535641  1
  Ti  Ti4  1  0.747623  0.904660  0.659143  1
  Ti  Ti5  1  0.555406  0.100679  0.047752  1
  Si  Si6  1  0.751486  0.506946  0.252696  1
  Si  Si7  1  0.168301  0.158402  0.990762  1
  Si  Si8  1  0.665282  0.154632  0.489053  1
  Si  Si9  1  0.330653  0.823434  0.494596  1
  Si  Si10  1  0.253853  0.506283  0.754802  1
  Si  Si11  1  0.828308  0.827382  0.997487  1
  Mo  Mo12  1  0.499688  0.236308  0.736534  1
  Mo  Mo13  1  0.000903  0.238171  0.237123  1
  Mo  Mo14  1  0.868506  0.497674  0.629016  1
  Ru  Ru15  1  0.630333  0.759676  0.128602  1
  Ru  Ru16  1  0.369913  0.496717  0.126607  1
  Ru  Ru17  1  0.132463  0.760918  0.628542  1
