# generated using pymatgen
data_LiLuH6Os
_symmetry_space_group_name_H-M   'P 1'
_cell_length_a   4.78166957
_cell_length_b   4.78167190
_cell_length_c   4.78170800
_cell_angle_alpha   59.99982841
_cell_angle_beta   60.00001629
_cell_angle_gamma   60.00001576
_symmetry_Int_Tables_number   1
_chemical_formula_structural   LiLuH6Os
_chemical_formula_sum   'Li1 Lu1 H6 Os1'
_cell_volume   77.30844377
_cell_formula_units_Z   1
loop_
 _symmetry_equiv_pos_site_id
 _symmetry_equiv_pos_as_xyz
  1  'x, y, z'
loop_
 _atom_site_type_symbol
 _atom_site_label
 _atom_site_symmetry_multiplicity
 _atom_site_fract_x
 _atom_site_fract_y
 _atom_site_fract_z
 _atom_site_occupancy
  Li  Li0  1  0.749998  0.750002  0.749997  1
  Lu  Lu1  1  0.249994  0.250000  0.250006  1
  H  H2  1  0.746918  0.746919  0.253085  1
  H  H3  1  0.746914  0.253086  0.253088  1
  H  H4  1  0.253081  0.746918  0.253081  1
  H  H5  1  0.253078  0.746922  0.746922  1
  H  H6  1  0.253079  0.253082  0.746919  1
  H  H7  1  0.746916  0.253085  0.746920  1
  Os  Os8  1  0.000019  0.999990  0.999983  1
