# generated using pymatgen
data_Nd7Er7Th2(CdIr)4
_symmetry_space_group_name_H-M   'P 1'
_cell_length_a   9.78338036
_cell_length_b   9.78338000
_cell_length_c   9.74726200
_cell_angle_alpha   60.12204110
_cell_angle_beta   60.12204232
_cell_angle_gamma   60.45981711
_symmetry_Int_Tables_number   1
_chemical_formula_structural   Nd7Er7Th2(CdIr)4
_chemical_formula_sum   'Nd7 Er7 Th2 Cd4 Ir4'
_cell_volume   663.18740599
_cell_formula_units_Z   1
loop_
 _symmetry_equiv_pos_site_id
 _symmetry_equiv_pos_as_xyz
  1  'x, y, z'
loop_
 _atom_site_type_symbol
 _atom_site_label
 _atom_site_symmetry_multiplicity
 _atom_site_fract_x
 _atom_site_fract_y
 _atom_site_fract_z
 _atom_site_occupancy
  Nd  Nd0  1  0.812708  0.812708  0.187292  1
  Nd  Nd1  1  0.941016  0.559909  0.561779  1
  Nd  Nd2  1  0.559909  0.941016  0.937297  1
  Nd  Nd3  1  0.559909  0.941016  0.561779  1
  Nd  Nd4  1  0.941016  0.559909  0.937297  1
  Nd  Nd5  1  0.561949  0.561949  0.938051  1
  Nd  Nd6  1  0.941815  0.941815  0.558185  1
  Er  Er7  1  0.346175  0.955143  0.349341  1
  Er  Er8  1  0.955143  0.346175  0.349341  1
  Er  Er9  1  0.814381  0.189809  0.185289  1
  Er  Er10  1  0.189809  0.814381  0.810521  1
  Er  Er11  1  0.189809  0.814381  0.185289  1
  Er  Er12  1  0.814381  0.189809  0.810521  1
  Er  Er13  1  0.184486  0.184486  0.815514  1
  Th  Th14  1  0.345460  0.345460  0.349803  1
  Th  Th15  1  0.345460  0.345460  0.959277  1
  Cd  Cd16  1  0.579173  0.579173  0.579061  1
  Cd  Cd17  1  0.579173  0.579173  0.262593  1
  Cd  Cd18  1  0.581333  0.259467  0.579600  1
  Cd  Cd19  1  0.259467  0.581333  0.579600  1
  Ir  Ir20  1  0.140095  0.140095  0.144608  1
  Ir  Ir21  1  0.140095  0.140095  0.575201  1
  Ir  Ir22  1  0.146751  0.570487  0.141381  1
  Ir  Ir23  1  0.570487  0.146751  0.141381  1
