# generated using pymatgen
data_Y8Si12IrPt3
_symmetry_space_group_name_H-M   'P 1'
_cell_length_a   8.18942700
_cell_length_b   8.18943413
_cell_length_c   8.00791800
_cell_angle_alpha   90.00006996
_cell_angle_beta   90.00001399
_cell_angle_gamma   120.00005601
_symmetry_Int_Tables_number   1
_chemical_formula_structural   Y8Si12IrPt3
_chemical_formula_sum   'Y8 Si12 Ir1 Pt3'
_cell_volume   465.11186048
_cell_formula_units_Z   1
loop_
 _symmetry_equiv_pos_site_id
 _symmetry_equiv_pos_as_xyz
  1  'x, y, z'
loop_
 _atom_site_type_symbol
 _atom_site_label
 _atom_site_symmetry_multiplicity
 _atom_site_fract_x
 _atom_site_fract_y
 _atom_site_fract_z
 _atom_site_occupancy
  Y  Y0  1  0.000000  0.999999  0.249224  1
  Y  Y1  1  0.000000  0.000001  0.749475  1
  Y  Y2  1  0.508352  0.491650  0.251964  1
  Y  Y3  1  0.508351  0.016703  0.251965  1
  Y  Y4  1  0.983298  0.491648  0.251964  1
  Y  Y5  1  0.489416  0.510582  0.748259  1
  Y  Y6  1  0.489417  0.978834  0.748259  1
  Y  Y7  1  0.021166  0.510584  0.748258  1
  Si  Si8  1  0.167103  0.832896  0.498737  1
  Si  Si9  1  0.167103  0.334207  0.498736  1
  Si  Si10  1  0.665793  0.832896  0.498737  1
  Si  Si11  1  0.835138  0.164863  0.500506  1
  Si  Si12  1  0.835138  0.670274  0.500506  1
  Si  Si13  1  0.329726  0.164863  0.500506  1
  Si  Si14  1  0.834674  0.165326  0.999739  1
  Si  Si15  1  0.834674  0.669347  0.999739  1
  Si  Si16  1  0.330653  0.165326  0.999739  1
  Si  Si17  1  0.165303  0.834697  0.999668  1
  Si  Si18  1  0.165303  0.330607  0.999668  1
  Si  Si19  1  0.669393  0.834697  0.999668  1
  Ir  Ir20  1  0.333333  0.666667  0.469336  1
  Pt  Pt21  1  0.666667  0.333333  0.531177  1
  Pt  Pt22  1  0.666667  0.333333  0.968247  1
  Pt  Pt23  1  0.333334  0.666666  0.035924  1
