# generated using pymatgen
data_Tb2HoZn2In3Ir
_symmetry_space_group_name_H-M   'P 1'
_cell_length_a   7.75394869
_cell_length_b   7.77120713
_cell_length_c   3.84745200
_cell_angle_alpha   90.00000000
_cell_angle_beta   90.00000000
_cell_angle_gamma   119.87822123
_symmetry_Int_Tables_number   1
_chemical_formula_structural   Tb2HoZn2In3Ir
_chemical_formula_sum   'Tb2 Ho1 Zn2 In3 Ir1'
_cell_volume   201.02352097
_cell_formula_units_Z   1
loop_
 _symmetry_equiv_pos_site_id
 _symmetry_equiv_pos_as_xyz
  1  'x, y, z'
loop_
 _atom_site_type_symbol
 _atom_site_label
 _atom_site_symmetry_multiplicity
 _atom_site_fract_x
 _atom_site_fract_y
 _atom_site_fract_z
 _atom_site_occupancy
  Tb  Tb0  1  0.609154  0.024190  0.000000  1
  Tb  Tb1  1  0.975704  0.585149  0.000000  1
  Ho  Ho2  1  0.415917  0.389904  0.000000  1
  Zn  Zn3  1  0.000214  0.000308  0.000000  1
  Zn  Zn4  1  0.333588  0.666134  0.500000  1
  In  In5  1  0.006971  0.266351  0.500000  1
  In  In6  1  0.733296  0.739653  0.500000  1
  In  In7  1  0.259928  0.994221  0.500000  1
  Ir  Ir8  1  0.665229  0.334092  0.500000  1
