# generated using pymatgen
data_Ti4Be2B4Ru3Rh7
_symmetry_space_group_name_H-M   'P 1'
_cell_length_a   2.94029300
_cell_length_b   9.10547478
_cell_length_c   9.05767081
_cell_angle_alpha   90.17665978
_cell_angle_beta   90.00000000
_cell_angle_gamma   90.00000000
_symmetry_Int_Tables_number   1
_chemical_formula_structural   Ti4Be2B4Ru3Rh7
_chemical_formula_sum   'Ti4 Be2 B4 Ru3 Rh7'
_cell_volume   242.49772794
_cell_formula_units_Z   1
loop_
 _symmetry_equiv_pos_site_id
 _symmetry_equiv_pos_as_xyz
  1  'x, y, z'
loop_
 _atom_site_type_symbol
 _atom_site_label
 _atom_site_symmetry_multiplicity
 _atom_site_fract_x
 _atom_site_fract_y
 _atom_site_fract_z
 _atom_site_occupancy
  Ti  Ti0  1  0.000000  0.828081  0.174155  1
  Ti  Ti1  1  0.000000  0.327622  0.320249  1
  Ti  Ti2  1  0.000000  0.673489  0.672733  1
  Ti  Ti3  1  0.000000  0.177996  0.834031  1
  Be  Be4  1  0.000000  0.496090  0.999794  1
  Be  Be5  1  0.000000  0.999884  0.499849  1
  B  B6  1  0.000000  0.130415  0.126322  1
  B  B7  1  0.000000  0.627317  0.371672  1
  B  B8  1  0.000000  0.371895  0.626707  1
  B  B9  1  0.000000  0.871588  0.873351  1
  Ru  Ru10  1  0.499999  0.997852  0.001210  1
  Ru  Ru11  1  0.499999  0.292119  0.072251  1
  Ru  Ru12  1  0.499999  0.498998  0.498189  1
  Rh  Rh13  1  0.499999  0.573369  0.205460  1
  Rh  Rh14  1  0.499999  0.070349  0.294787  1
  Rh  Rh15  1  0.499999  0.792577  0.429041  1
  Rh  Rh16  1  0.499999  0.206766  0.572745  1
  Rh  Rh17  1  0.499999  0.928466  0.707296  1
  Rh  Rh18  1  0.499999  0.429465  0.792478  1
  Rh  Rh19  1  0.499999  0.705671  0.927689  1
