# generated using pymatgen
data_CaLa3Pr5Rh6
_symmetry_space_group_name_H-M   'P 1'
_cell_length_a   7.73456507
_cell_length_b   7.73134068
_cell_length_c   7.73638500
_cell_angle_alpha   70.29943011
_cell_angle_beta   70.33366004
_cell_angle_gamma   70.21203422
_symmetry_Int_Tables_number   1
_chemical_formula_structural   CaLa3Pr5Rh6
_chemical_formula_sum   'Ca1 La3 Pr5 Rh6'
_cell_volume   396.70033325
_cell_formula_units_Z   1
loop_
 _symmetry_equiv_pos_site_id
 _symmetry_equiv_pos_as_xyz
  1  'x, y, z'
loop_
 _atom_site_type_symbol
 _atom_site_label
 _atom_site_symmetry_multiplicity
 _atom_site_fract_x
 _atom_site_fract_y
 _atom_site_fract_z
 _atom_site_occupancy
  Ca  Ca0  1  0.999300  0.997590  0.000952  1
  La  La1  1  0.799294  0.802126  0.799660  1
  La  La2  1  0.199448  0.197473  0.200212  1
  La  La3  1  0.156647  0.386420  0.672186  1
  Pr  Pr4  1  0.671564  0.155996  0.387177  1
  Pr  Pr5  1  0.388098  0.670378  0.155517  1
  Pr  Pr6  1  0.842956  0.611553  0.330005  1
  Pr  Pr7  1  0.331317  0.843488  0.611555  1
  Pr  Pr8  1  0.611390  0.330446  0.845164  1
  Rh  Rh9  1  0.957152  0.177633  0.577040  1
  Rh  Rh10  1  0.577122  0.955088  0.173350  1
  Rh  Rh11  1  0.175726  0.575143  0.953230  1
  Rh  Rh12  1  0.044589  0.824837  0.423857  1
  Rh  Rh13  1  0.420454  0.047925  0.824942  1
  Rh  Rh14  1  0.824941  0.423905  0.045152  1
