# generated using pymatgen
data_Sm2Er3Lu3(WO6)4
_symmetry_space_group_name_H-M   'P 1'
_cell_length_a   5.38593523
_cell_length_b   7.68142491
_cell_length_c   11.40701708
_cell_angle_alpha   75.46532679
_cell_angle_beta   90.01132215
_cell_angle_gamma   90.03326095
_symmetry_Int_Tables_number   1
_chemical_formula_structural   Sm2Er3Lu3(WO6)4
_chemical_formula_sum   'Sm2 Er3 Lu3 W4 O24'
_cell_volume   456.82353562
_cell_formula_units_Z   1
loop_
 _symmetry_equiv_pos_site_id
 _symmetry_equiv_pos_as_xyz
  1  'x, y, z'
loop_
 _atom_site_type_symbol
 _atom_site_label
 _atom_site_symmetry_multiplicity
 _atom_site_fract_x
 _atom_site_fract_y
 _atom_site_fract_z
 _atom_site_occupancy
  Sm  Sm0  1  0.314662  0.499802  0.749956  1
  Sm  Sm1  1  0.685528  0.499466  0.250442  1
  Er  Er2  1  0.256616  0.000372  0.749499  1
  Er  Er3  1  0.184239  0.796829  0.077482  1
  Er  Er4  1  0.743485  0.000371  0.250613  1
  Lu  Lu5  1  0.183918  0.203896  0.421760  1
  Lu  Lu6  1  0.815702  0.204415  0.921623  1
  Lu  Lu7  1  0.815954  0.796186  0.578040  1
  W  W8  1  0.744932  0.726540  0.884330  1
  W  W9  1  0.255756  0.726792  0.385467  1
  W  W10  1  0.744620  0.273103  0.615023  1
  W  W11  1  0.255400  0.272763  0.115105  1
  O  O12  1  0.540123  0.155596  0.068257  1
  O  O13  1  0.042255  0.059161  0.103248  1
  O  O14  1  0.016268  0.718679  0.768451  1
  O  O15  1  0.459341  0.156234  0.568260  1
  O  O16  1  0.350174  0.489850  0.387175  1
  O  O17  1  0.955174  0.056778  0.603029  1
  O  O18  1  0.544882  0.795540  0.724312  1
  O  O19  1  0.457564  0.795368  0.226248  1
  O  O20  1  0.143512  0.639800  0.547957  1
  O  O21  1  0.045057  0.943338  0.396977  1
  O  O22  1  0.461864  0.845119  0.929939  1
  O  O23  1  0.455110  0.203862  0.275410  1
  O  O24  1  0.856506  0.359992  0.452321  1
  O  O25  1  0.649246  0.489532  0.886799  1
  O  O26  1  0.352180  0.508742  0.112987  1
  O  O27  1  0.954642  0.943729  0.896280  1
  O  O28  1  0.540676  0.844013  0.432306  1
  O  O29  1  0.984440  0.281758  0.231763  1
  O  O30  1  0.544735  0.204223  0.775233  1
  O  O31  1  0.852920  0.638304  0.047541  1
  O  O32  1  0.015703  0.281327  0.731416  1
  O  O33  1  0.143699  0.360275  0.952141  1
  O  O34  1  0.983366  0.718286  0.269787  1
  O  O35  1  0.649751  0.509961  0.612823  1
