# generated using pymatgen
data_Bi2Ir3RhPbAuO14
_symmetry_space_group_name_H-M   'P 1'
_cell_length_a   7.25209589
_cell_length_b   7.41913663
_cell_length_c   7.39662691
_cell_angle_alpha   59.89929800
_cell_angle_beta   59.23100981
_cell_angle_gamma   59.23509330
_symmetry_Int_Tables_number   1
_chemical_formula_structural   Bi2Ir3RhPbAuO14
_chemical_formula_sum   'Bi2 Ir3 Rh1 Pb1 Au1 O14'
_cell_volume   277.89381172
_cell_formula_units_Z   1
loop_
 _symmetry_equiv_pos_site_id
 _symmetry_equiv_pos_as_xyz
  1  'x, y, z'
loop_
 _atom_site_type_symbol
 _atom_site_label
 _atom_site_symmetry_multiplicity
 _atom_site_fract_x
 _atom_site_fract_y
 _atom_site_fract_z
 _atom_site_occupancy
  Bi  Bi0  1  0.125000  0.625000  0.125000  1
  Bi  Bi1  1  0.125000  0.125000  0.125000  1
  Ir  Ir2  1  0.625000  0.125000  0.625000  1
  Ir  Ir3  1  0.625000  0.625000  0.125000  1
  Ir  Ir4  1  0.625000  0.625000  0.625000  1
  Rh  Rh5  1  0.125000  0.625000  0.625000  1
  Pb  Pb6  1  0.125000  0.125000  0.625000  1
  Au  Au7  1  0.625000  0.125000  0.125000  1
  O  O8  1  0.703490  0.693005  0.301552  1
  O  O9  1  0.292318  0.292001  0.709224  1
  O  O10  1  0.702468  0.302079  0.693374  1
  O  O11  1  0.291512  0.708778  0.290933  1
  O  O12  1  0.292318  0.706458  0.709224  1
  O  O13  1  0.703490  0.301953  0.301552  1
  O  O14  1  0.546510  0.556995  0.948448  1
  O  O15  1  0.957682  0.957999  0.540776  1
  O  O16  1  0.547532  0.947921  0.556626  1
  O  O17  1  0.958488  0.541222  0.959067  1
  O  O18  1  0.957682  0.543542  0.540776  1
  O  O19  1  0.546510  0.948047  0.948448  1
  O  O20  1  0.278484  0.243338  0.234841  1
  O  O21  1  0.971516  0.006662  0.015159  1
