# generated using pymatgen
data_La4Ga9SiPd6
_symmetry_space_group_name_H-M   'P 1'
_cell_length_a   8.72917965
_cell_length_b   8.75047399
_cell_length_c   8.75047400
_cell_angle_alpha   140.36511727
_cell_angle_beta   107.67113925
_cell_angle_gamma   85.80693545
_symmetry_Int_Tables_number   1
_chemical_formula_structural   La4Ga9SiPd6
_chemical_formula_sum   'La4 Ga9 Si1 Pd6'
_cell_volume   391.80038458
_cell_formula_units_Z   1
loop_
 _symmetry_equiv_pos_site_id
 _symmetry_equiv_pos_as_xyz
  1  'x, y, z'
loop_
 _atom_site_type_symbol
 _atom_site_label
 _atom_site_symmetry_multiplicity
 _atom_site_fract_x
 _atom_site_fract_y
 _atom_site_fract_z
 _atom_site_occupancy
  La  La0  1  0.861873  0.637784  0.224087  1
  La  La1  1  0.139965  0.366595  0.773370  1
  La  La2  1  0.407526  0.135592  0.271934  1
  La  La3  1  0.584658  0.859766  0.724892  1
  Ga  Ga4  1  0.502377  0.751882  0.252417  1
  Ga  Ga5  1  0.502377  0.249959  0.750496  1
  Ga  Ga6  1  0.213782  0.960480  0.747481  1
  Ga  Ga7  1  0.783782  0.536013  0.749036  1
  Ga  Ga8  1  0.783782  0.034747  0.247768  1
  Ga  Ga9  1  0.213782  0.466302  0.253303  1
  Ga  Ga10  1  0.056559  0.896987  0.159572  1
  Ga  Ga11  1  0.939618  0.097128  0.842490  1
  Ga  Ga12  1  0.741733  0.401088  0.340645  1
  Si  Si13  1  0.259469  0.603926  0.655542  1
  Pd  Pd14  1  0.009196  0.747943  0.753205  1
  Pd  Pd15  1  0.009196  0.255991  0.261253  1
  Pd  Pd16  1  0.257894  0.858068  0.399824  1
  Pd  Pd17  1  0.746379  0.142879  0.603500  1
  Pd  Pd18  1  0.456542  0.357157  0.099385  1
  Pd  Pd19  1  0.529511  0.639713  0.889799  1
