# generated using pymatgen
data_Cs12Sc(AlTe4)3
_symmetry_space_group_name_H-M   'P 1'
_cell_length_a   14.91154217
_cell_length_b   9.32593581
_cell_length_c   12.15788594
_cell_angle_alpha   53.19558090
_cell_angle_beta   90.15219135
_cell_angle_gamma   90.32961717
_symmetry_Int_Tables_number   1
_chemical_formula_structural   Cs12Sc(AlTe4)3
_chemical_formula_sum   'Cs12 Sc1 Al3 Te12'
_cell_volume   1353.71559707
_cell_formula_units_Z   1
loop_
 _symmetry_equiv_pos_site_id
 _symmetry_equiv_pos_as_xyz
  1  'x, y, z'
loop_
 _atom_site_type_symbol
 _atom_site_label
 _atom_site_symmetry_multiplicity
 _atom_site_fract_x
 _atom_site_fract_y
 _atom_site_fract_z
 _atom_site_occupancy
  Cs  Cs0  1  0.581225  0.648740  0.111348  1
  Cs  Cs1  1  0.080908  0.352621  0.388980  1
  Cs  Cs2  1  0.418773  0.352056  0.890465  1
  Cs  Cs3  1  0.919204  0.646657  0.611686  1
  Cs  Cs4  1  0.307858  0.874282  0.913309  1
  Cs  Cs5  1  0.812355  0.128018  0.586776  1
  Cs  Cs6  1  0.690975  0.125511  0.085705  1
  Cs  Cs7  1  0.188974  0.874120  0.411019  1
  Cs  Cs8  1  0.875679  0.623948  0.015540  1
  Cs  Cs9  1  0.373942  0.377672  0.485151  1
  Cs  Cs10  1  0.124750  0.374842  0.985162  1
  Cs  Cs11  1  0.625662  0.623251  0.514493  1
  Sc  Sc12  1  0.558351  0.933988  0.656467  1
  Al  Al13  1  0.058665  0.066342  0.841990  1
  Al  Al14  1  0.441256  0.066433  0.342534  1
  Al  Al15  1  0.941226  0.933281  0.158120  1
  Te  Te16  1  0.105153  0.858799  0.112542  1
  Te  Te17  1  0.607677  0.150150  0.375387  1
  Te  Te18  1  0.895003  0.140660  0.887465  1
  Te  Te19  1  0.386301  0.855838  0.609713  1
  Te  Te20  1  0.834588  0.650897  0.305755  1
  Te  Te21  1  0.335363  0.348002  0.195943  1
  Te  Te22  1  0.165618  0.347936  0.694913  1
  Te  Te23  1  0.670619  0.640839  0.811437  1
  Te  Te24  1  0.056027  0.886459  0.739090  1
  Te  Te25  1  0.555560  0.120268  0.767033  1
  Te  Te26  1  0.944189  0.112933  0.261272  1
  Te  Te27  1  0.444102  0.885456  0.240705  1
