# generated using pymatgen
data_Al2SbS4
_symmetry_space_group_name_H-M   'P 1'
_cell_length_a   7.57275200
_cell_length_b   7.57275200
_cell_length_c   12.01167800
_cell_angle_alpha   90.00000000
_cell_angle_beta   90.00000000
_cell_angle_gamma   90.00000000
_symmetry_Int_Tables_number   1
_chemical_formula_structural   Al2SbS4
_chemical_formula_sum   'Al8 Sb4 S16'
_cell_volume   688.82856752
_cell_formula_units_Z   4
loop_
 _symmetry_equiv_pos_site_id
 _symmetry_equiv_pos_as_xyz
  1  'x, y, z'
loop_
 _atom_site_type_symbol
 _atom_site_label
 _atom_site_symmetry_multiplicity
 _atom_site_fract_x
 _atom_site_fract_y
 _atom_site_fract_z
 _atom_site_occupancy
  Al  Al0  1  0.000000  0.500000  0.750000  1
  Al  Al1  1  0.000000  0.500000  0.000000  1
  Al  Al2  1  0.000000  0.500000  0.250000  1
  Al  Al3  1  0.500000  0.000000  0.500000  1
  Al  Al4  1  0.500000  0.000000  0.250000  1
  Al  Al5  1  0.500000  0.000000  0.750000  1
  Al  Al6  1  0.000000  0.500000  0.500000  1
  Al  Al7  1  0.500000  0.000000  0.000000  1
  Sb  Sb8  1  0.000000  0.000000  0.873436  1
  Sb  Sb9  1  0.500000  0.500000  0.626564  1
  Sb  Sb10  1  0.500000  0.500000  0.373436  1
  Sb  Sb11  1  0.000000  0.000000  0.126564  1
  S  S12  1  0.335086  0.155991  0.875533  1
  S  S13  1  0.344009  0.164914  0.375533  1
  S  S14  1  0.835086  0.344009  0.375533  1
  S  S15  1  0.664914  0.844009  0.875533  1
  S  S16  1  0.344009  0.835086  0.624467  1
  S  S17  1  0.155991  0.335086  0.124467  1
  S  S18  1  0.335086  0.844009  0.124467  1
  S  S19  1  0.844009  0.335086  0.875533  1
  S  S20  1  0.844009  0.664914  0.124467  1
  S  S21  1  0.655991  0.164914  0.624467  1
  S  S22  1  0.155991  0.664914  0.875533  1
  S  S23  1  0.655991  0.835086  0.375533  1
  S  S24  1  0.164914  0.655991  0.375533  1
  S  S25  1  0.835086  0.655991  0.624467  1
  S  S26  1  0.164914  0.344009  0.624467  1
  S  S27  1  0.664914  0.155991  0.124467  1
