# generated using pymatgen
data_Li2Tm2ScAgPb3
_symmetry_space_group_name_H-M   'P 1'
_cell_length_a   7.32648000
_cell_length_b   7.21957590
_cell_length_c   4.58512300
_cell_angle_alpha   90.00000000
_cell_angle_beta   90.00000000
_cell_angle_gamma   120.49104091
_symmetry_Int_Tables_number   1
_chemical_formula_structural   Li2Tm2ScAgPb3
_chemical_formula_sum   'Li2 Tm2 Sc1 Ag1 Pb3'
_cell_volume   208.98659396
_cell_formula_units_Z   1
loop_
 _symmetry_equiv_pos_site_id
 _symmetry_equiv_pos_as_xyz
  1  'x, y, z'
loop_
 _atom_site_type_symbol
 _atom_site_label
 _atom_site_symmetry_multiplicity
 _atom_site_fract_x
 _atom_site_fract_y
 _atom_site_fract_z
 _atom_site_occupancy
  Li  Li0  1  0.771556  0.767641  0.000000  1
  Li  Li1  1  0.003915  0.232359  0.000000  1
  Tm  Tm2  1  0.437128  0.430316  0.500000  1
  Tm  Tm3  1  0.006811  0.569684  0.500000  1
  Sc  Sc4  1  0.550519  0.000000  0.500000  1
  Ag  Ag5  1  0.233318  0.000000  0.000000  1
  Pb  Pb6  1  0.975865  0.000000  0.500000  1
  Pb  Pb7  1  0.343272  0.665659  0.000000  1
  Pb  Pb8  1  0.677615  0.334341  0.000000  1
