# generated using pymatgen
data_SmEr(Tm2Rh9)2
_symmetry_space_group_name_H-M   'P 1'
_cell_length_a   5.25204200
_cell_length_b   5.25204168
_cell_length_c   17.52525100
_cell_angle_alpha   90.00000000
_cell_angle_beta   90.00000000
_cell_angle_gamma   119.99998943
_symmetry_Int_Tables_number   1
_chemical_formula_structural   SmEr(Tm2Rh9)2
_chemical_formula_sum   'Sm1 Er1 Tm4 Rh18'
_cell_volume   418.65017684
_cell_formula_units_Z   1
loop_
 _symmetry_equiv_pos_site_id
 _symmetry_equiv_pos_as_xyz
  1  'x, y, z'
loop_
 _atom_site_type_symbol
 _atom_site_label
 _atom_site_symmetry_multiplicity
 _atom_site_fract_x
 _atom_site_fract_y
 _atom_site_fract_z
 _atom_site_occupancy
  Sm  Sm0  1  0.666667  0.333333  0.250000  1
  Er  Er1  1  0.333333  0.666667  0.750000  1
  Tm  Tm2  1  0.333333  0.666667  0.958007  1
  Tm  Tm3  1  0.666667  0.333333  0.041394  1
  Tm  Tm4  1  0.666667  0.333333  0.458606  1
  Tm  Tm5  1  0.333333  0.666667  0.541993  1
  Rh  Rh6  1  0.167414  0.832586  0.375404  1
  Rh  Rh7  1  0.167414  0.334828  0.375404  1
  Rh  Rh8  1  0.665172  0.832586  0.375404  1
  Rh  Rh9  1  0.832569  0.167431  0.625195  1
  Rh  Rh10  1  0.832569  0.665139  0.625195  1
  Rh  Rh11  1  0.334861  0.167431  0.625195  1
  Rh  Rh12  1  0.832569  0.167431  0.874805  1
  Rh  Rh13  1  0.832569  0.665139  0.874805  1
  Rh  Rh14  1  0.334861  0.167431  0.874805  1
  Rh  Rh15  1  0.167414  0.832586  0.124596  1
  Rh  Rh16  1  0.167414  0.334828  0.124596  1
  Rh  Rh17  1  0.665172  0.832586  0.124596  1
  Rh  Rh18  1  0.333333  0.666667  0.250000  1
  Rh  Rh19  1  0.666667  0.333333  0.750000  1
  Rh  Rh20  1  0.000000  0.000000  0.250000  1
  Rh  Rh21  1  0.000000  0.000000  0.750000  1
  Rh  Rh22  1  0.000000  0.000000  0.500200  1
  Rh  Rh23  1  0.000000  0.000000  0.999800  1
