# generated using pymatgen
data_V5P3Rh
_symmetry_space_group_name_H-M   'P 1'
_cell_length_a   6.38470883
_cell_length_b   3.30105100
_cell_length_c   6.37015484
_cell_angle_alpha   90.00000000
_cell_angle_beta   120.07679673
_cell_angle_gamma   90.00000000
_symmetry_Int_Tables_number   1
_chemical_formula_structural   V5P3Rh
_chemical_formula_sum   'V5 P3 Rh1'
_cell_volume   116.18159897
_cell_formula_units_Z   1
loop_
 _symmetry_equiv_pos_site_id
 _symmetry_equiv_pos_as_xyz
  1  'x, y, z'
loop_
 _atom_site_type_symbol
 _atom_site_label
 _atom_site_symmetry_multiplicity
 _atom_site_fract_x
 _atom_site_fract_y
 _atom_site_fract_z
 _atom_site_occupancy
  V  V0  1  0.620490  0.000000  0.000002  1
  V  V1  1  0.001206  0.499999  0.257741  1
  V  V2  1  0.401778  0.000000  0.430947  1
  V  V3  1  0.970875  0.000000  0.569051  1
  V  V4  1  0.743097  0.499999  0.742068  1
  P  P5  1  0.007782  0.000000  0.000013  1
  P  P6  1  0.659920  0.499999  0.326002  1
  P  P7  1  0.333967  0.499999  0.674013  1
  Rh  Rh8  1  0.260795  0.499999  0.000091  1
