# generated using pymatgen
data_Sc6C3S
_symmetry_space_group_name_H-M   'P 1'
_cell_length_a   6.09646055
_cell_length_b   5.85734432
_cell_length_c   6.96782184
_cell_angle_alpha   106.03202964
_cell_angle_beta   127.25625957
_cell_angle_gamma   99.49092044
_symmetry_Int_Tables_number   1
_chemical_formula_structural   Sc6C3S
_chemical_formula_sum   'Sc6 C3 S1'
_cell_volume   171.46828599
_cell_formula_units_Z   1
loop_
 _symmetry_equiv_pos_site_id
 _symmetry_equiv_pos_as_xyz
  1  'x, y, z'
loop_
 _atom_site_type_symbol
 _atom_site_label
 _atom_site_symmetry_multiplicity
 _atom_site_fract_x
 _atom_site_fract_y
 _atom_site_fract_z
 _atom_site_occupancy
  Sc  Sc0  1  0.900893  0.569794  0.090702  1
  Sc  Sc1  1  0.233924  0.235528  0.423487  1
  Sc  Sc2  1  0.516922  0.905606  0.285480  1
  Sc  Sc3  1  0.182310  0.239292  0.951408  1
  Sc  Sc4  1  0.850592  0.572320  0.617906  1
  Sc  Sc5  1  0.566609  0.901628  0.757695  1
  C  C6  1  0.040483  0.902408  0.019858  1
  C  C7  1  0.707918  0.237336  0.687750  1
  C  C8  1  0.376995  0.572438  0.355377  1
  S  S9  1  0.707849  0.237378  0.187104  1
