# generated using pymatgen
data_Mg2ZrPaNi8
_symmetry_space_group_name_H-M   'P 1'
_cell_length_a   4.87498500
_cell_length_b   4.87501962
_cell_length_c   8.47664060
_cell_angle_alpha   73.28792780
_cell_angle_beta   90.00039584
_cell_angle_gamma   119.99983220
_symmetry_Int_Tables_number   1
_chemical_formula_structural   Mg2ZrPaNi8
_chemical_formula_sum   'Mg2 Zr1 Pa1 Ni8'
_cell_volume   164.56521049
_cell_formula_units_Z   1
loop_
 _symmetry_equiv_pos_site_id
 _symmetry_equiv_pos_as_xyz
  1  'x, y, z'
loop_
 _atom_site_type_symbol
 _atom_site_label
 _atom_site_symmetry_multiplicity
 _atom_site_fract_x
 _atom_site_fract_y
 _atom_site_fract_z
 _atom_site_occupancy
  Mg  Mg0  1  0.871648  0.743293  0.385067  1
  Mg  Mg1  1  0.379089  0.758177  0.862727  1
  Zr  Zr2  1  0.500553  0.001105  0.498354  1
  Pa  Pa3  1  0.999451  0.998907  0.001642  1
  Ni  Ni4  1  0.435582  0.374857  0.189567  1
  Ni  Ni5  1  0.936850  0.376035  0.687106  1
  Ni  Ni6  1  0.435595  0.871192  0.189562  1
  Ni  Ni7  1  0.936855  0.873708  0.687099  1
  Ni  Ni8  1  0.187793  0.375575  0.436640  1
  Ni  Ni9  1  0.688127  0.376260  0.935564  1
  Ni  Ni10  1  0.939272  0.374856  0.189566  1
  Ni  Ni11  1  0.439185  0.376036  0.687105  1
