# generated using pymatgen
data_SrLaB4(IrRu)2
_symmetry_space_group_name_H-M   'P 1'
_cell_length_a   7.01845605
_cell_length_b   6.11379532
_cell_length_c   5.64015311
_cell_angle_alpha   73.20185933
_cell_angle_beta   56.50473059
_cell_angle_gamma   50.38670613
_symmetry_Int_Tables_number   1
_chemical_formula_structural   SrLaB4(IrRu)2
_chemical_formula_sum   'Sr1 La1 B4 Ir2 Ru2'
_cell_volume   154.73217739
_cell_formula_units_Z   1
loop_
 _symmetry_equiv_pos_site_id
 _symmetry_equiv_pos_as_xyz
  1  'x, y, z'
loop_
 _atom_site_type_symbol
 _atom_site_label
 _atom_site_symmetry_multiplicity
 _atom_site_fract_x
 _atom_site_fract_y
 _atom_site_fract_z
 _atom_site_occupancy
  Sr  Sr0  1  0.748986  0.748986  0.751014  1
  La  La1  1  0.498907  0.498907  0.501093  1
  B  B2  1  0.825800  0.175240  0.824249  1
  B  B3  1  0.073734  0.427506  0.070975  1
  B  B4  1  0.175240  0.825800  0.174711  1
  B  B5  1  0.427506  0.073734  0.427785  1
  Ir  Ir6  1  0.116974  0.116974  0.383026  1
  Ir  Ir7  1  0.866086  0.866086  0.133914  1
  Ru  Ru8  1  0.133559  0.133559  0.866441  1
  Ru  Ru9  1  0.383209  0.383209  0.116791  1
