# generated using pymatgen
data_Pa5Nb3(P3Os4)4
_symmetry_space_group_name_H-M   'P 1'
_cell_length_a   12.80021000
_cell_length_b   12.80020947
_cell_length_c   3.96137900
_cell_angle_alpha   90.00000000
_cell_angle_beta   90.00000000
_cell_angle_gamma   119.99999620
_symmetry_Int_Tables_number   1
_chemical_formula_structural   Pa5Nb3(P3Os4)4
_chemical_formula_sum   'Pa5 Nb3 P12 Os16'
_cell_volume   562.09693194
_cell_formula_units_Z   1
loop_
 _symmetry_equiv_pos_site_id
 _symmetry_equiv_pos_as_xyz
  1  'x, y, z'
loop_
 _atom_site_type_symbol
 _atom_site_label
 _atom_site_symmetry_multiplicity
 _atom_site_fract_x
 _atom_site_fract_y
 _atom_site_fract_z
 _atom_site_occupancy
  Pa  Pa0  1  0.814021  0.000000  0.500000  1
  Pa  Pa1  1  0.000000  0.814021  0.500000  1
  Pa  Pa2  1  0.185979  0.185979  0.500000  1
  Pa  Pa3  1  0.333333  0.666667  0.000000  1
  Pa  Pa4  1  0.666667  0.333333  0.000000  1
  Nb  Nb5  1  0.438965  0.000000  0.000000  1
  Nb  Nb6  1  0.000000  0.438965  0.000000  1
  Nb  Nb7  1  0.561035  0.561035  0.000000  1
  P  P8  1  0.180759  0.000000  0.000000  1
  P  P9  1  0.000000  0.180759  0.000000  1
  P  P10  1  0.819241  0.819241  0.000000  1
  P  P11  1  0.523130  0.690543  0.500000  1
  P  P12  1  0.309457  0.832588  0.500000  1
  P  P13  1  0.167412  0.476870  0.500000  1
  P  P14  1  0.476870  0.167412  0.500000  1
  P  P15  1  0.690543  0.523130  0.500000  1
  P  P16  1  0.832588  0.309457  0.500000  1
  P  P17  1  0.633829  0.000000  0.000000  1
  P  P18  1  0.000000  0.633829  0.000000  1
  P  P19  1  0.366171  0.366171  0.000000  1
  Os  Os20  1  0.277867  0.000000  0.500000  1
  Os  Os21  1  0.000000  0.277867  0.500000  1
  Os  Os22  1  0.722133  0.722133  0.500000  1
  Os  Os23  1  0.628977  0.812542  0.000000  1
  Os  Os24  1  0.187458  0.816435  0.000000  1
  Os  Os25  1  0.183565  0.371023  0.000000  1
  Os  Os26  1  0.371023  0.183565  0.000000  1
  Os  Os27  1  0.812542  0.628977  0.000000  1
  Os  Os28  1  0.816435  0.187458  0.000000  1
  Os  Os29  1  0.508302  0.869033  0.500000  1
  Os  Os30  1  0.130967  0.639269  0.500000  1
  Os  Os31  1  0.360731  0.491698  0.500000  1
  Os  Os32  1  0.491698  0.360731  0.500000  1
  Os  Os33  1  0.869033  0.508302  0.500000  1
  Os  Os34  1  0.639269  0.130967  0.500000  1
  Os  Os35  1  0.000000  0.000000  0.000000  1
