# generated using pymatgen
data_Ta9Ti3Ga9Co3C4
_symmetry_space_group_name_H-M   'P 1'
_cell_length_a   8.21812802
_cell_length_b   8.17876397
_cell_length_c   8.21812935
_cell_angle_alpha   60.16192860
_cell_angle_beta   59.77283178
_cell_angle_gamma   60.16192871
_symmetry_Int_Tables_number   1
_chemical_formula_structural   Ta9Ti3Ga9Co3C4
_chemical_formula_sum   'Ta9 Ti3 Ga9 Co3 C4'
_cell_volume   390.86107154
_cell_formula_units_Z   1
loop_
 _symmetry_equiv_pos_site_id
 _symmetry_equiv_pos_as_xyz
  1  'x, y, z'
loop_
 _atom_site_type_symbol
 _atom_site_label
 _atom_site_symmetry_multiplicity
 _atom_site_fract_x
 _atom_site_fract_y
 _atom_site_fract_z
 _atom_site_occupancy
  Ta  Ta0  1  0.067603  0.437682  0.435129  1
  Ta  Ta1  1  0.436574  0.061125  0.062723  1
  Ta  Ta2  1  0.435972  0.066671  0.435972  1
  Ta  Ta3  1  0.813627  0.810493  0.184929  1
  Ta  Ta4  1  0.062723  0.061125  0.436574  1
  Ta  Ta5  1  0.187272  0.188879  0.813482  1
  Ta  Ta6  1  0.184929  0.810493  0.813627  1
  Ta  Ta7  1  0.435129  0.437682  0.067603  1
  Ta  Ta8  1  0.813482  0.188879  0.187272  1
  Ti  Ti9  1  0.185154  0.815448  0.185154  1
  Ti  Ti10  1  0.817228  0.180399  0.817228  1
  Ti  Ti11  1  0.063382  0.435542  0.063382  1
  Ga  Ga12  1  0.625150  0.624504  0.625150  1
  Ga  Ga13  1  0.845936  0.841014  0.492415  1
  Ga  Ga14  1  0.492415  0.841014  0.845936  1
  Ga  Ga15  1  0.407291  0.753150  0.407291  1
  Ga  Ga16  1  0.757310  0.408463  0.405022  1
  Ga  Ga17  1  0.417077  0.418325  0.417077  1
  Ga  Ga18  1  0.405022  0.408463  0.757310  1
  Ga  Ga19  1  0.842268  0.496016  0.842268  1
  Ga  Ga20  1  0.832119  0.837149  0.832119  1
  Co  Co21  1  0.124220  0.625717  0.626129  1
  Co  Co22  1  0.626129  0.625717  0.124220  1
  Co  Co23  1  0.623825  0.124966  0.623825  1
  C  C24  1  0.124910  0.125638  0.124910  1
  C  C25  1  0.121309  0.125478  0.627586  1
  C  C26  1  0.627586  0.125478  0.121309  1
  C  C27  1  0.124359  0.624489  0.124359  1
