# generated using pymatgen
data_ErPu7(OsC2)4
_symmetry_space_group_name_H-M   'P 1'
_cell_length_a   5.15666600
_cell_length_b   6.37113691
_cell_length_c   9.73797738
_cell_angle_alpha   90.06121495
_cell_angle_beta   90.00000000
_cell_angle_gamma   90.00000000
_symmetry_Int_Tables_number   1
_chemical_formula_structural   ErPu7(OsC2)4
_chemical_formula_sum   'Er1 Pu7 Os4 C8'
_cell_volume   319.92962319
_cell_formula_units_Z   1
loop_
 _symmetry_equiv_pos_site_id
 _symmetry_equiv_pos_as_xyz
  1  'x, y, z'
loop_
 _atom_site_type_symbol
 _atom_site_label
 _atom_site_symmetry_multiplicity
 _atom_site_fract_x
 _atom_site_fract_y
 _atom_site_fract_z
 _atom_site_occupancy
  Er  Er0  1  0.250000  0.688792  0.552276  1
  Pu  Pu1  1  0.750000  0.308660  0.454637  1
  Pu  Pu2  1  0.750000  0.805730  0.044629  1
  Pu  Pu3  1  0.250000  0.191364  0.953506  1
  Pu  Pu4  1  0.250000  0.528452  0.216983  1
  Pu  Pu5  1  0.750000  0.473680  0.781193  1
  Pu  Pu6  1  0.750000  0.972687  0.718639  1
  Pu  Pu7  1  0.250000  0.030783  0.277178  1
  Os  Os8  1  0.250000  0.723028  0.865070  1
  Os  Os9  1  0.750000  0.277016  0.133132  1
  Os  Os10  1  0.750000  0.777383  0.369065  1
  Os  Os11  1  0.250000  0.224042  0.631176  1
  C  C12  1  0.250000  0.457959  0.759080  1
  C  C13  1  0.750000  0.537210  0.246272  1
  C  C14  1  0.750000  0.035972  0.255024  1
  C  C15  1  0.250000  0.966468  0.745274  1
  C  C16  1  0.250000  0.832721  0.056498  1
  C  C17  1  0.750000  0.167357  0.942390  1
  C  C18  1  0.750000  0.669164  0.557969  1
  C  C19  1  0.250000  0.331531  0.440010  1
