# generated using pymatgen
data_Tb2ThAlCdInPt3
_symmetry_space_group_name_H-M   'P 1'
_cell_length_a   7.65902300
_cell_length_b   7.58731563
_cell_length_c   3.97652800
_cell_angle_alpha   90.00000000
_cell_angle_beta   90.00000000
_cell_angle_gamma   120.89875410
_symmetry_Int_Tables_number   1
_chemical_formula_structural   Tb2ThAlCdInPt3
_chemical_formula_sum   'Tb2 Th1 Al1 Cd1 In1 Pt3'
_cell_volume   198.28568479
_cell_formula_units_Z   1
loop_
 _symmetry_equiv_pos_site_id
 _symmetry_equiv_pos_as_xyz
  1  'x, y, z'
loop_
 _atom_site_type_symbol
 _atom_site_label
 _atom_site_symmetry_multiplicity
 _atom_site_fract_x
 _atom_site_fract_y
 _atom_site_fract_z
 _atom_site_occupancy
  Tb  Tb0  1  0.002159  0.407836  0.000000  1
  Tb  Tb1  1  0.581897  0.583780  0.000000  1
  Th  Th2  1  0.406902  0.998877  0.000000  1
  Al  Al3  1  0.249971  0.258801  0.500000  1
  Cd  Cd4  1  0.987246  0.737444  0.500000  1
  In  In5  1  0.758505  0.996925  0.500000  1
  Pt  Pt6  1  0.041618  0.042194  0.000000  1
  Pt  Pt7  1  0.638636  0.316352  0.500000  1
  Pt  Pt8  1  0.333065  0.657789  0.500000  1
