# generated using pymatgen
data_Yb7HfMn2N9
_symmetry_space_group_name_H-M   'P 1'
_cell_length_a   9.77176600
_cell_length_b   5.95967400
_cell_length_c   8.82913100
_cell_angle_alpha   88.07996361
_cell_angle_beta   90.00000000
_cell_angle_gamma   90.00000000
_symmetry_Int_Tables_number   1
_chemical_formula_structural   Yb7HfMn2N9
_chemical_formula_sum   'Yb14 Hf2 Mn4 N18'
_cell_volume   513.88935839
_cell_formula_units_Z   2
loop_
 _symmetry_equiv_pos_site_id
 _symmetry_equiv_pos_as_xyz
  1  'x, y, z'
loop_
 _atom_site_type_symbol
 _atom_site_label
 _atom_site_symmetry_multiplicity
 _atom_site_fract_x
 _atom_site_fract_y
 _atom_site_fract_z
 _atom_site_occupancy
  Yb  Yb0  1  0.936377  0.429244  0.166408  1
  Yb  Yb1  1  0.084536  0.243646  0.497148  1
  Yb  Yb2  1  0.250000  0.087553  0.798954  1
  Yb  Yb3  1  0.436377  0.570756  0.833592  1
  Yb  Yb4  1  0.584536  0.756354  0.502852  1
  Yb  Yb5  1  0.580208  0.065813  0.826222  1
  Yb  Yb6  1  0.919792  0.065813  0.826222  1
  Yb  Yb7  1  0.419792  0.934187  0.173778  1
  Yb  Yb8  1  0.415464  0.243646  0.497148  1
  Yb  Yb9  1  0.080208  0.934187  0.173778  1
  Yb  Yb10  1  0.915464  0.756354  0.502852  1
  Yb  Yb11  1  0.063623  0.570756  0.833592  1
  Yb  Yb12  1  0.750000  0.912447  0.201046  1
  Yb  Yb13  1  0.563623  0.429244  0.166408  1
  Hf  Hf14  1  0.750000  0.273933  0.444960  1
  Hf  Hf15  1  0.250000  0.726067  0.555040  1
  Mn  Mn16  1  0.250000  0.321245  0.063777  1
  Mn  Mn17  1  0.750000  0.465709  0.730104  1
  Mn  Mn18  1  0.750000  0.678755  0.936223  1
  Mn  Mn19  1  0.250000  0.534291  0.269896  1
  N  N20  1  0.403702  0.226243  0.981456  1
  N  N21  1  0.250000  0.224110  0.267457  1
  N  N22  1  0.911202  0.107426  0.339184  1
  N  N23  1  0.603797  0.373693  0.636676  1
  N  N24  1  0.750000  0.564046  0.327005  1
  N  N25  1  0.250000  0.633446  0.068151  1
  N  N26  1  0.896203  0.373693  0.636676  1
  N  N27  1  0.396203  0.626307  0.363324  1
  N  N28  1  0.750000  0.366554  0.931849  1
  N  N29  1  0.088798  0.892574  0.660816  1
  N  N30  1  0.750000  0.775890  0.732543  1
  N  N31  1  0.103797  0.626307  0.363324  1
  N  N32  1  0.596298  0.773757  0.018544  1
  N  N33  1  0.250000  0.435954  0.672995  1
  N  N34  1  0.411202  0.892574  0.660816  1
  N  N35  1  0.588798  0.107426  0.339184  1
  N  N36  1  0.096298  0.226243  0.981456  1
  N  N37  1  0.903702  0.773757  0.018544  1
