# generated using pymatgen
data_Pr8Si12IrRh3
_symmetry_space_group_name_H-M   'P 1'
_cell_length_a   8.28334700
_cell_length_b   8.28334731
_cell_length_c   8.51578500
_cell_angle_alpha   90.00000000
_cell_angle_beta   90.00000000
_cell_angle_gamma   120.00000275
_symmetry_Int_Tables_number   1
_chemical_formula_structural   Pr8Si12IrRh3
_chemical_formula_sum   'Pr8 Si12 Ir1 Rh3'
_cell_volume   506.01924449
_cell_formula_units_Z   1
loop_
 _symmetry_equiv_pos_site_id
 _symmetry_equiv_pos_as_xyz
  1  'x, y, z'
loop_
 _atom_site_type_symbol
 _atom_site_label
 _atom_site_symmetry_multiplicity
 _atom_site_fract_x
 _atom_site_fract_y
 _atom_site_fract_z
 _atom_site_occupancy
  Pr  Pr0  1  0.499968  0.500032  0.749870  1
  Pr  Pr1  1  0.500486  0.499514  0.250248  1
  Pr  Pr2  1  0.000065  0.500032  0.749870  1
  Pr  Pr3  1  0.999030  0.499514  0.250248  1
  Pr  Pr4  1  0.499968  0.999935  0.749870  1
  Pr  Pr5  1  0.500486  0.000970  0.250248  1
  Pr  Pr6  1  0.000000  0.000000  0.749414  1
  Pr  Pr7  1  0.000000  0.000000  0.250720  1
  Si  Si8  1  0.833296  0.166704  0.999930  1
  Si  Si9  1  0.166997  0.833003  0.000059  1
  Si  Si10  1  0.333407  0.166704  0.999930  1
  Si  Si11  1  0.166436  0.833564  0.500075  1
  Si  Si12  1  0.666006  0.833003  0.000059  1
  Si  Si13  1  0.833463  0.166537  0.500057  1
  Si  Si14  1  0.833296  0.666593  0.999930  1
  Si  Si15  1  0.667128  0.833564  0.500075  1
  Si  Si16  1  0.166997  0.333994  0.000059  1
  Si  Si17  1  0.333074  0.166537  0.500057  1
  Si  Si18  1  0.166436  0.332872  0.500075  1
  Si  Si19  1  0.833463  0.666926  0.500057  1
  Ir  Ir20  1  0.666667  0.333333  0.000356  1
  Rh  Rh21  1  0.333333  0.666667  0.998664  1
  Rh  Rh22  1  0.333333  0.666667  0.500837  1
  Rh  Rh23  1  0.666667  0.333333  0.499293  1
