# generated using pymatgen
data_Nd4Mn3Al4CoO20
_symmetry_space_group_name_H-M   'P 1'
_cell_length_a   5.71844200
_cell_length_b   7.46874704
_cell_length_c   8.56250100
_cell_angle_alpha   89.94510333
_cell_angle_beta   90.00000000
_cell_angle_gamma   90.00000000
_symmetry_Int_Tables_number   1
_chemical_formula_structural   Nd4Mn3Al4CoO20
_chemical_formula_sum   'Nd4 Mn3 Al4 Co1 O20'
_cell_volume   365.70079726
_cell_formula_units_Z   1
loop_
 _symmetry_equiv_pos_site_id
 _symmetry_equiv_pos_as_xyz
  1  'x, y, z'
loop_
 _atom_site_type_symbol
 _atom_site_label
 _atom_site_symmetry_multiplicity
 _atom_site_fract_x
 _atom_site_fract_y
 _atom_site_fract_z
 _atom_site_occupancy
  Nd  Nd0  1  0.000634  0.363776  0.671343  1
  Nd  Nd1  1  0.000634  0.636224  0.328657  1
  Nd  Nd2  1  0.000449  0.862528  0.830727  1
  Nd  Nd3  1  0.000449  0.137472  0.169273  1
  Mn  Mn4  1  0.743363  0.000000  0.500000  1
  Mn  Mn5  1  0.740390  0.500000  0.000000  1
  Mn  Mn6  1  0.256777  0.000000  0.500000  1
  Al  Al7  1  0.498777  0.108251  0.860197  1
  Al  Al8  1  0.498777  0.891749  0.139803  1
  Al  Al9  1  0.501575  0.606925  0.640589  1
  Al  Al10  1  0.501575  0.393075  0.359411  1
  Co  Co11  1  0.257457  0.500000  0.000000  1
  O  O12  1  0.257142  0.901743  0.289575  1
  O  O13  1  0.257142  0.098257  0.710425  1
  O  O14  1  0.741718  0.401078  0.210321  1
  O  O15  1  0.741718  0.598922  0.789679  1
  O  O16  1  0.742464  0.098847  0.710901  1
  O  O17  1  0.742464  0.901153  0.289099  1
  O  O18  1  0.256290  0.595852  0.791623  1
  O  O19  1  0.256290  0.404148  0.208377  1
  O  O20  1  0.498759  0.340599  0.933822  1
  O  O21  1  0.498759  0.659401  0.066178  1
  O  O22  1  0.499799  0.839207  0.567254  1
  O  O23  1  0.499799  0.160793  0.432746  1
  O  O24  1  0.285543  0.000000  0.000000  1
  O  O25  1  0.715129  0.500000  0.500000  1
  O  O26  1  0.714592  0.000000  0.000000  1
  O  O27  1  0.285815  0.500000  0.500000  1
  O  O28  1  0.000139  0.157624  0.447681  1
  O  O29  1  0.000139  0.842376  0.552319  1
  O  O30  1  0.002721  0.654864  0.051098  1
  O  O31  1  0.002721  0.345136  0.948902  1
