# generated using pymatgen
data_Sm8Hf9Zr3Sn16
_symmetry_space_group_name_H-M   'P 1'
_cell_length_a   7.81698230
_cell_length_b   7.85056664
_cell_length_c   14.70123630
_cell_angle_alpha   89.99320999
_cell_angle_beta   90.04773634
_cell_angle_gamma   89.95435497
_symmetry_Int_Tables_number   1
_chemical_formula_structural   Sm8Hf9Zr3Sn16
_chemical_formula_sum   'Sm8 Hf9 Zr3 Sn16'
_cell_volume   902.18104756
_cell_formula_units_Z   1
loop_
 _symmetry_equiv_pos_site_id
 _symmetry_equiv_pos_as_xyz
  1  'x, y, z'
loop_
 _atom_site_type_symbol
 _atom_site_label
 _atom_site_symmetry_multiplicity
 _atom_site_fract_x
 _atom_site_fract_y
 _atom_site_fract_z
 _atom_site_occupancy
  Sm  Sm0  1  0.511425  0.323637  0.908011  1
  Sm  Sm1  1  0.011094  0.176086  0.592029  1
  Sm  Sm2  1  0.488815  0.675921  0.407723  1
  Sm  Sm3  1  0.988951  0.823962  0.092074  1
  Sm  Sm4  1  0.488310  0.675896  0.092024  1
  Sm  Sm5  1  0.988417  0.824053  0.407713  1
  Sm  Sm6  1  0.511665  0.324208  0.592022  1
  Sm  Sm7  1  0.011784  0.175946  0.908175  1
  Hf  Hf8  1  0.153058  0.338932  0.131048  1
  Hf  Hf9  1  0.653717  0.160987  0.130213  1
  Hf  Hf10  1  0.153650  0.338542  0.368874  1
  Hf  Hf11  1  0.346135  0.838625  0.630524  1
  Hf  Hf12  1  0.846500  0.661216  0.869442  1
  Hf  Hf13  1  0.167132  0.511719  0.750065  1
  Hf  Hf14  1  0.666959  0.988053  0.750253  1
  Hf  Hf15  1  0.833406  0.487977  0.249630  1
  Hf  Hf16  1  0.332762  0.012390  0.249977  1
  Zr  Zr17  1  0.346075  0.838672  0.870125  1
  Zr  Zr18  1  0.846189  0.661390  0.630320  1
  Zr  Zr19  1  0.653839  0.161514  0.369535  1
  Sn  Sn20  1  0.315742  0.044268  0.044422  1
  Sn  Sn21  1  0.816643  0.457222  0.455909  1
  Sn  Sn22  1  0.683350  0.957281  0.543839  1
  Sn  Sn23  1  0.183668  0.542181  0.956685  1
  Sn  Sn24  1  0.685592  0.956891  0.956571  1
  Sn  Sn25  1  0.185088  0.542898  0.543348  1
  Sn  Sn26  1  0.314804  0.043002  0.456452  1
  Sn  Sn27  1  0.815729  0.456686  0.043775  1
  Sn  Sn28  1  0.539790  0.617498  0.750123  1
  Sn  Sn29  1  0.039908  0.882602  0.750118  1
  Sn  Sn30  1  0.459985  0.382451  0.249586  1
  Sn  Sn31  1  0.960000  0.117523  0.249622  1
  Sn  Sn32  1  0.314801  0.154999  0.749724  1
  Sn  Sn33  1  0.814764  0.344860  0.750273  1
  Sn  Sn34  1  0.685025  0.844996  0.249738  1
  Sn  Sn35  1  0.185229  0.654915  0.250036  1
