# generated using pymatgen
data_TbY2Ta3(B2Ru5)2
_symmetry_space_group_name_H-M   'P 1'
_cell_length_a   9.62087708
_cell_length_b   9.62187080
_cell_length_c   3.11839900
_cell_angle_alpha   90.00000000
_cell_angle_beta   90.00000000
_cell_angle_gamma   90.42605453
_symmetry_Int_Tables_number   1
_chemical_formula_structural   TbY2Ta3(B2Ru5)2
_chemical_formula_sum   'Tb1 Y2 Ta3 B4 Ru10'
_cell_volume   288.66482231
_cell_formula_units_Z   1
loop_
 _symmetry_equiv_pos_site_id
 _symmetry_equiv_pos_as_xyz
  1  'x, y, z'
loop_
 _atom_site_type_symbol
 _atom_site_label
 _atom_site_symmetry_multiplicity
 _atom_site_fract_x
 _atom_site_fract_y
 _atom_site_fract_z
 _atom_site_occupancy
  Tb  Tb0  1  0.823766  0.675149  0.000000  1
  Y  Y1  1  0.175187  0.323683  0.000000  1
  Y  Y2  1  0.325657  0.825618  0.000000  1
  Ta  Ta3  1  0.676128  0.176091  0.000000  1
  Ta  Ta4  1  0.498027  0.502393  0.000000  1
  Ta  Ta5  1  0.002588  0.998399  0.000000  1
  B  B6  1  0.622979  0.881772  0.000000  1
  B  B7  1  0.381456  0.123206  0.000000  1
  B  B8  1  0.119083  0.618918  0.000000  1
  B  B9  1  0.876102  0.375961  0.000000  1
  Ru  Ru10  1  0.570995  0.722130  0.500000  1
  Ru  Ru11  1  0.441808  0.280082  0.500000  1
  Ru  Ru12  1  0.069012  0.780606  0.500000  1
  Ru  Ru13  1  0.915263  0.213183  0.500000  1
  Ru  Ru14  1  0.280579  0.569060  0.500000  1
  Ru  Ru15  1  0.713127  0.415265  0.500000  1
  Ru  Ru16  1  0.222180  0.070799  0.500000  1
  Ru  Ru17  1  0.780177  0.941659  0.500000  1
  Ru  Ru18  1  0.510173  0.010154  0.500000  1
  Ru  Ru19  1  0.995712  0.495870  0.500000  1
