# generated using pymatgen
data_Nd5HgRu2
_symmetry_space_group_name_H-M   'P 1'
_cell_length_a   8.93659321
_cell_length_b   8.93659336
_cell_length_c   8.93659281
_cell_angle_alpha   127.10157097
_cell_angle_beta   127.10157239
_cell_angle_gamma   78.08503530
_symmetry_Int_Tables_number   1
_chemical_formula_structural   Nd5HgRu2
_chemical_formula_sum   'Nd10 Hg2 Ru4'
_cell_volume   439.87202894
_cell_formula_units_Z   2
loop_
 _symmetry_equiv_pos_site_id
 _symmetry_equiv_pos_as_xyz
  1  'x, y, z'
loop_
 _atom_site_type_symbol
 _atom_site_label
 _atom_site_symmetry_multiplicity
 _atom_site_fract_x
 _atom_site_fract_y
 _atom_site_fract_z
 _atom_site_occupancy
  Nd  Nd0  1  0.000000  0.000000  0.000000  1
  Nd  Nd1  1  0.500000  0.500000  0.000000  1
  Nd  Nd2  1  0.203576  0.703576  0.174440  1
  Nd  Nd3  1  0.470865  0.970865  0.174440  1
  Nd  Nd4  1  0.029135  0.203576  0.500000  1
  Nd  Nd5  1  0.296424  0.470865  0.500000  1
  Nd  Nd6  1  0.703576  0.529135  0.500000  1
  Nd  Nd7  1  0.970865  0.796424  0.500000  1
  Nd  Nd8  1  0.529135  0.029135  0.825560  1
  Nd  Nd9  1  0.796424  0.296424  0.825560  1
  Hg  Hg10  1  0.250000  0.250000  0.000000  1
  Hg  Hg11  1  0.750000  0.750000  0.000000  1
  Ru  Ru12  1  0.860871  0.360871  0.221741  1
  Ru  Ru13  1  0.360870  0.139129  0.500000  1
  Ru  Ru14  1  0.639130  0.860871  0.500000  1
  Ru  Ru15  1  0.139129  0.639129  0.778259  1
