# generated using pymatgen
data_EuTmBO4
_symmetry_space_group_name_H-M   'P 1'
_cell_length_a   3.61200800
_cell_length_b   9.66042700
_cell_length_c   10.88525700
_cell_angle_alpha   90.00000000
_cell_angle_beta   90.00000000
_cell_angle_gamma   90.00000000
_symmetry_Int_Tables_number   1
_chemical_formula_structural   EuTmBO4
_chemical_formula_sum   'Eu4 Tm4 B4 O16'
_cell_volume   379.82514627
_cell_formula_units_Z   4
loop_
 _symmetry_equiv_pos_site_id
 _symmetry_equiv_pos_as_xyz
  1  'x, y, z'
loop_
 _atom_site_type_symbol
 _atom_site_label
 _atom_site_symmetry_multiplicity
 _atom_site_fract_x
 _atom_site_fract_y
 _atom_site_fract_z
 _atom_site_occupancy
  Eu  Eu0  1  0.250000  0.655892  0.082113  1
  Eu  Eu1  1  0.750000  0.344108  0.917887  1
  Eu  Eu2  1  0.750000  0.155892  0.417887  1
  Eu  Eu3  1  0.250000  0.844108  0.582113  1
  Tm  Tm4  1  0.250000  0.080330  0.110336  1
  Tm  Tm5  1  0.750000  0.919670  0.889664  1
  Tm  Tm6  1  0.750000  0.580330  0.389664  1
  Tm  Tm7  1  0.250000  0.419670  0.610336  1
  B  B8  1  0.250000  0.363339  0.205717  1
  B  B9  1  0.750000  0.636661  0.794283  1
  B  B10  1  0.750000  0.863339  0.294283  1
  B  B11  1  0.250000  0.136661  0.705717  1
  O  O12  1  0.250000  0.490434  0.265426  1
  O  O13  1  0.750000  0.509566  0.734574  1
  O  O14  1  0.750000  0.990434  0.234574  1
  O  O15  1  0.250000  0.009566  0.765426  1
  O  O16  1  0.250000  0.238701  0.269887  1
  O  O17  1  0.750000  0.761299  0.730113  1
  O  O18  1  0.750000  0.738701  0.230113  1
  O  O19  1  0.250000  0.261299  0.769887  1
  O  O20  1  0.250000  0.357770  0.077203  1
  O  O21  1  0.750000  0.642230  0.922797  1
  O  O22  1  0.750000  0.857770  0.422797  1
  O  O23  1  0.250000  0.142230  0.577203  1
  O  O24  1  0.250000  0.612936  0.501033  1
  O  O25  1  0.750000  0.387064  0.498967  1
  O  O26  1  0.750000  0.112936  0.998967  1
  O  O27  1  0.250000  0.887064  0.001033  1
