# generated using pymatgen
data_SmGd3HfZr3F28
_symmetry_space_group_name_H-M   'P 1'
_cell_length_a   5.80839213
_cell_length_b   9.22125974
_cell_length_c   12.38768407
_cell_angle_alpha   62.22261913
_cell_angle_beta   89.98313763
_cell_angle_gamma   89.96769996
_symmetry_Int_Tables_number   1
_chemical_formula_structural   SmGd3HfZr3F28
_chemical_formula_sum   'Sm1 Gd3 Hf1 Zr3 F28'
_cell_volume   587.03525166
_cell_formula_units_Z   1
loop_
 _symmetry_equiv_pos_site_id
 _symmetry_equiv_pos_as_xyz
  1  'x, y, z'
loop_
 _atom_site_type_symbol
 _atom_site_label
 _atom_site_symmetry_multiplicity
 _atom_site_fract_x
 _atom_site_fract_y
 _atom_site_fract_z
 _atom_site_occupancy
  Sm  Sm0  1  0.757095  0.815777  0.765683  1
  Gd  Gd1  1  0.742999  0.814202  0.266288  1
  Gd  Gd2  1  0.242790  0.185181  0.234852  1
  Gd  Gd3  1  0.256531  0.186889  0.732551  1
  Hf  Hf4  1  0.744323  0.274498  0.454746  1
  Zr  Zr5  1  0.245367  0.725592  0.044785  1
  Zr  Zr6  1  0.255683  0.725914  0.544410  1
  Zr  Zr7  1  0.755045  0.274262  0.955292  1
  F  F8  1  0.463831  0.710971  0.921740  1
  F  F9  1  0.960945  0.287781  0.575902  1
  F  F10  1  0.536020  0.288270  0.078784  1
  F  F11  1  0.034701  0.712077  0.421956  1
  F  F12  1  0.461683  0.282203  0.547263  1
  F  F13  1  0.958372  0.716954  0.951417  1
  F  F14  1  0.544590  0.717847  0.451687  1
  F  F15  1  0.043453  0.281832  0.048706  1
  F  F16  1  0.765768  0.523131  0.858489  1
  F  F17  1  0.266505  0.476850  0.641172  1
  F  F18  1  0.232501  0.476197  0.141604  1
  F  F19  1  0.733842  0.519852  0.360092  1
  F  F20  1  0.760186  0.025632  0.057899  1
  F  F21  1  0.260417  0.974583  0.442872  1
  F  F22  1  0.238744  0.973915  0.942669  1
  F  F23  1  0.740623  0.029551  0.556053  1
  F  F24  1  0.987032  0.733341  0.647729  1
  F  F25  1  0.485339  0.266745  0.852399  1
  F  F26  1  0.011037  0.265358  0.354518  1
  F  F27  1  0.516380  0.732641  0.147238  1
  F  F28  1  0.034793  0.745230  0.170888  1
  F  F29  1  0.537502  0.253338  0.331187  1
  F  F30  1  0.963304  0.255202  0.828034  1
  F  F31  1  0.463231  0.746083  0.670920  1
  F  F32  1  0.423935  0.971132  0.234701  1
  F  F33  1  0.924891  0.027879  0.265755  1
  F  F34  1  0.572641  0.030028  0.766011  1
  F  F35  1  0.077900  0.973066  0.733712  1
