# generated using pymatgen
data_TbY2Bi2Rh3Pb
_symmetry_space_group_name_H-M   'P 1'
_cell_length_a   7.64953470
_cell_length_b   7.68077902
_cell_length_c   3.98058100
_cell_angle_alpha   90.00000000
_cell_angle_beta   90.00000000
_cell_angle_gamma   119.78915529
_symmetry_Int_Tables_number   1
_chemical_formula_structural   TbY2Bi2Rh3Pb
_chemical_formula_sum   'Tb1 Y2 Bi2 Rh3 Pb1'
_cell_volume   202.97202205
_cell_formula_units_Z   1
loop_
 _symmetry_equiv_pos_site_id
 _symmetry_equiv_pos_as_xyz
  1  'x, y, z'
loop_
 _atom_site_type_symbol
 _atom_site_label
 _atom_site_symmetry_multiplicity
 _atom_site_fract_x
 _atom_site_fract_y
 _atom_site_fract_z
 _atom_site_occupancy
  Tb  Tb0  1  0.402307  0.399288  0.000000  1
  Y  Y1  1  0.594141  0.000023  0.000000  1
  Y  Y2  1  0.003149  0.601759  0.000000  1
  Bi  Bi3  1  0.001014  0.264728  0.500000  1
  Bi  Bi4  1  0.737325  0.735620  0.500000  1
  Rh  Rh5  1  0.332804  0.663438  0.500000  1
  Rh  Rh6  1  0.667005  0.335360  0.500000  1
  Rh  Rh7  1  0.996365  0.000287  0.000000  1
  Pb  Pb8  1  0.265892  0.999495  0.500000  1
