# generated using pymatgen
data_Pr4NdSiPb3
_symmetry_space_group_name_H-M   'P 1'
_cell_length_a   9.79394200
_cell_length_b   9.79394160
_cell_length_c   6.67234900
_cell_angle_alpha   90.00000000
_cell_angle_beta   90.00000000
_cell_angle_gamma   119.98268182
_symmetry_Int_Tables_number   1
_chemical_formula_structural   Pr4NdSiPb3
_chemical_formula_sum   'Pr8 Nd2 Si2 Pb6'
_cell_volume   554.37059431
_cell_formula_units_Z   2
loop_
 _symmetry_equiv_pos_site_id
 _symmetry_equiv_pos_as_xyz
  1  'x, y, z'
loop_
 _atom_site_type_symbol
 _atom_site_label
 _atom_site_symmetry_multiplicity
 _atom_site_fract_x
 _atom_site_fract_y
 _atom_site_fract_z
 _atom_site_occupancy
  Pr  Pr0  1  0.750544  0.750544  0.750000  1
  Pr  Pr1  1  0.248913  0.999678  0.750000  1
  Pr  Pr2  1  0.999678  0.248913  0.750000  1
  Pr  Pr3  1  0.250487  0.250487  0.250000  1
  Pr  Pr4  1  0.666737  0.333417  0.000544  1
  Pr  Pr5  1  0.333417  0.666737  0.000544  1
  Pr  Pr6  1  0.333417  0.666737  0.499456  1
  Pr  Pr7  1  0.666737  0.333417  0.499456  1
  Nd  Nd8  1  0.750301  0.000250  0.250000  1
  Nd  Nd9  1  0.000250  0.750301  0.250000  1
  Si  Si10  1  0.999343  0.999343  0.003900  1
  Si  Si11  1  0.999343  0.999343  0.496100  1
  Pb  Pb12  1  0.392240  0.392240  0.750000  1
  Pb  Pb13  1  0.607669  0.999878  0.750000  1
  Pb  Pb14  1  0.999878  0.607669  0.750000  1
  Pb  Pb15  1  0.609331  0.609331  0.250000  1
  Pb  Pb16  1  0.392227  0.999488  0.250000  1
  Pb  Pb17  1  0.999488  0.392227  0.250000  1
