# generated using pymatgen
data_LiZnAgP2O7
_symmetry_space_group_name_H-M   'P 1'
_cell_length_a   7.40442555
_cell_length_b   7.40442455
_cell_length_c   6.38303500
_cell_angle_alpha   90.00000000
_cell_angle_beta   90.00000000
_cell_angle_gamma   115.33535411
_symmetry_Int_Tables_number   1
_chemical_formula_structural   LiZnAgP2O7
_chemical_formula_sum   'Li2 Zn2 Ag2 P4 O14'
_cell_volume   316.29419433
_cell_formula_units_Z   2
loop_
 _symmetry_equiv_pos_site_id
 _symmetry_equiv_pos_as_xyz
  1  'x, y, z'
loop_
 _atom_site_type_symbol
 _atom_site_label
 _atom_site_symmetry_multiplicity
 _atom_site_fract_x
 _atom_site_fract_y
 _atom_site_fract_z
 _atom_site_occupancy
  Li  Li0  1  0.784973  0.215027  0.750000  1
  Li  Li1  1  0.215027  0.784973  0.250000  1
  Zn  Zn2  1  0.217727  0.782273  0.750000  1
  Zn  Zn3  1  0.782273  0.217727  0.250000  1
  Ag  Ag4  1  0.233574  0.233574  0.500000  1
  Ag  Ag5  1  0.766426  0.766426  0.000000  1
  P  P6  1  0.816341  0.582842  0.493458  1
  P  P7  1  0.582842  0.816341  0.506542  1
  P  P8  1  0.417158  0.183659  0.006542  1
  P  P9  1  0.183659  0.417158  0.993458  1
  O  O10  1  0.928316  0.681577  0.696392  1
  O  O11  1  0.677564  0.926883  0.706741  1
  O  O12  1  0.605889  0.605889  0.500000  1
  O  O13  1  0.745454  0.353651  0.501572  1
  O  O14  1  0.353651  0.745454  0.498428  1
  O  O15  1  0.926883  0.677564  0.293259  1
  O  O16  1  0.681577  0.928316  0.303608  1
  O  O17  1  0.322436  0.073117  0.206741  1
  O  O18  1  0.071684  0.318423  0.196392  1
  O  O19  1  0.646349  0.254546  0.998428  1
  O  O20  1  0.394111  0.394111  0.000000  1
  O  O21  1  0.254546  0.646349  0.001572  1
  O  O22  1  0.318423  0.071684  0.803608  1
  O  O23  1  0.073117  0.322436  0.793259  1
