# generated using pymatgen
data_Tm6Fe3Si6Ni
_symmetry_space_group_name_H-M   'P 1'
_cell_length_a   5.53001499
_cell_length_b   5.53001542
_cell_length_c   13.43765017
_cell_angle_alpha   90.17693616
_cell_angle_beta   89.82306384
_cell_angle_gamma   136.81257147
_symmetry_Int_Tables_number   1
_chemical_formula_structural   Tm6Fe3Si6Ni
_chemical_formula_sum   'Tm6 Fe3 Si6 Ni1'
_cell_volume   281.23892504
_cell_formula_units_Z   1
loop_
 _symmetry_equiv_pos_site_id
 _symmetry_equiv_pos_as_xyz
  1  'x, y, z'
loop_
 _atom_site_type_symbol
 _atom_site_label
 _atom_site_symmetry_multiplicity
 _atom_site_fract_x
 _atom_site_fract_y
 _atom_site_fract_z
 _atom_site_occupancy
  Tm  Tm0  1  0.636981  0.363019  0.248723  1
  Tm  Tm1  1  0.362456  0.637544  0.751262  1
  Tm  Tm2  1  0.919915  0.080085  0.110994  1
  Tm  Tm3  1  0.079225  0.920775  0.888105  1
  Tm  Tm4  1  0.079828  0.920172  0.614308  1
  Tm  Tm5  1  0.918005  0.081995  0.386340  1
  Fe  Fe6  1  0.214325  0.785675  0.418373  1
  Fe  Fe7  1  0.213840  0.786160  0.080436  1
  Fe  Fe8  1  0.788326  0.211674  0.917746  1
  Si  Si9  1  0.327680  0.672320  0.247794  1
  Si  Si10  1  0.669251  0.330749  0.752776  1
  Si  Si11  1  0.623443  0.376557  0.038687  1
  Si  Si12  1  0.377867  0.622133  0.960450  1
  Si  Si13  1  0.384618  0.615382  0.538741  1
  Si  Si14  1  0.616968  0.383032  0.460837  1
  Ni  Ni15  1  0.787271  0.212729  0.584428  1
