# generated using pymatgen
data_TbDy11Ni6Pb
_symmetry_space_group_name_H-M   'P 1'
_cell_length_a   8.41944422
_cell_length_b   8.41944495
_cell_length_c   8.41810777
_cell_angle_alpha   109.40341392
_cell_angle_beta   109.53228198
_cell_angle_gamma   109.48442463
_symmetry_Int_Tables_number   1
_chemical_formula_structural   TbDy11Ni6Pb
_chemical_formula_sum   'Tb1 Dy11 Ni6 Pb1'
_cell_volume   459.32960106
_cell_formula_units_Z   1
loop_
 _symmetry_equiv_pos_site_id
 _symmetry_equiv_pos_as_xyz
  1  'x, y, z'
loop_
 _atom_site_type_symbol
 _atom_site_label
 _atom_site_symmetry_multiplicity
 _atom_site_fract_x
 _atom_site_fract_y
 _atom_site_fract_z
 _atom_site_occupancy
  Tb  Tb0  1  0.812067  0.695457  0.507524  1
  Dy  Dy1  1  0.187962  0.305074  0.493035  1
  Dy  Dy2  1  0.188123  0.694952  0.883075  1
  Dy  Dy3  1  0.812293  0.304718  0.117011  1
  Dy  Dy4  1  0.695209  0.507214  0.812222  1
  Dy  Dy5  1  0.304409  0.492647  0.187735  1
  Dy  Dy6  1  0.695088  0.883326  0.187735  1
  Dy  Dy7  1  0.305008  0.117013  0.812222  1
  Dy  Dy8  1  0.506959  0.811921  0.695341  1
  Dy  Dy9  1  0.492714  0.187887  0.304600  1
  Dy  Dy10  1  0.116713  0.811886  0.304600  1
  Dy  Dy11  1  0.883420  0.188382  0.695341  1
  Ni  Ni12  1  0.875745  0.375415  0.499929  1
  Ni  Ni13  1  0.124514  0.624184  0.499929  1
  Ni  Ni14  1  0.375619  0.500045  0.875664  1
  Ni  Ni15  1  0.624187  0.499813  0.124000  1
  Ni  Ni16  1  0.499882  0.875931  0.375813  1
  Ni  Ni17  1  0.500013  0.124037  0.624050  1
  Pb  Pb18  1  0.000077  0.000096  0.000173  1
