# generated using pymatgen
data_HoEr9In8(CuRh)2
_symmetry_space_group_name_H-M   'P 1'
_cell_length_a   3.58340300
_cell_length_b   8.05923666
_cell_length_c   18.05767653
_cell_angle_alpha   89.63794404
_cell_angle_beta   90.00000000
_cell_angle_gamma   90.00000000
_symmetry_Int_Tables_number   1
_chemical_formula_structural   HoEr9In8(CuRh)2
_chemical_formula_sum   'Ho1 Er9 In8 Cu2 Rh2'
_cell_volume   521.48612801
_cell_formula_units_Z   1
loop_
 _symmetry_equiv_pos_site_id
 _symmetry_equiv_pos_as_xyz
  1  'x, y, z'
loop_
 _atom_site_type_symbol
 _atom_site_label
 _atom_site_symmetry_multiplicity
 _atom_site_fract_x
 _atom_site_fract_y
 _atom_site_fract_z
 _atom_site_occupancy
  Ho  Ho0  1  0.000000  0.000000  0.000000  1
  Er  Er1  1  0.000000  0.500000  0.500000  1
  Er  Er2  1  0.000000  0.729081  0.278960  1
  Er  Er3  1  0.000000  0.270919  0.721040  1
  Er  Er4  1  0.000000  0.743756  0.778722  1
  Er  Er5  1  0.000000  0.256244  0.221278  1
  Er  Er6  1  0.000000  0.618458  0.086614  1
  Er  Er7  1  0.000000  0.381542  0.913386  1
  Er  Er8  1  0.000000  0.881822  0.583944  1
  Er  Er9  1  0.000000  0.118178  0.416056  1
  In  In10  1  0.500000  0.707366  0.931668  1
  In  In11  1  0.500000  0.292634  0.068332  1
  In  In12  1  0.500000  0.793626  0.430877  1
  In  In13  1  0.500000  0.206374  0.569123  1
  In  In14  1  0.500000  0.577057  0.647812  1
  In  In15  1  0.500000  0.422943  0.352188  1
  In  In16  1  0.500000  0.925292  0.153200  1
  In  In17  1  0.500000  0.074708  0.846800  1
  Cu  Cu18  1  0.500000  0.978986  0.696970  1
  Cu  Cu19  1  0.500000  0.021014  0.303030  1
  Rh  Rh20  1  0.500000  0.524860  0.195747  1
  Rh  Rh21  1  0.500000  0.475140  0.804253  1
