# generated using pymatgen
data_Er12TcPd3
_symmetry_space_group_name_H-M   'P 1'
_cell_length_a   6.38568509
_cell_length_b   7.07841695
_cell_length_c   9.41745300
_cell_angle_alpha   90.00000000
_cell_angle_beta   90.00000000
_cell_angle_gamma   90.21204861
_symmetry_Int_Tables_number   1
_chemical_formula_structural   Er12TcPd3
_chemical_formula_sum   'Er12 Tc1 Pd3'
_cell_volume   425.67106045
_cell_formula_units_Z   1
loop_
 _symmetry_equiv_pos_site_id
 _symmetry_equiv_pos_as_xyz
  1  'x, y, z'
loop_
 _atom_site_type_symbol
 _atom_site_label
 _atom_site_symmetry_multiplicity
 _atom_site_fract_x
 _atom_site_fract_y
 _atom_site_fract_z
 _atom_site_occupancy
  Er  Er0  1  0.330823  0.683988  0.051858  1
  Er  Er1  1  0.173326  0.183377  0.440602  1
  Er  Er2  1  0.674415  0.320725  0.562209  1
  Er  Er3  1  0.818708  0.814620  0.938109  1
  Er  Er4  1  0.674415  0.320725  0.937791  1
  Er  Er5  1  0.818708  0.814620  0.561891  1
  Er  Er6  1  0.330823  0.683988  0.448142  1
  Er  Er7  1  0.173326  0.183377  0.059398  1
  Er  Er8  1  0.874079  0.524344  0.250000  1
  Er  Er9  1  0.631348  0.030089  0.250000  1
  Er  Er10  1  0.125839  0.475618  0.750000  1
  Er  Er11  1  0.378071  0.964962  0.750000  1
  Tc  Tc12  1  0.541836  0.607559  0.750000  1
  Pd  Pd13  1  0.053732  0.889116  0.250000  1
  Pd  Pd14  1  0.444446  0.393363  0.250000  1
  Pd  Pd15  1  0.956106  0.109531  0.750000  1
