# generated using pymatgen
data_ScBe12Cu
_symmetry_space_group_name_H-M   'P 1'
_cell_length_a   7.15752679
_cell_length_b   7.22184966
_cell_length_c   7.14189740
_cell_angle_alpha   59.77211610
_cell_angle_beta   59.73038895
_cell_angle_gamma   59.55816530
_symmetry_Int_Tables_number   1
_chemical_formula_structural   ScBe12Cu
_chemical_formula_sum   'Sc2 Be24 Cu2'
_cell_volume   259.18299323
_cell_formula_units_Z   2
loop_
 _symmetry_equiv_pos_site_id
 _symmetry_equiv_pos_as_xyz
  1  'x, y, z'
loop_
 _atom_site_type_symbol
 _atom_site_label
 _atom_site_symmetry_multiplicity
 _atom_site_fract_x
 _atom_site_fract_y
 _atom_site_fract_z
 _atom_site_occupancy
  Sc  Sc0  1  0.254077  0.245927  0.254075  1
  Sc  Sc1  1  0.745923  0.754073  0.745925  1
  Be  Be2  1  0.500000  0.500000  0.500000  1
  Be  Be3  1  0.000000  0.000000  0.000000  1
  Be  Be4  1  0.564494  0.795047  0.435506  1
  Be  Be5  1  0.435506  0.204953  0.564494  1
  Be  Be6  1  0.292763  0.936551  0.707239  1
  Be  Be7  1  0.707237  0.063449  0.292761  1
  Be  Be8  1  0.930673  0.278549  0.069325  1
  Be  Be9  1  0.069327  0.721451  0.930675  1
  Be  Be10  1  0.205930  0.802845  0.556831  1
  Be  Be11  1  0.794070  0.197155  0.443169  1
  Be  Be12  1  0.443166  0.565609  0.794068  1
  Be  Be13  1  0.556834  0.434391  0.205932  1
  Be  Be14  1  0.709182  0.287606  0.936528  1
  Be  Be15  1  0.290818  0.712394  0.063472  1
  Be  Be16  1  0.063473  0.933315  0.290819  1
  Be  Be17  1  0.936527  0.066685  0.709181  1
  Be  Be18  1  0.564675  0.205183  0.794154  1
  Be  Be19  1  0.435325  0.794817  0.205846  1
  Be  Be20  1  0.794158  0.435985  0.564674  1
  Be  Be21  1  0.205842  0.564015  0.435326  1
  Be  Be22  1  0.936161  0.710501  0.293708  1
  Be  Be23  1  0.063839  0.289499  0.706292  1
  Be  Be24  1  0.293712  0.059624  0.936162  1
  Be  Be25  1  0.706288  0.940376  0.063838  1
  Cu  Cu26  1  0.807330  0.556572  0.192662  1
  Cu  Cu27  1  0.192670  0.443428  0.807338  1
