# generated using pymatgen
data_Dy10Lu6MgCo4Ag3
_symmetry_space_group_name_H-M   'P 1'
_cell_length_a   9.35639046
_cell_length_b   9.36486967
_cell_length_c   9.36487000
_cell_angle_alpha   60.00000591
_cell_angle_beta   59.97002292
_cell_angle_gamma   59.97002367
_symmetry_Int_Tables_number   1
_chemical_formula_structural   Dy10Lu6MgCo4Ag3
_chemical_formula_sum   'Dy10 Lu6 Mg1 Co4 Ag3'
_cell_volume   579.96251333
_cell_formula_units_Z   1
loop_
 _symmetry_equiv_pos_site_id
 _symmetry_equiv_pos_as_xyz
  1  'x, y, z'
loop_
 _atom_site_type_symbol
 _atom_site_label
 _atom_site_symmetry_multiplicity
 _atom_site_fract_x
 _atom_site_fract_y
 _atom_site_fract_z
 _atom_site_occupancy
  Dy  Dy0  1  0.936123  0.562460  0.562460  1
  Dy  Dy1  1  0.561219  0.937732  0.937732  1
  Dy  Dy2  1  0.561219  0.937732  0.563318  1
  Dy  Dy3  1  0.936123  0.562460  0.938956  1
  Dy  Dy4  1  0.561219  0.563318  0.937732  1
  Dy  Dy5  1  0.936123  0.938956  0.562460  1
  Dy  Dy6  1  0.347287  0.346724  0.346724  1
  Dy  Dy7  1  0.347287  0.346724  0.959264  1
  Dy  Dy8  1  0.347287  0.959264  0.346724  1
  Dy  Dy9  1  0.947292  0.350903  0.350903  1
  Lu  Lu10  1  0.812009  0.186943  0.186943  1
  Lu  Lu11  1  0.184307  0.815354  0.815354  1
  Lu  Lu12  1  0.184307  0.815354  0.184987  1
  Lu  Lu13  1  0.812009  0.186943  0.814105  1
  Lu  Lu14  1  0.184307  0.184987  0.815354  1
  Lu  Lu15  1  0.812009  0.814105  0.186943  1
  Mg  Mg16  1  0.288276  0.570575  0.570575  1
  Co  Co17  1  0.138327  0.141604  0.141604  1
  Co  Co18  1  0.138327  0.141604  0.578464  1
  Co  Co19  1  0.138327  0.578464  0.141604  1
  Co  Co20  1  0.576912  0.141029  0.141029  1
  Ag  Ag21  1  0.583232  0.583169  0.583169  1
  Ag  Ag22  1  0.583232  0.583169  0.250429  1
  Ag  Ag23  1  0.583232  0.250429  0.583169  1
