# generated using pymatgen
data_Tb3Mg3SiHg2
_symmetry_space_group_name_H-M   'P 1'
_cell_length_a   7.50337300
_cell_length_b   7.50337220
_cell_length_c   4.37149300
_cell_angle_alpha   90.00000000
_cell_angle_beta   90.00000000
_cell_angle_gamma   119.99999911
_symmetry_Int_Tables_number   1
_chemical_formula_structural   Tb3Mg3SiHg2
_chemical_formula_sum   'Tb3 Mg3 Si1 Hg2'
_cell_volume   213.14416557
_cell_formula_units_Z   1
loop_
 _symmetry_equiv_pos_site_id
 _symmetry_equiv_pos_as_xyz
  1  'x, y, z'
loop_
 _atom_site_type_symbol
 _atom_site_label
 _atom_site_symmetry_multiplicity
 _atom_site_fract_x
 _atom_site_fract_y
 _atom_site_fract_z
 _atom_site_occupancy
  Tb  Tb0  1  0.579917  0.008793  0.000000  1
  Tb  Tb1  1  0.991207  0.571123  0.000000  1
  Tb  Tb2  1  0.428877  0.420083  0.000000  1
  Mg  Mg3  1  0.249983  0.001946  0.500000  1
  Mg  Mg4  1  0.998054  0.248037  0.500000  1
  Mg  Mg5  1  0.751963  0.750017  0.500000  1
  Si  Si6  1  0.666667  0.333333  0.500000  1
  Hg  Hg7  1  0.333333  0.666667  0.500000  1
  Hg  Hg8  1  0.000000  0.000000  0.000000  1
