# generated using pymatgen
data_SmDy5IrO12
_symmetry_space_group_name_H-M   'P 1'
_cell_length_a   6.47386375
_cell_length_b   6.47657541
_cell_length_c   6.47759400
_cell_angle_alpha   98.67537056
_cell_angle_beta   98.69875602
_cell_angle_gamma   98.64844520
_symmetry_Int_Tables_number   1
_chemical_formula_structural   SmDy5IrO12
_chemical_formula_sum   'Sm1 Dy5 Ir1 O12'
_cell_volume   261.19857581
_cell_formula_units_Z   1
loop_
 _symmetry_equiv_pos_site_id
 _symmetry_equiv_pos_as_xyz
  1  'x, y, z'
loop_
 _atom_site_type_symbol
 _atom_site_label
 _atom_site_symmetry_multiplicity
 _atom_site_fract_x
 _atom_site_fract_y
 _atom_site_fract_z
 _atom_site_occupancy
  Sm  Sm0  1  0.857503  0.689227  0.387750  1
  Dy  Dy1  1  0.145044  0.313406  0.612461  1
  Dy  Dy2  1  0.389631  0.856050  0.687214  1
  Dy  Dy3  1  0.685198  0.387535  0.855563  1
  Dy  Dy4  1  0.312669  0.610528  0.143098  1
  Dy  Dy5  1  0.609460  0.144728  0.314675  1
  Ir  Ir6  1  0.000900  0.001580  0.000423  1
  O  O7  1  0.070827  0.299412  0.965729  1
  O  O8  1  0.040184  0.933414  0.703562  1
  O  O9  1  0.410223  0.566692  0.823518  1
  O  O10  1  0.182844  0.586904  0.435767  1
  O  O11  1  0.702092  0.035246  0.928114  1
  O  O12  1  0.434227  0.177698  0.592248  1
  O  O13  1  0.559579  0.824611  0.407486  1
  O  O14  1  0.297710  0.964890  0.072113  1
  O  O15  1  0.822617  0.403807  0.566772  1
  O  O16  1  0.585628  0.430634  0.175126  1
  O  O17  1  0.963881  0.072369  0.297922  1
  O  O18  1  0.929779  0.701266  0.030458  1
