# generated using pymatgen
data_Hf16MnNi4MoRh2
_symmetry_space_group_name_H-M   'P 1'
_cell_length_a   8.60876186
_cell_length_b   8.61644498
_cell_length_c   8.59639300
_cell_angle_alpha   60.07695637
_cell_angle_beta   60.04752064
_cell_angle_gamma   60.11828849
_symmetry_Int_Tables_number   1
_chemical_formula_structural   Hf16MnNi4MoRh2
_chemical_formula_sum   'Hf16 Mn1 Ni4 Mo1 Rh2'
_cell_volume   451.71593109
_cell_formula_units_Z   1
loop_
 _symmetry_equiv_pos_site_id
 _symmetry_equiv_pos_as_xyz
  1  'x, y, z'
loop_
 _atom_site_type_symbol
 _atom_site_label
 _atom_site_symmetry_multiplicity
 _atom_site_fract_x
 _atom_site_fract_y
 _atom_site_fract_z
 _atom_site_occupancy
  Hf  Hf0  1  0.679926  0.107775  0.106148  1
  Hf  Hf1  1  0.108462  0.672883  0.109327  1
  Hf  Hf2  1  0.104232  0.105948  0.685042  1
  Hf  Hf3  1  0.104232  0.105948  0.104776  1
  Hf  Hf4  1  0.317144  0.316207  0.683324  1
  Hf  Hf5  1  0.687736  0.684532  0.313866  1
  Hf  Hf6  1  0.316383  0.690353  0.314847  1
  Hf  Hf7  1  0.693856  0.316585  0.674574  1
  Hf  Hf8  1  0.693856  0.316585  0.314985  1
  Hf  Hf9  1  0.316383  0.690353  0.678416  1
  Hf  Hf10  1  0.953359  0.954212  0.546215  1
  Hf  Hf11  1  0.550262  0.550606  0.949566  1
  Hf  Hf12  1  0.948725  0.549329  0.952480  1
  Hf  Hf13  1  0.551902  0.945988  0.552091  1
  Hf  Hf14  1  0.551902  0.945988  0.950020  1
  Hf  Hf15  1  0.948725  0.549329  0.549467  1
  Mn  Mn16  1  0.987749  0.333896  0.339177  1
  Ni  Ni17  1  0.320191  0.888645  0.895581  1
  Ni  Ni18  1  0.889189  0.322600  0.894105  1
  Ni  Ni19  1  0.893240  0.891421  0.318423  1
  Ni  Ni20  1  0.893240  0.891421  0.896917  1
  Mo  Mo21  1  0.329711  0.001614  0.334337  1
  Rh  Rh22  1  0.329796  0.333890  0.997463  1
  Rh  Rh23  1  0.329796  0.333890  0.338849  1
