# generated using pymatgen
data_Nd2SmNp7O20
_symmetry_space_group_name_H-M   'P 1'
_cell_length_a   6.64126065
_cell_length_b   7.66974247
_cell_length_c   8.57578270
_cell_angle_alpha   102.96007336
_cell_angle_beta   97.25231783
_cell_angle_gamma   106.82952232
_symmetry_Int_Tables_number   1
_chemical_formula_structural   Nd2SmNp7O20
_chemical_formula_sum   'Nd2 Sm1 Np7 O20'
_cell_volume   398.81375029
_cell_formula_units_Z   1
loop_
 _symmetry_equiv_pos_site_id
 _symmetry_equiv_pos_as_xyz
  1  'x, y, z'
loop_
 _atom_site_type_symbol
 _atom_site_label
 _atom_site_symmetry_multiplicity
 _atom_site_fract_x
 _atom_site_fract_y
 _atom_site_fract_z
 _atom_site_occupancy
  Nd  Nd0  1  0.800112  0.600598  0.600579  1
  Nd  Nd1  1  0.600082  0.199832  0.199321  1
  Sm  Sm2  1  0.000188  0.999865  0.000645  1
  Np  Np3  1  0.002319  0.501132  0.001155  1
  Np  Np4  1  0.800368  0.099900  0.600607  1
  Np  Np5  1  0.399829  0.799815  0.800582  1
  Np  Np6  1  0.200038  0.400151  0.399272  1
  Np  Np7  1  0.598090  0.699339  0.198504  1
  Np  Np8  1  0.398090  0.297757  0.799263  1
  Np  Np9  1  0.201010  0.901761  0.400503  1
  O  O10  1  0.865938  0.317131  0.455685  1
  O  O11  1  0.639230  0.906831  0.048156  1
  O  O12  1  0.950499  0.766185  0.155092  1
  O  O13  1  0.435248  0.519546  0.656777  1
  O  O14  1  0.858413  0.837638  0.446141  1
  O  O15  1  0.650184  0.435363  0.043915  1
  O  O16  1  0.742223  0.362417  0.754066  1
  O  O17  1  0.242484  0.124671  0.262817  1
  O  O18  1  0.963650  0.291530  0.149987  1
  O  O19  1  0.445508  0.026951  0.645407  1
  O  O20  1  0.546605  0.965227  0.357270  1
  O  O21  1  0.062462  0.717141  0.854540  1
  O  O22  1  0.736216  0.883997  0.746220  1
  O  O23  1  0.348374  0.569586  0.953834  1
  O  O24  1  0.250058  0.630189  0.245104  1
  O  O25  1  0.536687  0.484983  0.346413  1
  O  O26  1  0.155279  0.173020  0.555475  1
  O  O27  1  0.052874  0.233135  0.843431  1
  O  O28  1  0.353150  0.073699  0.935877  1
  O  O29  1  0.164791  0.680611  0.543366  1
