# generated using pymatgen
data_KSr3(In4Au3)2
_symmetry_space_group_name_H-M   'P 1'
_cell_length_a   15.27078594
_cell_length_b   15.27078663
_cell_length_c   4.69813700
_cell_angle_alpha   90.00000000
_cell_angle_beta   90.00000000
_cell_angle_gamma   119.57720758
_symmetry_Int_Tables_number   1
_chemical_formula_structural   KSr3(In4Au3)2
_chemical_formula_sum   'K2 Sr6 In16 Au12'
_cell_volume   952.82606091
_cell_formula_units_Z   2
loop_
 _symmetry_equiv_pos_site_id
 _symmetry_equiv_pos_as_xyz
  1  'x, y, z'
loop_
 _atom_site_type_symbol
 _atom_site_label
 _atom_site_symmetry_multiplicity
 _atom_site_fract_x
 _atom_site_fract_y
 _atom_site_fract_z
 _atom_site_occupancy
  K  K0  1  0.817893  0.998889  0.500000  1
  K  K1  1  0.998889  0.817893  0.500000  1
  Sr  Sr2  1  0.450649  0.999039  0.000000  1
  Sr  Sr3  1  0.999039  0.450649  0.000000  1
  Sr  Sr4  1  0.548783  0.548783  0.000000  1
  Sr  Sr5  1  0.333060  0.666365  0.000000  1
  Sr  Sr6  1  0.666365  0.333060  0.000000  1
  Sr  Sr7  1  0.183886  0.183886  0.500000  1
  In  In8  1  0.183690  0.380004  0.000000  1
  In  In9  1  0.618355  0.802713  0.000000  1
  In  In10  1  0.380004  0.183690  0.000000  1
  In  In11  1  0.196879  0.816904  0.000000  1
  In  In12  1  0.802713  0.618355  0.000000  1
  In  In13  1  0.816904  0.196879  0.000000  1
  In  In14  1  0.277822  0.000321  0.500000  1
  In  In15  1  0.000321  0.277822  0.500000  1
  In  In16  1  0.721461  0.721461  0.500000  1
  In  In17  1  0.351077  0.473508  0.500000  1
  In  In18  1  0.526850  0.876313  0.500000  1
  In  In19  1  0.473508  0.351077  0.500000  1
  In  In20  1  0.124537  0.650508  0.500000  1
  In  In21  1  0.876313  0.526850  0.500000  1
  In  In22  1  0.650508  0.124537  0.500000  1
  In  In23  1  0.997589  0.997589  0.000000  1
  Au  Au24  1  0.174247  0.491604  0.500000  1
  Au  Au25  1  0.507474  0.680712  0.500000  1
  Au  Au26  1  0.491604  0.174247  0.500000  1
  Au  Au27  1  0.318781  0.827977  0.500000  1
  Au  Au28  1  0.680712  0.507474  0.500000  1
  Au  Au29  1  0.827977  0.318781  0.500000  1
  Au  Au30  1  0.181707  0.005356  0.000000  1
  Au  Au31  1  0.005356  0.181707  0.000000  1
  Au  Au32  1  0.819656  0.819656  0.000000  1
  Au  Au33  1  0.652150  0.000598  0.000000  1
  Au  Au34  1  0.000598  0.652150  0.000000  1
  Au  Au35  1  0.342642  0.342642  0.000000  1
