# generated using pymatgen
data_Pr4Ga4Ru3Pt
_symmetry_space_group_name_H-M   'P 1'
_cell_length_a   4.31936700
_cell_length_b   7.20966415
_cell_length_c   8.06209870
_cell_angle_alpha   90.29850317
_cell_angle_beta   90.00000000
_cell_angle_gamma   90.00000000
_symmetry_Int_Tables_number   1
_chemical_formula_structural   Pr4Ga4Ru3Pt
_chemical_formula_sum   'Pr4 Ga4 Ru3 Pt1'
_cell_volume   251.05990327
_cell_formula_units_Z   1
loop_
 _symmetry_equiv_pos_site_id
 _symmetry_equiv_pos_as_xyz
  1  'x, y, z'
loop_
 _atom_site_type_symbol
 _atom_site_label
 _atom_site_symmetry_multiplicity
 _atom_site_fract_x
 _atom_site_fract_y
 _atom_site_fract_z
 _atom_site_occupancy
  Pr  Pr0  1  0.250000  0.021225  0.685819  1
  Pr  Pr1  1  0.250000  0.527756  0.809052  1
  Pr  Pr2  1  0.750000  0.976064  0.308020  1
  Pr  Pr3  1  0.750000  0.479439  0.196098  1
  Ga  Ga4  1  0.250000  0.153005  0.076782  1
  Ga  Ga5  1  0.250000  0.660797  0.428427  1
  Ga  Ga6  1  0.750000  0.835756  0.928531  1
  Ga  Ga7  1  0.750000  0.342268  0.567544  1
  Ru  Ru8  1  0.250000  0.286546  0.390705  1
  Ru  Ru9  1  0.250000  0.781446  0.106887  1
  Ru  Ru10  1  0.750000  0.718114  0.607968  1
  Pt  Pt11  1  0.750000  0.217585  0.894166  1
