# generated using pymatgen
data_Tb5YB14OsW
_symmetry_space_group_name_H-M   'P 1'
_cell_length_a   8.14532103
_cell_length_b   8.14532067
_cell_length_c   9.41597200
_cell_angle_alpha   90.00000000
_cell_angle_beta   90.00000000
_cell_angle_gamma   155.11142927
_symmetry_Int_Tables_number   1
_chemical_formula_structural   Tb5YB14OsW
_chemical_formula_sum   'Tb5 Y1 B14 Os1 W1'
_cell_volume   262.91411747
_cell_formula_units_Z   1
loop_
 _symmetry_equiv_pos_site_id
 _symmetry_equiv_pos_as_xyz
  1  'x, y, z'
loop_
 _atom_site_type_symbol
 _atom_site_label
 _atom_site_symmetry_multiplicity
 _atom_site_fract_x
 _atom_site_fract_y
 _atom_site_fract_z
 _atom_site_occupancy
  Tb  Tb0  1  0.894103  0.105897  0.937269  1
  Tb  Tb1  1  0.107071  0.892929  0.058680  1
  Tb  Tb2  1  0.754832  0.245168  0.250000  1
  Tb  Tb3  1  0.894103  0.105897  0.562731  1
  Tb  Tb4  1  0.107071  0.892929  0.441320  1
  Y  Y5  1  0.243370  0.756630  0.750000  1
  B  B6  1  0.544423  0.455577  0.250000  1
  B  B7  1  0.459053  0.540947  0.750000  1
  B  B8  1  0.521477  0.478523  0.903028  1
  B  B9  1  0.480086  0.519914  0.091456  1
  B  B10  1  0.480086  0.519914  0.408544  1
  B  B11  1  0.521477  0.478523  0.596972  1
  B  B12  1  0.631711  0.368289  0.848499  1
  B  B13  1  0.365306  0.634694  0.147414  1
  B  B14  1  0.726541  0.273459  0.964949  1
  B  B15  1  0.272014  0.727986  0.031873  1
  B  B16  1  0.272014  0.727986  0.468127  1
  B  B17  1  0.726541  0.273459  0.535051  1
  B  B18  1  0.631711  0.368289  0.651501  1
  B  B19  1  0.365306  0.634694  0.352586  1
  Os  Os20  1  0.054437  0.945563  0.750000  1
  W  W21  1  0.947269  0.052731  0.250000  1
