# generated using pymatgen
data_Er4Al19Ga5Pt9
_symmetry_space_group_name_H-M   'P 1'
_cell_length_a   7.51430218
_cell_length_b   7.51533128
_cell_length_c   13.19185896
_cell_angle_alpha   84.65637833
_cell_angle_beta   100.78275738
_cell_angle_gamma   119.89803254
_symmetry_Int_Tables_number   1
_chemical_formula_structural   Er4Al19Ga5Pt9
_chemical_formula_sum   'Er4 Al19 Ga5 Pt9'
_cell_volume   634.42771587
_cell_formula_units_Z   1
loop_
 _symmetry_equiv_pos_site_id
 _symmetry_equiv_pos_as_xyz
  1  'x, y, z'
loop_
 _atom_site_type_symbol
 _atom_site_label
 _atom_site_symmetry_multiplicity
 _atom_site_fract_x
 _atom_site_fract_y
 _atom_site_fract_z
 _atom_site_occupancy
  Er  Er0  1  0.735945  0.000161  0.191498  1
  Er  Er1  1  0.264161  0.997916  0.808357  1
  Er  Er2  1  0.061177  0.668243  0.190512  1
  Er  Er3  1  0.941087  0.333871  0.809432  1
  Al  Al4  1  0.601826  0.335380  0.183746  1
  Al  Al5  1  0.881636  0.665022  0.669164  1
  Al  Al6  1  0.117939  0.334871  0.330934  1
  Al  Al7  1  0.602253  0.456451  0.816052  1
  Al  Al8  1  0.396416  0.542317  0.184295  1
  Al  Al9  1  0.230273  0.339504  0.669276  1
  Al  Al10  1  0.769489  0.660206  0.329960  1
  Al  Al11  1  0.853219  0.333004  0.558504  1
  Al  Al12  1  0.185985  0.999274  0.558876  1
  Al  Al13  1  0.813822  0.000702  0.440944  1
  Al  Al14  1  0.352284  0.999550  0.056162  1
  Al  Al15  1  0.647490  0.000509  0.944130  1
  Al  Al16  1  0.556184  0.994611  0.670039  1
  Al  Al17  1  0.443997  0.005698  0.329441  1
  Al  Al18  1  0.520222  0.667916  0.560469  1
  Al  Al19  1  0.479461  0.332027  0.438963  1
  Al  Al20  1  0.684759  0.667612  0.049184  1
  Al  Al21  1  0.315635  0.332488  0.952242  1
  Al  Al22  1  0.146324  0.667013  0.440983  1
  Ga  Ga23  1  0.803564  0.869407  0.814903  1
  Ga  Ga24  1  0.198183  0.132933  0.185149  1
  Ga  Ga25  1  0.981921  0.665527  0.939304  1
  Ga  Ga26  1  0.017239  0.334052  0.060653  1
  Ga  Ga27  1  0.400312  0.662994  0.816467  1
  Pt  Pt28  1  0.335556  0.674649  0.002712  1
  Pt  Pt29  1  0.546513  0.325384  0.637956  1
  Pt  Pt30  1  0.453273  0.674826  0.362152  1
  Pt  Pt31  1  0.888255  0.008872  0.637288  1
  Pt  Pt32  1  0.111426  0.990987  0.362822  1
  Pt  Pt33  1  0.664205  0.326244  0.999429  1
  Pt  Pt34  1  0.203003  0.666839  0.637487  1
  Pt  Pt35  1  0.795633  0.333323  0.360567  1
  Pt  Pt36  1  0.999333  0.999618  0.999948  1
