# generated using pymatgen
data_Tb2CeHo(ReB6)2
_symmetry_space_group_name_H-M   'P 1'
_cell_length_a   3.71335500
_cell_length_b   9.20735424
_cell_length_c   11.59425875
_cell_angle_alpha   90.15993538
_cell_angle_beta   90.00000000
_cell_angle_gamma   90.00000000
_symmetry_Int_Tables_number   1
_chemical_formula_structural   Tb2CeHo(ReB6)2
_chemical_formula_sum   'Tb4 Ce2 Ho2 Re4 B24'
_cell_volume   396.40819006
_cell_formula_units_Z   2
loop_
 _symmetry_equiv_pos_site_id
 _symmetry_equiv_pos_as_xyz
  1  'x, y, z'
loop_
 _atom_site_type_symbol
 _atom_site_label
 _atom_site_symmetry_multiplicity
 _atom_site_fract_x
 _atom_site_fract_y
 _atom_site_fract_z
 _atom_site_occupancy
  Tb  Tb0  1  0.000000  0.823929  0.085418  1
  Tb  Tb1  1  0.000000  0.176071  0.914582  1
  Tb  Tb2  1  0.000000  0.943267  0.370195  1
  Tb  Tb3  1  0.000000  0.056733  0.629805  1
  Ce  Ce4  1  0.000000  0.322590  0.413634  1
  Ce  Ce5  1  0.000000  0.677410  0.586366  1
  Ho  Ho6  1  0.000000  0.442854  0.128544  1
  Ho  Ho7  1  0.000000  0.557146  0.871456  1
  Re  Re8  1  0.000000  0.636720  0.321533  1
  Re  Re9  1  0.000000  0.363280  0.678467  1
  Re  Re10  1  0.000000  0.140010  0.179631  1
  Re  Re11  1  0.000000  0.859990  0.820369  1
  B  B12  1  0.500000  0.553830  0.431341  1
  B  B13  1  0.500000  0.446170  0.568659  1
  B  B14  1  0.500000  0.053864  0.066919  1
  B  B15  1  0.500000  0.946136  0.933081  1
  B  B16  1  0.500000  0.748041  0.417172  1
  B  B17  1  0.500000  0.251959  0.582828  1
  B  B18  1  0.500000  0.248925  0.081075  1
  B  B19  1  0.500000  0.751075  0.918925  1
  B  B20  1  0.500000  0.790770  0.264929  1
  B  B21  1  0.500000  0.209230  0.735071  1
  B  B22  1  0.500000  0.291578  0.233314  1
  B  B23  1  0.500000  0.708422  0.766686  1
  B  B24  1  0.500000  0.630372  0.184976  1
  B  B25  1  0.500000  0.369628  0.815024  1
  B  B26  1  0.500000  0.131648  0.312995  1
  B  B27  1  0.500000  0.868352  0.687005  1
  B  B28  1  0.500000  0.983486  0.211178  1
  B  B29  1  0.500000  0.016514  0.788822  1
  B  B30  1  0.500000  0.483237  0.286521  1
  B  B31  1  0.500000  0.516763  0.713479  1
  B  B32  1  0.500000  0.600669  0.028218  1
  B  B33  1  0.500000  0.399331  0.971782  1
  B  B34  1  0.500000  0.104382  0.470978  1
  B  B35  1  0.500000  0.895618  0.529022  1
