# generated using pymatgen
data_Er2Al2IrPd
_symmetry_space_group_name_H-M   'P 1'
_cell_length_a   4.32666600
_cell_length_b   6.81026300
_cell_length_c   7.84553400
_cell_angle_alpha   90.00000000
_cell_angle_beta   90.00000000
_cell_angle_gamma   90.00000000
_symmetry_Int_Tables_number   1
_chemical_formula_structural   Er2Al2IrPd
_chemical_formula_sum   'Er4 Al4 Ir2 Pd2'
_cell_volume   231.17441301
_cell_formula_units_Z   2
loop_
 _symmetry_equiv_pos_site_id
 _symmetry_equiv_pos_as_xyz
  1  'x, y, z'
loop_
 _atom_site_type_symbol
 _atom_site_label
 _atom_site_symmetry_multiplicity
 _atom_site_fract_x
 _atom_site_fract_y
 _atom_site_fract_z
 _atom_site_occupancy
  Er  Er0  1  0.250000  0.034213  0.322965  1
  Er  Er1  1  0.250000  0.534213  0.177035  1
  Er  Er2  1  0.750000  0.972925  0.681552  1
  Er  Er3  1  0.750000  0.472925  0.818448  1
  Al  Al4  1  0.250000  0.139682  0.935432  1
  Al  Al5  1  0.250000  0.639682  0.564568  1
  Al  Al6  1  0.750000  0.856047  0.057502  1
  Al  Al7  1  0.750000  0.356047  0.442498  1
  Ir  Ir8  1  0.250000  0.267093  0.619869  1
  Ir  Ir9  1  0.250000  0.767093  0.880131  1
  Pd  Pd10  1  0.750000  0.730040  0.377476  1
  Pd  Pd11  1  0.750000  0.230040  0.122524  1
