# generated using pymatgen
data_TbYb3Os8
_symmetry_space_group_name_H-M   'P 1'
_cell_length_a   5.29463800
_cell_length_b   5.29463662
_cell_length_c   8.80545000
_cell_angle_alpha   90.00000000
_cell_angle_beta   90.00000000
_cell_angle_gamma   119.99999610
_symmetry_Int_Tables_number   1
_chemical_formula_structural   TbYb3Os8
_chemical_formula_sum   'Tb1 Yb3 Os8'
_cell_volume   213.77387805
_cell_formula_units_Z   1
loop_
 _symmetry_equiv_pos_site_id
 _symmetry_equiv_pos_as_xyz
  1  'x, y, z'
loop_
 _atom_site_type_symbol
 _atom_site_label
 _atom_site_symmetry_multiplicity
 _atom_site_fract_x
 _atom_site_fract_y
 _atom_site_fract_z
 _atom_site_occupancy
  Tb  Tb0  1  0.333333  0.666667  0.433394  1
  Yb  Yb1  1  0.666667  0.333333  0.569086  1
  Yb  Yb2  1  0.666667  0.333333  0.934610  1
  Yb  Yb3  1  0.333333  0.666667  0.061323  1
  Os  Os4  1  0.000000  0.000000  0.500695  1
  Os  Os5  1  0.000000  0.000000  0.001238  1
  Os  Os6  1  0.827500  0.172500  0.249434  1
  Os  Os7  1  0.827500  0.655000  0.249434  1
  Os  Os8  1  0.345000  0.172500  0.249434  1
  Os  Os9  1  0.171960  0.828040  0.750451  1
  Os  Os10  1  0.171960  0.343921  0.750451  1
  Os  Os11  1  0.656079  0.828040  0.750451  1
