# generated using pymatgen
data_TbDy3AlTc7
_symmetry_space_group_name_H-M   'P 1'
_cell_length_a   5.33130000
_cell_length_b   5.33130016
_cell_length_c   9.06094600
_cell_angle_alpha   90.00000000
_cell_angle_beta   90.00000000
_cell_angle_gamma   119.99998658
_symmetry_Int_Tables_number   1
_chemical_formula_structural   TbDy3AlTc7
_chemical_formula_sum   'Tb1 Dy3 Al1 Tc7'
_cell_volume   223.03369993
_cell_formula_units_Z   1
loop_
 _symmetry_equiv_pos_site_id
 _symmetry_equiv_pos_as_xyz
  1  'x, y, z'
loop_
 _atom_site_type_symbol
 _atom_site_label
 _atom_site_symmetry_multiplicity
 _atom_site_fract_x
 _atom_site_fract_y
 _atom_site_fract_z
 _atom_site_occupancy
  Tb  Tb0  1  0.333333  0.666667  0.434717  1
  Dy  Dy1  1  0.666667  0.333333  0.565687  1
  Dy  Dy2  1  0.666667  0.333333  0.935274  1
  Dy  Dy3  1  0.333333  0.666667  0.064569  1
  Al  Al4  1  0.000000  0.000000  0.500119  1
  Tc  Tc5  1  0.000000  0.000000  0.999743  1
  Tc  Tc6  1  0.830054  0.169946  0.249801  1
  Tc  Tc7  1  0.830054  0.660108  0.249801  1
  Tc  Tc8  1  0.339892  0.169946  0.249801  1
  Tc  Tc9  1  0.169933  0.830067  0.750162  1
  Tc  Tc10  1  0.169933  0.339865  0.750162  1
  Tc  Tc11  1  0.660135  0.830067  0.750162  1
