# generated using pymatgen
data_Tb10Sn5BiP2
_symmetry_space_group_name_H-M   'P 1'
_cell_length_a   9.15393561
_cell_length_b   9.15393456
_cell_length_c   6.71597600
_cell_angle_alpha   90.00000000
_cell_angle_beta   90.00000000
_cell_angle_gamma   120.08654656
_symmetry_Int_Tables_number   1
_chemical_formula_structural   Tb10Sn5BiP2
_chemical_formula_sum   'Tb10 Sn5 Bi1 P2'
_cell_volume   486.94063116
_cell_formula_units_Z   1
loop_
 _symmetry_equiv_pos_site_id
 _symmetry_equiv_pos_as_xyz
  1  'x, y, z'
loop_
 _atom_site_type_symbol
 _atom_site_label
 _atom_site_symmetry_multiplicity
 _atom_site_fract_x
 _atom_site_fract_y
 _atom_site_fract_z
 _atom_site_occupancy
  Tb  Tb0  1  0.670022  0.332180  0.002377  1
  Tb  Tb1  1  0.332180  0.670022  0.002377  1
  Tb  Tb2  1  0.332180  0.670022  0.497623  1
  Tb  Tb3  1  0.670022  0.332180  0.497623  1
  Tb  Tb4  1  0.760791  0.760791  0.750000  1
  Tb  Tb5  1  0.238284  0.995560  0.750000  1
  Tb  Tb6  1  0.995560  0.238284  0.750000  1
  Tb  Tb7  1  0.240539  0.240539  0.250000  1
  Tb  Tb8  1  0.759085  0.999135  0.250000  1
  Tb  Tb9  1  0.999135  0.759085  0.250000  1
  Sn  Sn10  1  0.600726  0.000291  0.750000  1
  Sn  Sn11  1  0.000291  0.600726  0.750000  1
  Sn  Sn12  1  0.602134  0.602134  0.250000  1
  Sn  Sn13  1  0.398985  0.000477  0.250000  1
  Sn  Sn14  1  0.000477  0.398985  0.250000  1
  Bi  Bi15  1  0.398044  0.398044  0.750000  1
  P  P16  1  0.000774  0.000774  0.999678  1
  P  P17  1  0.000774  0.000774  0.500322  1
