# generated using pymatgen
data_Nd2Th(GaNi)3
_symmetry_space_group_name_H-M   'P 1'
_cell_length_a   7.19371500
_cell_length_b   7.16343480
_cell_length_c   3.87708700
_cell_angle_alpha   90.00000000
_cell_angle_beta   90.00000000
_cell_angle_gamma   120.13992386
_symmetry_Int_Tables_number   1
_chemical_formula_structural   Nd2Th(GaNi)3
_chemical_formula_sum   'Nd2 Th1 Ga3 Ni3'
_cell_volume   172.78126529
_cell_formula_units_Z   1
loop_
 _symmetry_equiv_pos_site_id
 _symmetry_equiv_pos_as_xyz
  1  'x, y, z'
loop_
 _atom_site_type_symbol
 _atom_site_label
 _atom_site_symmetry_multiplicity
 _atom_site_fract_x
 _atom_site_fract_y
 _atom_site_fract_z
 _atom_site_occupancy
  Nd  Nd0  1  0.998602  0.414722  0.500000  1
  Nd  Nd1  1  0.583881  0.585278  0.500000  1
  Th  Th2  1  0.418004  0.000000  0.500000  1
  Ga  Ga3  1  0.996009  0.757929  0.000000  1
  Ga  Ga4  1  0.238080  0.242071  0.000000  1
  Ga  Ga5  1  0.768781  0.000000  0.000000  1
  Ni  Ni6  1  0.335456  0.684601  0.000000  1
  Ni  Ni7  1  0.650856  0.315399  0.000000  1
  Ni  Ni8  1  0.010331  0.000000  0.500000  1
