# generated using pymatgen
data_Y4ErLu3(ReB6)4
_symmetry_space_group_name_H-M   'P 1'
_cell_length_a   3.65302800
_cell_length_b   9.12525300
_cell_length_c   11.51624900
_cell_angle_alpha   89.99692435
_cell_angle_beta   90.00000000
_cell_angle_gamma   90.00000000
_symmetry_Int_Tables_number   1
_chemical_formula_structural   Y4ErLu3(ReB6)4
_chemical_formula_sum   'Y4 Er1 Lu3 Re4 B24'
_cell_volume   383.89191120
_cell_formula_units_Z   1
loop_
 _symmetry_equiv_pos_site_id
 _symmetry_equiv_pos_as_xyz
  1  'x, y, z'
loop_
 _atom_site_type_symbol
 _atom_site_label
 _atom_site_symmetry_multiplicity
 _atom_site_fract_x
 _atom_site_fract_y
 _atom_site_fract_z
 _atom_site_occupancy
  Y  Y0  1  0.000000  0.322442  0.413862  1
  Y  Y1  1  0.000000  0.677470  0.585747  1
  Y  Y2  1  0.000000  0.822905  0.086216  1
  Y  Y3  1  0.000000  0.177289  0.914065  1
  Er  Er4  1  0.000000  0.556635  0.870497  1
  Lu  Lu5  1  0.000000  0.943249  0.370186  1
  Lu  Lu6  1  0.000000  0.056662  0.629503  1
  Lu  Lu7  1  0.000000  0.443100  0.130418  1
  Re  Re8  1  0.000000  0.639362  0.319993  1
  Re  Re9  1  0.000000  0.360062  0.679527  1
  Re  Re10  1  0.000000  0.139188  0.180448  1
  Re  Re11  1  0.000000  0.861642  0.819656  1
  B  B12  1  0.500000  0.553697  0.432428  1
  B  B13  1  0.500000  0.446068  0.567133  1
  B  B14  1  0.500000  0.053829  0.067705  1
  B  B15  1  0.500000  0.946986  0.932498  1
  B  B16  1  0.500000  0.750939  0.418114  1
  B  B17  1  0.500000  0.248808  0.581587  1
  B  B18  1  0.500000  0.250706  0.082163  1
  B  B19  1  0.500000  0.750374  0.918124  1
  B  B20  1  0.500000  0.793025  0.265466  1
  B  B21  1  0.500000  0.206604  0.734310  1
  B  B22  1  0.500000  0.292865  0.234822  1
  B  B23  1  0.500000  0.707904  0.765043  1
  B  B24  1  0.500000  0.629876  0.185035  1
  B  B25  1  0.500000  0.369241  0.814727  1
  B  B26  1  0.500000  0.129694  0.315304  1
  B  B27  1  0.500000  0.870566  0.684508  1
  B  B28  1  0.500000  0.981671  0.212892  1
  B  B29  1  0.500000  0.018603  0.786973  1
  B  B30  1  0.500000  0.481751  0.287321  1
  B  B31  1  0.500000  0.517778  0.712171  1
  B  B32  1  0.500000  0.597965  0.028188  1
  B  B33  1  0.500000  0.401114  0.973641  1
  B  B34  1  0.500000  0.097481  0.472779  1
  B  B35  1  0.500000  0.902450  0.526949  1
