# generated using pymatgen
data_Tb5Pr2YSb20
_symmetry_space_group_name_H-M   'P 1'
_cell_length_a   4.21177100
_cell_length_b   13.36832834
_cell_length_c   14.87418700
_cell_angle_alpha   78.41367979
_cell_angle_beta   90.00000000
_cell_angle_gamma   90.00000000
_symmetry_Int_Tables_number   1
_chemical_formula_structural   Tb5Pr2YSb20
_chemical_formula_sum   'Tb5 Pr2 Y1 Sb20'
_cell_volume   820.41608468
_cell_formula_units_Z   1
loop_
 _symmetry_equiv_pos_site_id
 _symmetry_equiv_pos_as_xyz
  1  'x, y, z'
loop_
 _atom_site_type_symbol
 _atom_site_label
 _atom_site_symmetry_multiplicity
 _atom_site_fract_x
 _atom_site_fract_y
 _atom_site_fract_z
 _atom_site_occupancy
  Tb  Tb0  1  0.250000  0.661560  0.857056  1
  Tb  Tb1  1  0.250000  0.667118  0.576384  1
  Tb  Tb2  1  0.750000  0.332849  0.423492  1
  Tb  Tb3  1  0.250000  0.396018  0.771448  1
  Tb  Tb4  1  0.750000  0.603871  0.228559  1
  Pr  Pr5  1  0.250000  0.953186  0.359108  1
  Pr  Pr6  1  0.750000  0.046937  0.640802  1
  Y  Y7  1  0.750000  0.338460  0.143204  1
  Sb  Sb8  1  0.750000  0.845670  0.827658  1
  Sb  Sb9  1  0.250000  0.855458  0.678583  1
  Sb  Sb10  1  0.250000  0.148174  0.479026  1
  Sb  Sb11  1  0.750000  0.281754  0.937105  1
  Sb  Sb12  1  0.250000  0.145822  0.783265  1
  Sb  Sb13  1  0.750000  0.572984  0.445517  1
  Sb  Sb14  1  0.750000  0.144634  0.321301  1
  Sb  Sb15  1  0.250000  0.710239  0.350124  1
  Sb  Sb16  1  0.750000  0.289742  0.649871  1
  Sb  Sb17  1  0.750000  0.854125  0.216819  1
  Sb  Sb18  1  0.250000  0.420726  0.975149  1
  Sb  Sb19  1  0.250000  0.426993  0.554468  1
  Sb  Sb20  1  0.750000  0.575989  0.734784  1
  Sb  Sb21  1  0.250000  0.423951  0.265129  1
  Sb  Sb22  1  0.750000  0.851839  0.520920  1
  Sb  Sb23  1  0.750000  0.028588  0.901252  1
  Sb  Sb24  1  0.250000  0.718201  0.063142  1
  Sb  Sb25  1  0.250000  0.971323  0.098756  1
  Sb  Sb26  1  0.250000  0.154476  0.172181  1
  Sb  Sb27  1  0.750000  0.579317  0.024898  1
