# generated using pymatgen
data_Ba6Ho2(MoO6)3
_symmetry_space_group_name_H-M   'P 1'
_cell_length_a   5.96027708
_cell_length_b   5.96027620
_cell_length_c   14.89377900
_cell_angle_alpha   90.00000000
_cell_angle_beta   78.45760961
_cell_angle_gamma   120.00001544
_symmetry_Int_Tables_number   1
_chemical_formula_structural   Ba6Ho2(MoO6)3
_chemical_formula_sum   'Ba6 Ho2 Mo3 O18'
_cell_volume   445.81582219
_cell_formula_units_Z   1
loop_
 _symmetry_equiv_pos_site_id
 _symmetry_equiv_pos_as_xyz
  1  'x, y, z'
loop_
 _atom_site_type_symbol
 _atom_site_label
 _atom_site_symmetry_multiplicity
 _atom_site_fract_x
 _atom_site_fract_y
 _atom_site_fract_z
 _atom_site_occupancy
  Ba  Ba0  1  0.272421  0.636210  0.091370  1
  Ba  Ba1  1  0.824014  0.912006  0.263981  1
  Ba  Ba2  1  0.375266  0.187633  0.437102  1
  Ba  Ba3  1  0.624733  0.812366  0.562899  1
  Ba  Ba4  1  0.175986  0.087994  0.736019  1
  Ba  Ba5  1  0.727579  0.363790  0.908630  1
  Ho  Ho6  1  0.550611  0.275305  0.174083  1
  Ho  Ho7  1  0.449389  0.724695  0.825916  1
  Mo  Mo8  1  0.000000  0.000000  0.000000  1
  Mo  Mo9  1  0.102425  0.551213  0.346362  1
  Mo  Mo10  1  0.897575  0.448787  0.653638  1
  O  O11  1  0.259415  0.129707  0.077311  1
  O  O12  1  0.792981  0.129708  0.077311  1
  O  O13  1  0.792982  0.663274  0.077311  1
  O  O14  1  0.318380  0.426694  0.254925  1
  O  O15  1  0.853392  0.426695  0.254925  1
  O  O16  1  0.318378  0.891683  0.254925  1
  O  O17  1  0.902830  0.214793  0.409132  1
  O  O18  1  0.902830  0.688035  0.409132  1
  O  O19  1  0.376074  0.688036  0.409132  1
  O  O20  1  0.097171  0.311963  0.590868  1
  O  O21  1  0.623926  0.311964  0.590868  1
  O  O22  1  0.097171  0.785206  0.590868  1
  O  O23  1  0.681620  0.108317  0.745075  1
  O  O24  1  0.146609  0.573304  0.745075  1
  O  O25  1  0.681621  0.573305  0.745075  1
  O  O26  1  0.207017  0.336725  0.922689  1
  O  O27  1  0.207017  0.870293  0.922689  1
  O  O28  1  0.740585  0.870293  0.922689  1
