# generated using pymatgen
data_Er2TmCo8P6Ru
_symmetry_space_group_name_H-M   'P 1'
_cell_length_a   3.68513600
_cell_length_b   10.48495100
_cell_length_c   12.20058200
_cell_angle_alpha   90.00000000
_cell_angle_beta   90.00000000
_cell_angle_gamma   90.00000000
_symmetry_Int_Tables_number   1
_chemical_formula_structural   Er2TmCo8P6Ru
_chemical_formula_sum   'Er4 Tm2 Co16 P12 Ru2'
_cell_volume   471.41182633
_cell_formula_units_Z   2
loop_
 _symmetry_equiv_pos_site_id
 _symmetry_equiv_pos_as_xyz
  1  'x, y, z'
loop_
 _atom_site_type_symbol
 _atom_site_label
 _atom_site_symmetry_multiplicity
 _atom_site_fract_x
 _atom_site_fract_y
 _atom_site_fract_z
 _atom_site_occupancy
  Er  Er0  1  0.000000  0.500000  0.525176  1
  Er  Er1  1  0.500000  0.000000  0.474990  1
  Er  Er2  1  0.500000  0.817437  0.207020  1
  Er  Er3  1  0.500000  0.182563  0.207020  1
  Tm  Tm4  1  0.000000  0.682303  0.792855  1
  Tm  Tm5  1  0.000000  0.317697  0.792855  1
  Co  Co6  1  0.500000  0.500000  0.704173  1
  Co  Co7  1  0.000000  0.000000  0.295917  1
  Co  Co8  1  0.000000  0.500000  0.985877  1
  Co  Co9  1  0.500000  0.000000  0.013387  1
  Co  Co10  1  0.500000  0.332445  0.990089  1
  Co  Co11  1  0.500000  0.667555  0.990089  1
  Co  Co12  1  0.000000  0.167811  0.009182  1
  Co  Co13  1  0.000000  0.832189  0.009182  1
  Co  Co14  1  0.500000  0.297497  0.431587  1
  Co  Co15  1  0.500000  0.702503  0.431587  1
  Co  Co16  1  0.000000  0.202598  0.568886  1
  Co  Co17  1  0.000000  0.797402  0.568886  1
  Co  Co18  1  0.500000  0.878263  0.707551  1
  Co  Co19  1  0.500000  0.121737  0.707551  1
  Co  Co20  1  0.000000  0.621398  0.292704  1
  Co  Co21  1  0.000000  0.378602  0.292704  1
  P  P22  1  0.500000  0.500000  0.881046  1
  P  P23  1  0.000000  0.000000  0.118307  1
  P  P24  1  0.500000  0.500000  0.351507  1
  P  P25  1  0.000000  0.000000  0.648611  1
  P  P26  1  0.500000  0.312423  0.616906  1
  P  P27  1  0.500000  0.687577  0.616906  1
  P  P28  1  0.000000  0.187681  0.383688  1
  P  P29  1  0.000000  0.812319  0.383688  1
  P  P30  1  0.500000  0.845745  0.892349  1
  P  P31  1  0.500000  0.154255  0.892349  1
  P  P32  1  0.000000  0.653813  0.107232  1
  P  P33  1  0.000000  0.346187  0.107232  1
  Ru  Ru34  1  0.500000  0.500000  0.160342  1
  Ru  Ru35  1  0.000000  0.000000  0.840570  1
