# generated using pymatgen
data_Tm6CrP12Rh17
_symmetry_space_group_name_H-M   'P 1'
_cell_length_a   3.90662500
_cell_length_b   11.18200100
_cell_length_c   12.72259500
_cell_angle_alpha   90.00000000
_cell_angle_beta   90.00000000
_cell_angle_gamma   90.00000000
_symmetry_Int_Tables_number   1
_chemical_formula_structural   Tm6CrP12Rh17
_chemical_formula_sum   'Tm6 Cr1 P12 Rh17'
_cell_volume   555.77237251
_cell_formula_units_Z   1
loop_
 _symmetry_equiv_pos_site_id
 _symmetry_equiv_pos_as_xyz
  1  'x, y, z'
loop_
 _atom_site_type_symbol
 _atom_site_label
 _atom_site_symmetry_multiplicity
 _atom_site_fract_x
 _atom_site_fract_y
 _atom_site_fract_z
 _atom_site_occupancy
  Tm  Tm0  1  0.000000  0.500000  0.520169  1
  Tm  Tm1  1  0.500000  0.000000  0.478668  1
  Tm  Tm2  1  0.500000  0.814780  0.205811  1
  Tm  Tm3  1  0.500000  0.185220  0.205811  1
  Tm  Tm4  1  0.000000  0.682976  0.796092  1
  Tm  Tm5  1  0.000000  0.317024  0.796092  1
  Cr  Cr6  1  0.500000  0.500000  0.162508  1
  P  P7  1  0.500000  0.500000  0.877571  1
  P  P8  1  0.000000  0.000000  0.122917  1
  P  P9  1  0.500000  0.500000  0.347162  1
  P  P10  1  0.000000  0.000000  0.646990  1
  P  P11  1  0.500000  0.316539  0.618904  1
  P  P12  1  0.500000  0.683461  0.618904  1
  P  P13  1  0.000000  0.185271  0.381084  1
  P  P14  1  0.000000  0.814729  0.381084  1
  P  P15  1  0.500000  0.847104  0.890976  1
  P  P16  1  0.500000  0.152896  0.890976  1
  P  P17  1  0.000000  0.653676  0.109522  1
  P  P18  1  0.000000  0.346324  0.109522  1
  Rh  Rh19  1  0.000000  0.000000  0.831002  1
  Rh  Rh20  1  0.500000  0.500000  0.699887  1
  Rh  Rh21  1  0.000000  0.000000  0.300134  1
  Rh  Rh22  1  0.000000  0.500000  0.985456  1
  Rh  Rh23  1  0.500000  0.000000  0.022039  1
  Rh  Rh24  1  0.500000  0.333163  0.991436  1
  Rh  Rh25  1  0.500000  0.666837  0.991436  1
  Rh  Rh26  1  0.000000  0.166548  0.009338  1
  Rh  Rh27  1  0.000000  0.833452  0.009338  1
  Rh  Rh28  1  0.500000  0.294493  0.431841  1
  Rh  Rh29  1  0.500000  0.705507  0.431841  1
  Rh  Rh30  1  0.000000  0.203356  0.568625  1
  Rh  Rh31  1  0.000000  0.796644  0.568625  1
  Rh  Rh32  1  0.500000  0.871540  0.710096  1
  Rh  Rh33  1  0.500000  0.128460  0.710096  1
  Rh  Rh34  1  0.000000  0.625675  0.289023  1
  Rh  Rh35  1  0.000000  0.374325  0.289023  1
