# generated using pymatgen
data_Gd3Dy2LuTa2O14
_symmetry_space_group_name_H-M   'P 1'
_cell_length_a   6.50973889
_cell_length_b   6.47595724
_cell_length_c   7.51750777
_cell_angle_alpha   90.00470872
_cell_angle_beta   89.94953954
_cell_angle_gamma   108.81149485
_symmetry_Int_Tables_number   1
_chemical_formula_structural   Gd3Dy2LuTa2O14
_chemical_formula_sum   'Gd3 Dy2 Lu1 Ta2 O14'
_cell_volume   299.98578615
_cell_formula_units_Z   1
loop_
 _symmetry_equiv_pos_site_id
 _symmetry_equiv_pos_as_xyz
  1  'x, y, z'
loop_
 _atom_site_type_symbol
 _atom_site_label
 _atom_site_symmetry_multiplicity
 _atom_site_fract_x
 _atom_site_fract_y
 _atom_site_fract_z
 _atom_site_occupancy
  Gd  Gd0  1  0.466087  0.000762  0.256036  1
  Gd  Gd1  1  0.474492  0.477673  0.000674  1
  Gd  Gd2  1  0.533115  0.528344  0.500907  1
  Dy  Dy3  1  0.000363  0.465750  0.744091  1
  Dy  Dy4  1  0.534929  0.000551  0.756469  1
  Lu  Lu5  1  0.001786  0.533278  0.243593  1
  Ta  Ta6  1  0.002762  0.003196  0.500288  1
  Ta  Ta7  1  0.997994  0.997625  0.000877  1
  O  O8  1  0.936221  0.070797  0.750362  1
  O  O9  1  0.642267  0.361876  0.750658  1
  O  O10  1  0.311040  0.061215  0.542779  1
  O  O11  1  0.951817  0.688334  0.961503  1
  O  O12  1  0.641535  0.377615  0.247325  1
  O  O13  1  0.925167  0.672835  0.523719  1
  O  O14  1  0.324795  0.082358  0.970929  1
  O  O15  1  0.072119  0.324003  0.033374  1
  O  O16  1  0.672127  0.916453  0.478476  1
  O  O17  1  0.367473  0.629908  0.749488  1
  O  O18  1  0.684121  0.933277  0.034723  1
  O  O19  1  0.043402  0.306988  0.451284  1
  O  O20  1  0.352797  0.636707  0.252236  1
  O  O21  1  0.063590  0.930456  0.250210  1
