# generated using pymatgen
data_Eu4CuH12Ru
_symmetry_space_group_name_H-M   'P 1'
_cell_length_a   7.27577832
_cell_length_b   7.27577675
_cell_length_c   5.29991500
_cell_angle_alpha   90.00043943
_cell_angle_beta   90.00043213
_cell_angle_gamma   137.36671798
_symmetry_Int_Tables_number   1
_chemical_formula_structural   Eu4CuH12Ru
_chemical_formula_sum   'Eu4 Cu1 H12 Ru1'
_cell_volume   190.02511715
_cell_formula_units_Z   1
loop_
 _symmetry_equiv_pos_site_id
 _symmetry_equiv_pos_as_xyz
  1  'x, y, z'
loop_
 _atom_site_type_symbol
 _atom_site_label
 _atom_site_symmetry_multiplicity
 _atom_site_fract_x
 _atom_site_fract_y
 _atom_site_fract_z
 _atom_site_occupancy
  Eu  Eu0  1  0.144674  0.855326  0.500000  1
  Eu  Eu1  1  0.643723  0.356277  0.000000  1
  Eu  Eu2  1  0.855326  0.144674  0.500000  1
  Eu  Eu3  1  0.356277  0.643723  0.000000  1
  Cu  Cu4  1  0.000000  0.000000  0.000000  1
  H  H5  1  0.999961  0.499996  0.753090  1
  H  H6  1  0.500004  0.000039  0.246910  1
  H  H7  1  0.000039  0.500004  0.246910  1
  H  H8  1  0.499996  0.999961  0.753090  1
  H  H9  1  0.372699  0.627301  0.500000  1
  H  H10  1  0.880132  0.119868  0.000000  1
  H  H11  1  0.627301  0.372699  0.500000  1
  H  H12  1  0.119868  0.880132  0.000000  1
  H  H13  1  0.265177  0.265177  0.734745  1
  H  H14  1  0.734823  0.734823  0.265255  1
  H  H15  1  0.264952  0.264952  0.265270  1
  H  H16  1  0.735048  0.735048  0.734730  1
  Ru  Ru17  1  0.500000  0.500000  0.500000  1
