# generated using pymatgen
data_Dy5Tm3(GeI6)2
_symmetry_space_group_name_H-M   'P 1'
_cell_length_a   4.19499500
_cell_length_b   13.97978219
_cell_length_c   14.75870800
_cell_angle_alpha   89.86783228
_cell_angle_beta   90.00000000
_cell_angle_gamma   90.00000000
_symmetry_Int_Tables_number   1
_chemical_formula_structural   Dy5Tm3(GeI6)2
_chemical_formula_sum   'Dy5 Tm3 Ge2 I12'
_cell_volume   865.52384587
_cell_formula_units_Z   1
loop_
 _symmetry_equiv_pos_site_id
 _symmetry_equiv_pos_as_xyz
  1  'x, y, z'
loop_
 _atom_site_type_symbol
 _atom_site_label
 _atom_site_symmetry_multiplicity
 _atom_site_fract_x
 _atom_site_fract_y
 _atom_site_fract_z
 _atom_site_occupancy
  Dy  Dy0  1  0.500000  0.115773  0.346917  1
  Dy  Dy1  1  0.500000  0.884333  0.653262  1
  Dy  Dy2  1  0.500000  0.614652  0.151729  1
  Dy  Dy3  1  0.000000  0.112082  0.576256  1
  Dy  Dy4  1  0.000000  0.888386  0.424269  1
  Tm  Tm5  1  0.500000  0.385678  0.848563  1
  Tm  Tm6  1  0.000000  0.609445  0.925993  1
  Tm  Tm7  1  0.000000  0.390731  0.074216  1
  Ge  Ge8  1  0.500000  0.000263  0.500228  1
  Ge  Ge9  1  0.500000  0.499409  0.999167  1
  I  I10  1  0.500000  0.250136  0.160755  1
  I  I11  1  0.500000  0.749187  0.838302  1
  I  I12  1  0.500000  0.745739  0.336335  1
  I  I13  1  0.500000  0.255093  0.665159  1
  I  I14  1  0.000000  0.259783  0.415665  1
  I  I15  1  0.000000  0.740219  0.584669  1
  I  I16  1  0.000000  0.758082  0.081625  1
  I  I17  1  0.000000  0.244251  0.915540  1
  I  I18  1  0.000000  0.000553  0.239206  1
  I  I19  1  0.000000  0.999552  0.761063  1
  I  I20  1  0.000000  0.497790  0.257915  1
  I  I21  1  0.000000  0.498864  0.743162  1
