# generated using pymatgen
data_Ca2V2SiAsO10
_symmetry_space_group_name_H-M   'P 1'
_cell_length_a   5.59244101
_cell_length_b   7.61172448
_cell_length_c   10.03421834
_cell_angle_alpha   76.22747459
_cell_angle_beta   91.17249198
_cell_angle_gamma   71.97203012
_symmetry_Int_Tables_number   1
_chemical_formula_structural   Ca2V2SiAsO10
_chemical_formula_sum   'Ca4 V4 Si2 As2 O20'
_cell_volume   392.43509613
_cell_formula_units_Z   2
loop_
 _symmetry_equiv_pos_site_id
 _symmetry_equiv_pos_as_xyz
  1  'x, y, z'
loop_
 _atom_site_type_symbol
 _atom_site_label
 _atom_site_symmetry_multiplicity
 _atom_site_fract_x
 _atom_site_fract_y
 _atom_site_fract_z
 _atom_site_occupancy
  Ca  Ca0  1  0.138411  0.538302  0.214518  1
  Ca  Ca1  1  0.639131  0.038008  0.714028  1
  Ca  Ca2  1  0.863719  0.459557  0.792876  1
  Ca  Ca3  1  0.363483  0.959770  0.292820  1
  V  V4  1  0.499358  0.511939  0.495497  1
  V  V5  1  0.236405  0.739918  0.749858  1
  V  V6  1  0.999182  0.011903  0.995495  1
  V  V7  1  0.736333  0.240075  0.249890  1
  Si  Si8  1  0.392979  0.285662  0.962779  1
  Si  Si9  1  0.892966  0.785627  0.462769  1
  As  As10  1  0.607490  0.714456  0.036384  1
  As  As11  1  0.107703  0.214430  0.536462  1
  O  O12  1  0.531310  0.405607  0.335110  1
  O  O13  1  0.031862  0.905762  0.834959  1
  O  O14  1  0.472286  0.597710  0.664568  1
  O  O15  1  0.972046  0.097714  0.164681  1
  O  O16  1  0.801508  0.827886  0.088206  1
  O  O17  1  0.301690  0.327690  0.588571  1
  O  O18  1  0.205143  0.175585  0.917028  1
  O  O19  1  0.705361  0.675573  0.416661  1
  O  O20  1  0.782708  0.476993  0.099363  1
  O  O21  1  0.282431  0.976913  0.599161  1
  O  O22  1  0.226931  0.513646  0.897553  1
  O  O23  1  0.727051  0.013749  0.397797  1
  O  O24  1  0.565382  0.756842  0.859212  1
  O  O25  1  0.065389  0.256956  0.359242  1
  O  O26  1  0.436288  0.242536  0.133839  1
  O  O27  1  0.936101  0.742390  0.633842  1
  O  O28  1  0.326790  0.783242  0.108094  1
  O  O29  1  0.826892  0.283472  0.608035  1
  O  O30  1  0.662796  0.220057  0.895337  1
  O  O31  1  0.162879  0.720031  0.395367  1
