# generated using pymatgen
data_Zr8Pa2FeCoSb6
_symmetry_space_group_name_H-M   'P 1'
_cell_length_a   5.84301770
_cell_length_b   8.88753901
_cell_length_c   8.88757822
_cell_angle_alpha   122.17439085
_cell_angle_beta   90.13329657
_cell_angle_gamma   90.13262985
_symmetry_Int_Tables_number   1
_chemical_formula_structural   Zr8Pa2FeCoSb6
_chemical_formula_sum   'Zr8 Pa2 Fe1 Co1 Sb6'
_cell_volume   390.65091698
_cell_formula_units_Z   1
loop_
 _symmetry_equiv_pos_site_id
 _symmetry_equiv_pos_as_xyz
  1  'x, y, z'
loop_
 _atom_site_type_symbol
 _atom_site_label
 _atom_site_symmetry_multiplicity
 _atom_site_fract_x
 _atom_site_fract_y
 _atom_site_fract_z
 _atom_site_occupancy
  Zr  Zr0  1  0.751140  0.992280  0.259202  1
  Zr  Zr1  1  0.248872  0.007758  0.740814  1
  Zr  Zr2  1  0.751136  0.259203  0.992277  1
  Zr  Zr3  1  0.248868  0.740817  0.007763  1
  Zr  Zr4  1  0.000019  0.663935  0.336094  1
  Zr  Zr5  1  0.000018  0.336090  0.663933  1
  Zr  Zr6  1  0.500009  0.336639  0.663384  1
  Zr  Zr7  1  0.500011  0.663385  0.336644  1
  Pa  Pa8  1  0.755404  0.776156  0.776152  1
  Pa  Pa9  1  0.244665  0.223738  0.223739  1
  Fe  Fe10  1  0.999858  0.999931  0.999923  1
  Co  Co11  1  0.499918  0.000048  0.000049  1
  Sb  Sb12  1  0.748821  0.389129  0.389128  1
  Sb  Sb13  1  0.251225  0.610843  0.610845  1
  Sb  Sb14  1  0.749727  0.004794  0.604876  1
  Sb  Sb15  1  0.250293  0.995254  0.395127  1
  Sb  Sb16  1  0.749728  0.604876  0.004794  1
  Sb  Sb17  1  0.250288  0.395126  0.995254  1
