# generated using pymatgen
data_DyHo3Si4(IrRh)2
_symmetry_space_group_name_H-M   'P 1'
_cell_length_a   4.24051000
_cell_length_b   6.86175278
_cell_length_c   7.43345601
_cell_angle_alpha   89.89687069
_cell_angle_beta   90.00000000
_cell_angle_gamma   90.00000000
_symmetry_Int_Tables_number   1
_chemical_formula_structural   DyHo3Si4(IrRh)2
_chemical_formula_sum   'Dy1 Ho3 Si4 Ir2 Rh2'
_cell_volume   216.29338169
_cell_formula_units_Z   1
loop_
 _symmetry_equiv_pos_site_id
 _symmetry_equiv_pos_as_xyz
  1  'x, y, z'
loop_
 _atom_site_type_symbol
 _atom_site_label
 _atom_site_symmetry_multiplicity
 _atom_site_fract_x
 _atom_site_fract_y
 _atom_site_fract_z
 _atom_site_occupancy
  Dy  Dy0  1  0.750000  0.499969  0.810885  1
  Ho  Ho1  1  0.250000  0.001102  0.310948  1
  Ho  Ho2  1  0.750000  0.000008  0.689418  1
  Ho  Ho3  1  0.250000  0.501220  0.189388  1
  Si  Si4  1  0.250000  0.797618  0.895392  1
  Si  Si5  1  0.250000  0.296848  0.604311  1
  Si  Si6  1  0.750000  0.202979  0.109608  1
  Si  Si7  1  0.750000  0.703420  0.390619  1
  Ir  Ir8  1  0.750000  0.843645  0.068151  1
  Ir  Ir9  1  0.750000  0.342994  0.431682  1
  Rh  Rh10  1  0.250000  0.655332  0.567441  1
  Rh  Rh11  1  0.250000  0.154864  0.932156  1
