# generated using pymatgen
data_Dy4Th(B3Ru)2
_symmetry_space_group_name_H-M   'P 1'
_cell_length_a   5.50257738
_cell_length_b   5.50257756
_cell_length_c   8.43526319
_cell_angle_alpha   70.96382674
_cell_angle_beta   70.96382778
_cell_angle_gamma   59.99999127
_symmetry_Int_Tables_number   1
_chemical_formula_structural   Dy4Th(B3Ru)2
_chemical_formula_sum   'Dy4 Th1 B6 Ru2'
_cell_volume   204.90118809
_cell_formula_units_Z   1
loop_
 _symmetry_equiv_pos_site_id
 _symmetry_equiv_pos_as_xyz
  1  'x, y, z'
loop_
 _atom_site_type_symbol
 _atom_site_label
 _atom_site_symmetry_multiplicity
 _atom_site_fract_x
 _atom_site_fract_y
 _atom_site_fract_z
 _atom_site_occupancy
  Dy  Dy0  1  0.249478  0.249478  0.251566  1
  Dy  Dy1  1  0.750522  0.750522  0.748434  1
  Dy  Dy2  1  0.416927  0.416927  0.749219  1
  Dy  Dy3  1  0.583073  0.583073  0.250781  1
  Th  Th4  1  0.000000  0.000000  0.000000  1
  B  B5  1  0.172643  0.827357  0.500000  1
  B  B6  1  0.827357  0.500000  0.500000  1
  B  B7  1  0.500000  0.172643  0.500000  1
  B  B8  1  0.172643  0.500000  0.500000  1
  B  B9  1  0.500000  0.827357  0.500000  1
  B  B10  1  0.827357  0.172643  0.500000  1
  Ru  Ru11  1  0.110183  0.110183  0.669450  1
  Ru  Ru12  1  0.889817  0.889817  0.330550  1
