# generated using pymatgen
data_Yb3TmSc4(ReB6)4
_symmetry_space_group_name_H-M   'P 1'
_cell_length_a   3.54843400
_cell_length_b   9.04269200
_cell_length_c   11.37421000
_cell_angle_alpha   90.00232314
_cell_angle_beta   90.00000000
_cell_angle_gamma   90.00000000
_symmetry_Int_Tables_number   1
_chemical_formula_structural   Yb3TmSc4(ReB6)4
_chemical_formula_sum   'Yb3 Tm1 Sc4 Re4 B24'
_cell_volume   364.96877740
_cell_formula_units_Z   1
loop_
 _symmetry_equiv_pos_site_id
 _symmetry_equiv_pos_as_xyz
  1  'x, y, z'
loop_
 _atom_site_type_symbol
 _atom_site_label
 _atom_site_symmetry_multiplicity
 _atom_site_fract_x
 _atom_site_fract_y
 _atom_site_fract_z
 _atom_site_occupancy
  Yb  Yb0  1  0.000000  0.677082  0.585310  1
  Yb  Yb1  1  0.000000  0.823930  0.085317  1
  Yb  Yb2  1  0.000000  0.176252  0.914713  1
  Tm  Tm3  1  0.000000  0.324339  0.414898  1
  Sc  Sc4  1  0.000000  0.944052  0.368430  1
  Sc  Sc5  1  0.000000  0.055261  0.631910  1
  Sc  Sc6  1  0.000000  0.444384  0.131893  1
  Sc  Sc7  1  0.000000  0.555888  0.866828  1
  Re  Re8  1  0.000000  0.641925  0.317785  1
  Re  Re9  1  0.000000  0.356659  0.681596  1
  Re  Re10  1  0.000000  0.144797  0.183282  1
  Re  Re11  1  0.000000  0.856518  0.818137  1
  B  B12  1  0.500000  0.554467  0.433081  1
  B  B13  1  0.500000  0.445122  0.566491  1
  B  B14  1  0.500000  0.054800  0.067999  1
  B  B15  1  0.500000  0.945733  0.932941  1
  B  B16  1  0.500000  0.754792  0.418798  1
  B  B17  1  0.500000  0.244519  0.580614  1
  B  B18  1  0.500000  0.255256  0.081682  1
  B  B19  1  0.500000  0.744569  0.918545  1
  B  B20  1  0.500000  0.796677  0.263939  1
  B  B21  1  0.500000  0.202827  0.735987  1
  B  B22  1  0.500000  0.297326  0.237193  1
  B  B23  1  0.500000  0.702897  0.763191  1
  B  B24  1  0.500000  0.630353  0.181883  1
  B  B25  1  0.500000  0.369298  0.817412  1
  B  B26  1  0.500000  0.130768  0.318871  1
  B  B27  1  0.500000  0.869464  0.681778  1
  B  B28  1  0.500000  0.982526  0.213732  1
  B  B29  1  0.500000  0.017763  0.786834  1
  B  B30  1  0.500000  0.482200  0.286934  1
  B  B31  1  0.500000  0.517519  0.712580  1
  B  B32  1  0.500000  0.592246  0.024608  1
  B  B33  1  0.500000  0.407615  0.974768  1
  B  B34  1  0.500000  0.093670  0.474729  1
  B  B35  1  0.500000  0.906507  0.525311  1
