# generated using pymatgen
data_TbHo(B2Rh3)3
_symmetry_space_group_name_H-M   'P 1'
_cell_length_a   5.61108900
_cell_length_b   5.61108785
_cell_length_c   8.58561600
_cell_angle_alpha   90.00000000
_cell_angle_beta   90.00000000
_cell_angle_gamma   120.00001268
_symmetry_Int_Tables_number   1
_chemical_formula_structural   TbHo(B2Rh3)3
_chemical_formula_sum   'Tb1 Ho1 B6 Rh9'
_cell_volume   234.09722314
_cell_formula_units_Z   1
loop_
 _symmetry_equiv_pos_site_id
 _symmetry_equiv_pos_as_xyz
  1  'x, y, z'
loop_
 _atom_site_type_symbol
 _atom_site_label
 _atom_site_symmetry_multiplicity
 _atom_site_fract_x
 _atom_site_fract_y
 _atom_site_fract_z
 _atom_site_occupancy
  Tb  Tb0  1  0.000000  0.000000  0.705809  1
  Ho  Ho1  1  0.000000  0.000000  0.293817  1
  B  B2  1  0.666667  0.333333  0.000189  1
  B  B3  1  0.333333  0.666667  0.000189  1
  B  B4  1  0.666667  0.333333  0.667282  1
  B  B5  1  0.333333  0.666667  0.667282  1
  B  B6  1  0.333333  0.666667  0.332585  1
  B  B7  1  0.666667  0.333333  0.332585  1
  Rh  Rh8  1  0.500000  0.500000  0.835852  1
  Rh  Rh9  1  0.500000  0.000000  0.835852  1
  Rh  Rh10  1  0.000000  0.500000  0.835852  1
  Rh  Rh11  1  0.500000  0.500000  0.164416  1
  Rh  Rh12  1  0.500000  0.000000  0.164416  1
  Rh  Rh13  1  0.000000  0.500000  0.164416  1
  Rh  Rh14  1  0.500000  0.500000  0.499820  1
  Rh  Rh15  1  0.500000  0.000000  0.499820  1
  Rh  Rh16  1  0.000000  0.500000  0.499820  1
