# generated using pymatgen
data_LiHo5(Si3Ru)8
_symmetry_space_group_name_H-M   'P 1'
_cell_length_a   10.11261707
_cell_length_b   10.11261696
_cell_length_c   8.08929308
_cell_angle_alpha   89.99355884
_cell_angle_beta   89.99356416
_cell_angle_gamma   132.76604993
_symmetry_Int_Tables_number   1
_chemical_formula_structural   LiHo5(Si3Ru)8
_chemical_formula_sum   'Li1 Ho5 Si24 Ru8'
_cell_volume   607.31222678
_cell_formula_units_Z   1
loop_
 _symmetry_equiv_pos_site_id
 _symmetry_equiv_pos_as_xyz
  1  'x, y, z'
loop_
 _atom_site_type_symbol
 _atom_site_label
 _atom_site_symmetry_multiplicity
 _atom_site_fract_x
 _atom_site_fract_y
 _atom_site_fract_z
 _atom_site_occupancy
  Li  Li0  1  0.500000  0.500000  0.500000  1
  Ho  Ho1  1  0.000000  0.000000  0.000000  1
  Ho  Ho2  1  0.501904  0.001907  0.749279  1
  Ho  Ho3  1  0.998093  0.498096  0.250721  1
  Ho  Ho4  1  0.498096  0.998093  0.250721  1
  Ho  Ho5  1  0.001907  0.501904  0.749279  1
  Si  Si6  1  0.796731  0.203269  0.500000  1
  Si  Si7  1  0.296501  0.703499  0.000000  1
  Si  Si8  1  0.203269  0.796731  0.500000  1
  Si  Si9  1  0.703499  0.296501  0.000000  1
  Si  Si10  1  0.336657  0.336657  0.827235  1
  Si  Si11  1  0.663343  0.663343  0.172765  1
  Si  Si12  1  0.172276  0.172276  0.336422  1
  Si  Si13  1  0.827724  0.827724  0.663578  1
  Si  Si14  1  0.123530  0.890220  0.728591  1
  Si  Si15  1  0.109780  0.876470  0.271409  1
  Si  Si16  1  0.607559  0.378232  0.234344  1
  Si  Si17  1  0.621768  0.392441  0.765656  1
  Si  Si18  1  0.876470  0.109780  0.271409  1
  Si  Si19  1  0.890220  0.123530  0.728591  1
  Si  Si20  1  0.392441  0.621768  0.765656  1
  Si  Si21  1  0.378232  0.607559  0.234344  1
  Si  Si22  1  0.349621  0.120542  0.507346  1
  Si  Si23  1  0.879458  0.650379  0.492654  1
  Si  Si24  1  0.387918  0.154636  0.006343  1
  Si  Si25  1  0.845364  0.612082  0.993657  1
  Si  Si26  1  0.650379  0.879458  0.492654  1
  Si  Si27  1  0.120542  0.349621  0.507346  1
  Si  Si28  1  0.612082  0.845364  0.993657  1
  Si  Si29  1  0.154636  0.387918  0.006343  1
  Ru  Ru30  1  0.671959  0.328041  0.500000  1
  Ru  Ru31  1  0.170959  0.829041  0.000000  1
  Ru  Ru32  1  0.328041  0.671959  0.500000  1
  Ru  Ru33  1  0.829041  0.170959  0.000000  1
  Ru  Ru34  1  0.124139  0.124139  0.628584  1
  Ru  Ru35  1  0.875861  0.875861  0.371416  1
  Ru  Ru36  1  0.371075  0.371075  0.124154  1
  Ru  Ru37  1  0.628925  0.628925  0.875846  1
