# generated using pymatgen
data_Dy4Tc3MoF28
_symmetry_space_group_name_H-M   'P 1'
_cell_length_a   5.62209216
_cell_length_b   8.90997321
_cell_length_c   11.97579400
_cell_angle_alpha   62.74014287
_cell_angle_beta   90.07763647
_cell_angle_gamma   89.96816133
_symmetry_Int_Tables_number   1
_chemical_formula_structural   Dy4Tc3MoF28
_chemical_formula_sum   'Dy4 Tc3 Mo1 F28'
_cell_volume   533.27293451
_cell_formula_units_Z   1
loop_
 _symmetry_equiv_pos_site_id
 _symmetry_equiv_pos_as_xyz
  1  'x, y, z'
loop_
 _atom_site_type_symbol
 _atom_site_label
 _atom_site_symmetry_multiplicity
 _atom_site_fract_x
 _atom_site_fract_y
 _atom_site_fract_z
 _atom_site_occupancy
  Dy  Dy0  1  0.759935  0.815635  0.764376  1
  Dy  Dy1  1  0.260854  0.187396  0.734505  1
  Dy  Dy2  1  0.239839  0.186265  0.235037  1
  Dy  Dy3  1  0.741292  0.812088  0.265777  1
  Tc  Tc4  1  0.257048  0.726925  0.543559  1
  Tc  Tc5  1  0.243259  0.726566  0.043443  1
  Tc  Tc6  1  0.742805  0.273109  0.456559  1
  Mo  Mo7  1  0.756408  0.273666  0.956413  1
  F  F8  1  0.450327  0.706576  0.919391  1
  F  F9  1  0.949239  0.293417  0.580455  1
  F  F10  1  0.555854  0.292718  0.084298  1
  F  F11  1  0.050968  0.706501  0.419267  1
  F  F12  1  0.453458  0.280741  0.546843  1
  F  F13  1  0.953221  0.717728  0.953412  1
  F  F14  1  0.547255  0.719383  0.453721  1
  F  F15  1  0.061186  0.279766  0.048119  1
  F  F16  1  0.768301  0.522181  0.856847  1
  F  F17  1  0.268213  0.480427  0.640763  1
  F  F18  1  0.233353  0.480105  0.142563  1
  F  F19  1  0.729740  0.520002  0.358423  1
  F  F20  1  0.755885  0.025343  0.052016  1
  F  F21  1  0.256080  0.972744  0.447428  1
  F  F22  1  0.240600  0.972599  0.947593  1
  F  F23  1  0.743134  0.026751  0.552669  1
  F  F24  1  0.978405  0.729365  0.641397  1
  F  F25  1  0.462704  0.271204  0.857637  1
  F  F26  1  0.020767  0.269875  0.358921  1
  F  F27  1  0.522458  0.730403  0.140665  1
  F  F28  1  0.042068  0.746049  0.171183  1
  F  F29  1  0.541244  0.253429  0.329305  1
  F  F30  1  0.952787  0.253903  0.825934  1
  F  F31  1  0.457709  0.746642  0.671473  1
  F  F32  1  0.423007  0.972621  0.231388  1
  F  F33  1  0.919608  0.027680  0.267048  1
  F  F34  1  0.581091  0.028614  0.768698  1
  F  F35  1  0.079894  0.971580  0.732876  1
