# generated using pymatgen
data_DyEr9(FeBi2)2
_symmetry_space_group_name_H-M   'P 1'
_cell_length_a   7.91016448
_cell_length_b   8.88836600
_cell_length_c   12.35620839
_cell_angle_alpha   90.00000000
_cell_angle_beta   90.15102484
_cell_angle_gamma   90.00000000
_symmetry_Int_Tables_number   1
_chemical_formula_structural   DyEr9(FeBi2)2
_chemical_formula_sum   'Dy2 Er18 Fe4 Bi8'
_cell_volume   868.74268143
_cell_formula_units_Z   2
loop_
 _symmetry_equiv_pos_site_id
 _symmetry_equiv_pos_as_xyz
  1  'x, y, z'
loop_
 _atom_site_type_symbol
 _atom_site_label
 _atom_site_symmetry_multiplicity
 _atom_site_fract_x
 _atom_site_fract_y
 _atom_site_fract_z
 _atom_site_occupancy
  Dy  Dy0  1  0.654226  0.750000  0.700604  1
  Dy  Dy1  1  0.345774  0.250000  0.299396  1
  Er  Er2  1  0.153082  0.250000  0.800676  1
  Er  Er3  1  0.846918  0.750000  0.199324  1
  Er  Er4  1  0.118437  0.750000  0.814680  1
  Er  Er5  1  0.881563  0.250000  0.185320  1
  Er  Er6  1  0.618021  0.250000  0.684906  1
  Er  Er7  1  0.381979  0.750000  0.315094  1
  Er  Er8  1  0.555680  0.750000  0.994887  1
  Er  Er9  1  0.444320  0.250000  0.005113  1
  Er  Er10  1  0.054959  0.250000  0.504558  1
  Er  Er11  1  0.945041  0.750000  0.495442  1
  Er  Er12  1  0.827501  0.464331  0.936720  1
  Er  Er13  1  0.172499  0.535669  0.063280  1
  Er  Er14  1  0.327269  0.535023  0.563177  1
  Er  Er15  1  0.172499  0.964331  0.063280  1
  Er  Er16  1  0.672731  0.464977  0.436823  1
  Er  Er17  1  0.827501  0.035669  0.936720  1
  Er  Er18  1  0.672731  0.035023  0.436823  1
  Er  Er19  1  0.327269  0.964977  0.563177  1
  Fe  Fe20  1  0.932063  0.750000  0.991773  1
  Fe  Fe21  1  0.067937  0.250000  0.008227  1
  Fe  Fe22  1  0.432241  0.250000  0.507409  1
  Fe  Fe23  1  0.567759  0.750000  0.492591  1
  Bi  Bi24  1  0.933220  0.007180  0.673194  1
  Bi  Bi25  1  0.066780  0.992820  0.326806  1
  Bi  Bi26  1  0.431720  0.994236  0.826833  1
  Bi  Bi27  1  0.066780  0.507180  0.326806  1
  Bi  Bi28  1  0.568280  0.005764  0.173167  1
  Bi  Bi29  1  0.933220  0.492820  0.673194  1
  Bi  Bi30  1  0.568280  0.494236  0.173167  1
  Bi  Bi31  1  0.431720  0.505764  0.826833  1
