# generated using pymatgen
data_Sm2Be3SiIr4
_symmetry_space_group_name_H-M   'P 1'
_cell_length_a   4.09536800
_cell_length_b   4.09536800
_cell_length_c   9.41826300
_cell_angle_alpha   90.00000000
_cell_angle_beta   90.00000000
_cell_angle_gamma   90.00000000
_symmetry_Int_Tables_number   1
_chemical_formula_structural   Sm2Be3SiIr4
_chemical_formula_sum   'Sm2 Be3 Si1 Ir4'
_cell_volume   157.96347487
_cell_formula_units_Z   1
loop_
 _symmetry_equiv_pos_site_id
 _symmetry_equiv_pos_as_xyz
  1  'x, y, z'
loop_
 _atom_site_type_symbol
 _atom_site_label
 _atom_site_symmetry_multiplicity
 _atom_site_fract_x
 _atom_site_fract_y
 _atom_site_fract_z
 _atom_site_occupancy
  Sm  Sm0  1  0.000000  0.500000  0.255372  1
  Sm  Sm1  1  0.500000  0.000000  0.746993  1
  Be  Be2  1  0.000000  0.000000  0.501967  1
  Be  Be3  1  0.500000  0.500000  0.501967  1
  Be  Be4  1  0.000000  0.500000  0.875913  1
  Si  Si5  1  0.500000  0.000000  0.126495  1
  Ir  Ir6  1  0.000000  0.000000  0.996659  1
  Ir  Ir7  1  0.500000  0.500000  0.996659  1
  Ir  Ir8  1  0.000000  0.500000  0.615231  1
  Ir  Ir9  1  0.500000  0.000000  0.382744  1
