# generated using pymatgen
data_Tb8Sc12Ga15Pb
_symmetry_space_group_name_H-M   'P 1'
_cell_length_a   7.33650899
_cell_length_b   7.59283560
_cell_length_c   14.56654832
_cell_angle_alpha   90.10548016
_cell_angle_beta   89.77111972
_cell_angle_gamma   89.96306961
_symmetry_Int_Tables_number   1
_chemical_formula_structural   Tb8Sc12Ga15Pb
_chemical_formula_sum   'Tb8 Sc12 Ga15 Pb1'
_cell_volume   811.42019275
_cell_formula_units_Z   1
loop_
 _symmetry_equiv_pos_site_id
 _symmetry_equiv_pos_as_xyz
  1  'x, y, z'
loop_
 _atom_site_type_symbol
 _atom_site_label
 _atom_site_symmetry_multiplicity
 _atom_site_fract_x
 _atom_site_fract_y
 _atom_site_fract_z
 _atom_site_occupancy
  Tb  Tb0  1  0.012221  0.178725  0.095413  1
  Tb  Tb1  1  0.988203  0.821601  0.904639  1
  Tb  Tb2  1  0.488156  0.678140  0.904757  1
  Tb  Tb3  1  0.984490  0.829134  0.596508  1
  Tb  Tb4  1  0.512094  0.321504  0.095399  1
  Tb  Tb5  1  0.007550  0.172772  0.401268  1
  Tb  Tb6  1  0.514184  0.318166  0.402355  1
  Tb  Tb7  1  0.499500  0.685988  0.597661  1
  Sc  Sc8  1  0.162563  0.502763  0.754364  1
  Sc  Sc9  1  0.837844  0.498095  0.249387  1
  Sc  Sc10  1  0.337642  0.003181  0.249627  1
  Sc  Sc11  1  0.663846  0.998246  0.751564  1
  Sc  Sc12  1  0.336439  0.160173  0.628162  1
  Sc  Sc13  1  0.668167  0.829080  0.374875  1
  Sc  Sc14  1  0.169009  0.680200  0.371265  1
  Sc  Sc15  1  0.670009  0.827053  0.124225  1
  Sc  Sc16  1  0.821672  0.323979  0.625754  1
  Sc  Sc17  1  0.329320  0.173011  0.875764  1
  Sc  Sc18  1  0.829881  0.327020  0.875611  1
  Sc  Sc19  1  0.170629  0.672905  0.124539  1
  Ga  Ga20  1  0.031390  0.118655  0.750259  1
  Ga  Ga21  1  0.967228  0.882197  0.248594  1
  Ga  Ga22  1  0.469132  0.617883  0.249931  1
  Ga  Ga23  1  0.530436  0.381771  0.750905  1
  Ga  Ga24  1  0.284943  0.871162  0.750874  1
  Ga  Ga25  1  0.714567  0.126066  0.249303  1
  Ga  Ga26  1  0.214704  0.373597  0.250381  1
  Ga  Ga27  1  0.786260  0.626618  0.750147  1
  Ga  Ga28  1  0.828815  0.537587  0.457605  1
  Ga  Ga29  1  0.339578  0.964692  0.459661  1
  Ga  Ga30  1  0.839352  0.534631  0.040411  1
  Ga  Ga31  1  0.659726  0.037043  0.539207  1
  Ga  Ga32  1  0.160402  0.465239  0.959922  1
  Ga  Ga33  1  0.660259  0.035281  0.959714  1
  Ga  Ga34  1  0.339526  0.964537  0.040312  1
  Pb  Pb35  1  0.170263  0.461304  0.539638  1
