# generated using pymatgen
data_CsRbSe12
_symmetry_space_group_name_H-M   'P 1'
_cell_length_a   11.64943622
_cell_length_b   11.64943767
_cell_length_c   11.64943564
_cell_angle_alpha   128.05349927
_cell_angle_beta   121.85491224
_cell_angle_gamma   81.71094015
_symmetry_Int_Tables_number   1
_chemical_formula_structural   CsRbSe12
_chemical_formula_sum   'Cs2 Rb2 Se24'
_cell_volume   1017.86985599
_cell_formula_units_Z   2
loop_
 _symmetry_equiv_pos_site_id
 _symmetry_equiv_pos_as_xyz
  1  'x, y, z'
loop_
 _atom_site_type_symbol
 _atom_site_label
 _atom_site_symmetry_multiplicity
 _atom_site_fract_x
 _atom_site_fract_y
 _atom_site_fract_z
 _atom_site_occupancy
  Cs  Cs0  1  0.750000  0.250000  0.500000  1
  Cs  Cs1  1  0.250000  0.750000  0.500000  1
  Rb  Rb2  1  0.500000  0.500000  0.000000  1
  Rb  Rb3  1  0.000000  0.000000  0.000000  1
  Se  Se4  1  0.646972  0.750000  0.896972  1
  Se  Se5  1  0.853028  0.750000  0.103028  1
  Se  Se6  1  0.353028  0.250000  0.103028  1
  Se  Se7  1  0.146972  0.250000  0.896972  1
  Se  Se8  1  0.245672  0.151525  0.693281  1
  Se  Se9  1  0.254328  0.947610  0.905853  1
  Se  Se10  1  0.041758  0.348475  0.094147  1
  Se  Se11  1  0.458242  0.552390  0.306719  1
  Se  Se12  1  0.754328  0.848475  0.306719  1
  Se  Se13  1  0.745672  0.052390  0.094147  1
  Se  Se14  1  0.958242  0.651525  0.905853  1
  Se  Se15  1  0.541758  0.447610  0.693281  1
  Se  Se16  1  0.913515  0.814488  0.511116  1
  Se  Se17  1  0.586485  0.097603  0.900974  1
  Se  Se18  1  0.196629  0.685512  0.099026  1
  Se  Se19  1  0.303371  0.402397  0.488884  1
  Se  Se20  1  0.086485  0.185512  0.488884  1
  Se  Se21  1  0.413515  0.902397  0.099026  1
  Se  Se22  1  0.803372  0.314488  0.900974  1
  Se  Se23  1  0.696629  0.597603  0.511116  1
  Se  Se24  1  0.672606  0.067530  0.740136  1
  Se  Se25  1  0.827394  0.567530  0.394924  1
  Se  Se26  1  0.172606  0.432470  0.605076  1
  Se  Se27  1  0.327394  0.932470  0.259864  1
