# generated using pymatgen
data_Tm2FeNi5As4
_symmetry_space_group_name_H-M   'P 1'
_cell_length_a   3.85817700
_cell_length_b   10.91852600
_cell_length_c   12.69651700
_cell_angle_alpha   90.00000000
_cell_angle_beta   90.00000000
_cell_angle_gamma   90.00000000
_symmetry_Int_Tables_number   1
_chemical_formula_structural   Tm2FeNi5As4
_chemical_formula_sum   'Tm6 Fe3 Ni15 As12'
_cell_volume   534.84847128
_cell_formula_units_Z   3
loop_
 _symmetry_equiv_pos_site_id
 _symmetry_equiv_pos_as_xyz
  1  'x, y, z'
loop_
 _atom_site_type_symbol
 _atom_site_label
 _atom_site_symmetry_multiplicity
 _atom_site_fract_x
 _atom_site_fract_y
 _atom_site_fract_z
 _atom_site_occupancy
  Tm  Tm0  1  0.000000  0.500000  0.523594  1
  Tm  Tm1  1  0.500000  0.000000  0.475324  1
  Tm  Tm2  1  0.500000  0.819320  0.207012  1
  Tm  Tm3  1  0.500000  0.180680  0.207012  1
  Tm  Tm4  1  0.000000  0.681092  0.793846  1
  Tm  Tm5  1  0.000000  0.318908  0.793846  1
  Fe  Fe6  1  0.500000  0.500000  0.152247  1
  Fe  Fe7  1  0.000000  0.000000  0.846115  1
  Fe  Fe8  1  0.000000  0.500000  0.988323  1
  Ni  Ni9  1  0.500000  0.500000  0.700403  1
  Ni  Ni10  1  0.000000  0.000000  0.300691  1
  Ni  Ni11  1  0.500000  0.000000  0.015864  1
  Ni  Ni12  1  0.500000  0.332445  0.994506  1
  Ni  Ni13  1  0.500000  0.667555  0.994506  1
  Ni  Ni14  1  0.000000  0.168763  0.004407  1
  Ni  Ni15  1  0.000000  0.831237  0.004407  1
  Ni  Ni16  1  0.500000  0.303216  0.427916  1
  Ni  Ni17  1  0.500000  0.696784  0.427916  1
  Ni  Ni18  1  0.000000  0.197076  0.572203  1
  Ni  Ni19  1  0.000000  0.802924  0.572203  1
  Ni  Ni20  1  0.500000  0.879388  0.706164  1
  Ni  Ni21  1  0.500000  0.120612  0.706164  1
  Ni  Ni22  1  0.000000  0.621040  0.292842  1
  Ni  Ni23  1  0.000000  0.378960  0.292842  1
  As  As24  1  0.500000  0.500000  0.878337  1
  As  As25  1  0.000000  0.000000  0.122996  1
  As  As26  1  0.500000  0.500000  0.346525  1
  As  As27  1  0.000000  0.000000  0.652006  1
  As  As28  1  0.500000  0.316003  0.614688  1
  As  As29  1  0.500000  0.683997  0.614688  1
  As  As30  1  0.000000  0.184778  0.385608  1
  As  As31  1  0.000000  0.815222  0.385608  1
  As  As32  1  0.500000  0.846119  0.888418  1
  As  As33  1  0.500000  0.153881  0.888418  1
  As  As34  1  0.000000  0.654370  0.111178  1
  As  As35  1  0.000000  0.345630  0.111178  1
