# generated using pymatgen
data_Y6ThP12Pd17
_symmetry_space_group_name_H-M   'P 1'
_cell_length_a   12.32226570
_cell_length_b   12.32226581
_cell_length_c   13.60678773
_cell_angle_alpha   68.30130253
_cell_angle_beta   68.30130263
_cell_angle_gamma   18.76856138
_symmetry_Int_Tables_number   1
_chemical_formula_structural   Y6ThP12Pd17
_chemical_formula_sum   'Y6 Th1 P12 Pd17'
_cell_volume   616.29784596
_cell_formula_units_Z   1
loop_
 _symmetry_equiv_pos_site_id
 _symmetry_equiv_pos_as_xyz
  1  'x, y, z'
loop_
 _atom_site_type_symbol
 _atom_site_label
 _atom_site_symmetry_multiplicity
 _atom_site_fract_x
 _atom_site_fract_y
 _atom_site_fract_z
 _atom_site_occupancy
  Y  Y0  1  0.500008  0.500008  0.498892  1
  Y  Y1  1  0.364439  0.364439  0.002362  1
  Y  Y2  1  0.635053  0.635053  0.000449  1
  Y  Y3  1  0.234243  0.234243  0.313289  1
  Y  Y4  1  0.766169  0.766169  0.685586  1
  Y  Y5  1  0.418223  0.418223  0.261419  1
  Th  Th6  1  0.582247  0.582247  0.738610  1
  P  P7  1  0.062073  0.062073  0.926305  1
  P  P8  1  0.937473  0.937473  0.077238  1
  P  P9  1  0.886423  0.886423  0.829864  1
  P  P10  1  0.112952  0.112952  0.170622  1
  P  P11  1  0.190259  0.190259  0.621280  1
  P  P12  1  0.811337  0.811337  0.377513  1
  P  P13  1  0.364560  0.364560  0.581479  1
  P  P14  1  0.635847  0.635847  0.417286  1
  P  P15  1  0.011462  0.011462  0.664417  1
  P  P16  1  0.987389  0.987389  0.331545  1
  P  P17  1  0.231934  0.231934  0.883283  1
  P  P18  1  0.768554  0.768554  0.118177  1
  Pd  Pd19  1  0.839095  0.839095  0.194223  1
  Pd  Pd20  1  0.161388  0.161388  0.807143  1
  Pd  Pd21  1  0.026238  0.026238  0.124563  1
  Pd  Pd22  1  0.972797  0.972797  0.876877  1
  Pd  Pd23  1  0.888610  0.888610  0.456010  1
  Pd  Pd24  1  0.111545  0.111545  0.541261  1
  Pd  Pd25  1  0.499678  0.499678  0.000735  1
  Pd  Pd26  1  0.545577  0.545577  0.254686  1
  Pd  Pd27  1  0.453525  0.453525  0.746919  1
  Pd  Pd28  1  0.297050  0.297050  0.489504  1
  Pd  Pd29  1  0.704241  0.704241  0.508657  1
  Pd  Pd30  1  0.667674  0.667674  0.225191  1
  Pd  Pd31  1  0.332296  0.332296  0.773938  1
  Pd  Pd32  1  0.909242  0.909242  0.640839  1
  Pd  Pd33  1  0.090316  0.090316  0.358066  1
  Pd  Pd34  1  0.216078  0.216078  0.069439  1
  Pd  Pd35  1  0.784004  0.784004  0.932332  1
