# generated using pymatgen
data_GdPu5(BO3)6
_symmetry_space_group_name_H-M   'P 1'
_cell_length_a   6.71530324
_cell_length_b   6.72058041
_cell_length_c   9.79150800
_cell_angle_alpha   70.26615438
_cell_angle_beta   70.27801168
_cell_angle_gamma   60.08511098
_symmetry_Int_Tables_number   1
_chemical_formula_structural   GdPu5(BO3)6
_chemical_formula_sum   'Gd1 Pu5 B6 O18'
_cell_volume   352.70249965
_cell_formula_units_Z   1
loop_
 _symmetry_equiv_pos_site_id
 _symmetry_equiv_pos_as_xyz
  1  'x, y, z'
loop_
 _atom_site_type_symbol
 _atom_site_label
 _atom_site_symmetry_multiplicity
 _atom_site_fract_x
 _atom_site_fract_y
 _atom_site_fract_z
 _atom_site_occupancy
  Gd  Gd0  1  0.344840  0.828191  0.500491  1
  Pu  Pu1  1  0.000421  0.499828  0.500037  1
  Pu  Pu2  1  0.499540  0.999823  0.000326  1
  Pu  Pu3  1  0.830167  0.340031  0.000443  1
  Pu  Pu4  1  0.659743  0.170365  0.499172  1
  Pu  Pu5  1  0.169536  0.660020  0.998580  1
  B  B6  1  0.083128  0.151665  0.253766  1
  B  B7  1  0.846283  0.916253  0.248803  1
  B  B8  1  0.918321  0.847547  0.746215  1
  B  B9  1  0.153897  0.082020  0.749894  1
  B  B10  1  0.319087  0.681410  0.251727  1
  B  B11  1  0.679359  0.320797  0.749616  1
  O  O12  1  0.034803  0.214557  0.393593  1
  O  O13  1  0.786427  0.963365  0.107852  1
  O  O14  1  0.963024  0.787355  0.606227  1
  O  O15  1  0.215198  0.037086  0.890144  1
  O  O16  1  0.129933  0.306575  0.114600  1
  O  O17  1  0.687073  0.869996  0.385495  1
  O  O18  1  0.872294  0.691376  0.885477  1
  O  O19  1  0.309915  0.126803  0.611342  1
  O  O20  1  0.474332  0.619859  0.111987  1
  O  O21  1  0.382552  0.526048  0.390551  1
  O  O22  1  0.524112  0.381756  0.889316  1
  O  O23  1  0.613097  0.480365  0.612399  1
  O  O24  1  0.082944  0.704918  0.251109  1
  O  O25  1  0.295203  0.915903  0.254600  1
  O  O26  1  0.916808  0.294391  0.749527  1
  O  O27  1  0.705346  0.084304  0.748847  1
  O  O28  1  0.872018  0.126122  0.251391  1
  O  O29  1  0.130603  0.871272  0.746477  1
