# generated using pymatgen
data_DyYAlHgPt2
_symmetry_space_group_name_H-M   'P 1'
_cell_length_a   4.32927800
_cell_length_b   7.01294185
_cell_length_c   8.28609278
_cell_angle_alpha   93.01943053
_cell_angle_beta   90.00000000
_cell_angle_gamma   90.00000000
_symmetry_Int_Tables_number   1
_chemical_formula_structural   DyYAlHgPt2
_chemical_formula_sum   'Dy2 Y2 Al2 Hg2 Pt4'
_cell_volume   251.22460186
_cell_formula_units_Z   2
loop_
 _symmetry_equiv_pos_site_id
 _symmetry_equiv_pos_as_xyz
  1  'x, y, z'
loop_
 _atom_site_type_symbol
 _atom_site_label
 _atom_site_symmetry_multiplicity
 _atom_site_fract_x
 _atom_site_fract_y
 _atom_site_fract_z
 _atom_site_occupancy
  Dy  Dy0  1  0.750000  0.033577  0.683330  1
  Dy  Dy1  1  0.250000  0.966423  0.316670  1
  Y  Y2  1  0.250000  0.464836  0.187598  1
  Y  Y3  1  0.750000  0.535164  0.812402  1
  Al  Al4  1  0.750000  0.641791  0.441513  1
  Al  Al5  1  0.250000  0.358209  0.558487  1
  Hg  Hg6  1  0.250000  0.848578  0.932136  1
  Hg  Hg7  1  0.750000  0.151422  0.067864  1
  Pt  Pt8  1  0.250000  0.730718  0.593357  1
  Pt  Pt9  1  0.750000  0.269282  0.406643  1
  Pt  Pt10  1  0.750000  0.737128  0.147209  1
  Pt  Pt11  1  0.250000  0.262872  0.852791  1
