# generated using pymatgen
data_Tb2Yb2AlOs7
_symmetry_space_group_name_H-M   'P 1'
_cell_length_a   5.35105200
_cell_length_b   5.35105239
_cell_length_c   8.69362700
_cell_angle_alpha   90.00000000
_cell_angle_beta   90.00000000
_cell_angle_gamma   119.99998521
_symmetry_Int_Tables_number   1
_chemical_formula_structural   Tb2Yb2AlOs7
_chemical_formula_sum   'Tb2 Yb2 Al1 Os7'
_cell_volume   215.58079734
_cell_formula_units_Z   1
loop_
 _symmetry_equiv_pos_site_id
 _symmetry_equiv_pos_as_xyz
  1  'x, y, z'
loop_
 _atom_site_type_symbol
 _atom_site_label
 _atom_site_symmetry_multiplicity
 _atom_site_fract_x
 _atom_site_fract_y
 _atom_site_fract_z
 _atom_site_occupancy
  Tb  Tb0  1  0.333333  0.666667  0.424919  1
  Tb  Tb1  1  0.666667  0.333333  0.575081  1
  Yb  Yb2  1  0.666667  0.333333  0.940257  1
  Yb  Yb3  1  0.333333  0.666667  0.059743  1
  Al  Al4  1  0.000000  0.000000  0.500000  1
  Os  Os5  1  0.000000  0.000000  0.000000  1
  Os  Os6  1  0.828979  0.171021  0.250512  1
  Os  Os7  1  0.828979  0.657959  0.250512  1
  Os  Os8  1  0.342041  0.171021  0.250512  1
  Os  Os9  1  0.171021  0.828979  0.749488  1
  Os  Os10  1  0.171021  0.342041  0.749488  1
  Os  Os11  1  0.657959  0.828979  0.749488  1
