# generated using pymatgen
data_Cs10ScIn5As8
_symmetry_space_group_name_H-M   'P 1'
_cell_length_a   12.55146800
_cell_length_b   17.35258335
_cell_length_c   18.56816200
_cell_angle_alpha   62.77409520
_cell_angle_beta   90.00000000
_cell_angle_gamma   90.00000000
_symmetry_Int_Tables_number   1
_chemical_formula_structural   Cs10ScIn5As8
_chemical_formula_sum   'Cs40 Sc4 In20 As32'
_cell_volume   3596.09975147
_cell_formula_units_Z   4
loop_
 _symmetry_equiv_pos_site_id
 _symmetry_equiv_pos_as_xyz
  1  'x, y, z'
loop_
 _atom_site_type_symbol
 _atom_site_label
 _atom_site_symmetry_multiplicity
 _atom_site_fract_x
 _atom_site_fract_y
 _atom_site_fract_z
 _atom_site_occupancy
  Cs  Cs0  1  0.363998  0.782447  0.406083  1
  Cs  Cs1  1  0.636305  0.441145  0.137085  1
  Cs  Cs2  1  0.136305  0.558855  0.362915  1
  Cs  Cs3  1  0.413148  0.252053  0.310932  1
  Cs  Cs4  1  0.379750  0.211020  0.102684  1
  Cs  Cs5  1  0.855221  0.648112  0.036915  1
  Cs  Cs6  1  0.873352  0.764230  0.785804  1
  Cs  Cs7  1  0.620250  0.788980  0.897316  1
  Cs  Cs8  1  0.879750  0.788980  0.397316  1
  Cs  Cs9  1  0.337531  0.750979  0.188040  1
  Cs  Cs10  1  0.863695  0.441145  0.637085  1
  Cs  Cs11  1  0.128110  0.098534  0.461392  1
  Cs  Cs12  1  0.628110  0.901466  0.038608  1
  Cs  Cs13  1  0.373352  0.235770  0.714196  1
  Cs  Cs14  1  0.144779  0.351888  0.963085  1
  Cs  Cs15  1  0.626939  0.079940  0.465284  1
  Cs  Cs16  1  0.396504  0.641850  0.035918  1
  Cs  Cs17  1  0.120250  0.211020  0.602684  1
  Cs  Cs18  1  0.126939  0.920060  0.034716  1
  Cs  Cs19  1  0.837531  0.249021  0.311960  1
  Cs  Cs20  1  0.586852  0.747947  0.689068  1
  Cs  Cs21  1  0.662469  0.249021  0.811960  1
  Cs  Cs22  1  0.644779  0.648112  0.536915  1
  Cs  Cs23  1  0.603496  0.358150  0.964082  1
  Cs  Cs24  1  0.162469  0.750979  0.688040  1
  Cs  Cs25  1  0.873061  0.079940  0.965284  1
  Cs  Cs26  1  0.913148  0.747947  0.189068  1
  Cs  Cs27  1  0.126648  0.235770  0.214196  1
  Cs  Cs28  1  0.373061  0.920060  0.534716  1
  Cs  Cs29  1  0.371890  0.098534  0.961392  1
  Cs  Cs30  1  0.103496  0.641850  0.535918  1
  Cs  Cs31  1  0.136002  0.782447  0.906083  1
  Cs  Cs32  1  0.636002  0.217553  0.593917  1
  Cs  Cs33  1  0.896504  0.358150  0.464082  1
  Cs  Cs34  1  0.363695  0.558855  0.862915  1
  Cs  Cs35  1  0.871890  0.901466  0.538608  1
  Cs  Cs36  1  0.355221  0.351888  0.463085  1
  Cs  Cs37  1  0.863998  0.217553  0.093917  1
  Cs  Cs38  1  0.626648  0.764230  0.285804  1
  Cs  Cs39  1  0.086852  0.252053  0.810932  1
  Sc  Sc40  1  0.996280  0.994530  0.207283  1
  Sc  Sc41  1  0.503720  0.994530  0.707283  1
  Sc  Sc42  1  0.003720  0.005470  0.792717  1
  Sc  Sc43  1  0.496280  0.005470  0.292717  1
  In  In44  1  0.123735  0.917752  0.393984  1
  In  In45  1  0.623735  0.082248  0.106016  1
  In  In46  1  0.876785  0.494946  0.948213  1
  In  In47  1  0.764662  0.531833  0.278477  1
  In  In48  1  0.022330  0.523404  0.775447  1
  In  In49  1  0.376265  0.917752  0.893984  1
  In  In50  1  0.977670  0.476596  0.224553  1
  In  In51  1  0.235338  0.468167  0.721523  1
  In  In52  1  0.735338  0.531833  0.778477  1
  In  In53  1  0.745918  0.006170  0.797457  1
  In  In54  1  0.254082  0.993830  0.202543  1
  In  In55  1  0.264662  0.468167  0.221523  1
  In  In56  1  0.376785  0.505054  0.551787  1
  In  In57  1  0.623215  0.494946  0.448213  1
  In  In58  1  0.245918  0.993830  0.702543  1
  In  In59  1  0.876265  0.082248  0.606016  1
  In  In60  1  0.123215  0.505054  0.051787  1
  In  In61  1  0.522330  0.476596  0.724553  1
  In  In62  1  0.477670  0.523404  0.275447  1
  In  In63  1  0.754082  0.006170  0.297457  1
  As  As64  1  0.126670  0.609429  0.132048  1
  As  As65  1  0.813726  0.578465  0.399995  1
  As  As66  1  0.881566  0.639799  0.664319  1
  As  As67  1  0.438275  0.590225  0.389999  1
  As  As68  1  0.620159  0.149730  0.223836  1
  As  As69  1  0.455093  0.954007  0.177457  1
  As  As70  1  0.938275  0.409775  0.110001  1
  As  As71  1  0.313726  0.421535  0.100005  1
  As  As72  1  0.373330  0.609429  0.632048  1
  As  As73  1  0.561725  0.409775  0.610001  1
  As  As74  1  0.626670  0.390571  0.367952  1
  As  As75  1  0.379841  0.850270  0.776164  1
  As  As76  1  0.118434  0.360201  0.335681  1
  As  As77  1  0.120159  0.850270  0.276164  1
  As  As78  1  0.186274  0.421535  0.600005  1
  As  As79  1  0.879841  0.149730  0.723836  1
  As  As80  1  0.044907  0.954007  0.677457  1
  As  As81  1  0.380863  0.105537  0.583622  1
  As  As82  1  0.800143  0.959891  0.174293  1
  As  As83  1  0.955093  0.045993  0.322543  1
  As  As84  1  0.880863  0.894463  0.916378  1
  As  As85  1  0.873330  0.390571  0.867952  1
  As  As86  1  0.618434  0.639799  0.164319  1
  As  As87  1  0.061725  0.590225  0.889999  1
  As  As88  1  0.119137  0.105537  0.083622  1
  As  As89  1  0.699857  0.959891  0.674293  1
  As  As90  1  0.199857  0.040109  0.825707  1
  As  As91  1  0.300143  0.040109  0.325707  1
  As  As92  1  0.381566  0.360201  0.835681  1
  As  As93  1  0.619137  0.894463  0.416378  1
  As  As94  1  0.544907  0.045993  0.822543  1
  As  As95  1  0.686274  0.578465  0.899995  1
