# generated using pymatgen
data_Er6VP12Ir17
_symmetry_space_group_name_H-M   'P 1'
_cell_length_a   3.98168500
_cell_length_b   11.18704000
_cell_length_c   12.69992600
_cell_angle_alpha   90.00000000
_cell_angle_beta   90.00000000
_cell_angle_gamma   90.00000000
_symmetry_Int_Tables_number   1
_chemical_formula_structural   Er6VP12Ir17
_chemical_formula_sum   'Er6 V1 P12 Ir17'
_cell_volume   565.69622470
_cell_formula_units_Z   1
loop_
 _symmetry_equiv_pos_site_id
 _symmetry_equiv_pos_as_xyz
  1  'x, y, z'
loop_
 _atom_site_type_symbol
 _atom_site_label
 _atom_site_symmetry_multiplicity
 _atom_site_fract_x
 _atom_site_fract_y
 _atom_site_fract_z
 _atom_site_occupancy
  Er  Er0  1  0.750000  0.250000  0.479617  1
  Er  Er1  1  0.250000  0.750000  0.523744  1
  Er  Er2  1  0.250000  0.934897  0.795022  1
  Er  Er3  1  0.250000  0.565103  0.795022  1
  Er  Er4  1  0.750000  0.068550  0.202616  1
  Er  Er5  1  0.750000  0.431450  0.202616  1
  V  V6  1  0.250000  0.250000  0.840164  1
  P  P7  1  0.250000  0.250000  0.124732  1
  P  P8  1  0.750000  0.750000  0.875745  1
  P  P9  1  0.250000  0.250000  0.655481  1
  P  P10  1  0.750000  0.750000  0.355908  1
  P  P11  1  0.250000  0.433942  0.380766  1
  P  P12  1  0.250000  0.066058  0.380766  1
  P  P13  1  0.750000  0.563534  0.618246  1
  P  P14  1  0.750000  0.936466  0.618246  1
  P  P15  1  0.250000  0.904050  0.107956  1
  P  P16  1  0.250000  0.595950  0.107956  1
  P  P17  1  0.750000  0.094915  0.889729  1
  P  P18  1  0.750000  0.405085  0.889729  1
  Ir  Ir19  1  0.750000  0.750000  0.175010  1
  Ir  Ir20  1  0.250000  0.250000  0.302670  1
  Ir  Ir21  1  0.750000  0.750000  0.697877  1
  Ir  Ir22  1  0.750000  0.250000  0.008158  1
  Ir  Ir23  1  0.250000  0.750000  0.977429  1
  Ir  Ir24  1  0.250000  0.416916  0.013979  1
  Ir  Ir25  1  0.250000  0.083084  0.013979  1
  Ir  Ir26  1  0.750000  0.582935  0.987294  1
  Ir  Ir27  1  0.750000  0.917065  0.987294  1
  Ir  Ir28  1  0.250000  0.455911  0.567086  1
  Ir  Ir29  1  0.250000  0.044089  0.567086  1
  Ir  Ir30  1  0.750000  0.549369  0.429517  1
  Ir  Ir31  1  0.750000  0.950631  0.429517  1
  Ir  Ir32  1  0.250000  0.880055  0.287087  1
  Ir  Ir33  1  0.250000  0.619945  0.287087  1
  Ir  Ir34  1  0.750000  0.121892  0.712434  1
  Ir  Ir35  1  0.750000  0.378108  0.712434  1
