# generated using pymatgen
data_Dy2B4IrRu3
_symmetry_space_group_name_H-M   'P 1'
_cell_length_a   6.70724415
_cell_length_b   5.94226033
_cell_length_c   5.53593149
_cell_angle_alpha   71.41382537
_cell_angle_beta   57.11273729
_cell_angle_gamma   51.81129320
_symmetry_Int_Tables_number   1
_chemical_formula_structural   Dy2B4IrRu3
_chemical_formula_sum   'Dy2 B4 Ir1 Ru3'
_cell_volume   145.57902364
_cell_formula_units_Z   1
loop_
 _symmetry_equiv_pos_site_id
 _symmetry_equiv_pos_as_xyz
  1  'x, y, z'
loop_
 _atom_site_type_symbol
 _atom_site_label
 _atom_site_symmetry_multiplicity
 _atom_site_fract_x
 _atom_site_fract_y
 _atom_site_fract_z
 _atom_site_occupancy
  Dy  Dy0  1  0.498718  0.498718  0.501282  1
  Dy  Dy1  1  0.749335  0.749335  0.750665  1
  B  B2  1  0.184198  0.813974  0.186416  1
  B  B3  1  0.064240  0.439422  0.057898  1
  B  B4  1  0.813974  0.184198  0.815413  1
  B  B5  1  0.439422  0.064240  0.438440  1
  Ir  Ir6  1  0.113655  0.113655  0.386345  1
  Ru  Ru7  1  0.862864  0.862864  0.137136  1
  Ru  Ru8  1  0.136827  0.136827  0.863173  1
  Ru  Ru9  1  0.386769  0.386769  0.113231  1
