# generated using pymatgen
data_Sc12Tc2GeBr16
_symmetry_space_group_name_H-M   'P 1'
_cell_length_a   9.03701228
_cell_length_b   11.13464982
_cell_length_c   11.77724688
_cell_angle_alpha   117.06222414
_cell_angle_beta   101.84108669
_cell_angle_gamma   101.39018633
_symmetry_Int_Tables_number   1
_chemical_formula_structural   Sc12Tc2GeBr16
_chemical_formula_sum   'Sc12 Tc2 Ge1 Br16'
_cell_volume   973.65960203
_cell_formula_units_Z   1
loop_
 _symmetry_equiv_pos_site_id
 _symmetry_equiv_pos_as_xyz
  1  'x, y, z'
loop_
 _atom_site_type_symbol
 _atom_site_label
 _atom_site_symmetry_multiplicity
 _atom_site_fract_x
 _atom_site_fract_y
 _atom_site_fract_z
 _atom_site_occupancy
  Sc  Sc0  1  0.068258  0.251628  0.347804  1
  Sc  Sc1  1  0.920799  0.741749  0.647948  1
  Sc  Sc2  1  0.777283  0.536547  0.319272  1
  Sc  Sc3  1  0.216616  0.462330  0.686021  1
  Sc  Sc4  1  0.276928  0.751272  0.655181  1
  Sc  Sc5  1  0.718251  0.255744  0.349072  1
  Sc  Sc6  1  0.128243  0.538358  0.317854  1
  Sc  Sc7  1  0.862087  0.462421  0.677395  1
  Sc  Sc8  1  0.406902  0.350549  0.261578  1
  Sc  Sc9  1  0.607493  0.649657  0.738398  1
  Sc  Sc10  1  0.462874  0.296840  0.520962  1
  Sc  Sc11  1  0.551125  0.702826  0.478143  1
  Tc  Tc12  1  0.007213  0.500159  0.500323  1
  Tc  Tc13  1  0.659829  0.499820  0.500353  1
  Ge  Ge14  1  0.343413  0.500449  0.500123  1
  Br  Br15  1  0.403048  0.740351  0.881786  1
  Br  Br16  1  0.595742  0.254239  0.109600  1
  Br  Br17  1  0.192160  0.974941  0.789173  1
  Br  Br18  1  0.805947  0.025027  0.210610  1
  Br  Br19  1  0.337202  0.090459  0.248718  1
  Br  Br20  1  0.655792  0.908663  0.750772  1
  Br  Br21  1  0.547064  0.437283  0.800077  1
  Br  Br22  1  0.446522  0.563163  0.198947  1
  Br  Br23  1  0.312444  0.822585  0.462940  1
  Br  Br24  1  0.687861  0.169633  0.538322  1
  Br  Br25  1  0.172135  0.174260  0.531576  1
  Br  Br26  1  0.832474  0.833329  0.467682  1
  Br  Br27  1  0.923180  0.576849  0.154319  1
  Br  Br28  1  0.074836  0.422975  0.845605  1
  Br  Br29  1  0.922148  0.742737  0.888794  1
  Br  Br30  1  0.084132  0.263156  0.120651  1
