# generated using pymatgen
data_TbDy2Y(Al8Pt3)3
_symmetry_space_group_name_H-M   'P 1'
_cell_length_a   7.53288796
_cell_length_b   7.55416125
_cell_length_c   13.18313603
_cell_angle_alpha   84.56985286
_cell_angle_beta   79.11467499
_cell_angle_gamma   59.97380976
_symmetry_Int_Tables_number   1
_chemical_formula_structural   TbDy2Y(Al8Pt3)3
_chemical_formula_sum   'Tb1 Dy2 Y1 Al24 Pt9'
_cell_volume   637.81844860
_cell_formula_units_Z   1
loop_
 _symmetry_equiv_pos_site_id
 _symmetry_equiv_pos_as_xyz
  1  'x, y, z'
loop_
 _atom_site_type_symbol
 _atom_site_label
 _atom_site_symmetry_multiplicity
 _atom_site_fract_x
 _atom_site_fract_y
 _atom_site_fract_z
 _atom_site_occupancy
  Tb  Tb0  1  0.606615  0.831579  0.192067  1
  Dy  Dy1  1  0.734108  0.498470  0.807562  1
  Dy  Dy2  1  0.265914  0.501496  0.192441  1
  Y  Y3  1  0.393353  0.168449  0.808000  1
  Al  Al4  1  0.684567  0.833592  0.944540  1
  Al  Al5  1  0.315436  0.166394  0.055560  1
  Al  Al6  1  0.146859  0.832370  0.561246  1
  Al  Al7  1  0.853145  0.167626  0.438733  1
  Al  Al8  1  0.479729  0.166847  0.558609  1
  Al  Al9  1  0.520285  0.833160  0.441355  1
  Al  Al10  1  0.217032  0.165331  0.330059  1
  Al  Al11  1  0.782928  0.834716  0.669896  1
  Al  Al12  1  0.437909  0.506194  0.669923  1
  Al  Al13  1  0.562090  0.493753  0.330046  1
  Al  Al14  1  0.109731  0.160014  0.669137  1
  Al  Al15  1  0.890337  0.839989  0.330845  1
  Al  Al16  1  0.353162  0.499167  0.944707  1
  Al  Al17  1  0.646796  0.500859  0.055357  1
  Al  Al18  1  0.014846  0.167821  0.953186  1
  Al  Al19  1  0.985120  0.832154  0.046875  1
  Al  Al20  1  0.186775  0.498929  0.441268  1
  Al  Al21  1  0.813239  0.501072  0.558706  1
  Al  Al22  1  0.734388  0.163995  0.183359  1
  Al  Al23  1  0.265652  0.835967  0.816628  1
  Al  Al24  1  0.061702  0.631639  0.815406  1
  Al  Al25  1  0.938261  0.368357  0.184583  1
  Al  Al26  1  0.855067  0.041663  0.815961  1
  Al  Al27  1  0.144954  0.958394  0.184028  1
  Pt  Pt28  1  0.120013  0.492220  0.638715  1
  Pt  Pt29  1  0.879974  0.507801  0.361267  1
  Pt  Pt30  1  0.657252  0.171231  0.999941  1
  Pt  Pt31  1  0.342727  0.828782  0.000042  1
  Pt  Pt32  1  0.538023  0.166770  0.361269  1
  Pt  Pt33  1  0.461982  0.833227  0.638710  1
  Pt  Pt34  1  0.779067  0.174947  0.637196  1
  Pt  Pt35  1  0.220946  0.825043  0.362783  1
  Pt  Pt36  1  0.000018  0.499983  0.999997  1
