# generated using pymatgen
data_Tb18Er2(Ir3Pt)3
_symmetry_space_group_name_H-M   'P 1'
_cell_length_a   11.01566955
_cell_length_b   11.01566971
_cell_length_c   6.36551000
_cell_angle_alpha   89.98190468
_cell_angle_beta   89.98190468
_cell_angle_gamma   90.19706664
_symmetry_Int_Tables_number   1
_chemical_formula_structural   Tb18Er2(Ir3Pt)3
_chemical_formula_sum   'Tb18 Er2 Ir9 Pt3'
_cell_volume   772.41802090
_cell_formula_units_Z   1
loop_
 _symmetry_equiv_pos_site_id
 _symmetry_equiv_pos_as_xyz
  1  'x, y, z'
loop_
 _atom_site_type_symbol
 _atom_site_label
 _atom_site_symmetry_multiplicity
 _atom_site_fract_x
 _atom_site_fract_y
 _atom_site_fract_z
 _atom_site_occupancy
  Tb  Tb0  1  0.293873  0.087281  0.372640  1
  Tb  Tb1  1  0.293232  0.907998  0.877958  1
  Tb  Tb2  1  0.705080  0.090452  0.874537  1
  Tb  Tb3  1  0.704044  0.909272  0.374062  1
  Tb  Tb4  1  0.585285  0.790378  0.879198  1
  Tb  Tb5  1  0.585728  0.209562  0.379136  1
  Tb  Tb6  1  0.410404  0.790701  0.379005  1
  Tb  Tb7  1  0.413930  0.209638  0.879005  1
  Tb  Tb8  1  0.209622  0.414715  0.620802  1
  Tb  Tb9  1  0.209299  0.589596  0.120995  1
  Tb  Tb10  1  0.790438  0.414272  0.120864  1
  Tb  Tb11  1  0.790362  0.586070  0.620995  1
  Tb  Tb12  1  0.912719  0.706127  0.127360  1
  Tb  Tb13  1  0.909548  0.294920  0.625463  1
  Tb  Tb14  1  0.092002  0.706768  0.622042  1
  Tb  Tb15  1  0.090728  0.295956  0.125938  1
  Tb  Tb16  1  0.001129  0.998068  0.499881  1
  Tb  Tb17  1  0.001932  0.998871  0.000119  1
  Er  Er18  1  0.499745  0.499721  0.000563  1
  Er  Er19  1  0.500279  0.500255  0.499437  1
  Ir  Ir20  1  0.152575  0.847425  0.250000  1
  Ir  Ir21  1  0.652515  0.347485  0.750000  1
  Ir  Ir22  1  0.653126  0.652543  0.249436  1
  Ir  Ir23  1  0.347457  0.346874  0.250564  1
  Ir  Ir24  1  0.348346  0.651654  0.750000  1
  Ir  Ir25  1  0.500393  0.999986  0.123365  1
  Ir  Ir26  1  0.500108  0.000247  0.624663  1
  Ir  Ir27  1  0.999753  0.499892  0.875337  1
  Ir  Ir28  1  0.000014  0.499607  0.376635  1
  Pt  Pt29  1  0.846710  0.153290  0.250000  1
  Pt  Pt30  1  0.845159  0.845542  0.750012  1
  Pt  Pt31  1  0.154458  0.154841  0.749988  1
