# generated using pymatgen
data_Hf16Ta3NbSi15Ge
_symmetry_space_group_name_H-M   'P 1'
_cell_length_a   6.77735923
_cell_length_b   6.94843849
_cell_length_c   13.36177915
_cell_angle_alpha   90.01312144
_cell_angle_beta   89.82235494
_cell_angle_gamma   89.99577675
_symmetry_Int_Tables_number   1
_chemical_formula_structural   Hf16Ta3NbSi15Ge
_chemical_formula_sum   'Hf16 Ta3 Nb1 Si15 Ge1'
_cell_volume   629.23071283
_cell_formula_units_Z   1
loop_
 _symmetry_equiv_pos_site_id
 _symmetry_equiv_pos_as_xyz
  1  'x, y, z'
loop_
 _atom_site_type_symbol
 _atom_site_label
 _atom_site_symmetry_multiplicity
 _atom_site_fract_x
 _atom_site_fract_y
 _atom_site_fract_z
 _atom_site_occupancy
  Hf  Hf0  1  0.337847  0.675886  0.875959  1
  Hf  Hf1  1  0.837440  0.824672  0.875749  1
  Hf  Hf2  1  0.660175  0.328497  0.374450  1
  Hf  Hf3  1  0.998579  0.675659  0.094548  1
  Hf  Hf4  1  0.491883  0.820170  0.402954  1
  Hf  Hf5  1  0.501841  0.176142  0.904284  1
  Hf  Hf6  1  0.501294  0.179210  0.597462  1
  Hf  Hf7  1  0.001976  0.324320  0.904988  1
  Hf  Hf8  1  0.163177  0.175605  0.124022  1
  Hf  Hf9  1  0.162223  0.174457  0.375516  1
  Hf  Hf10  1  0.998023  0.673080  0.404584  1
  Hf  Hf11  1  0.662897  0.325001  0.124073  1
  Hf  Hf12  1  0.498183  0.824405  0.095278  1
  Hf  Hf13  1  0.004705  0.325770  0.596541  1
  Hf  Hf14  1  0.338079  0.674172  0.624722  1
  Hf  Hf15  1  0.840875  0.823296  0.625558  1
  Ta  Ta16  1  0.665422  0.501406  0.750259  1
  Ta  Ta17  1  0.165728  0.998791  0.750265  1
  Ta  Ta18  1  0.334767  0.498412  0.249721  1
  Nb  Nb19  1  0.834678  0.001838  0.248060  1
  Si  Si20  1  0.675207  0.530916  0.538870  1
  Si  Si21  1  0.172577  0.970475  0.960552  1
  Si  Si22  1  0.298426  0.360009  0.751028  1
  Si  Si23  1  0.827841  0.029953  0.038857  1
  Si  Si24  1  0.327566  0.470106  0.039016  1
  Si  Si25  1  0.460457  0.104931  0.249772  1
  Si  Si26  1  0.701997  0.641120  0.249138  1
  Si  Si27  1  0.961043  0.394824  0.249854  1
  Si  Si28  1  0.799301  0.140805  0.750334  1
  Si  Si29  1  0.673078  0.530046  0.960771  1
  Si  Si30  1  0.179138  0.969865  0.539656  1
  Si  Si31  1  0.039990  0.604933  0.750918  1
  Si  Si32  1  0.324582  0.468139  0.461583  1
  Si  Si33  1  0.539985  0.894521  0.749846  1
  Si  Si34  1  0.200392  0.858798  0.249511  1
  Ge  Ge35  1  0.818631  0.029770  0.461299  1
