# generated using pymatgen
data_Lu4NbAl5Tc2
_symmetry_space_group_name_H-M   'P 1'
_cell_length_a   5.52653300
_cell_length_b   5.54587076
_cell_length_c   8.76544900
_cell_angle_alpha   90.00000000
_cell_angle_beta   90.00000000
_cell_angle_gamma   120.11580749
_symmetry_Int_Tables_number   1
_chemical_formula_structural   Lu4NbAl5Tc2
_chemical_formula_sum   'Lu4 Nb1 Al5 Tc2'
_cell_volume   232.39101134
_cell_formula_units_Z   1
loop_
 _symmetry_equiv_pos_site_id
 _symmetry_equiv_pos_as_xyz
  1  'x, y, z'
loop_
 _atom_site_type_symbol
 _atom_site_label
 _atom_site_symmetry_multiplicity
 _atom_site_fract_x
 _atom_site_fract_y
 _atom_site_fract_z
 _atom_site_occupancy
  Lu  Lu0  1  0.333767  0.666883  0.442750  1
  Lu  Lu1  1  0.668156  0.334078  0.553530  1
  Lu  Lu2  1  0.668156  0.334078  0.946470  1
  Lu  Lu3  1  0.333767  0.666883  0.057250  1
  Nb  Nb4  1  0.684884  0.842442  0.750000  1
  Al  Al5  1  0.831980  0.163690  0.250000  1
  Al  Al6  1  0.831980  0.668290  0.250000  1
  Al  Al7  1  0.320921  0.160460  0.250000  1
  Al  Al8  1  0.185244  0.846320  0.750000  1
  Al  Al9  1  0.185244  0.338924  0.750000  1
  Tc  Tc10  1  0.977952  0.988976  0.503057  1
  Tc  Tc11  1  0.977952  0.988976  0.996943  1
