# generated using pymatgen
data_YbHo6(TmIr2)3
_symmetry_space_group_name_H-M   'P 1'
_cell_length_a   10.80326589
_cell_length_b   10.83564300
_cell_length_c   6.33245614
_cell_angle_alpha   90.00000000
_cell_angle_beta   90.22306657
_cell_angle_gamma   90.00000000
_symmetry_Int_Tables_number   1
_chemical_formula_structural   YbHo6(TmIr2)3
_chemical_formula_sum   'Yb2 Ho12 Tm6 Ir12'
_cell_volume   741.27380265
_cell_formula_units_Z   2
loop_
 _symmetry_equiv_pos_site_id
 _symmetry_equiv_pos_as_xyz
  1  'x, y, z'
loop_
 _atom_site_type_symbol
 _atom_site_label
 _atom_site_symmetry_multiplicity
 _atom_site_fract_x
 _atom_site_fract_y
 _atom_site_fract_z
 _atom_site_occupancy
  Yb  Yb0  1  0.288860  0.087826  0.374390  1
  Yb  Yb1  1  0.288860  0.912174  0.874390  1
  Ho  Ho2  1  0.709289  0.086290  0.878253  1
  Ho  Ho3  1  0.709289  0.913710  0.378253  1
  Ho  Ho4  1  0.586847  0.792142  0.876854  1
  Ho  Ho5  1  0.586847  0.207858  0.376854  1
  Ho  Ho6  1  0.412422  0.792651  0.378172  1
  Ho  Ho7  1  0.412422  0.207349  0.878172  1
  Ho  Ho8  1  0.209736  0.413457  0.623420  1
  Ho  Ho9  1  0.209736  0.586543  0.123420  1
  Ho  Ho10  1  0.791184  0.412541  0.121524  1
  Ho  Ho11  1  0.791184  0.587459  0.621524  1
  Ho  Ho12  1  0.912884  0.709726  0.123705  1
  Ho  Ho13  1  0.912884  0.290274  0.623705  1
  Tm  Tm14  1  0.087186  0.708534  0.621832  1
  Tm  Tm15  1  0.087186  0.291466  0.121832  1
  Tm  Tm16  1  0.000826  0.999399  0.499984  1
  Tm  Tm17  1  0.000826  0.000601  0.999984  1
  Tm  Tm18  1  0.500156  0.499872  0.998788  1
  Tm  Tm19  1  0.500156  0.500128  0.498788  1
  Ir  Ir20  1  0.849156  0.153394  0.250008  1
  Ir  Ir21  1  0.849156  0.846606  0.750008  1
  Ir  Ir22  1  0.147461  0.159306  0.754309  1
  Ir  Ir23  1  0.147461  0.840694  0.254309  1
  Ir  Ir24  1  0.651671  0.346142  0.750413  1
  Ir  Ir25  1  0.651671  0.653858  0.250413  1
  Ir  Ir26  1  0.347457  0.351528  0.246182  1
  Ir  Ir27  1  0.347457  0.648472  0.746182  1
  Ir  Ir28  1  0.504537  0.000276  0.123314  1
  Ir  Ir29  1  0.504537  0.999724  0.623314  1
  Ir  Ir30  1  0.000330  0.500276  0.878853  1
  Ir  Ir31  1  0.000330  0.499724  0.378853  1
