# generated using pymatgen
data_NdGd2Tl2InO9
_symmetry_space_group_name_H-M   'P 1'
_cell_length_a   6.58009018
_cell_length_b   6.57784154
_cell_length_c   12.53991600
_cell_angle_alpha   90.00000000
_cell_angle_beta   90.00000000
_cell_angle_gamma   120.03784838
_symmetry_Int_Tables_number   1
_chemical_formula_structural   NdGd2Tl2InO9
_chemical_formula_sum   'Nd2 Gd4 Tl4 In2 O18'
_cell_volume   469.86679143
_cell_formula_units_Z   2
loop_
 _symmetry_equiv_pos_site_id
 _symmetry_equiv_pos_as_xyz
  1  'x, y, z'
loop_
 _atom_site_type_symbol
 _atom_site_label
 _atom_site_symmetry_multiplicity
 _atom_site_fract_x
 _atom_site_fract_y
 _atom_site_fract_z
 _atom_site_occupancy
  Nd  Nd0  1  0.660319  0.327229  0.961087  1
  Nd  Nd1  1  0.339681  0.672771  0.461087  1
  Gd  Gd2  1  0.666356  0.326301  0.459879  1
  Gd  Gd3  1  0.333644  0.673699  0.959879  1
  Gd  Gd4  1  0.997336  0.999944  0.995513  1
  Gd  Gd5  1  0.002664  0.000056  0.495513  1
  Tl  Tl6  1  0.667370  0.666857  0.726019  1
  Tl  Tl7  1  0.000172  0.333099  0.726009  1
  Tl  Tl8  1  0.332630  0.333143  0.226019  1
  Tl  Tl9  1  0.999828  0.666901  0.226009  1
  In  In10  1  0.332103  0.000466  0.726203  1
  In  In11  1  0.667897  0.999534  0.226203  1
  O  O12  1  0.690644  0.698186  0.899920  1
  O  O13  1  0.006070  0.309162  0.899956  1
  O  O14  1  0.309356  0.301814  0.399920  1
  O  O15  1  0.993930  0.690838  0.399956  1
  O  O16  1  0.294913  0.993768  0.899183  1
  O  O17  1  0.705087  0.006232  0.399183  1
  O  O18  1  0.646736  0.637649  0.554100  1
  O  O19  1  0.995821  0.355544  0.554148  1
  O  O20  1  0.353264  0.362351  0.054100  1
  O  O21  1  0.004179  0.644456  0.054148  1
  O  O22  1  0.366950  0.006568  0.555825  1
  O  O23  1  0.633050  0.993432  0.055825  1
  O  O24  1  0.014001  0.999928  0.689370  1
  O  O25  1  0.985999  0.000072  0.189370  1
  O  O26  1  0.652035  0.318376  0.760874  1
  O  O27  1  0.347965  0.681624  0.260874  1
  O  O28  1  0.666181  0.318629  0.257808  1
  O  O29  1  0.333819  0.681371  0.757808  1
