# generated using pymatgen
data_Sm4Y2RhBr10
_symmetry_space_group_name_H-M   'P 1'
_cell_length_a   7.46746433
_cell_length_b   9.32076497
_cell_length_c   9.47262473
_cell_angle_alpha   107.93473713
_cell_angle_beta   96.07203105
_cell_angle_gamma   104.79593748
_symmetry_Int_Tables_number   1
_chemical_formula_structural   Sm4Y2RhBr10
_chemical_formula_sum   'Sm4 Y2 Rh1 Br10'
_cell_volume   594.16736128
_cell_formula_units_Z   1
loop_
 _symmetry_equiv_pos_site_id
 _symmetry_equiv_pos_as_xyz
  1  'x, y, z'
loop_
 _atom_site_type_symbol
 _atom_site_label
 _atom_site_symmetry_multiplicity
 _atom_site_fract_x
 _atom_site_fract_y
 _atom_site_fract_z
 _atom_site_occupancy
  Sm  Sm0  1  0.466772  0.793459  0.591841  1
  Sm  Sm1  1  0.533228  0.206541  0.408159  1
  Sm  Sm2  1  0.370083  0.450030  0.748031  1
  Sm  Sm3  1  0.629917  0.549970  0.251969  1
  Y  Y4  1  0.859556  0.632158  0.676531  1
  Y  Y5  1  0.140444  0.367842  0.323469  1
  Rh  Rh6  1  0.500000  0.500000  0.500000  1
  Br  Br7  1  0.412939  0.128483  0.671276  1
  Br  Br8  1  0.587061  0.871517  0.328724  1
  Br  Br9  1  0.047966  0.677942  0.416919  1
  Br  Br10  1  0.952034  0.322058  0.583081  1
  Br  Br11  1  0.268573  0.750455  0.841642  1
  Br  Br12  1  0.731427  0.249545  0.158358  1
  Br  Br13  1  0.251629  0.417461  0.050419  1
  Br  Br14  1  0.748371  0.582539  0.949581  1
  Br  Br15  1  0.848330  0.945354  0.769270  1
  Br  Br16  1  0.151670  0.054646  0.230730  1
