# generated using pymatgen
data_YbY3U4(ReB6)4
_symmetry_space_group_name_H-M   'P 1'
_cell_length_a   3.64147900
_cell_length_b   9.29549926
_cell_length_c   11.41401432
_cell_angle_alpha   89.97305898
_cell_angle_beta   90.00000000
_cell_angle_gamma   90.00000000
_symmetry_Int_Tables_number   1
_chemical_formula_structural   YbY3U4(ReB6)4
_chemical_formula_sum   'Yb1 Y3 U4 Re4 B24'
_cell_volume   386.35709783
_cell_formula_units_Z   1
loop_
 _symmetry_equiv_pos_site_id
 _symmetry_equiv_pos_as_xyz
  1  'x, y, z'
loop_
 _atom_site_type_symbol
 _atom_site_label
 _atom_site_symmetry_multiplicity
 _atom_site_fract_x
 _atom_site_fract_y
 _atom_site_fract_z
 _atom_site_occupancy
  Yb  Yb0  1  0.000000  0.337631  0.408156  1
  Y  Y1  1  0.000000  0.662067  0.591125  1
  Y  Y2  1  0.000000  0.837117  0.092500  1
  Y  Y3  1  0.000000  0.163042  0.908268  1
  U  U4  1  0.000000  0.957201  0.395585  1
  U  U5  1  0.000000  0.044989  0.603425  1
  U  U6  1  0.000000  0.456160  0.104641  1
  U  U7  1  0.000000  0.543257  0.896170  1
  Re  Re8  1  0.000000  0.647293  0.317943  1
  Re  Re9  1  0.000000  0.353526  0.682586  1
  Re  Re10  1  0.000000  0.145248  0.181506  1
  Re  Re11  1  0.000000  0.854155  0.817949  1
  B  B12  1  0.500000  0.551741  0.430419  1
  B  B13  1  0.500000  0.447086  0.568780  1
  B  B14  1  0.500000  0.052107  0.068973  1
  B  B15  1  0.500000  0.947761  0.930630  1
  B  B16  1  0.500000  0.743425  0.422729  1
  B  B17  1  0.500000  0.256827  0.577178  1
  B  B18  1  0.500000  0.243168  0.077510  1
  B  B19  1  0.500000  0.756362  0.922740  1
  B  B20  1  0.500000  0.802612  0.275334  1
  B  B21  1  0.500000  0.198029  0.724786  1
  B  B22  1  0.500000  0.301802  0.225292  1
  B  B23  1  0.500000  0.697741  0.774898  1
  B  B24  1  0.500000  0.644214  0.189044  1
  B  B25  1  0.500000  0.355969  0.811664  1
  B  B26  1  0.500000  0.143996  0.311189  1
  B  B27  1  0.500000  0.856035  0.688259  1
  B  B28  1  0.500000  0.989669  0.219493  1
  B  B29  1  0.500000  0.010560  0.780139  1
  B  B30  1  0.500000  0.489621  0.281147  1
  B  B31  1  0.500000  0.510264  0.719402  1
  B  B32  1  0.500000  0.639303  0.038792  1
  B  B33  1  0.500000  0.360759  0.961767  1
  B  B34  1  0.500000  0.137931  0.461545  1
  B  B35  1  0.500000  0.861335  0.538436  1
