# generated using pymatgen
data_Y5Ti3(P3Ir4)4
_symmetry_space_group_name_H-M   'P 1'
_cell_length_a   12.75804300
_cell_length_b   12.75804382
_cell_length_c   3.95820600
_cell_angle_alpha   90.00000000
_cell_angle_beta   90.00000000
_cell_angle_gamma   120.00000046
_symmetry_Int_Tables_number   1
_chemical_formula_structural   Y5Ti3(P3Ir4)4
_chemical_formula_sum   'Y5 Ti3 P12 Ir16'
_cell_volume   557.95243023
_cell_formula_units_Z   1
loop_
 _symmetry_equiv_pos_site_id
 _symmetry_equiv_pos_as_xyz
  1  'x, y, z'
loop_
 _atom_site_type_symbol
 _atom_site_label
 _atom_site_symmetry_multiplicity
 _atom_site_fract_x
 _atom_site_fract_y
 _atom_site_fract_z
 _atom_site_occupancy
  Y  Y0  1  0.333333  0.666667  0.500000  1
  Y  Y1  1  0.666667  0.333333  0.500000  1
  Y  Y2  1  0.000000  0.812385  0.000000  1
  Y  Y3  1  0.187615  0.187615  0.000000  1
  Y  Y4  1  0.812385  0.000000  0.000000  1
  Ti  Ti5  1  0.000000  0.447910  0.500000  1
  Ti  Ti6  1  0.552090  0.552090  0.500000  1
  Ti  Ti7  1  0.447910  0.000000  0.500000  1
  P  P8  1  0.000000  0.640108  0.500000  1
  P  P9  1  0.359892  0.359892  0.500000  1
  P  P10  1  0.640108  0.000000  0.500000  1
  P  P11  1  0.517132  0.684390  0.000000  1
  P  P12  1  0.315610  0.832744  0.000000  1
  P  P13  1  0.167256  0.482868  0.000000  1
  P  P14  1  0.482868  0.167256  0.000000  1
  P  P15  1  0.684390  0.517132  0.000000  1
  P  P16  1  0.832744  0.315610  0.000000  1
  P  P17  1  0.000000  0.176701  0.500000  1
  P  P18  1  0.823299  0.823299  0.500000  1
  P  P19  1  0.176701  0.000000  0.500000  1
  Ir  Ir20  1  0.509057  0.866558  0.000000  1
  Ir  Ir21  1  0.133442  0.642501  0.000000  1
  Ir  Ir22  1  0.357499  0.490943  0.000000  1
  Ir  Ir23  1  0.490943  0.357499  0.000000  1
  Ir  Ir24  1  0.866558  0.509057  0.000000  1
  Ir  Ir25  1  0.642501  0.133442  0.000000  1
  Ir  Ir26  1  0.000000  0.283157  0.000000  1
  Ir  Ir27  1  0.716843  0.716843  0.000000  1
  Ir  Ir28  1  0.283157  0.000000  0.000000  1
  Ir  Ir29  1  0.626695  0.805045  0.500000  1
  Ir  Ir30  1  0.194955  0.821650  0.500000  1
  Ir  Ir31  1  0.178350  0.373305  0.500000  1
  Ir  Ir32  1  0.373305  0.178350  0.500000  1
  Ir  Ir33  1  0.805045  0.626695  0.500000  1
  Ir  Ir34  1  0.821650  0.194955  0.500000  1
  Ir  Ir35  1  0.000000  0.000000  0.500000  1
