# generated using pymatgen
data_CoRuF7
_symmetry_space_group_name_H-M   'P 1'
_cell_length_a   7.80504390
_cell_length_b   7.80504274
_cell_length_c   7.80504400
_cell_angle_alpha   123.12305701
_cell_angle_beta   125.27711076
_cell_angle_gamma   82.87868832
_symmetry_Int_Tables_number   1
_chemical_formula_structural   CoRuF7
_chemical_formula_sum   'Co2 Ru2 F14'
_cell_volume   312.05665113
_cell_formula_units_Z   2
loop_
 _symmetry_equiv_pos_site_id
 _symmetry_equiv_pos_as_xyz
  1  'x, y, z'
loop_
 _atom_site_type_symbol
 _atom_site_label
 _atom_site_symmetry_multiplicity
 _atom_site_fract_x
 _atom_site_fract_y
 _atom_site_fract_z
 _atom_site_occupancy
  Co  Co0  1  0.500000  0.000000  0.000000  1
  Co  Co1  1  0.000000  0.000000  0.500000  1
  Ru  Ru2  1  0.500000  0.000000  0.500000  1
  Ru  Ru3  1  0.000000  0.500000  0.500000  1
  F  F4  1  0.250000  0.088986  0.838986  1
  F  F5  1  0.750000  0.911014  0.161014  1
  F  F6  1  0.550217  0.289211  0.738994  1
  F  F7  1  0.949783  0.688776  0.738994  1
  F  F8  1  0.071981  0.325728  0.624699  1
  F  F9  1  0.428019  0.052719  0.253746  1
  F  F10  1  0.298972  0.674272  0.746254  1
  F  F11  1  0.201028  0.947281  0.375301  1
  F  F12  1  0.928019  0.674272  0.375301  1
  F  F13  1  0.571981  0.947281  0.746254  1
  F  F14  1  0.701028  0.325728  0.253746  1
  F  F15  1  0.798972  0.052719  0.624699  1
  F  F16  1  0.050217  0.311224  0.261006  1
  F  F17  1  0.449783  0.710789  0.261006  1
