# generated using pymatgen
data_Th4ZnCo3Sn2
_symmetry_space_group_name_H-M   'P 1'
_cell_length_a   7.65420062
_cell_length_b   7.65420062
_cell_length_c   3.75294200
_cell_angle_alpha   90.00000000
_cell_angle_beta   90.00000000
_cell_angle_gamma   91.39433490
_symmetry_Int_Tables_number   1
_chemical_formula_structural   Th4ZnCo3Sn2
_chemical_formula_sum   'Th4 Zn1 Co3 Sn2'
_cell_volume   219.80770998
_cell_formula_units_Z   1
loop_
 _symmetry_equiv_pos_site_id
 _symmetry_equiv_pos_as_xyz
  1  'x, y, z'
loop_
 _atom_site_type_symbol
 _atom_site_label
 _atom_site_symmetry_multiplicity
 _atom_site_fract_x
 _atom_site_fract_y
 _atom_site_fract_z
 _atom_site_occupancy
  Th  Th0  1  0.332526  0.802606  0.500000  1
  Th  Th1  1  0.823022  0.676978  0.500000  1
  Th  Th2  1  0.151709  0.348291  0.500000  1
  Th  Th3  1  0.697394  0.167474  0.500000  1
  Zn  Zn4  1  0.378037  0.121963  0.000000  1
  Co  Co5  1  0.864573  0.375240  0.000000  1
  Co  Co6  1  0.124760  0.635427  0.000000  1
  Co  Co7  1  0.611162  0.888838  0.000000  1
  Sn  Sn8  1  0.010993  0.994176  0.000000  1
  Sn  Sn9  1  0.505824  0.489007  0.000000  1
