# generated using pymatgen
data_Yb12Si8Ir5Pt3
_symmetry_space_group_name_H-M   'P 1'
_cell_length_a   5.68727217
_cell_length_b   7.70896893
_cell_length_c   13.31663800
_cell_angle_alpha   89.95032215
_cell_angle_beta   89.82954112
_cell_angle_gamma   90.47045715
_symmetry_Int_Tables_number   1
_chemical_formula_structural   Yb12Si8Ir5Pt3
_chemical_formula_sum   'Yb12 Si8 Ir5 Pt3'
_cell_volume   583.81892226
_cell_formula_units_Z   1
loop_
 _symmetry_equiv_pos_site_id
 _symmetry_equiv_pos_as_xyz
  1  'x, y, z'
loop_
 _atom_site_type_symbol
 _atom_site_label
 _atom_site_symmetry_multiplicity
 _atom_site_fract_x
 _atom_site_fract_y
 _atom_site_fract_z
 _atom_site_occupancy
  Yb  Yb0  1  0.645198  0.237379  0.251433  1
  Yb  Yb1  1  0.351815  0.761615  0.748478  1
  Yb  Yb2  1  0.364755  0.737803  0.250925  1
  Yb  Yb3  1  0.632794  0.260078  0.749861  1
  Yb  Yb4  1  0.135495  0.387216  0.098855  1
  Yb  Yb5  1  0.861466  0.614098  0.901837  1
  Yb  Yb6  1  0.865744  0.613265  0.596963  1
  Yb  Yb7  1  0.862231  0.894592  0.400659  1
  Yb  Yb8  1  0.140724  0.391246  0.400718  1
  Yb  Yb9  1  0.142193  0.104520  0.598713  1
  Yb  Yb10  1  0.139802  0.103213  0.900887  1
  Yb  Yb11  1  0.857723  0.894601  0.100180  1
  Si  Si12  1  0.163235  0.088360  0.249609  1
  Si  Si13  1  0.833648  0.910988  0.749353  1
  Si  Si14  1  0.847774  0.590932  0.251983  1
  Si  Si15  1  0.145508  0.404596  0.751366  1
  Si  Si16  1  0.613088  0.241750  0.999301  1
  Si  Si17  1  0.385348  0.758256  0.001318  1
  Si  Si18  1  0.403334  0.754409  0.497048  1
  Si  Si19  1  0.608533  0.247261  0.497644  1
  Ir  Ir20  1  0.368188  0.034783  0.092761  1
  Ir  Ir21  1  0.631530  0.964909  0.906870  1
  Ir  Ir22  1  0.636300  0.971346  0.591409  1
  Ir  Ir23  1  0.634220  0.527534  0.410250  1
  Ir  Ir24  1  0.365839  0.033122  0.407210  1
  Pt  Pt25  1  0.365801  0.471666  0.593722  1
  Pt  Pt26  1  0.367315  0.471464  0.908666  1
  Pt  Pt27  1  0.630401  0.529001  0.091976  1
