# generated using pymatgen
data_CaPr7Pd24Pb
_symmetry_space_group_name_H-M   'P 1'
_cell_length_a   8.57958001
_cell_length_b   8.57958001
_cell_length_c   8.57958001
_cell_angle_alpha   90.00472804
_cell_angle_beta   90.00472804
_cell_angle_gamma   90.00472804
_symmetry_Int_Tables_number   1
_chemical_formula_structural   CaPr7Pd24Pb
_chemical_formula_sum   'Ca1 Pr7 Pd24 Pb1'
_cell_volume   631.53595665
_cell_formula_units_Z   1
loop_
 _symmetry_equiv_pos_site_id
 _symmetry_equiv_pos_as_xyz
  1  'x, y, z'
loop_
 _atom_site_type_symbol
 _atom_site_label
 _atom_site_symmetry_multiplicity
 _atom_site_fract_x
 _atom_site_fract_y
 _atom_site_fract_z
 _atom_site_occupancy
  Ca  Ca0  1  0.251343  0.251343  0.251343  1
  Pr  Pr1  1  0.748461  0.748461  0.748461  1
  Pr  Pr2  1  0.748250  0.748250  0.251669  1
  Pr  Pr3  1  0.748250  0.251669  0.748250  1
  Pr  Pr4  1  0.251756  0.251756  0.748305  1
  Pr  Pr5  1  0.251756  0.748305  0.251756  1
  Pr  Pr6  1  0.251669  0.748250  0.748250  1
  Pr  Pr7  1  0.748305  0.251756  0.251756  1
  Pd  Pd8  1  0.269199  0.499543  0.000516  1
  Pd  Pd9  1  0.730771  0.500132  0.999772  1
  Pd  Pd10  1  0.000516  0.269199  0.499543  1
  Pd  Pd11  1  0.499543  0.269199  0.000516  1
  Pd  Pd12  1  0.999772  0.730771  0.500132  1
  Pd  Pd13  1  0.500132  0.730771  0.999772  1
  Pd  Pd14  1  0.499543  0.000516  0.269199  1
  Pd  Pd15  1  0.269199  0.000516  0.499543  1
  Pd  Pd16  1  0.500132  0.999772  0.730771  1
  Pd  Pd17  1  0.730771  0.999772  0.500132  1
  Pd  Pd18  1  0.000516  0.499543  0.269199  1
  Pd  Pd19  1  0.999772  0.500132  0.730771  1
  Pd  Pd20  1  0.255590  0.499557  0.499557  1
  Pd  Pd21  1  0.744238  0.500183  0.500183  1
  Pd  Pd22  1  0.499557  0.255590  0.499557  1
  Pd  Pd23  1  0.500183  0.744238  0.500183  1
  Pd  Pd24  1  0.499557  0.499557  0.255590  1
  Pd  Pd25  1  0.500183  0.500183  0.744238  1
  Pd  Pd26  1  0.321546  0.000555  0.000555  1
  Pd  Pd27  1  0.678091  0.999923  0.999923  1
  Pd  Pd28  1  0.000555  0.321546  0.000555  1
  Pd  Pd29  1  0.999923  0.678091  0.999923  1
  Pd  Pd30  1  0.000555  0.000555  0.321546  1
  Pd  Pd31  1  0.999923  0.999923  0.678091  1
  Pb  Pb32  1  0.000442  0.000442  0.000442  1
