# generated using pymatgen
data_Cs3KFe2Se5
_symmetry_space_group_name_H-M   'P 1'
_cell_length_a   8.31210642
_cell_length_b   8.90120905
_cell_length_c   11.08253071
_cell_angle_alpha   78.43419441
_cell_angle_beta   81.22340280
_cell_angle_gamma   79.39752963
_symmetry_Int_Tables_number   1
_chemical_formula_structural   Cs3KFe2Se5
_chemical_formula_sum   'Cs6 K2 Fe4 Se10'
_cell_volume   783.88845797
_cell_formula_units_Z   2
loop_
 _symmetry_equiv_pos_site_id
 _symmetry_equiv_pos_as_xyz
  1  'x, y, z'
loop_
 _atom_site_type_symbol
 _atom_site_label
 _atom_site_symmetry_multiplicity
 _atom_site_fract_x
 _atom_site_fract_y
 _atom_site_fract_z
 _atom_site_occupancy
  Cs  Cs0  1  0.207292  0.081956  0.869309  1
  Cs  Cs1  1  0.050761  0.615435  0.759158  1
  Cs  Cs2  1  0.792708  0.918044  0.130691  1
  Cs  Cs3  1  0.949239  0.384565  0.240842  1
  Cs  Cs4  1  0.578862  0.714118  0.510475  1
  Cs  Cs5  1  0.421138  0.285882  0.489525  1
  K  K6  1  0.431727  0.337319  0.081689  1
  K  K7  1  0.568273  0.662681  0.918311  1
  Fe  Fe8  1  0.904130  0.086482  0.597981  1
  Fe  Fe9  1  0.095870  0.913518  0.402019  1
  Fe  Fe10  1  0.277433  0.737130  0.218519  1
  Fe  Fe11  1  0.722567  0.262870  0.781481  1
  Se  Se12  1  0.901616  0.348828  0.600168  1
  Se  Se13  1  0.185137  0.966492  0.579783  1
  Se  Se14  1  0.454613  0.407971  0.770674  1
  Se  Se15  1  0.175582  0.688398  0.044708  1
  Se  Se16  1  0.824418  0.311602  0.955292  1
  Se  Se17  1  0.545387  0.592029  0.229326  1
  Se  Se18  1  0.098384  0.651172  0.399832  1
  Se  Se19  1  0.268870  0.009279  0.223224  1
  Se  Se20  1  0.731130  0.990721  0.776776  1
  Se  Se21  1  0.814863  0.033508  0.420217  1
