# generated using pymatgen
data_Ba4Rh6O18F
_symmetry_space_group_name_H-M   'P 1'
_cell_length_a   8.21766302
_cell_length_b   8.21766298
_cell_length_c   8.21766300
_cell_angle_alpha   109.47122068
_cell_angle_beta   109.47122058
_cell_angle_gamma   109.47121730
_symmetry_Int_Tables_number   1
_chemical_formula_structural   Ba4Rh6O18F
_chemical_formula_sum   'Ba4 Rh6 O18 F1'
_cell_volume   427.19199777
_cell_formula_units_Z   1
loop_
 _symmetry_equiv_pos_site_id
 _symmetry_equiv_pos_as_xyz
  1  'x, y, z'
loop_
 _atom_site_type_symbol
 _atom_site_label
 _atom_site_symmetry_multiplicity
 _atom_site_fract_x
 _atom_site_fract_y
 _atom_site_fract_z
 _atom_site_occupancy
  Ba  Ba0  1  0.000000  0.337804  0.000000  1
  Ba  Ba1  1  0.000000  0.000000  0.337804  1
  Ba  Ba2  1  0.662196  0.662196  0.662196  1
  Ba  Ba3  1  0.337804  0.000000  0.000000  1
  Rh  Rh4  1  0.500000  0.339916  0.839916  1
  Rh  Rh5  1  0.500000  0.660084  0.160084  1
  Rh  Rh6  1  0.339916  0.839916  0.500000  1
  Rh  Rh7  1  0.660084  0.160084  0.500000  1
  Rh  Rh8  1  0.839916  0.500000  0.339916  1
  Rh  Rh9  1  0.160084  0.500000  0.660084  1
  O  O10  1  0.687448  0.316735  0.048808  1
  O  O11  1  0.683265  0.370713  0.732073  1
  O  O12  1  0.267927  0.638641  0.951192  1
  O  O13  1  0.629287  0.312552  0.361359  1
  O  O14  1  0.370713  0.732073  0.683265  1
  O  O15  1  0.951192  0.267927  0.638641  1
  O  O16  1  0.048808  0.687448  0.316735  1
  O  O17  1  0.000000  0.634425  0.634425  1
  O  O18  1  0.634425  0.634425  0.000000  1
  O  O19  1  0.732073  0.683265  0.370713  1
  O  O20  1  0.316735  0.048808  0.687448  1
  O  O21  1  0.634425  0.000000  0.634425  1
  O  O22  1  0.000000  0.365575  0.365575  1
  O  O23  1  0.638641  0.951192  0.267927  1
  O  O24  1  0.361359  0.629287  0.312552  1
  O  O25  1  0.312552  0.361359  0.629287  1
  O  O26  1  0.365575  0.000000  0.365575  1
  O  O27  1  0.365575  0.365575  0.000000  1
  F  F28  1  0.000000  0.000000  0.000000  1
