# generated using pymatgen
data_CaHo7(Sc3Sn4)4
_symmetry_space_group_name_H-M   'P 1'
_cell_length_a   7.66538610
_cell_length_b   7.94212709
_cell_length_c   14.80479300
_cell_angle_alpha   89.99715041
_cell_angle_beta   90.00931337
_cell_angle_gamma   89.99173304
_symmetry_Int_Tables_number   1
_chemical_formula_structural   CaHo7(Sc3Sn4)4
_chemical_formula_sum   'Ca1 Ho7 Sc12 Sn16'
_cell_volume   901.30793821
_cell_formula_units_Z   1
loop_
 _symmetry_equiv_pos_site_id
 _symmetry_equiv_pos_as_xyz
  1  'x, y, z'
loop_
 _atom_site_type_symbol
 _atom_site_label
 _atom_site_symmetry_multiplicity
 _atom_site_fract_x
 _atom_site_fract_y
 _atom_site_fract_z
 _atom_site_occupancy
  Ca  Ca0  1  0.991020  0.176519  0.091327  1
  Ho  Ho1  1  0.007944  0.821433  0.904883  1
  Ho  Ho2  1  0.509052  0.675994  0.904229  1
  Ho  Ho3  1  0.007348  0.822369  0.593785  1
  Ho  Ho4  1  0.492631  0.323216  0.094667  1
  Ho  Ho5  1  0.993723  0.178711  0.407643  1
  Ho  Ho6  1  0.492276  0.322396  0.407555  1
  Ho  Ho7  1  0.508249  0.676920  0.593944  1
  Sc  Sc8  1  0.169837  0.496577  0.749640  1
  Sc  Sc9  1  0.830516  0.504452  0.251089  1
  Sc  Sc10  1  0.330405  0.996484  0.250583  1
  Sc  Sc11  1  0.668908  0.004209  0.748867  1
  Sc  Sc12  1  0.339652  0.160404  0.627647  1
  Sc  Sc13  1  0.659514  0.839104  0.372722  1
  Sc  Sc14  1  0.160897  0.658974  0.374265  1
  Sc  Sc15  1  0.661791  0.840128  0.128585  1
  Sc  Sc16  1  0.840152  0.338796  0.627039  1
  Sc  Sc17  1  0.337767  0.161873  0.871524  1
  Sc  Sc18  1  0.838071  0.340322  0.872849  1
  Sc  Sc19  1  0.160387  0.659772  0.127285  1
  Sn  Sn20  1  0.029996  0.123778  0.750939  1
  Sn  Sn21  1  0.969451  0.875201  0.251815  1
  Sn  Sn22  1  0.467360  0.623865  0.250134  1
  Sn  Sn23  1  0.532276  0.375941  0.749567  1
  Sn  Sn24  1  0.310901  0.848678  0.749178  1
  Sn  Sn25  1  0.687869  0.151162  0.252113  1
  Sn  Sn26  1  0.189655  0.349095  0.251298  1
  Sn  Sn27  1  0.811885  0.650769  0.749396  1
  Sn  Sn28  1  0.184148  0.456562  0.543123  1
  Sn  Sn29  1  0.815827  0.543792  0.458304  1
  Sn  Sn30  1  0.317309  0.956411  0.458380  1
  Sn  Sn31  1  0.816313  0.547640  0.041578  1
  Sn  Sn32  1  0.683572  0.042754  0.541926  1
  Sn  Sn33  1  0.183915  0.460612  0.955708  1
  Sn  Sn34  1  0.675996  0.039669  0.955517  1
  Sn  Sn35  1  0.323390  0.955417  0.040898  1
