# generated using pymatgen
data_PrCrS3
_symmetry_space_group_name_H-M   'P 1'
_cell_length_a   3.80133600
_cell_length_b   7.83021900
_cell_length_c   13.08818200
_cell_angle_alpha   90.00000000
_cell_angle_beta   90.00000000
_cell_angle_gamma   90.00000000
_symmetry_Int_Tables_number   1
_chemical_formula_structural   PrCrS3
_chemical_formula_sum   'Pr4 Cr4 S12'
_cell_volume   389.57357694
_cell_formula_units_Z   4
loop_
 _symmetry_equiv_pos_site_id
 _symmetry_equiv_pos_as_xyz
  1  'x, y, z'
loop_
 _atom_site_type_symbol
 _atom_site_label
 _atom_site_symmetry_multiplicity
 _atom_site_fract_x
 _atom_site_fract_y
 _atom_site_fract_z
 _atom_site_occupancy
  Pr  Pr0  1  0.250000  0.089283  0.827778  1
  Pr  Pr1  1  0.750000  0.910717  0.172222  1
  Pr  Pr2  1  0.250000  0.589283  0.672222  1
  Pr  Pr3  1  0.750000  0.410717  0.327778  1
  Cr  Cr4  1  0.250000  0.337382  0.051405  1
  Cr  Cr5  1  0.750000  0.662618  0.948595  1
  Cr  Cr6  1  0.250000  0.837382  0.448595  1
  Cr  Cr7  1  0.750000  0.162618  0.551405  1
  S  S8  1  0.250000  0.489908  0.894478  1
  S  S9  1  0.750000  0.510092  0.105522  1
  S  S10  1  0.250000  0.989908  0.605522  1
  S  S11  1  0.750000  0.010092  0.394478  1
  S  S12  1  0.250000  0.339820  0.494597  1
  S  S13  1  0.750000  0.660180  0.505403  1
  S  S14  1  0.250000  0.839820  0.005403  1
  S  S15  1  0.750000  0.160180  0.994597  1
  S  S16  1  0.750000  0.305882  0.712217  1
  S  S17  1  0.250000  0.694118  0.287783  1
  S  S18  1  0.750000  0.805882  0.787783  1
  S  S19  1  0.250000  0.194118  0.212217  1
