# generated using pymatgen
data_Zr13Nb7Si16
_symmetry_space_group_name_H-M   'P 1'
_cell_length_a   7.00050863
_cell_length_b   7.00577207
_cell_length_c   12.90741848
_cell_angle_alpha   90.24555121
_cell_angle_beta   90.21085745
_cell_angle_gamma   89.82470469
_symmetry_Int_Tables_number   1
_chemical_formula_structural   Zr13Nb7Si16
_chemical_formula_sum   'Zr13 Nb7 Si16'
_cell_volume   633.01798353
_cell_formula_units_Z   1
loop_
 _symmetry_equiv_pos_site_id
 _symmetry_equiv_pos_as_xyz
  1  'x, y, z'
loop_
 _atom_site_type_symbol
 _atom_site_label
 _atom_site_symmetry_multiplicity
 _atom_site_fract_x
 _atom_site_fract_y
 _atom_site_fract_z
 _atom_site_occupancy
  Zr  Zr0  1  0.998633  0.852256  0.624895  1
  Zr  Zr1  1  0.647794  0.495793  0.877481  1
  Zr  Zr2  1  0.501823  0.351501  0.622346  1
  Zr  Zr3  1  0.500167  0.646764  0.124912  1
  Zr  Zr4  1  0.145905  0.000879  0.874362  1
  Zr  Zr5  1  0.001244  0.652984  0.035833  1
  Zr  Zr6  1  0.000635  0.346747  0.528667  1
  Zr  Zr7  1  0.652929  0.998414  0.970331  1
  Zr  Zr8  1  0.151055  0.497956  0.785351  1
  Zr  Zr9  1  0.846682  0.498921  0.282002  1
  Zr  Zr10  1  0.501089  0.154265  0.219736  1
  Zr  Zr11  1  0.500322  0.847464  0.713030  1
  Zr  Zr12  1  0.344842  0.001094  0.464911  1
  Nb  Nb13  1  0.351830  0.504494  0.374441  1
  Nb  Nb14  1  0.853413  0.995711  0.374164  1
  Nb  Nb15  1  0.007769  0.147982  0.126931  1
  Nb  Nb16  1  0.672841  0.672720  0.497822  1
  Nb  Nb17  1  0.825865  0.173175  0.749728  1
  Nb  Nb18  1  0.172668  0.830089  0.251117  1
  Nb  Nb19  1  0.327481  0.325175  0.002195  1
  Si  Si20  1  0.048022  0.700780  0.433722  1
  Si  Si21  1  0.953746  0.299334  0.939291  1
  Si  Si22  1  0.700901  0.048307  0.560700  1
  Si  Si23  1  0.200996  0.450286  0.187604  1
  Si  Si24  1  0.800958  0.546317  0.684977  1
  Si  Si25  1  0.452689  0.197249  0.814560  1
  Si  Si26  1  0.549131  0.798923  0.314996  1
  Si  Si27  1  0.299115  0.954138  0.066063  1
  Si  Si28  1  0.851432  0.797152  0.820475  1
  Si  Si29  1  0.137461  0.207918  0.322687  1
  Si  Si30  1  0.798745  0.864445  0.179668  1
  Si  Si31  1  0.296396  0.644128  0.566234  1
  Si  Si32  1  0.710613  0.352557  0.074904  1
  Si  Si33  1  0.640032  0.293191  0.424289  1
  Si  Si34  1  0.353965  0.703230  0.930694  1
  Si  Si35  1  0.200807  0.147659  0.678877  1
