# generated using pymatgen
data_Zr10AlZn(Bi2Pb)2
_symmetry_space_group_name_H-M   'P 1'
_cell_length_a   8.87130744
_cell_length_b   8.88269704
_cell_length_c   5.95042401
_cell_angle_alpha   90.00689126
_cell_angle_beta   89.99654979
_cell_angle_gamma   120.04248155
_symmetry_Int_Tables_number   1
_chemical_formula_structural   Zr10AlZn(Bi2Pb)2
_chemical_formula_sum   'Zr10 Al1 Zn1 Bi4 Pb2'
_cell_volume   405.90551670
_cell_formula_units_Z   1
loop_
 _symmetry_equiv_pos_site_id
 _symmetry_equiv_pos_as_xyz
  1  'x, y, z'
loop_
 _atom_site_type_symbol
 _atom_site_label
 _atom_site_symmetry_multiplicity
 _atom_site_fract_x
 _atom_site_fract_y
 _atom_site_fract_z
 _atom_site_occupancy
  Zr  Zr0  1  0.333854  0.666927  0.000000  1
  Zr  Zr1  1  0.666640  0.333320  0.500000  1
  Zr  Zr2  1  0.666544  0.333272  0.000000  1
  Zr  Zr3  1  0.333827  0.666914  0.500000  1
  Zr  Zr4  1  0.266446  0.999851  0.250594  1
  Zr  Zr5  1  0.266446  0.266595  0.749406  1
  Zr  Zr6  1  0.000732  0.733455  0.749821  1
  Zr  Zr7  1  0.000732  0.267277  0.250179  1
  Zr  Zr8  1  0.732956  0.732433  0.249986  1
  Zr  Zr9  1  0.732956  0.000523  0.750014  1
  Al  Al10  1  0.000645  0.000323  0.000000  1
  Zn  Zn11  1  0.000780  0.000390  0.500000  1
  Bi  Bi12  1  0.613199  0.999968  0.250222  1
  Bi  Bi13  1  0.613199  0.613231  0.749778  1
  Bi  Bi14  1  0.000684  0.386699  0.750113  1
  Bi  Bi15  1  0.000684  0.613985  0.249887  1
  Pb  Pb16  1  0.384838  0.384288  0.250148  1
  Pb  Pb17  1  0.384838  0.000550  0.749852  1
