# generated using pymatgen
data_TbHo5TmCo6Sn23
_symmetry_space_group_name_H-M   'P 1'
_cell_length_a   9.69735606
_cell_length_b   9.69735521
_cell_length_c   9.97238602
_cell_angle_alpha   89.99354725
_cell_angle_beta   90.00645509
_cell_angle_gamma   120.01044515
_symmetry_Int_Tables_number   1
_chemical_formula_structural   TbHo5TmCo6Sn23
_chemical_formula_sum   'Tb1 Ho5 Tm1 Co6 Sn23'
_cell_volume   812.06470504
_cell_formula_units_Z   1
loop_
 _symmetry_equiv_pos_site_id
 _symmetry_equiv_pos_as_xyz
  1  'x, y, z'
loop_
 _atom_site_type_symbol
 _atom_site_label
 _atom_site_symmetry_multiplicity
 _atom_site_fract_x
 _atom_site_fract_y
 _atom_site_fract_z
 _atom_site_occupancy
  Tb  Tb0  1  0.000005  0.999995  0.999973  1
  Ho  Ho1  1  0.521478  0.042923  0.693537  1
  Ho  Ho2  1  0.957077  0.478522  0.693537  1
  Ho  Ho3  1  0.042891  0.521437  0.306460  1
  Ho  Ho4  1  0.478563  0.957109  0.306460  1
  Ho  Ho5  1  0.478544  0.521456  0.306565  1
  Tm  Tm6  1  0.521251  0.478749  0.693561  1
  Co  Co7  1  0.167859  0.832141  0.802883  1
  Co  Co8  1  0.168154  0.335857  0.802804  1
  Co  Co9  1  0.664143  0.831846  0.802804  1
  Co  Co10  1  0.335749  0.167867  0.197118  1
  Co  Co11  1  0.832133  0.664251  0.197118  1
  Co  Co12  1  0.832125  0.167875  0.197083  1
  Sn  Sn13  1  0.666658  0.333342  0.182006  1
  Sn  Sn14  1  0.666415  0.333585  0.881641  1
  Sn  Sn15  1  0.333347  0.666653  0.118068  1
  Sn  Sn16  1  0.346297  0.346297  0.999880  1
  Sn  Sn17  1  0.999967  0.653724  0.999990  1
  Sn  Sn18  1  0.653727  0.999932  0.999962  1
  Sn  Sn19  1  0.653703  0.653703  0.999880  1
  Sn  Sn20  1  0.333400  0.666600  0.817961  1
  Sn  Sn21  1  0.437445  0.218874  0.451802  1
  Sn  Sn22  1  0.218720  0.781280  0.548382  1
  Sn  Sn23  1  0.219071  0.437422  0.548595  1
  Sn  Sn24  1  0.562578  0.780929  0.548595  1
  Sn  Sn25  1  0.118297  0.881703  0.274634  1
  Sn  Sn26  1  0.781126  0.562555  0.451802  1
  Sn  Sn27  1  0.781298  0.218702  0.451635  1
  Sn  Sn28  1  0.346276  0.000033  0.999990  1
  Sn  Sn29  1  0.118351  0.236648  0.274617  1
  Sn  Sn30  1  0.763352  0.881649  0.274617  1
  Sn  Sn31  1  0.236895  0.118700  0.725338  1
  Sn  Sn32  1  0.881300  0.763105  0.725338  1
  Sn  Sn33  1  0.881703  0.118297  0.725387  1
  Sn  Sn34  1  0.000033  0.999967  0.500012  1
  Sn  Sn35  1  0.000068  0.346273  0.999962  1
