# generated using pymatgen
data_AlV2Fe4Si
_symmetry_space_group_name_H-M   'P 1'
_cell_length_a   6.93562557
_cell_length_b   6.93562629
_cell_length_c   6.93562564
_cell_angle_alpha   33.54049453
_cell_angle_beta   33.54048591
_cell_angle_gamma   33.54049655
_symmetry_Int_Tables_number   1
_chemical_formula_structural   AlV2Fe4Si
_chemical_formula_sum   'Al1 V2 Fe4 Si1'
_cell_volume   90.71802851
_cell_formula_units_Z   1
loop_
 _symmetry_equiv_pos_site_id
 _symmetry_equiv_pos_as_xyz
  1  'x, y, z'
loop_
 _atom_site_type_symbol
 _atom_site_label
 _atom_site_symmetry_multiplicity
 _atom_site_fract_x
 _atom_site_fract_y
 _atom_site_fract_z
 _atom_site_occupancy
  Al  Al0  1  0.000000  0.000000  0.000000  1
  V  V1  1  0.249757  0.249757  0.249757  1
  V  V2  1  0.750243  0.750243  0.750243  1
  Fe  Fe3  1  0.872858  0.872858  0.872858  1
  Fe  Fe4  1  0.377245  0.377245  0.377245  1
  Fe  Fe5  1  0.127142  0.127142  0.127142  1
  Fe  Fe6  1  0.622755  0.622755  0.622755  1
  Si  Si7  1  0.500000  0.500000  0.500000  1
