# generated using pymatgen
data_Y12Zn11GaC4
_symmetry_space_group_name_H-M   'P 1'
_cell_length_a   9.19571017
_cell_length_b   9.19582997
_cell_length_c   9.19046575
_cell_angle_alpha   59.98058719
_cell_angle_beta   59.98230001
_cell_angle_gamma   59.99938266
_symmetry_Int_Tables_number   1
_chemical_formula_structural   Y12Zn11GaC4
_chemical_formula_sum   'Y12 Zn11 Ga1 C4'
_cell_volume   549.38251985
_cell_formula_units_Z   1
loop_
 _symmetry_equiv_pos_site_id
 _symmetry_equiv_pos_as_xyz
  1  'x, y, z'
loop_
 _atom_site_type_symbol
 _atom_site_label
 _atom_site_symmetry_multiplicity
 _atom_site_fract_x
 _atom_site_fract_y
 _atom_site_fract_z
 _atom_site_occupancy
  Y  Y0  1  0.447012  0.447013  0.053011  1
  Y  Y1  1  0.052970  0.447014  0.053001  1
  Y  Y2  1  0.447012  0.052964  0.053012  1
  Y  Y3  1  0.053249  0.053258  0.446958  1
  Y  Y4  1  0.446540  0.053249  0.446962  1
  Y  Y5  1  0.053248  0.446535  0.446958  1
  Y  Y6  1  0.802776  0.802773  0.197557  1
  Y  Y7  1  0.196887  0.802773  0.197567  1
  Y  Y8  1  0.802776  0.196894  0.197556  1
  Y  Y9  1  0.196956  0.196949  0.803136  1
  Y  Y10  1  0.802955  0.196954  0.803137  1
  Y  Y11  1  0.196957  0.802957  0.803136  1
  Zn  Zn12  1  0.826144  0.521123  0.826591  1
  Zn  Zn13  1  0.521107  0.826154  0.826584  1
  Zn  Zn14  1  0.826145  0.826142  0.826590  1
  Zn  Zn15  1  0.423775  0.423768  0.728688  1
  Zn  Zn16  1  0.424009  0.728581  0.423395  1
  Zn  Zn17  1  0.728598  0.424000  0.423401  1
  Zn  Zn18  1  0.424008  0.424015  0.423396  1
  Zn  Zn19  1  0.624808  0.624806  0.125579  1
  Zn  Zn20  1  0.624406  0.125688  0.625501  1
  Zn  Zn21  1  0.125682  0.624406  0.625505  1
  Zn  Zn22  1  0.624406  0.624405  0.625501  1
  Ga  Ga23  1  0.827366  0.827370  0.517893  1
  C  C24  1  0.125041  0.125041  0.624878  1
  C  C25  1  0.125008  0.625150  0.124834  1
  C  C26  1  0.625147  0.125008  0.124837  1
  C  C27  1  0.125008  0.125009  0.124834  1
