# generated using pymatgen
data_Nd6DyHo9(CdIr)4
_symmetry_space_group_name_H-M   'P 1'
_cell_length_a   9.72935968
_cell_length_b   9.72935969
_cell_length_c   9.72936011
_cell_angle_alpha   59.98620732
_cell_angle_beta   59.98620717
_cell_angle_gamma   59.98621146
_symmetry_Int_Tables_number   1
_chemical_formula_structural   Nd6DyHo9(CdIr)4
_chemical_formula_sum   'Nd6 Dy1 Ho9 Cd4 Ir4'
_cell_volume   651.03144913
_cell_formula_units_Z   1
loop_
 _symmetry_equiv_pos_site_id
 _symmetry_equiv_pos_as_xyz
  1  'x, y, z'
loop_
 _atom_site_type_symbol
 _atom_site_label
 _atom_site_symmetry_multiplicity
 _atom_site_fract_x
 _atom_site_fract_y
 _atom_site_fract_z
 _atom_site_occupancy
  Nd  Nd0  1  0.940442  0.559393  0.559393  1
  Nd  Nd1  1  0.558743  0.941040  0.941040  1
  Nd  Nd2  1  0.559393  0.940442  0.559393  1
  Nd  Nd3  1  0.941040  0.558743  0.941040  1
  Nd  Nd4  1  0.559393  0.559393  0.940442  1
  Nd  Nd5  1  0.941040  0.941040  0.558743  1
  Dy  Dy6  1  0.347312  0.347312  0.347312  1
  Ho  Ho7  1  0.347839  0.347839  0.957467  1
  Ho  Ho8  1  0.347839  0.957467  0.347839  1
  Ho  Ho9  1  0.957467  0.347839  0.347839  1
  Ho  Ho10  1  0.811865  0.187426  0.187426  1
  Ho  Ho11  1  0.186417  0.812533  0.812533  1
  Ho  Ho12  1  0.187426  0.811865  0.187426  1
  Ho  Ho13  1  0.812533  0.186417  0.812533  1
  Ho  Ho14  1  0.187426  0.187426  0.811865  1
  Ho  Ho15  1  0.812533  0.812533  0.186417  1
  Cd  Cd16  1  0.579280  0.579280  0.579280  1
  Cd  Cd17  1  0.579698  0.579698  0.261062  1
  Cd  Cd18  1  0.579698  0.261062  0.579698  1
  Cd  Cd19  1  0.261062  0.579698  0.579698  1
  Ir  Ir20  1  0.141431  0.141431  0.141431  1
  Ir  Ir21  1  0.141804  0.141804  0.576513  1
  Ir  Ir22  1  0.141804  0.576513  0.141804  1
  Ir  Ir23  1  0.576513  0.141804  0.141804  1
