# generated using pymatgen
data_Ba4U4HN10
_symmetry_space_group_name_H-M   'P 1'
_cell_length_a   6.18939644
_cell_length_b   6.20817174
_cell_length_c   8.70730113
_cell_angle_alpha   89.99813910
_cell_angle_beta   90.00054747
_cell_angle_gamma   90.44818280
_symmetry_Int_Tables_number   1
_chemical_formula_structural   Ba4U4HN10
_chemical_formula_sum   'Ba4 U4 H1 N10'
_cell_volume   334.56638258
_cell_formula_units_Z   1
loop_
 _symmetry_equiv_pos_site_id
 _symmetry_equiv_pos_as_xyz
  1  'x, y, z'
loop_
 _atom_site_type_symbol
 _atom_site_label
 _atom_site_symmetry_multiplicity
 _atom_site_fract_x
 _atom_site_fract_y
 _atom_site_fract_z
 _atom_site_occupancy
  Ba  Ba0  1  0.005785  0.001921  0.259400  1
  Ba  Ba1  1  0.495684  0.505883  0.260381  1
  Ba  Ba2  1  0.495718  0.505776  0.735183  1
  Ba  Ba3  1  0.005770  0.001890  0.736167  1
  U  U4  1  0.503093  0.001307  0.497843  1
  U  U5  1  0.998094  0.500159  0.497795  1
  U  U6  1  0.481086  0.001126  0.997771  1
  U  U7  1  0.021061  0.499628  0.997764  1
  H  H8  1  0.775015  0.778009  0.998003  1
  N  N9  1  0.990496  0.497979  0.229547  1
  N  N10  1  0.511003  0.002802  0.228767  1
  N  N11  1  0.723204  0.768812  0.497744  1
  N  N12  1  0.776738  0.267704  0.497735  1
  N  N13  1  0.226926  0.728810  0.497854  1
  N  N14  1  0.275835  0.228763  0.497848  1
  N  N15  1  0.511340  0.002883  0.766807  1
  N  N16  1  0.990154  0.497999  0.766031  1
  N  N17  1  0.299900  0.710129  0.997708  1
  N  N18  1  0.199666  0.207238  0.997722  1
