# generated using pymatgen
data_SrBi2Ir4PbO14
_symmetry_space_group_name_H-M   'P 1'
_cell_length_a   7.37526368
_cell_length_b   7.35111374
_cell_length_c   7.37526117
_cell_angle_alpha   60.30499573
_cell_angle_beta   60.23398910
_cell_angle_gamma   60.30498590
_symmetry_Int_Tables_number   1
_chemical_formula_structural   SrBi2Ir4PbO14
_chemical_formula_sum   'Sr1 Bi2 Ir4 Pb1 O14'
_cell_volume   284.54371871
_cell_formula_units_Z   1
loop_
 _symmetry_equiv_pos_site_id
 _symmetry_equiv_pos_as_xyz
  1  'x, y, z'
loop_
 _atom_site_type_symbol
 _atom_site_label
 _atom_site_symmetry_multiplicity
 _atom_site_fract_x
 _atom_site_fract_y
 _atom_site_fract_z
 _atom_site_occupancy
  Sr  Sr0  1  0.125000  0.125000  0.125000  1
  Bi  Bi1  1  0.625000  0.125000  0.125000  1
  Bi  Bi2  1  0.125000  0.125000  0.625000  1
  Ir  Ir3  1  0.125000  0.625000  0.625000  1
  Ir  Ir4  1  0.625000  0.125000  0.625000  1
  Ir  Ir5  1  0.625000  0.625000  0.125000  1
  Ir  Ir6  1  0.625000  0.625000  0.625000  1
  Pb  Pb7  1  0.125000  0.625000  0.125000  1
  O  O8  1  0.703053  0.703995  0.297985  1
  O  O9  1  0.297854  0.297618  0.694063  1
  O  O10  1  0.704088  0.297158  0.704088  1
  O  O11  1  0.299118  0.692841  0.299118  1
  O  O12  1  0.297985  0.703995  0.703053  1
  O  O13  1  0.694063  0.297618  0.297854  1
  O  O14  1  0.546947  0.546005  0.952015  1
  O  O15  1  0.952146  0.952382  0.555937  1
  O  O16  1  0.545912  0.952842  0.545912  1
  O  O17  1  0.950882  0.557159  0.950882  1
  O  O18  1  0.952015  0.546005  0.546947  1
  O  O19  1  0.555937  0.952382  0.952146  1
  O  O20  1  0.256300  0.252409  0.256300  1
  O  O21  1  0.993700  0.997591  0.993700  1
