# generated using pymatgen
data_Sm6Sb(P3Rh5)4
_symmetry_space_group_name_H-M   'P 1'
_cell_length_a   13.52987300
_cell_length_b   13.52987162
_cell_length_c   3.95131000
_cell_angle_alpha   90.00000000
_cell_angle_beta   90.00000000
_cell_angle_gamma   119.99999604
_symmetry_Int_Tables_number   1
_chemical_formula_structural   Sm6Sb(P3Rh5)4
_chemical_formula_sum   'Sm6 Sb1 P12 Rh20'
_cell_volume   626.41067247
_cell_formula_units_Z   1
loop_
 _symmetry_equiv_pos_site_id
 _symmetry_equiv_pos_as_xyz
  1  'x, y, z'
loop_
 _atom_site_type_symbol
 _atom_site_label
 _atom_site_symmetry_multiplicity
 _atom_site_fract_x
 _atom_site_fract_y
 _atom_site_fract_z
 _atom_site_occupancy
  Sm  Sm0  1  0.529094  0.716652  0.249859  1
  Sm  Sm1  1  0.283348  0.812441  0.249859  1
  Sm  Sm2  1  0.187559  0.470906  0.249859  1
  Sm  Sm3  1  0.470906  0.283348  0.750141  1
  Sm  Sm4  1  0.716652  0.187559  0.750141  1
  Sm  Sm5  1  0.812441  0.529094  0.750141  1
  Sb  Sb6  1  0.000000  0.000000  0.000000  1
  P  P7  1  0.525591  0.137810  0.249725  1
  P  P8  1  0.862190  0.387781  0.249725  1
  P  P9  1  0.612219  0.474409  0.249725  1
  P  P10  1  0.947364  0.715089  0.248879  1
  P  P11  1  0.284911  0.232275  0.248879  1
  P  P12  1  0.767725  0.052636  0.248879  1
  P  P13  1  0.387781  0.525591  0.750275  1
  P  P14  1  0.474409  0.862190  0.750275  1
  P  P15  1  0.137810  0.612219  0.750275  1
  P  P16  1  0.715089  0.767725  0.751121  1
  P  P17  1  0.232275  0.947364  0.751121  1
  P  P18  1  0.052636  0.284911  0.751121  1
  Rh  Rh19  1  0.333333  0.666667  0.752944  1
  Rh  Rh20  1  0.920303  0.252585  0.244952  1
  Rh  Rh21  1  0.747415  0.667718  0.244952  1
  Rh  Rh22  1  0.332282  0.079697  0.244952  1
  Rh  Rh23  1  0.441029  0.024655  0.749001  1
  Rh  Rh24  1  0.975345  0.416374  0.749001  1
  Rh  Rh25  1  0.583626  0.558971  0.749001  1
  Rh  Rh26  1  0.666667  0.333333  0.247056  1
  Rh  Rh27  1  0.099068  0.202360  0.265031  1
  Rh  Rh28  1  0.797640  0.896708  0.265031  1
  Rh  Rh29  1  0.103292  0.900932  0.265031  1
  Rh  Rh30  1  0.024655  0.583626  0.250999  1
  Rh  Rh31  1  0.416374  0.441029  0.250999  1
  Rh  Rh32  1  0.558971  0.975345  0.250999  1
  Rh  Rh33  1  0.667718  0.920303  0.755048  1
  Rh  Rh34  1  0.079697  0.747415  0.755048  1
  Rh  Rh35  1  0.252585  0.332282  0.755048  1
  Rh  Rh36  1  0.900932  0.797640  0.734969  1
  Rh  Rh37  1  0.202360  0.103292  0.734969  1
  Rh  Rh38  1  0.896708  0.099068  0.734969  1
