# generated using pymatgen
data_La7DySnPd24
_symmetry_space_group_name_H-M   'P 1'
_cell_length_a   8.58504751
_cell_length_b   8.58504801
_cell_length_c   8.58504800
_cell_angle_alpha   89.94821050
_cell_angle_beta   89.94821050
_cell_angle_gamma   89.94821043
_symmetry_Int_Tables_number   1
_chemical_formula_structural   La7DySnPd24
_chemical_formula_sum   'La7 Dy1 Sn1 Pd24'
_cell_volume   632.74340407
_cell_formula_units_Z   1
loop_
 _symmetry_equiv_pos_site_id
 _symmetry_equiv_pos_as_xyz
  1  'x, y, z'
loop_
 _atom_site_type_symbol
 _atom_site_label
 _atom_site_symmetry_multiplicity
 _atom_site_fract_x
 _atom_site_fract_y
 _atom_site_fract_z
 _atom_site_occupancy
  La  La0  1  0.747569  0.747569  0.747569  1
  La  La1  1  0.747429  0.747429  0.252214  1
  La  La2  1  0.747429  0.252214  0.747429  1
  La  La3  1  0.252850  0.252850  0.747878  1
  La  La4  1  0.252850  0.747878  0.252850  1
  La  La5  1  0.252214  0.747429  0.747429  1
  La  La6  1  0.747878  0.252850  0.252850  1
  Dy  Dy7  1  0.252491  0.252491  0.252491  1
  Sn  Sn8  1  0.999574  0.999574  0.999574  1
  Pd  Pd9  1  0.266743  0.498034  0.003673  1
  Pd  Pd10  1  0.733399  0.499272  0.999971  1
  Pd  Pd11  1  0.003673  0.266743  0.498034  1
  Pd  Pd12  1  0.498034  0.266743  0.003673  1
  Pd  Pd13  1  0.999971  0.733399  0.499272  1
  Pd  Pd14  1  0.499272  0.733399  0.999971  1
  Pd  Pd15  1  0.498034  0.003673  0.266743  1
  Pd  Pd16  1  0.266743  0.003673  0.498034  1
  Pd  Pd17  1  0.499272  0.999971  0.733399  1
  Pd  Pd18  1  0.733399  0.999971  0.499272  1
  Pd  Pd19  1  0.003673  0.498034  0.266743  1
  Pd  Pd20  1  0.999971  0.499272  0.733399  1
  Pd  Pd21  1  0.255350  0.496985  0.496985  1
  Pd  Pd22  1  0.744617  0.499747  0.499747  1
  Pd  Pd23  1  0.496985  0.255350  0.496985  1
  Pd  Pd24  1  0.499747  0.744617  0.499747  1
  Pd  Pd25  1  0.496985  0.496985  0.255350  1
  Pd  Pd26  1  0.499747  0.499747  0.744617  1
  Pd  Pd27  1  0.311648  0.002706  0.002706  1
  Pd  Pd28  1  0.686576  0.000234  0.000234  1
  Pd  Pd29  1  0.002706  0.311648  0.002706  1
  Pd  Pd30  1  0.000234  0.686576  0.000234  1
  Pd  Pd31  1  0.002706  0.002706  0.311648  1
  Pd  Pd32  1  0.000234  0.000234  0.686576  1
