# generated using pymatgen
data_Dy2Mn2Co5(NiP2)3
_symmetry_space_group_name_H-M   'P 1'
_cell_length_a   3.68507600
_cell_length_b   10.34012400
_cell_length_c   11.88628000
_cell_angle_alpha   90.00000000
_cell_angle_beta   90.00000000
_cell_angle_gamma   90.00000000
_symmetry_Int_Tables_number   1
_chemical_formula_structural   Dy2Mn2Co5(NiP2)3
_chemical_formula_sum   'Dy4 Mn4 Co10 Ni6 P12'
_cell_volume   452.91651036
_cell_formula_units_Z   2
loop_
 _symmetry_equiv_pos_site_id
 _symmetry_equiv_pos_as_xyz
  1  'x, y, z'
loop_
 _atom_site_type_symbol
 _atom_site_label
 _atom_site_symmetry_multiplicity
 _atom_site_fract_x
 _atom_site_fract_y
 _atom_site_fract_z
 _atom_site_occupancy
  Dy  Dy0  1  0.250000  0.582619  0.705492  1
  Dy  Dy1  1  0.250000  0.917381  0.205492  1
  Dy  Dy2  1  0.750000  0.418679  0.295156  1
  Dy  Dy3  1  0.750000  0.081321  0.795156  1
  Mn  Mn4  1  0.250000  0.708645  0.986532  1
  Mn  Mn5  1  0.250000  0.791355  0.486532  1
  Mn  Mn6  1  0.750000  0.289628  0.012639  1
  Mn  Mn7  1  0.750000  0.210372  0.512639  1
  Co  Co8  1  0.750000  0.777441  0.823330  1
  Co  Co9  1  0.750000  0.722559  0.323330  1
  Co  Co10  1  0.250000  0.881927  0.697970  1
  Co  Co11  1  0.250000  0.618073  0.197970  1
  Co  Co12  1  0.750000  0.117634  0.301622  1
  Co  Co13  1  0.750000  0.382366  0.801622  1
  Co  Co14  1  0.250000  0.466623  0.932810  1
  Co  Co15  1  0.250000  0.033377  0.432810  1
  Co  Co16  1  0.750000  0.533688  0.067472  1
  Co  Co17  1  0.750000  0.966312  0.567472  1
  Ni  Ni18  1  0.250000  0.408116  0.487027  1
  Ni  Ni19  1  0.250000  0.091884  0.987027  1
  Ni  Ni20  1  0.750000  0.593158  0.512679  1
  Ni  Ni21  1  0.750000  0.906842  0.012679  1
  Ni  Ni22  1  0.250000  0.222594  0.177016  1
  Ni  Ni23  1  0.250000  0.277406  0.677016  1
  P  P24  1  0.250000  0.423187  0.112670  1
  P  P25  1  0.250000  0.076813  0.612670  1
  P  P26  1  0.750000  0.580284  0.887384  1
  P  P27  1  0.750000  0.919716  0.387384  1
  P  P28  1  0.250000  0.271637  0.868053  1
  P  P29  1  0.250000  0.228363  0.368053  1
  P  P30  1  0.750000  0.728454  0.134067  1
  P  P31  1  0.750000  0.771546  0.634067  1
  P  P32  1  0.250000  0.605350  0.387655  1
  P  P33  1  0.250000  0.894650  0.887655  1
  P  P34  1  0.750000  0.399762  0.610426  1
  P  P35  1  0.750000  0.100238  0.110426  1
