# generated using pymatgen
data_LiSb4RhO12
_symmetry_space_group_name_H-M   'P 1'
_cell_length_a   4.73558900
_cell_length_b   9.45277100
_cell_length_c   9.33581600
_cell_angle_alpha   90.00000000
_cell_angle_beta   90.00000000
_cell_angle_gamma   90.00000000
_symmetry_Int_Tables_number   1
_chemical_formula_structural   LiSb4RhO12
_chemical_formula_sum   'Li2 Sb8 Rh2 O24'
_cell_volume   417.91255994
_cell_formula_units_Z   2
loop_
 _symmetry_equiv_pos_site_id
 _symmetry_equiv_pos_as_xyz
  1  'x, y, z'
loop_
 _atom_site_type_symbol
 _atom_site_label
 _atom_site_symmetry_multiplicity
 _atom_site_fract_x
 _atom_site_fract_y
 _atom_site_fract_z
 _atom_site_occupancy
  Li  Li0  1  0.000516  0.502206  0.000000  1
  Li  Li1  1  0.500516  0.747794  0.500000  1
  Sb  Sb2  1  0.993815  0.995125  0.333561  1
  Sb  Sb3  1  0.006800  0.505070  0.330271  1
  Sb  Sb4  1  0.493815  0.254875  0.833561  1
  Sb  Sb5  1  0.506800  0.744930  0.830271  1
  Sb  Sb6  1  0.493815  0.254875  0.166439  1
  Sb  Sb7  1  0.506800  0.744930  0.169729  1
  Sb  Sb8  1  0.993815  0.995125  0.666439  1
  Sb  Sb9  1  0.006800  0.505070  0.669729  1
  Rh  Rh10  1  0.998585  0.000300  0.000000  1
  Rh  Rh11  1  0.498585  0.249700  0.500000  1
  O  O12  1  0.306600  0.150802  0.000000  1
  O  O13  1  0.314838  0.660563  0.000000  1
  O  O14  1  0.195470  0.401850  0.500000  1
  O  O15  1  0.184904  0.907646  0.500000  1
  O  O16  1  0.806600  0.099198  0.500000  1
  O  O17  1  0.814838  0.589437  0.500000  1
  O  O18  1  0.684904  0.342354  0.000000  1
  O  O19  1  0.695470  0.848150  0.000000  1
  O  O20  1  0.308713  0.149011  0.330468  1
  O  O21  1  0.298720  0.655429  0.328792  1
  O  O22  1  0.191570  0.398572  0.827033  1
  O  O23  1  0.199922  0.905276  0.831589  1
  O  O24  1  0.808713  0.100989  0.830468  1
  O  O25  1  0.798720  0.594571  0.828792  1
  O  O26  1  0.808713  0.100989  0.169532  1
  O  O27  1  0.798720  0.594571  0.171208  1
  O  O28  1  0.191570  0.398572  0.172967  1
  O  O29  1  0.199922  0.905276  0.168411  1
  O  O30  1  0.699922  0.344724  0.331589  1
  O  O31  1  0.691570  0.851428  0.327033  1
  O  O32  1  0.308713  0.149011  0.669532  1
  O  O33  1  0.298720  0.655429  0.671208  1
  O  O34  1  0.699922  0.344724  0.668411  1
  O  O35  1  0.691570  0.851428  0.672967  1
