# generated using pymatgen
data_Ni6MoPt2
_symmetry_space_group_name_H-M   'P 1'
_cell_length_a   5.86096259
_cell_length_b   5.86096365
_cell_length_c   5.86096223
_cell_angle_alpha   97.17717150
_cell_angle_beta   93.73484215
_cell_angle_gamma   144.08840203
_symmetry_Int_Tables_number   1
_chemical_formula_structural   Ni6MoPt2
_chemical_formula_sum   'Ni6 Mo1 Pt2'
_cell_volume   112.27412563
_cell_formula_units_Z   1
loop_
 _symmetry_equiv_pos_site_id
 _symmetry_equiv_pos_as_xyz
  1  'x, y, z'
loop_
 _atom_site_type_symbol
 _atom_site_label
 _atom_site_symmetry_multiplicity
 _atom_site_fract_x
 _atom_site_fract_y
 _atom_site_fract_z
 _atom_site_occupancy
  Ni  Ni0  1  0.340788  0.335343  0.676132  1
  Ni  Ni1  1  0.659212  0.664657  0.323868  1
  Ni  Ni2  1  0.659212  0.335343  0.994554  1
  Ni  Ni3  1  0.340788  0.664657  0.005446  1
  Ni  Ni4  1  0.000000  0.326775  0.326775  1
  Ni  Ni5  1  0.000000  0.673225  0.673225  1
  Mo  Mo6  1  0.000000  0.000000  0.000000  1
  Pt  Pt7  1  0.670639  0.000000  0.670639  1
  Pt  Pt8  1  0.329361  0.000000  0.329361  1
