# generated using pymatgen
data_Y2Er14MgHg3Rh4
_symmetry_space_group_name_H-M   'P 1'
_cell_length_a   9.57514190
_cell_length_b   9.53089328
_cell_length_c   9.55297700
_cell_angle_alpha   59.92332586
_cell_angle_beta   60.07654818
_cell_angle_gamma   59.88598117
_symmetry_Int_Tables_number   1
_chemical_formula_structural   Y2Er14MgHg3Rh4
_chemical_formula_sum   'Y2 Er14 Mg1 Hg3 Rh4'
_cell_volume   615.92092770
_cell_formula_units_Z   1
loop_
 _symmetry_equiv_pos_site_id
 _symmetry_equiv_pos_as_xyz
  1  'x, y, z'
loop_
 _atom_site_type_symbol
 _atom_site_label
 _atom_site_symmetry_multiplicity
 _atom_site_fract_x
 _atom_site_fract_y
 _atom_site_fract_z
 _atom_site_occupancy
  Y  Y0  1  0.815248  0.816278  0.184237  1
  Y  Y1  1  0.185254  0.184422  0.815162  1
  Er  Er2  1  0.600812  0.599272  0.595377  1
  Er  Er3  1  0.600812  0.599272  0.204541  1
  Er  Er4  1  0.601066  0.204241  0.597347  1
  Er  Er5  1  0.189034  0.602616  0.604176  1
  Er  Er6  1  0.058985  0.439240  0.441230  1
  Er  Er7  1  0.435705  0.062377  0.063816  1
  Er  Er8  1  0.435705  0.062377  0.438101  1
  Er  Er9  1  0.058985  0.439240  0.060546  1
  Er  Er10  1  0.436441  0.438127  0.062716  1
  Er  Er11  1  0.057862  0.060004  0.441068  1
  Er  Er12  1  0.187524  0.811150  0.811722  1
  Er  Er13  1  0.811123  0.188709  0.186412  1
  Er  Er14  1  0.811123  0.188709  0.813756  1
  Er  Er15  1  0.187524  0.811150  0.189605  1
  Mg  Mg16  1  0.536366  0.819986  0.821823  1
  Hg  Hg17  1  0.832721  0.836828  0.836188  1
  Hg  Hg18  1  0.832721  0.836828  0.494262  1
  Hg  Hg19  1  0.832487  0.492259  0.837626  1
  Rh  Rh20  1  0.391219  0.395611  0.391874  1
  Rh  Rh21  1  0.391219  0.395611  0.821297  1
  Rh  Rh22  1  0.386185  0.822308  0.395754  1
  Rh  Rh23  1  0.823881  0.393389  0.391366  1
