# generated using pymatgen
data_CaEu3(SbPd)4
_symmetry_space_group_name_H-M   'P 1'
_cell_length_a   4.73157700
_cell_length_b   7.58734574
_cell_length_c   8.01976454
_cell_angle_alpha   89.83453973
_cell_angle_beta   90.00000000
_cell_angle_gamma   90.00000000
_symmetry_Int_Tables_number   1
_chemical_formula_structural   CaEu3(SbPd)4
_chemical_formula_sum   'Ca1 Eu3 Sb4 Pd4'
_cell_volume   287.90923345
_cell_formula_units_Z   1
loop_
 _symmetry_equiv_pos_site_id
 _symmetry_equiv_pos_as_xyz
  1  'x, y, z'
loop_
 _atom_site_type_symbol
 _atom_site_label
 _atom_site_symmetry_multiplicity
 _atom_site_fract_x
 _atom_site_fract_y
 _atom_site_fract_z
 _atom_site_occupancy
  Ca  Ca0  1  0.250000  0.993829  0.295817  1
  Eu  Eu1  1  0.250000  0.494249  0.203100  1
  Eu  Eu2  1  0.750000  0.505585  0.797074  1
  Eu  Eu3  1  0.750000  0.005753  0.702032  1
  Sb  Sb4  1  0.250000  0.802017  0.907360  1
  Sb  Sb5  1  0.750000  0.196503  0.094351  1
  Sb  Sb6  1  0.750000  0.698053  0.406814  1
  Sb  Sb7  1  0.250000  0.302492  0.592506  1
  Pd  Pd8  1  0.250000  0.687701  0.577562  1
  Pd  Pd9  1  0.750000  0.312093  0.420085  1
  Pd  Pd10  1  0.750000  0.817152  0.081653  1
  Pd  Pd11  1  0.250000  0.184572  0.921646  1
