# generated using pymatgen
data_Ac3Th(AgAs2)4
_symmetry_space_group_name_H-M   'P 1'
_cell_length_a   4.18550100
_cell_length_b   4.22118826
_cell_length_c   21.68843052
_cell_angle_alpha   89.10174257
_cell_angle_beta   90.00000000
_cell_angle_gamma   90.00000000
_symmetry_Int_Tables_number   1
_chemical_formula_structural   Ac3Th(AgAs2)4
_chemical_formula_sum   'Ac3 Th1 Ag4 As8'
_cell_volume   383.13949525
_cell_formula_units_Z   1
loop_
 _symmetry_equiv_pos_site_id
 _symmetry_equiv_pos_as_xyz
  1  'x, y, z'
loop_
 _atom_site_type_symbol
 _atom_site_label
 _atom_site_symmetry_multiplicity
 _atom_site_fract_x
 _atom_site_fract_y
 _atom_site_fract_z
 _atom_site_occupancy
  Ac  Ac0  1  0.750000  0.233739  0.109135  1
  Ac  Ac1  1  0.250000  0.720922  0.381289  1
  Ac  Ac2  1  0.750000  0.278465  0.619942  1
  Th  Th3  1  0.250000  0.766417  0.886950  1
  Ag  Ag4  1  0.250000  0.224948  0.245953  1
  Ag  Ag5  1  0.750000  0.726428  0.246261  1
  Ag  Ag6  1  0.250000  0.273469  0.756375  1
  Ag  Ag7  1  0.750000  0.774857  0.756601  1
  As  As8  1  0.250000  0.729528  0.162585  1
  As  As9  1  0.750000  0.222845  0.330702  1
  As  As10  1  0.250000  0.776603  0.673318  1
  As  As11  1  0.750000  0.269660  0.844846  1
  As  As12  1  0.750000  0.747630  0.991575  1
  As  As13  1  0.250000  0.187501  0.499303  1
  As  As14  1  0.750000  0.810650  0.503839  1
  As  As15  1  0.250000  0.256339  0.991324  1
