# generated using pymatgen
data_CaYbErUN4
_symmetry_space_group_name_H-M   'P 1'
_cell_length_a   6.88259347
_cell_length_b   9.14683307
_cell_length_c   6.02448844
_cell_angle_alpha   29.12611592
_cell_angle_beta   55.16478295
_cell_angle_gamma   41.19638652
_symmetry_Int_Tables_number   1
_chemical_formula_structural   CaYbErUN4
_chemical_formula_sum   'Ca1 Yb1 Er1 U1 N4'
_cell_volume   117.11991580
_cell_formula_units_Z   1
loop_
 _symmetry_equiv_pos_site_id
 _symmetry_equiv_pos_as_xyz
  1  'x, y, z'
loop_
 _atom_site_type_symbol
 _atom_site_label
 _atom_site_symmetry_multiplicity
 _atom_site_fract_x
 _atom_site_fract_y
 _atom_site_fract_z
 _atom_site_occupancy
  Ca  Ca0  1  0.500000  0.000000  0.000000  1
  Yb  Yb1  1  0.750000  0.500000  0.000000  1
  Er  Er2  1  0.250000  0.500000  0.000000  1
  U  U3  1  0.000000  0.000000  0.000000  1
  N  N4  1  0.490615  0.500000  0.518771  1
  N  N5  1  0.214905  0.000000  0.570189  1
  N  N6  1  0.009385  0.500000  0.481229  1
  N  N7  1  0.785095  0.000000  0.429811  1
