# generated using pymatgen
data_Zn24NiPtAu6
_symmetry_space_group_name_H-M   'P 1'
_cell_length_a   7.90692900
_cell_length_b   7.90692900
_cell_length_c   7.90692900
_cell_angle_alpha   90.00000000
_cell_angle_beta   90.00000000
_cell_angle_gamma   90.00000000
_symmetry_Int_Tables_number   1
_chemical_formula_structural   Zn24NiPtAu6
_chemical_formula_sum   'Zn24 Ni1 Pt1 Au6'
_cell_volume   494.33745486
_cell_formula_units_Z   1
loop_
 _symmetry_equiv_pos_site_id
 _symmetry_equiv_pos_as_xyz
  1  'x, y, z'
loop_
 _atom_site_type_symbol
 _atom_site_label
 _atom_site_symmetry_multiplicity
 _atom_site_fract_x
 _atom_site_fract_y
 _atom_site_fract_z
 _atom_site_occupancy
  Zn  Zn0  1  0.500000  0.201572  0.334925  1
  Zn  Zn1  1  0.500000  0.798428  0.665075  1
  Zn  Zn2  1  0.201572  0.334925  0.500000  1
  Zn  Zn3  1  0.798428  0.334925  0.500000  1
  Zn  Zn4  1  0.334925  0.500000  0.201572  1
  Zn  Zn5  1  0.665075  0.500000  0.201572  1
  Zn  Zn6  1  0.000000  0.838618  0.288299  1
  Zn  Zn7  1  0.000000  0.161382  0.711701  1
  Zn  Zn8  1  0.000000  0.161382  0.288299  1
  Zn  Zn9  1  0.500000  0.201572  0.665075  1
  Zn  Zn10  1  0.500000  0.798428  0.334925  1
  Zn  Zn11  1  0.798428  0.665075  0.500000  1
  Zn  Zn12  1  0.201572  0.665075  0.500000  1
  Zn  Zn13  1  0.334925  0.500000  0.798428  1
  Zn  Zn14  1  0.665075  0.500000  0.798428  1
  Zn  Zn15  1  0.288299  0.000000  0.161382  1
  Zn  Zn16  1  0.161382  0.288299  0.000000  1
  Zn  Zn17  1  0.838618  0.711701  0.000000  1
  Zn  Zn18  1  0.288299  0.000000  0.838618  1
  Zn  Zn19  1  0.838618  0.288299  0.000000  1
  Zn  Zn20  1  0.711701  0.000000  0.161382  1
  Zn  Zn21  1  0.711701  0.000000  0.838618  1
  Zn  Zn22  1  0.161382  0.711701  0.000000  1
  Zn  Zn23  1  0.000000  0.838618  0.711701  1
  Ni  Ni24  1  0.000000  0.000000  0.000000  1
  Pt  Pt25  1  0.500000  0.500000  0.500000  1
  Au  Au26  1  0.500000  0.249827  0.000000  1
  Au  Au27  1  0.500000  0.750173  0.000000  1
  Au  Au28  1  0.000000  0.500000  0.750173  1
  Au  Au29  1  0.000000  0.500000  0.249827  1
  Au  Au30  1  0.750173  0.000000  0.500000  1
  Au  Au31  1  0.249827  0.000000  0.500000  1
