# generated using pymatgen
data_AcEu2(ZnNi2)2
_symmetry_space_group_name_H-M   'P 1'
_cell_length_a   4.19271700
_cell_length_b   5.64019219
_cell_length_c   8.34868000
_cell_angle_alpha   99.94666353
_cell_angle_beta   90.00000000
_cell_angle_gamma   111.81939992
_symmetry_Int_Tables_number   1
_chemical_formula_structural   AcEu2(ZnNi2)2
_chemical_formula_sum   'Ac1 Eu2 Zn2 Ni4'
_cell_volume   180.08318633
_cell_formula_units_Z   1
loop_
 _symmetry_equiv_pos_site_id
 _symmetry_equiv_pos_as_xyz
  1  'x, y, z'
loop_
 _atom_site_type_symbol
 _atom_site_label
 _atom_site_symmetry_multiplicity
 _atom_site_fract_x
 _atom_site_fract_y
 _atom_site_fract_z
 _atom_site_occupancy
  Ac  Ac0  1  0.000000  0.000000  0.500000  1
  Eu  Eu1  1  0.626064  0.252126  0.887743  1
  Eu  Eu2  1  0.373936  0.747874  0.112257  1
  Zn  Zn3  1  0.322697  0.645395  0.719806  1
  Zn  Zn4  1  0.677303  0.354605  0.280194  1
  Ni  Ni5  1  0.915257  0.830514  0.861642  1
  Ni  Ni6  1  0.084743  0.169486  0.138358  1
  Ni  Ni7  1  0.738628  0.477254  0.586002  1
  Ni  Ni8  1  0.261372  0.522746  0.413998  1
