# generated using pymatgen
data_Er2Ni7HgB2
_symmetry_space_group_name_H-M   'P 1'
_cell_length_a   4.99276800
_cell_length_b   4.99276807
_cell_length_c   14.20400500
_cell_angle_alpha   90.00000000
_cell_angle_beta   90.00000000
_cell_angle_gamma   119.99999956
_symmetry_Int_Tables_number   1
_chemical_formula_structural   Er2Ni7HgB2
_chemical_formula_sum   'Er4 Ni14 Hg2 B4'
_cell_volume   306.63676752
_cell_formula_units_Z   2
loop_
 _symmetry_equiv_pos_site_id
 _symmetry_equiv_pos_as_xyz
  1  'x, y, z'
loop_
 _atom_site_type_symbol
 _atom_site_label
 _atom_site_symmetry_multiplicity
 _atom_site_fract_x
 _atom_site_fract_y
 _atom_site_fract_z
 _atom_site_occupancy
  Er  Er0  1  0.666667  0.333333  0.528614  1
  Er  Er1  1  0.333333  0.666667  0.028614  1
  Er  Er2  1  0.666667  0.333333  0.756852  1
  Er  Er3  1  0.333333  0.666667  0.256852  1
  Ni  Ni4  1  0.834471  0.165529  0.351364  1
  Ni  Ni5  1  0.834471  0.668941  0.351364  1
  Ni  Ni6  1  0.000000  0.000000  0.999964  1
  Ni  Ni7  1  0.000000  0.000000  0.499964  1
  Ni  Ni8  1  0.834204  0.668409  0.148601  1
  Ni  Ni9  1  0.165796  0.834204  0.648601  1
  Ni  Ni10  1  0.668409  0.834204  0.648601  1
  Ni  Ni11  1  0.331591  0.165796  0.148601  1
  Ni  Ni12  1  0.834204  0.165796  0.148601  1
  Ni  Ni13  1  0.165529  0.331059  0.851364  1
  Ni  Ni14  1  0.165529  0.834471  0.851364  1
  Ni  Ni15  1  0.165796  0.331591  0.648601  1
  Ni  Ni16  1  0.668941  0.834471  0.851364  1
  Ni  Ni17  1  0.331059  0.165529  0.351364  1
  Hg  Hg18  1  0.333333  0.666667  0.467400  1
  Hg  Hg19  1  0.666667  0.333333  0.967400  1
  B  B20  1  0.666667  0.333333  0.249836  1
  B  B21  1  0.333333  0.666667  0.749836  1
  B  B22  1  0.000000  0.000000  0.747438  1
  B  B23  1  0.000000  0.000000  0.247438  1
