# generated using pymatgen
data_Li3V3IrRh5
_symmetry_space_group_name_H-M   'P 1'
_cell_length_a   4.20247300
_cell_length_b   5.89240200
_cell_length_c   12.58242700
_cell_angle_alpha   90.00000000
_cell_angle_beta   89.99874444
_cell_angle_gamma   90.00000000
_symmetry_Int_Tables_number   1
_chemical_formula_structural   Li3V3IrRh5
_chemical_formula_sum   'Li6 V6 Ir2 Rh10'
_cell_volume   311.57436564
_cell_formula_units_Z   2
loop_
 _symmetry_equiv_pos_site_id
 _symmetry_equiv_pos_as_xyz
  1  'x, y, z'
loop_
 _atom_site_type_symbol
 _atom_site_label
 _atom_site_symmetry_multiplicity
 _atom_site_fract_x
 _atom_site_fract_y
 _atom_site_fract_z
 _atom_site_occupancy
  Li  Li0  1  0.000000  0.000000  0.000000  1
  Li  Li1  1  0.499202  0.500000  0.167016  1
  Li  Li2  1  0.999198  0.000000  0.333317  1
  Li  Li3  1  0.499999  0.500000  0.500000  1
  Li  Li4  1  0.000803  0.000000  0.666683  1
  Li  Li5  1  0.500798  0.500000  0.832984  1
  V  V6  1  0.000000  0.500000  0.000000  1
  V  V7  1  0.499582  0.000000  0.165771  1
  V  V8  1  0.999583  0.500000  0.333261  1
  V  V9  1  0.499999  0.000000  0.500000  1
  V  V10  1  0.000418  0.500000  0.666739  1
  V  V11  1  0.500418  0.000000  0.834229  1
  Ir  Ir12  1  0.499999  0.249866  0.000000  1
  Ir  Ir13  1  0.499999  0.750132  0.000000  1
  Rh  Rh14  1  0.999610  0.249370  0.167066  1
  Rh  Rh15  1  0.999610  0.750630  0.167066  1
  Rh  Rh16  1  0.499613  0.250772  0.333660  1
  Rh  Rh17  1  0.499613  0.749228  0.333660  1
  Rh  Rh18  1  0.000000  0.249688  0.500000  1
  Rh  Rh19  1  0.000000  0.750310  0.500000  1
  Rh  Rh20  1  0.500388  0.250772  0.666339  1
  Rh  Rh21  1  0.500388  0.749228  0.666339  1
  Rh  Rh22  1  0.000391  0.249370  0.832934  1
  Rh  Rh23  1  0.000391  0.750630  0.832934  1
