# generated using pymatgen
data_TbHoFe2O7
_symmetry_space_group_name_H-M   'P 1'
_cell_length_a   7.14647141
_cell_length_b   7.15614021
_cell_length_c   7.15614037
_cell_angle_alpha   60.05350281
_cell_angle_beta   60.04467539
_cell_angle_gamma   60.04467811
_symmetry_Int_Tables_number   1
_chemical_formula_structural   TbHoFe2O7
_chemical_formula_sum   'Tb2 Ho2 Fe4 O14'
_cell_volume   259.06147548
_cell_formula_units_Z   2
loop_
 _symmetry_equiv_pos_site_id
 _symmetry_equiv_pos_as_xyz
  1  'x, y, z'
loop_
 _atom_site_type_symbol
 _atom_site_label
 _atom_site_symmetry_multiplicity
 _atom_site_fract_x
 _atom_site_fract_y
 _atom_site_fract_z
 _atom_site_occupancy
  Tb  Tb0  1  0.125000  0.125000  0.625000  1
  Tb  Tb1  1  0.125000  0.625000  0.125000  1
  Ho  Ho2  1  0.125000  0.125000  0.125000  1
  Ho  Ho3  1  0.625000  0.125000  0.125000  1
  Fe  Fe4  1  0.625000  0.625000  0.625000  1
  Fe  Fe5  1  0.125000  0.625000  0.625000  1
  Fe  Fe6  1  0.625000  0.625000  0.125000  1
  Fe  Fe7  1  0.625000  0.125000  0.625000  1
  O  O8  1  0.997887  0.002113  0.002113  1
  O  O9  1  0.252113  0.247887  0.247887  1
  O  O10  1  0.292646  0.291614  0.709504  1
  O  O11  1  0.543764  0.540496  0.958386  1
  O  O12  1  0.706236  0.291614  0.709504  1
  O  O13  1  0.707997  0.292003  0.292003  1
  O  O14  1  0.291397  0.708603  0.708603  1
  O  O15  1  0.292646  0.709504  0.291614  1
  O  O16  1  0.706236  0.709504  0.291614  1
  O  O17  1  0.958603  0.541397  0.541397  1
  O  O18  1  0.542003  0.957997  0.957997  1
  O  O19  1  0.957354  0.958386  0.540496  1
  O  O20  1  0.957354  0.540496  0.958386  1
  O  O21  1  0.543764  0.958386  0.540496  1
