# generated using pymatgen
data_La5Fe3(P3Rh4)4
_symmetry_space_group_name_H-M   'P 1'
_cell_length_a   12.81609700
_cell_length_b   12.81609848
_cell_length_c   4.04603800
_cell_angle_alpha   90.00000000
_cell_angle_beta   90.00000000
_cell_angle_gamma   119.99999876
_symmetry_Int_Tables_number   1
_chemical_formula_structural   La5Fe3(P3Rh4)4
_chemical_formula_sum   'La5 Fe3 P12 Rh16'
_cell_volume   575.53563159
_cell_formula_units_Z   1
loop_
 _symmetry_equiv_pos_site_id
 _symmetry_equiv_pos_as_xyz
  1  'x, y, z'
loop_
 _atom_site_type_symbol
 _atom_site_label
 _atom_site_symmetry_multiplicity
 _atom_site_fract_x
 _atom_site_fract_y
 _atom_site_fract_z
 _atom_site_occupancy
  La  La0  1  0.000000  0.815492  0.500000  1
  La  La1  1  0.184508  0.184508  0.500000  1
  La  La2  1  0.815492  0.000000  0.500000  1
  La  La3  1  0.333333  0.666667  0.000000  1
  La  La4  1  0.666667  0.333333  0.000000  1
  Fe  Fe5  1  0.000000  0.289257  0.500000  1
  Fe  Fe6  1  0.710743  0.710743  0.500000  1
  Fe  Fe7  1  0.289257  0.000000  0.500000  1
  P  P8  1  0.000000  0.189462  0.000000  1
  P  P9  1  0.810538  0.810538  0.000000  1
  P  P10  1  0.189462  0.000000  0.000000  1
  P  P11  1  0.527054  0.688929  0.500000  1
  P  P12  1  0.311071  0.838124  0.500000  1
  P  P13  1  0.161876  0.472946  0.500000  1
  P  P14  1  0.472946  0.161876  0.500000  1
  P  P15  1  0.688929  0.527054  0.500000  1
  P  P16  1  0.838124  0.311071  0.500000  1
  P  P17  1  0.000000  0.629926  0.000000  1
  P  P18  1  0.370074  0.370074  0.000000  1
  P  P19  1  0.629926  0.000000  0.000000  1
  Rh  Rh20  1  0.621957  0.802390  0.000000  1
  Rh  Rh21  1  0.197610  0.819567  0.000000  1
  Rh  Rh22  1  0.180433  0.378043  0.000000  1
  Rh  Rh23  1  0.378043  0.180433  0.000000  1
  Rh  Rh24  1  0.802390  0.621957  0.000000  1
  Rh  Rh25  1  0.819567  0.197610  0.000000  1
  Rh  Rh26  1  0.510931  0.872188  0.500000  1
  Rh  Rh27  1  0.127812  0.638744  0.500000  1
  Rh  Rh28  1  0.361256  0.489069  0.500000  1
  Rh  Rh29  1  0.489069  0.361256  0.500000  1
  Rh  Rh30  1  0.872188  0.510931  0.500000  1
  Rh  Rh31  1  0.638744  0.127812  0.500000  1
  Rh  Rh32  1  0.000000  0.000000  0.000000  1
  Rh  Rh33  1  0.000000  0.449671  0.000000  1
  Rh  Rh34  1  0.550329  0.550329  0.000000  1
  Rh  Rh35  1  0.449671  0.000000  0.000000  1
