# generated using pymatgen
data_Tb2Co7(P2Ru)3
_symmetry_space_group_name_H-M   'P 1'
_cell_length_a   3.72496600
_cell_length_b   10.46583100
_cell_length_c   11.85022700
_cell_angle_alpha   90.00000000
_cell_angle_beta   90.00000000
_cell_angle_gamma   90.00000000
_symmetry_Int_Tables_number   1
_chemical_formula_structural   Tb2Co7(P2Ru)3
_chemical_formula_sum   'Tb4 Co14 P12 Ru6'
_cell_volume   461.97949551
_cell_formula_units_Z   2
loop_
 _symmetry_equiv_pos_site_id
 _symmetry_equiv_pos_as_xyz
  1  'x, y, z'
loop_
 _atom_site_type_symbol
 _atom_site_label
 _atom_site_symmetry_multiplicity
 _atom_site_fract_x
 _atom_site_fract_y
 _atom_site_fract_z
 _atom_site_occupancy
  Tb  Tb0  1  0.250000  0.586862  0.705268  1
  Tb  Tb1  1  0.250000  0.913138  0.205268  1
  Tb  Tb2  1  0.750000  0.414973  0.292286  1
  Tb  Tb3  1  0.750000  0.085027  0.792286  1
  Co  Co4  1  0.750000  0.597995  0.512267  1
  Co  Co5  1  0.750000  0.902005  0.012267  1
  Co  Co6  1  0.250000  0.225009  0.179358  1
  Co  Co7  1  0.250000  0.274991  0.679358  1
  Co  Co8  1  0.750000  0.777345  0.822518  1
  Co  Co9  1  0.750000  0.722655  0.322518  1
  Co  Co10  1  0.250000  0.884134  0.700177  1
  Co  Co11  1  0.250000  0.615866  0.200177  1
  Co  Co12  1  0.750000  0.113773  0.298713  1
  Co  Co13  1  0.750000  0.386227  0.798713  1
  Co  Co14  1  0.250000  0.465187  0.931341  1
  Co  Co15  1  0.250000  0.034813  0.431341  1
  Co  Co16  1  0.750000  0.537468  0.067570  1
  Co  Co17  1  0.750000  0.962532  0.567570  1
  P  P18  1  0.250000  0.422722  0.111687  1
  P  P19  1  0.250000  0.077278  0.611687  1
  P  P20  1  0.750000  0.579007  0.887332  1
  P  P21  1  0.750000  0.920993  0.387332  1
  P  P22  1  0.250000  0.273222  0.866593  1
  P  P23  1  0.250000  0.226778  0.366593  1
  P  P24  1  0.750000  0.728982  0.132655  1
  P  P25  1  0.750000  0.771018  0.632655  1
  P  P26  1  0.250000  0.600833  0.387235  1
  P  P27  1  0.250000  0.899167  0.887235  1
  P  P28  1  0.750000  0.402122  0.612532  1
  P  P29  1  0.750000  0.097878  0.112532  1
  Ru  Ru30  1  0.250000  0.713737  0.989463  1
  Ru  Ru31  1  0.250000  0.786263  0.489463  1
  Ru  Ru32  1  0.750000  0.290395  0.013456  1
  Ru  Ru33  1  0.750000  0.209605  0.513456  1
  Ru  Ru34  1  0.250000  0.408801  0.489549  1
  Ru  Ru35  1  0.250000  0.091199  0.989549  1
