# generated using pymatgen
data_Pr2RhI
_symmetry_space_group_name_H-M   'P 1'
_cell_length_a   4.20117300
_cell_length_b   4.20117315
_cell_length_c   16.48811800
_cell_angle_alpha   90.00000000
_cell_angle_beta   90.00000000
_cell_angle_gamma   119.99999098
_symmetry_Int_Tables_number   1
_chemical_formula_structural   Pr2RhI
_chemical_formula_sum   'Pr4 Rh2 I2'
_cell_volume   252.02458279
_cell_formula_units_Z   2
loop_
 _symmetry_equiv_pos_site_id
 _symmetry_equiv_pos_as_xyz
  1  'x, y, z'
loop_
 _atom_site_type_symbol
 _atom_site_label
 _atom_site_symmetry_multiplicity
 _atom_site_fract_x
 _atom_site_fract_y
 _atom_site_fract_z
 _atom_site_occupancy
  Pr  Pr0  1  0.333333  0.666667  0.593239  1
  Pr  Pr1  1  0.666667  0.333333  0.406761  1
  Pr  Pr2  1  0.666667  0.333333  0.093239  1
  Pr  Pr3  1  0.333333  0.666667  0.906761  1
  Rh  Rh4  1  0.000000  0.000000  0.000000  1
  Rh  Rh5  1  0.000000  0.000000  0.500000  1
  I  I6  1  0.333333  0.666667  0.250000  1
  I  I7  1  0.666667  0.333333  0.750000  1
