# generated using pymatgen
data_Ca9TbPb6F2
_symmetry_space_group_name_H-M   'P 1'
_cell_length_a   9.55664412
_cell_length_b   9.55664317
_cell_length_c   9.55664317
_cell_angle_alpha   128.54625363
_cell_angle_beta   128.54625217
_cell_angle_gamma   75.74177506
_symmetry_Int_Tables_number   1
_chemical_formula_structural   Ca9TbPb6F2
_chemical_formula_sum   'Ca9 Tb1 Pb6 F2'
_cell_volume   519.29485748
_cell_formula_units_Z   1
loop_
 _symmetry_equiv_pos_site_id
 _symmetry_equiv_pos_as_xyz
  1  'x, y, z'
loop_
 _atom_site_type_symbol
 _atom_site_label
 _atom_site_symmetry_multiplicity
 _atom_site_fract_x
 _atom_site_fract_y
 _atom_site_fract_z
 _atom_site_occupancy
  Ca  Ca0  1  0.000000  0.000000  0.000000  1
  Ca  Ca1  1  0.505640  0.005566  0.815660  1
  Ca  Ca2  1  0.189906  0.689981  0.184340  1
  Ca  Ca3  1  0.005566  0.189906  0.499925  1
  Ca  Ca4  1  0.689981  0.505640  0.500075  1
  Ca  Ca5  1  0.494360  0.994434  0.184340  1
  Ca  Ca6  1  0.810094  0.310019  0.815660  1
  Ca  Ca7  1  0.994434  0.810094  0.500075  1
  Ca  Ca8  1  0.310019  0.494360  0.499925  1
  Tb  Tb9  1  0.500000  0.500000  0.000000  1
  Pb  Pb10  1  0.251521  0.251521  0.000000  1
  Pb  Pb11  1  0.748479  0.748479  0.000000  1
  Pb  Pb12  1  0.862377  0.367582  0.229959  1
  Pb  Pb13  1  0.137623  0.632418  0.770042  1
  Pb  Pb14  1  0.367582  0.137623  0.505205  1
  Pb  Pb15  1  0.632418  0.862377  0.494795  1
  F  F16  1  0.250000  0.750000  0.500000  1
  F  F17  1  0.750000  0.250000  0.500000  1
