# generated using pymatgen
data_Ca20Zn7Cd3Pt2
_symmetry_space_group_name_H-M   'P 1'
_cell_length_a   8.04632690
_cell_length_b   8.04632726
_cell_length_c   14.78989600
_cell_angle_alpha   89.97296968
_cell_angle_beta   90.02703032
_cell_angle_gamma   90.09196286
_symmetry_Int_Tables_number   1
_chemical_formula_structural   Ca20Zn7Cd3Pt2
_chemical_formula_sum   'Ca20 Zn7 Cd3 Pt2'
_cell_volume   957.54640208
_cell_formula_units_Z   1
loop_
 _symmetry_equiv_pos_site_id
 _symmetry_equiv_pos_as_xyz
  1  'x, y, z'
loop_
 _atom_site_type_symbol
 _atom_site_label
 _atom_site_symmetry_multiplicity
 _atom_site_fract_x
 _atom_site_fract_y
 _atom_site_fract_z
 _atom_site_occupancy
  Ca  Ca0  1  0.672632  0.164531  0.105099  1
  Ca  Ca1  1  0.169044  0.667831  0.607436  1
  Ca  Ca2  1  0.320472  0.828584  0.108091  1
  Ca  Ca3  1  0.823591  0.324783  0.610727  1
  Ca  Ca4  1  0.843256  0.672417  0.107244  1
  Ca  Ca5  1  0.339896  0.169203  0.609820  1
  Ca  Ca6  1  0.164934  0.335350  0.106994  1
  Ca  Ca7  1  0.668110  0.838843  0.609681  1
  Ca  Ca8  1  0.828584  0.320472  0.891909  1
  Ca  Ca9  1  0.324783  0.823591  0.389273  1
  Ca  Ca10  1  0.164531  0.672632  0.894901  1
  Ca  Ca11  1  0.667831  0.169044  0.392564  1
  Ca  Ca12  1  0.672417  0.843256  0.892756  1
  Ca  Ca13  1  0.169203  0.339896  0.390180  1
  Ca  Ca14  1  0.335350  0.164934  0.893006  1
  Ca  Ca15  1  0.838843  0.668110  0.390319  1
  Ca  Ca16  1  0.504118  0.490851  0.753909  1
  Ca  Ca17  1  0.003984  0.991416  0.250051  1
  Ca  Ca18  1  0.991416  0.003984  0.749949  1
  Ca  Ca19  1  0.490851  0.504118  0.246091  1
  Zn  Zn20  1  0.882041  0.382915  0.248554  1
  Zn  Zn21  1  0.382915  0.882041  0.751446  1
  Zn  Zn22  1  0.880342  0.619390  0.751467  1
  Zn  Zn23  1  0.380880  0.120220  0.248481  1
  Zn  Zn24  1  0.120220  0.380880  0.751519  1
  Zn  Zn25  1  0.619390  0.880342  0.248533  1
  Zn  Zn26  1  0.000335  0.000335  0.000000  1
  Cd  Cd27  1  0.501439  0.501439  0.500000  1
  Cd  Cd28  1  0.501361  0.501361  0.000000  1
  Cd  Cd29  1  0.001345  0.001345  0.500000  1
  Pt  Pt30  1  0.618088  0.117801  0.751498  1
  Pt  Pt31  1  0.117801  0.618088  0.248502  1
