# generated using pymatgen
data_Yb(ScS2)2
_symmetry_space_group_name_H-M   'P 1'
_cell_length_a   3.73540200
_cell_length_b   11.46929900
_cell_length_c   13.47658500
_cell_angle_alpha   90.00000000
_cell_angle_beta   90.00000000
_cell_angle_gamma   90.00000000
_symmetry_Int_Tables_number   1
_chemical_formula_structural   Yb(ScS2)2
_chemical_formula_sum   'Yb4 Sc8 S16'
_cell_volume   577.36981692
_cell_formula_units_Z   4
loop_
 _symmetry_equiv_pos_site_id
 _symmetry_equiv_pos_as_xyz
  1  'x, y, z'
loop_
 _atom_site_type_symbol
 _atom_site_label
 _atom_site_symmetry_multiplicity
 _atom_site_fract_x
 _atom_site_fract_y
 _atom_site_fract_z
 _atom_site_occupancy
  Yb  Yb0  1  0.250000  0.238678  0.331760  1
  Yb  Yb1  1  0.750000  0.261322  0.831760  1
  Yb  Yb2  1  0.250000  0.738678  0.168240  1
  Yb  Yb3  1  0.750000  0.761322  0.668240  1
  Sc  Sc4  1  0.250000  0.083785  0.596594  1
  Sc  Sc5  1  0.250000  0.058797  0.110955  1
  Sc  Sc6  1  0.750000  0.416215  0.096594  1
  Sc  Sc7  1  0.750000  0.941203  0.889045  1
  Sc  Sc8  1  0.750000  0.441203  0.610955  1
  Sc  Sc9  1  0.250000  0.558797  0.389045  1
  Sc  Sc10  1  0.750000  0.916215  0.403406  1
  Sc  Sc11  1  0.250000  0.583785  0.903406  1
  S  S12  1  0.250000  0.872132  0.533339  1
  S  S13  1  0.250000  0.796609  0.829619  1
  S  S14  1  0.250000  0.969889  0.285219  1
  S  S15  1  0.750000  0.407830  0.423131  1
  S  S16  1  0.250000  0.469889  0.214781  1
  S  S17  1  0.250000  0.092170  0.923131  1
  S  S18  1  0.750000  0.203391  0.170381  1
  S  S19  1  0.750000  0.030111  0.714781  1
  S  S20  1  0.250000  0.592170  0.576869  1
  S  S21  1  0.750000  0.703391  0.329619  1
  S  S22  1  0.250000  0.296609  0.670381  1
  S  S23  1  0.250000  0.372132  0.966661  1
  S  S24  1  0.750000  0.627868  0.033339  1
  S  S25  1  0.750000  0.530111  0.785219  1
  S  S26  1  0.750000  0.127868  0.466661  1
  S  S27  1  0.750000  0.907830  0.076869  1
