# generated using pymatgen
data_Y15Ho5Ir5Rh7
_symmetry_space_group_name_H-M   'P 1'
_cell_length_a   10.91522787
_cell_length_b   10.92105034
_cell_length_c   6.39971627
_cell_angle_alpha   89.98546271
_cell_angle_beta   90.02531659
_cell_angle_gamma   90.09513998
_symmetry_Int_Tables_number   1
_chemical_formula_structural   Y15Ho5Ir5Rh7
_chemical_formula_sum   'Y15 Ho5 Ir5 Rh7'
_cell_volume   762.88184691
_cell_formula_units_Z   1
loop_
 _symmetry_equiv_pos_site_id
 _symmetry_equiv_pos_as_xyz
  1  'x, y, z'
loop_
 _atom_site_type_symbol
 _atom_site_label
 _atom_site_symmetry_multiplicity
 _atom_site_fract_x
 _atom_site_fract_y
 _atom_site_fract_z
 _atom_site_occupancy
  Y  Y0  1  0.288966  0.089007  0.382115  1
  Y  Y1  1  0.290337  0.908822  0.883034  1
  Y  Y2  1  0.708345  0.090515  0.883854  1
  Y  Y3  1  0.707896  0.909170  0.381767  1
  Y  Y4  1  0.588122  0.789300  0.882371  1
  Y  Y5  1  0.586865  0.210036  0.381535  1
  Y  Y6  1  0.409611  0.790291  0.383303  1
  Y  Y7  1  0.411461  0.209456  0.881879  1
  Y  Y8  1  0.210703  0.411717  0.617847  1
  Y  Y9  1  0.210349  0.589919  0.117059  1
  Y  Y10  1  0.789992  0.412820  0.117605  1
  Y  Y11  1  0.790858  0.587778  0.617477  1
  Y  Y12  1  0.912182  0.709902  0.117479  1
  Y  Y13  1  0.909966  0.291015  0.617566  1
  Y  Y14  1  0.090695  0.708772  0.615851  1
  Ho  Ho15  1  0.090312  0.293092  0.117556  1
  Ho  Ho16  1  0.999583  0.999374  0.501094  1
  Ho  Ho17  1  0.000757  0.000976  0.001595  1
  Ho  Ho18  1  0.499843  0.499010  0.999742  1
  Ho  Ho19  1  0.500452  0.500126  0.499297  1
  Ir  Ir20  1  0.152212  0.848715  0.250834  1
  Ir  Ir21  1  0.653250  0.346367  0.749498  1
  Ir  Ir22  1  0.654373  0.652637  0.249090  1
  Ir  Ir23  1  0.345647  0.346110  0.249189  1
  Ir  Ir24  1  0.347677  0.652256  0.749876  1
  Rh  Rh25  1  0.850064  0.152662  0.249591  1
  Rh  Rh26  1  0.847091  0.848791  0.750392  1
  Rh  Rh27  1  0.150873  0.154200  0.752552  1
  Rh  Rh28  1  0.499873  0.000130  0.132038  1
  Rh  Rh29  1  0.500081  0.000236  0.632233  1
  Rh  Rh30  1  0.000735  0.498558  0.868135  1
  Rh  Rh31  1  0.000831  0.498243  0.366547  1
