# generated using pymatgen
data_SrZrBr6
_symmetry_space_group_name_H-M   'P 1'
_cell_length_a   7.99676201
_cell_length_b   7.99676246
_cell_length_c   7.99676315
_cell_angle_alpha   56.23814837
_cell_angle_beta   56.23814417
_cell_angle_gamma   56.23814272
_symmetry_Int_Tables_number   1
_chemical_formula_structural   SrZrBr6
_chemical_formula_sum   'Sr1 Zr1 Br6'
_cell_volume   330.11978641
_cell_formula_units_Z   1
loop_
 _symmetry_equiv_pos_site_id
 _symmetry_equiv_pos_as_xyz
  1  'x, y, z'
loop_
 _atom_site_type_symbol
 _atom_site_label
 _atom_site_symmetry_multiplicity
 _atom_site_fract_x
 _atom_site_fract_y
 _atom_site_fract_z
 _atom_site_occupancy
  Sr  Sr0  1  0.333617  0.333617  0.333617  1
  Zr  Zr1  1  0.666910  0.666910  0.666910  1
  Br  Br2  1  0.036008  0.461644  0.733754  1
  Br  Br3  1  0.309935  0.882387  0.575743  1
  Br  Br4  1  0.461644  0.733754  0.036008  1
  Br  Br5  1  0.575743  0.309935  0.882387  1
  Br  Br6  1  0.733754  0.036008  0.461644  1
  Br  Br7  1  0.882387  0.575743  0.309935  1
