# generated using pymatgen
data_Tb2ZrScPt2
_symmetry_space_group_name_H-M   'P 1'
_cell_length_a   4.69726100
_cell_length_b   7.09177400
_cell_length_c   8.30711200
_cell_angle_alpha   90.00000000
_cell_angle_beta   90.00000000
_cell_angle_gamma   90.00000000
_symmetry_Int_Tables_number   1
_chemical_formula_structural   Tb2ZrScPt2
_chemical_formula_sum   'Tb4 Zr2 Sc2 Pt4'
_cell_volume   276.72579581
_cell_formula_units_Z   2
loop_
 _symmetry_equiv_pos_site_id
 _symmetry_equiv_pos_as_xyz
  1  'x, y, z'
loop_
 _atom_site_type_symbol
 _atom_site_label
 _atom_site_symmetry_multiplicity
 _atom_site_fract_x
 _atom_site_fract_y
 _atom_site_fract_z
 _atom_site_occupancy
  Tb  Tb0  1  0.750000  0.480296  0.822194  1
  Tb  Tb1  1  0.250000  0.017137  0.324251  1
  Tb  Tb2  1  0.750000  0.980296  0.677806  1
  Tb  Tb3  1  0.250000  0.517137  0.175749  1
  Zr  Zr4  1  0.750000  0.358564  0.424337  1
  Zr  Zr5  1  0.750000  0.858564  0.075663  1
  Sc  Sc6  1  0.250000  0.643379  0.576259  1
  Sc  Sc7  1  0.250000  0.143379  0.923741  1
  Pt  Pt8  1  0.250000  0.764450  0.905435  1
  Pt  Pt9  1  0.250000  0.264450  0.594565  1
  Pt  Pt10  1  0.750000  0.736176  0.402349  1
  Pt  Pt11  1  0.750000  0.236176  0.097651  1
