# generated using pymatgen
data_CeNdGa4
_symmetry_space_group_name_H-M   'P 1'
_cell_length_a   4.28823500
_cell_length_b   4.28823573
_cell_length_c   8.48589000
_cell_angle_alpha   90.00000000
_cell_angle_beta   90.00000000
_cell_angle_gamma   120.00000209
_symmetry_Int_Tables_number   1
_chemical_formula_structural   CeNdGa4
_chemical_formula_sum   'Ce1 Nd1 Ga4'
_cell_volume   135.14041506
_cell_formula_units_Z   1
loop_
 _symmetry_equiv_pos_site_id
 _symmetry_equiv_pos_as_xyz
  1  'x, y, z'
loop_
 _atom_site_type_symbol
 _atom_site_label
 _atom_site_symmetry_multiplicity
 _atom_site_fract_x
 _atom_site_fract_y
 _atom_site_fract_z
 _atom_site_occupancy
  Ce  Ce0  1  0.000000  0.000000  0.500000  1
  Nd  Nd1  1  0.000000  0.000000  0.000000  1
  Ga  Ga2  1  0.333334  0.666667  0.251075  1
  Ga  Ga3  1  0.666666  0.333334  0.257320  1
  Ga  Ga4  1  0.666666  0.333334  0.742680  1
  Ga  Ga5  1  0.333334  0.666667  0.748925  1
