# generated using pymatgen
data_Ce(PPd2)2
_symmetry_space_group_name_H-M   'P 1'
_cell_length_a   4.23828000
_cell_length_b   7.46624800
_cell_length_c   15.17674300
_cell_angle_alpha   90.00000000
_cell_angle_beta   90.00000000
_cell_angle_gamma   90.00000000
_symmetry_Int_Tables_number   1
_chemical_formula_structural   Ce(PPd2)2
_chemical_formula_sum   'Ce4 P8 Pd16'
_cell_volume   480.25360786
_cell_formula_units_Z   4
loop_
 _symmetry_equiv_pos_site_id
 _symmetry_equiv_pos_as_xyz
  1  'x, y, z'
loop_
 _atom_site_type_symbol
 _atom_site_label
 _atom_site_symmetry_multiplicity
 _atom_site_fract_x
 _atom_site_fract_y
 _atom_site_fract_z
 _atom_site_occupancy
  Ce  Ce0  1  0.250000  0.857514  0.182845  1
  Ce  Ce1  1  0.750000  0.142486  0.817155  1
  Ce  Ce2  1  0.250000  0.357514  0.317155  1
  Ce  Ce3  1  0.750000  0.642486  0.682845  1
  P  P4  1  0.250000  0.309192  0.694488  1
  P  P5  1  0.250000  0.778061  0.551954  1
  P  P6  1  0.750000  0.221939  0.448046  1
  P  P7  1  0.750000  0.190808  0.194488  1
  P  P8  1  0.250000  0.809192  0.805512  1
  P  P9  1  0.250000  0.278061  0.948046  1
  P  P10  1  0.750000  0.721939  0.051954  1
  P  P11  1  0.750000  0.690808  0.305512  1
  Pd  Pd12  1  0.250000  0.983892  0.673297  1
  Pd  Pd13  1  0.250000  0.483892  0.826703  1
  Pd  Pd14  1  0.750000  0.381701  0.991244  1
  Pd  Pd15  1  0.750000  0.739610  0.885228  1
  Pd  Pd16  1  0.750000  0.534536  0.443505  1
  Pd  Pd17  1  0.750000  0.239610  0.614772  1
  Pd  Pd18  1  0.750000  0.516108  0.173297  1
  Pd  Pd19  1  0.750000  0.034536  0.056495  1
  Pd  Pd20  1  0.250000  0.760390  0.385228  1
  Pd  Pd21  1  0.250000  0.260390  0.114772  1
  Pd  Pd22  1  0.250000  0.965464  0.943505  1
  Pd  Pd23  1  0.250000  0.118299  0.491244  1
  Pd  Pd24  1  0.750000  0.881701  0.508756  1
  Pd  Pd25  1  0.750000  0.016108  0.326703  1
  Pd  Pd26  1  0.250000  0.618299  0.008756  1
  Pd  Pd27  1  0.250000  0.465464  0.556495  1
