# generated using pymatgen
data_HfSc7(InCu2)4
_symmetry_space_group_name_H-M   'P 1'
_cell_length_a   7.28968249
_cell_length_b   7.28968249
_cell_length_c   6.77699800
_cell_angle_alpha   90.00000000
_cell_angle_beta   90.00000000
_cell_angle_gamma   90.11208142
_symmetry_Int_Tables_number   1
_chemical_formula_structural   HfSc7(InCu2)4
_chemical_formula_sum   'Hf1 Sc7 In4 Cu8'
_cell_volume   360.12539802
_cell_formula_units_Z   1
loop_
 _symmetry_equiv_pos_site_id
 _symmetry_equiv_pos_as_xyz
  1  'x, y, z'
loop_
 _atom_site_type_symbol
 _atom_site_label
 _atom_site_symmetry_multiplicity
 _atom_site_fract_x
 _atom_site_fract_y
 _atom_site_fract_z
 _atom_site_occupancy
  Hf  Hf0  1  0.185582  0.185582  0.500000  1
  Sc  Sc1  1  0.156086  0.156086  0.000000  1
  Sc  Sc2  1  0.844409  0.844409  0.000000  1
  Sc  Sc3  1  0.654340  0.342663  0.500000  1
  Sc  Sc4  1  0.342663  0.654340  0.500000  1
  Sc  Sc5  1  0.687727  0.313317  0.000000  1
  Sc  Sc6  1  0.313317  0.687727  0.000000  1
  Sc  Sc7  1  0.814001  0.814001  0.500000  1
  In  In8  1  0.501330  0.999775  0.249550  1
  In  In9  1  0.501330  0.999775  0.750450  1
  In  In10  1  0.999775  0.501330  0.249550  1
  In  In11  1  0.999775  0.501330  0.750450  1
  Cu  Cu12  1  0.376341  0.376341  0.216799  1
  Cu  Cu13  1  0.621270  0.621270  0.784690  1
  Cu  Cu14  1  0.621270  0.621270  0.215310  1
  Cu  Cu15  1  0.879319  0.122902  0.712453  1
  Cu  Cu16  1  0.879319  0.122902  0.287547  1
  Cu  Cu17  1  0.376341  0.376341  0.783201  1
  Cu  Cu18  1  0.122902  0.879319  0.287547  1
  Cu  Cu19  1  0.122902  0.879319  0.712453  1
