# generated using pymatgen
data_La2NdMg3Ag2Ir
_symmetry_space_group_name_H-M   'P 1'
_cell_length_a   7.99503889
_cell_length_b   7.99915698
_cell_length_c   4.06811600
_cell_angle_alpha   90.00000000
_cell_angle_beta   90.00000000
_cell_angle_gamma   120.10911442
_symmetry_Int_Tables_number   1
_chemical_formula_structural   La2NdMg3Ag2Ir
_chemical_formula_sum   'La2 Nd1 Mg3 Ag2 Ir1'
_cell_volume   225.06615852
_cell_formula_units_Z   1
loop_
 _symmetry_equiv_pos_site_id
 _symmetry_equiv_pos_as_xyz
  1  'x, y, z'
loop_
 _atom_site_type_symbol
 _atom_site_label
 _atom_site_symmetry_multiplicity
 _atom_site_fract_x
 _atom_site_fract_y
 _atom_site_fract_z
 _atom_site_occupancy
  La  La0  1  0.568787  0.972226  0.000000  1
  La  La1  1  0.028024  0.595606  0.000000  1
  Nd  Nd2  1  0.402602  0.429345  0.000000  1
  Mg  Mg3  1  0.247160  0.000604  0.500000  1
  Mg  Mg4  1  0.004325  0.248276  0.500000  1
  Mg  Mg5  1  0.749091  0.749806  0.500000  1
  Ag  Ag6  1  0.664921  0.333922  0.500000  1
  Ag  Ag7  1  0.001669  0.001601  0.000000  1
  Ir  Ir8  1  0.333421  0.668612  0.500000  1
