# generated using pymatgen
data_Eu3Dy2Mn2O12
_symmetry_space_group_name_H-M   'P 1'
_cell_length_a   6.86274237
_cell_length_b   6.85742690
_cell_length_c   7.35579555
_cell_angle_alpha   75.06635238
_cell_angle_beta   75.01084021
_cell_angle_gamma   50.12727110
_symmetry_Int_Tables_number   1
_chemical_formula_structural   Eu3Dy2Mn2O12
_chemical_formula_sum   'Eu3 Dy2 Mn2 O12'
_cell_volume   254.65592284
_cell_formula_units_Z   1
loop_
 _symmetry_equiv_pos_site_id
 _symmetry_equiv_pos_as_xyz
  1  'x, y, z'
loop_
 _atom_site_type_symbol
 _atom_site_label
 _atom_site_symmetry_multiplicity
 _atom_site_fract_x
 _atom_site_fract_y
 _atom_site_fract_z
 _atom_site_occupancy
  Eu  Eu0  1  0.310843  0.310968  0.353578  1
  Eu  Eu1  1  0.689157  0.689032  0.646422  1
  Eu  Eu2  1  0.000000  0.000000  0.500000  1
  Dy  Dy3  1  0.304686  0.304704  0.844262  1
  Dy  Dy4  1  0.695314  0.695296  0.155738  1
  Mn  Mn5  1  0.755621  0.244203  0.999904  1
  Mn  Mn6  1  0.244379  0.755797  0.000096  1
  O  O7  1  0.901878  0.421030  0.920308  1
  O  O8  1  0.420799  0.902011  0.920098  1
  O  O9  1  0.098122  0.578970  0.079692  1
  O  O10  1  0.579201  0.097989  0.079902  1
  O  O11  1  0.098463  0.594871  0.579847  1
  O  O12  1  0.594172  0.098749  0.580260  1
  O  O13  1  0.901537  0.405129  0.420153  1
  O  O14  1  0.405828  0.901251  0.419740  1
  O  O15  1  0.997928  0.000043  0.825462  1
  O  O16  1  0.002072  0.999957  0.174538  1
  O  O17  1  0.495250  0.497320  0.824634  1
  O  O18  1  0.504750  0.502680  0.175366  1
