# generated using pymatgen
data_Sm4TmLu3(B6Ru)4
_symmetry_space_group_name_H-M   'P 1'
_cell_length_a   3.66253700
_cell_length_b   9.12990902
_cell_length_c   11.54131903
_cell_angle_alpha   90.00830966
_cell_angle_beta   90.00000000
_cell_angle_gamma   90.00000000
_symmetry_Int_Tables_number   1
_chemical_formula_structural   Sm4TmLu3(B6Ru)4
_chemical_formula_sum   'Sm4 Tm1 Lu3 B24 Ru4'
_cell_volume   385.92588817
_cell_formula_units_Z   1
loop_
 _symmetry_equiv_pos_site_id
 _symmetry_equiv_pos_as_xyz
  1  'x, y, z'
loop_
 _atom_site_type_symbol
 _atom_site_label
 _atom_site_symmetry_multiplicity
 _atom_site_fract_x
 _atom_site_fract_y
 _atom_site_fract_z
 _atom_site_occupancy
  Sm  Sm0  1  0.000000  0.322211  0.414532  1
  Sm  Sm1  1  0.000000  0.677826  0.585638  1
  Sm  Sm2  1  0.000000  0.822011  0.085407  1
  Sm  Sm3  1  0.000000  0.177973  0.914432  1
  Tm  Tm4  1  0.000000  0.944154  0.372242  1
  Lu  Lu5  1  0.000000  0.055913  0.628018  1
  Lu  Lu6  1  0.000000  0.444210  0.127686  1
  Lu  Lu7  1  0.000000  0.555807  0.872238  1
  B  B8  1  0.500000  0.555692  0.431301  1
  B  B9  1  0.500000  0.444134  0.568757  1
  B  B10  1  0.500000  0.055863  0.068633  1
  B  B11  1  0.500000  0.944163  0.931260  1
  B  B12  1  0.500000  0.750192  0.417879  1
  B  B13  1  0.500000  0.249353  0.582179  1
  B  B14  1  0.500000  0.250767  0.082107  1
  B  B15  1  0.500000  0.749297  0.917851  1
  B  B16  1  0.500000  0.791176  0.265976  1
  B  B17  1  0.500000  0.208375  0.733910  1
  B  B18  1  0.500000  0.291818  0.233832  1
  B  B19  1  0.500000  0.708341  0.766124  1
  B  B20  1  0.500000  0.630128  0.184163  1
  B  B21  1  0.500000  0.369790  0.815770  1
  B  B22  1  0.500000  0.130641  0.315571  1
  B  B23  1  0.500000  0.869752  0.684285  1
  B  B24  1  0.500000  0.984554  0.213849  1
  B  B25  1  0.500000  0.015706  0.785817  1
  B  B26  1  0.500000  0.484201  0.285769  1
  B  B27  1  0.500000  0.515724  0.714213  1
  B  B28  1  0.500000  0.601841  0.027702  1
  B  B29  1  0.500000  0.398141  0.972266  1
  B  B30  1  0.500000  0.102421  0.472594  1
  B  B31  1  0.500000  0.897959  0.528228  1
  Ru  Ru32  1  0.000000  0.638863  0.319160  1
  Ru  Ru33  1  0.000000  0.360607  0.680859  1
  Ru  Ru34  1  0.000000  0.139881  0.180459  1
  Ru  Ru35  1  0.000000  0.860517  0.819293  1
