# generated using pymatgen
data_Lu3Co6CuC2
_symmetry_space_group_name_H-M   'P 1'
_cell_length_a   5.03672800
_cell_length_b   5.03709512
_cell_length_c   13.74352702
_cell_angle_alpha   89.99414910
_cell_angle_beta   90.00181878
_cell_angle_gamma   119.99379637
_symmetry_Int_Tables_number   1
_chemical_formula_structural   Lu3Co6CuC2
_chemical_formula_sum   'Lu6 Co12 Cu2 C4'
_cell_volume   301.98448107
_cell_formula_units_Z   2
loop_
 _symmetry_equiv_pos_site_id
 _symmetry_equiv_pos_as_xyz
  1  'x, y, z'
loop_
 _atom_site_type_symbol
 _atom_site_label
 _atom_site_symmetry_multiplicity
 _atom_site_fract_x
 _atom_site_fract_y
 _atom_site_fract_z
 _atom_site_occupancy
  Lu  Lu0  1  0.332992  0.666427  0.533990  1
  Lu  Lu1  1  0.666841  0.333420  0.034194  1
  Lu  Lu2  1  0.666736  0.333402  0.465926  1
  Lu  Lu3  1  0.333062  0.666670  0.966411  1
  Lu  Lu4  1  0.333267  0.666510  0.750039  1
  Lu  Lu5  1  0.666855  0.333433  0.249697  1
  Co  Co6  1  0.166301  0.332895  0.154077  1
  Co  Co7  1  0.833478  0.666767  0.654094  1
  Co  Co8  1  0.666992  0.833561  0.154119  1
  Co  Co9  1  0.166390  0.833580  0.154083  1
  Co  Co10  1  0.833542  0.166771  0.654141  1
  Co  Co11  1  0.333144  0.166643  0.654129  1
  Co  Co12  1  0.833347  0.666667  0.845907  1
  Co  Co13  1  0.833410  0.166695  0.845944  1
  Co  Co14  1  0.333209  0.166681  0.845875  1
  Co  Co15  1  0.667178  0.833604  0.345633  1
  Co  Co16  1  0.166270  0.833520  0.345691  1
  Co  Co17  1  0.166408  0.332865  0.345692  1
  Cu  Cu18  1  0.000385  0.999754  0.000604  1
  Cu  Cu19  1  0.000442  0.000007  0.500175  1
  C  C20  1  0.333050  0.666487  0.249854  1
  C  C21  1  0.666715  0.333317  0.749886  1
  C  C22  1  0.000105  0.000193  0.249932  1
  C  C23  1  0.999883  0.000130  0.749907  1
