# generated using pymatgen
data_TaRu(NF10)2
_symmetry_space_group_name_H-M   'P 1'
_cell_length_a   5.63879579
_cell_length_b   7.65624820
_cell_length_c   9.05708100
_cell_angle_alpha   88.80299680
_cell_angle_beta   109.23628644
_cell_angle_gamma   96.70056735
_symmetry_Int_Tables_number   1
_chemical_formula_structural   TaRu(NF10)2
_chemical_formula_sum   'Ta1 Ru1 N2 F20'
_cell_volume   366.59550466
_cell_formula_units_Z   1
loop_
 _symmetry_equiv_pos_site_id
 _symmetry_equiv_pos_as_xyz
  1  'x, y, z'
loop_
 _atom_site_type_symbol
 _atom_site_label
 _atom_site_symmetry_multiplicity
 _atom_site_fract_x
 _atom_site_fract_y
 _atom_site_fract_z
 _atom_site_occupancy
  Ta  Ta0  1  0.993923  0.755252  0.297167  1
  Ru  Ru1  1  0.003998  0.245347  0.704562  1
  N  N2  1  0.296203  0.274209  0.214990  1
  N  N3  1  0.704917  0.725728  0.785503  1
  F  F4  1  0.058822  0.233240  0.214024  1
  F  F5  1  0.941638  0.767093  0.786643  1
  F  F6  1  0.371153  0.139645  0.155632  1
  F  F7  1  0.628779  0.860399  0.844261  1
  F  F8  1  0.931675  0.194213  0.893956  1
  F  F9  1  0.065336  0.805007  0.103376  1
  F  F10  1  0.074972  0.299224  0.518326  1
  F  F11  1  0.921901  0.700339  0.485523  1
  F  F12  1  0.785084  0.044153  0.606281  1
  F  F13  1  0.221066  0.958370  0.393765  1
  F  F14  1  0.278689  0.109043  0.776558  1
  F  F15  1  0.717149  0.894604  0.220380  1
  F  F16  1  0.214776  0.452059  0.804895  1
  F  F17  1  0.784956  0.543824  0.194226  1
  F  F18  1  0.725272  0.379211  0.638471  1
  F  F19  1  0.278516  0.619986  0.360869  1
  F  F20  1  0.695175  0.584462  0.874127  1
  F  F21  1  0.304735  0.415192  0.125964  1
  F  F22  1  0.550138  0.691183  0.639044  1
  F  F23  1  0.451128  0.308217  0.361454  1
