# generated using pymatgen
data_LiCuRhF6
_symmetry_space_group_name_H-M   'P 1'
_cell_length_a   4.72697300
_cell_length_b   4.72697300
_cell_length_c   9.45125200
_cell_angle_alpha   90.00000000
_cell_angle_beta   90.00000000
_cell_angle_gamma   90.00000000
_symmetry_Int_Tables_number   1
_chemical_formula_structural   LiCuRhF6
_chemical_formula_sum   'Li2 Cu2 Rh2 F12'
_cell_volume   211.18136190
_cell_formula_units_Z   2
loop_
 _symmetry_equiv_pos_site_id
 _symmetry_equiv_pos_as_xyz
  1  'x, y, z'
loop_
 _atom_site_type_symbol
 _atom_site_label
 _atom_site_symmetry_multiplicity
 _atom_site_fract_x
 _atom_site_fract_y
 _atom_site_fract_z
 _atom_site_occupancy
  Li  Li0  1  0.500000  0.500000  0.498204  1
  Li  Li1  1  0.000000  0.000000  0.998204  1
  Cu  Cu2  1  0.500000  0.500000  0.171170  1
  Cu  Cu3  1  0.000000  0.000000  0.671170  1
  Rh  Rh4  1  0.500000  0.500000  0.832393  1
  Rh  Rh5  1  0.000000  0.000000  0.332393  1
  F  F6  1  0.193467  0.806533  0.493990  1
  F  F7  1  0.806533  0.193467  0.493990  1
  F  F8  1  0.306533  0.306533  0.993990  1
  F  F9  1  0.693467  0.693467  0.993990  1
  F  F10  1  0.196460  0.803540  0.169812  1
  F  F11  1  0.803540  0.196460  0.169812  1
  F  F12  1  0.303540  0.303540  0.669812  1
  F  F13  1  0.696460  0.696460  0.669812  1
  F  F14  1  0.799340  0.200660  0.835316  1
  F  F15  1  0.200660  0.799340  0.835316  1
  F  F16  1  0.700660  0.700660  0.335316  1
  F  F17  1  0.299340  0.299340  0.335316  1
