# generated using pymatgen
data_Sr4Li2Al2SiSn3
_symmetry_space_group_name_H-M   'P 1'
_cell_length_a   8.83527711
_cell_length_b   8.87061654
_cell_length_c   8.87061462
_cell_angle_alpha   135.93335237
_cell_angle_beta   136.21741836
_cell_angle_gamma   63.93591797
_symmetry_Int_Tables_number   1
_chemical_formula_structural   Sr4Li2Al2SiSn3
_chemical_formula_sum   'Sr4 Li2 Al2 Si1 Sn3'
_cell_volume   329.98108235
_cell_formula_units_Z   1
loop_
 _symmetry_equiv_pos_site_id
 _symmetry_equiv_pos_as_xyz
  1  'x, y, z'
loop_
 _atom_site_type_symbol
 _atom_site_label
 _atom_site_symmetry_multiplicity
 _atom_site_fract_x
 _atom_site_fract_y
 _atom_site_fract_z
 _atom_site_occupancy
  Sr  Sr0  1  0.092439  0.838268  0.254171  1
  Sr  Sr1  1  0.902947  0.159794  0.743152  1
  Sr  Sr2  1  0.414822  0.659694  0.755129  1
  Sr  Sr3  1  0.586374  0.338498  0.247876  1
  Li  Li4  1  0.493947  0.244214  0.734329  1
  Li  Li5  1  0.493947  0.759618  0.249734  1
  Al  Al6  1  0.014934  0.240293  0.248622  1
  Al  Al7  1  0.014934  0.766311  0.774640  1
  Si  Si8  1  0.335371  0.101179  0.234194  1
  Sn  Sn9  1  0.646721  0.892437  0.754283  1
  Sn  Sn10  1  0.137236  0.392562  0.744673  1
  Sn  Sn11  1  0.866330  0.607133  0.259198  1
