# generated using pymatgen
data_Ho4Al18NiRh5
_symmetry_space_group_name_H-M   'P 1'
_cell_length_a   7.54525853
_cell_length_b   7.54525858
_cell_length_c   9.42221557
_cell_angle_alpha   90.15151821
_cell_angle_beta   90.15152344
_cell_angle_gamma   119.70247529
_symmetry_Int_Tables_number   1
_chemical_formula_structural   Ho4Al18NiRh5
_chemical_formula_sum   'Ho4 Al18 Ni1 Rh5'
_cell_volume   465.92943508
_cell_formula_units_Z   1
loop_
 _symmetry_equiv_pos_site_id
 _symmetry_equiv_pos_as_xyz
  1  'x, y, z'
loop_
 _atom_site_type_symbol
 _atom_site_label
 _atom_site_symmetry_multiplicity
 _atom_site_fract_x
 _atom_site_fract_y
 _atom_site_fract_z
 _atom_site_occupancy
  Ho  Ho0  1  0.994487  0.668947  0.249510  1
  Ho  Ho1  1  0.005513  0.331053  0.750490  1
  Ho  Ho2  1  0.668947  0.994487  0.249510  1
  Ho  Ho3  1  0.331053  0.005513  0.750490  1
  Al  Al4  1  0.123451  0.123451  0.246940  1
  Al  Al5  1  0.876549  0.876549  0.753060  1
  Al  Al6  1  0.999572  0.332246  0.075246  1
  Al  Al7  1  0.000428  0.667754  0.924754  1
  Al  Al8  1  0.999673  0.665929  0.575739  1
  Al  Al9  1  0.334071  0.000327  0.424261  1
  Al  Al10  1  0.000327  0.334071  0.424261  1
  Al  Al11  1  0.665929  0.999673  0.575739  1
  Al  Al12  1  0.667754  0.000428  0.924754  1
  Al  Al13  1  0.332246  0.999572  0.075246  1
  Al  Al14  1  0.333142  0.333142  0.551909  1
  Al  Al15  1  0.666858  0.666858  0.448091  1
  Al  Al16  1  0.669565  0.669565  0.050348  1
  Al  Al17  1  0.330435  0.330435  0.949652  1
  Al  Al18  1  0.338883  0.548330  0.249498  1
  Al  Al19  1  0.661117  0.451670  0.750502  1
  Al  Al20  1  0.548330  0.338883  0.249498  1
  Al  Al21  1  0.451670  0.661117  0.750502  1
  Ni  Ni22  1  0.000000  0.000000  0.000000  1
  Rh  Rh23  1  0.672062  0.327938  0.000000  1
  Rh  Rh24  1  0.327938  0.672062  0.000000  1
  Rh  Rh25  1  0.327777  0.672223  0.500000  1
  Rh  Rh26  1  0.672223  0.327777  0.500000  1
  Rh  Rh27  1  0.000000  0.000000  0.500000  1
