# generated using pymatgen
data_Tb2YAl3PdAu2
_symmetry_space_group_name_H-M   'P 1'
_cell_length_a   7.29719700
_cell_length_b   7.29719863
_cell_length_c   4.08320100
_cell_angle_alpha   90.00000000
_cell_angle_beta   90.00000000
_cell_angle_gamma   120.00000619
_symmetry_Int_Tables_number   1
_chemical_formula_structural   Tb2YAl3PdAu2
_chemical_formula_sum   'Tb2 Y1 Al3 Pd1 Au2'
_cell_volume   188.29708759
_cell_formula_units_Z   1
loop_
 _symmetry_equiv_pos_site_id
 _symmetry_equiv_pos_as_xyz
  1  'x, y, z'
loop_
 _atom_site_type_symbol
 _atom_site_label
 _atom_site_symmetry_multiplicity
 _atom_site_fract_x
 _atom_site_fract_y
 _atom_site_fract_z
 _atom_site_occupancy
  Tb  Tb0  1  0.411596  0.411596  0.500000  1
  Tb  Tb1  1  0.588404  0.000000  0.500000  1
  Y  Y2  1  0.000000  0.588404  0.500000  1
  Al  Al3  1  0.000000  0.233593  0.000000  1
  Al  Al4  1  0.766407  0.766407  0.000000  1
  Al  Al5  1  0.233593  0.000000  0.000000  1
  Pd  Pd6  1  0.000000  0.000000  0.500000  1
  Au  Au7  1  0.666667  0.333333  0.000000  1
  Au  Au8  1  0.333333  0.666667  0.000000  1
