# generated using pymatgen
data_Nd4Re3(TcB4)3
_symmetry_space_group_name_H-M   'P 1'
_cell_length_a   6.30263003
_cell_length_b   6.31220819
_cell_length_c   7.63422386
_cell_angle_alpha   90.61176076
_cell_angle_beta   90.63716170
_cell_angle_gamma   114.50515634
_symmetry_Int_Tables_number   1
_chemical_formula_structural   Nd4Re3(TcB4)3
_chemical_formula_sum   'Nd4 Re3 Tc3 B12'
_cell_volume   276.30257597
_cell_formula_units_Z   1
loop_
 _symmetry_equiv_pos_site_id
 _symmetry_equiv_pos_as_xyz
  1  'x, y, z'
loop_
 _atom_site_type_symbol
 _atom_site_label
 _atom_site_symmetry_multiplicity
 _atom_site_fract_x
 _atom_site_fract_y
 _atom_site_fract_z
 _atom_site_occupancy
  Nd  Nd0  1  0.094049  0.443265  0.325492  1
  Nd  Nd1  1  0.561183  0.905607  0.173578  1
  Nd  Nd2  1  0.905922  0.558273  0.674528  1
  Nd  Nd3  1  0.441051  0.094148  0.826354  1
  Re  Re4  1  0.195071  0.010744  0.411327  1
  Re  Re5  1  0.010448  0.195790  0.911573  1
  Re  Re6  1  0.804522  0.989444  0.588219  1
  Tc  Tc7  1  0.584121  0.415907  0.250432  1
  Tc  Tc8  1  0.416263  0.584102  0.750467  1
  Tc  Tc9  1  0.989331  0.803589  0.087539  1
  B  B10  1  0.239264  0.153043  0.132199  1
  B  B11  1  0.846256  0.756956  0.369952  1
  B  B12  1  0.757259  0.847529  0.867159  1
  B  B13  1  0.153701  0.241817  0.631601  1
  B  B14  1  0.583482  0.156980  0.482318  1
  B  B15  1  0.843221  0.417239  0.017744  1
  B  B16  1  0.415985  0.843048  0.517181  1
  B  B17  1  0.157773  0.582314  0.981743  1
  B  B18  1  0.440758  0.349765  0.532578  1
  B  B19  1  0.650892  0.559342  0.967614  1
  B  B20  1  0.559044  0.650186  0.467553  1
  B  B21  1  0.350405  0.440913  0.032850  1
