# generated using pymatgen
data_Ce3Dy(ScSb5)4
_symmetry_space_group_name_H-M   'P 1'
_cell_length_a   4.20149700
_cell_length_b   13.07487328
_cell_length_c   14.24259500
_cell_angle_alpha   78.64461783
_cell_angle_beta   90.00000000
_cell_angle_gamma   90.00000000
_symmetry_Int_Tables_number   1
_chemical_formula_structural   Ce3Dy(ScSb5)4
_chemical_formula_sum   'Ce3 Dy1 Sc4 Sb20'
_cell_volume   767.08759348
_cell_formula_units_Z   1
loop_
 _symmetry_equiv_pos_site_id
 _symmetry_equiv_pos_as_xyz
  1  'x, y, z'
loop_
 _atom_site_type_symbol
 _atom_site_label
 _atom_site_symmetry_multiplicity
 _atom_site_fract_x
 _atom_site_fract_y
 _atom_site_fract_z
 _atom_site_occupancy
  Ce  Ce0  1  0.250000  0.668052  0.577518  1
  Ce  Ce1  1  0.750000  0.330751  0.424167  1
  Ce  Ce2  1  0.250000  0.952990  0.353665  1
  Dy  Dy3  1  0.750000  0.047975  0.645310  1
  Sc  Sc4  1  0.250000  0.392591  0.774785  1
  Sc  Sc5  1  0.750000  0.605672  0.225589  1
  Sc  Sc6  1  0.250000  0.657811  0.860392  1
  Sc  Sc7  1  0.750000  0.344487  0.138739  1
  Sb  Sb8  1  0.250000  0.147677  0.780553  1
  Sb  Sb9  1  0.750000  0.849420  0.218895  1
  Sb  Sb10  1  0.250000  0.142786  0.483319  1
  Sb  Sb11  1  0.750000  0.856005  0.516615  1
  Sb  Sb12  1  0.250000  0.162979  0.156353  1
  Sb  Sb13  1  0.750000  0.838695  0.843390  1
  Sb  Sb14  1  0.250000  0.422339  0.976050  1
  Sb  Sb15  1  0.750000  0.578312  0.023330  1
  Sb  Sb16  1  0.750000  0.032679  0.915424  1
  Sb  Sb17  1  0.250000  0.967691  0.086399  1
  Sb  Sb18  1  0.750000  0.145558  0.307339  1
  Sb  Sb19  1  0.250000  0.857954  0.690893  1
  Sb  Sb20  1  0.750000  0.278829  0.937266  1
  Sb  Sb21  1  0.250000  0.721270  0.062571  1
  Sb  Sb22  1  0.750000  0.288948  0.660723  1
  Sb  Sb23  1  0.250000  0.710000  0.339305  1
  Sb  Sb24  1  0.750000  0.571711  0.742216  1
  Sb  Sb25  1  0.250000  0.427626  0.258412  1
  Sb  Sb26  1  0.750000  0.571302  0.444249  1
  Sb  Sb27  1  0.250000  0.427888  0.556534  1
