# generated using pymatgen
data_La2Cd(SbH)2
_symmetry_space_group_name_H-M   'P 1'
_cell_length_a   4.41374200
_cell_length_b   4.41374200
_cell_length_c   8.38595000
_cell_angle_alpha   90.00000000
_cell_angle_beta   90.00000000
_cell_angle_gamma   90.00000000
_symmetry_Int_Tables_number   1
_chemical_formula_structural   La2Cd(SbH)2
_chemical_formula_sum   'La2 Cd1 Sb2 H2'
_cell_volume   163.36768520
_cell_formula_units_Z   1
loop_
 _symmetry_equiv_pos_site_id
 _symmetry_equiv_pos_as_xyz
  1  'x, y, z'
loop_
 _atom_site_type_symbol
 _atom_site_label
 _atom_site_symmetry_multiplicity
 _atom_site_fract_x
 _atom_site_fract_y
 _atom_site_fract_z
 _atom_site_occupancy
  La  La0  1  0.500000  0.000000  0.639412  1
  La  La1  1  0.000000  0.500000  0.360588  1
  Cd  Cd2  1  0.500000  0.500000  0.000000  1
  Sb  Sb3  1  0.500000  0.000000  0.219260  1
  Sb  Sb4  1  0.000000  0.500000  0.780740  1
  H  H5  1  0.500000  0.500000  0.500000  1
  H  H6  1  0.000000  0.000000  0.500000  1
