# generated using pymatgen
data_Eu2Sn2IrRh
_symmetry_space_group_name_H-M   'P 1'
_cell_length_a   4.56131000
_cell_length_b   7.44001836
_cell_length_c   8.16535071
_cell_angle_alpha   89.32264659
_cell_angle_beta   90.00000000
_cell_angle_gamma   90.00000000
_symmetry_Int_Tables_number   1
_chemical_formula_structural   Eu2Sn2IrRh
_chemical_formula_sum   'Eu4 Sn4 Ir2 Rh2'
_cell_volume   277.08185723
_cell_formula_units_Z   2
loop_
 _symmetry_equiv_pos_site_id
 _symmetry_equiv_pos_as_xyz
  1  'x, y, z'
loop_
 _atom_site_type_symbol
 _atom_site_label
 _atom_site_symmetry_multiplicity
 _atom_site_fract_x
 _atom_site_fract_y
 _atom_site_fract_z
 _atom_site_occupancy
  Eu  Eu0  1  0.750000  0.471598  0.182932  1
  Eu  Eu1  1  0.250000  0.023903  0.680583  1
  Eu  Eu2  1  0.250000  0.528402  0.817068  1
  Eu  Eu3  1  0.750000  0.976097  0.319417  1
  Sn  Sn4  1  0.750000  0.344163  0.572145  1
  Sn  Sn5  1  0.250000  0.655837  0.427855  1
  Sn  Sn6  1  0.250000  0.156792  0.070559  1
  Sn  Sn7  1  0.750000  0.843208  0.929441  1
  Ir  Ir8  1  0.750000  0.717972  0.612063  1
  Ir  Ir9  1  0.250000  0.282028  0.387937  1
  Rh  Rh10  1  0.250000  0.785321  0.109507  1
  Rh  Rh11  1  0.750000  0.214679  0.890493  1
