# generated using pymatgen
data_Na3YbTa4O12
_symmetry_space_group_name_H-M   'P 1'
_cell_length_a   7.89975200
_cell_length_b   5.51872897
_cell_length_c   5.57373241
_cell_angle_alpha   90.14855054
_cell_angle_beta   90.00000000
_cell_angle_gamma   90.00000000
_symmetry_Int_Tables_number   1
_chemical_formula_structural   Na3YbTa4O12
_chemical_formula_sum   'Na3 Yb1 Ta4 O12'
_cell_volume   242.99491111
_cell_formula_units_Z   1
loop_
 _symmetry_equiv_pos_site_id
 _symmetry_equiv_pos_as_xyz
  1  'x, y, z'
loop_
 _atom_site_type_symbol
 _atom_site_label
 _atom_site_symmetry_multiplicity
 _atom_site_fract_x
 _atom_site_fract_y
 _atom_site_fract_z
 _atom_site_occupancy
  Na  Na0  1  0.000000  0.999039  0.018857  1
  Na  Na1  1  0.500000  0.497595  0.488891  1
  Na  Na2  1  0.500000  0.001655  0.984770  1
  Yb  Yb3  1  0.000000  0.499296  0.545581  1
  Ta  Ta4  1  0.250686  0.998618  0.498255  1
  Ta  Ta5  1  0.748913  0.500863  0.002487  1
  Ta  Ta6  1  0.749314  0.998618  0.498255  1
  Ta  Ta7  1  0.251087  0.500863  0.002487  1
  O  O8  1  0.278462  0.796465  0.203004  1
  O  O9  1  0.731272  0.700740  0.700372  1
  O  O10  1  0.787416  0.212926  0.784508  1
  O  O11  1  0.213981  0.300101  0.297645  1
  O  O12  1  0.212584  0.212926  0.784508  1
  O  O13  1  0.786019  0.300101  0.297645  1
  O  O14  1  0.721538  0.796465  0.203004  1
  O  O15  1  0.268728  0.700740  0.700372  1
  O  O16  1  0.000000  0.930786  0.482086  1
  O  O17  1  0.000000  0.557943  0.983008  1
  O  O18  1  0.500000  0.053044  0.514664  1
  O  O19  1  0.500000  0.441214  0.009604  1
