# generated using pymatgen
data_TbCeEr6(ReB6)4
_symmetry_space_group_name_H-M   'P 1'
_cell_length_a   3.67794500
_cell_length_b   9.15238957
_cell_length_c   11.53360607
_cell_angle_alpha   90.03670312
_cell_angle_beta   90.00000000
_cell_angle_gamma   90.00000000
_symmetry_Int_Tables_number   1
_chemical_formula_structural   TbCeEr6(ReB6)4
_chemical_formula_sum   'Tb1 Ce1 Er6 Re4 B24'
_cell_volume   388.24400019
_cell_formula_units_Z   1
loop_
 _symmetry_equiv_pos_site_id
 _symmetry_equiv_pos_as_xyz
  1  'x, y, z'
loop_
 _atom_site_type_symbol
 _atom_site_label
 _atom_site_symmetry_multiplicity
 _atom_site_fract_x
 _atom_site_fract_y
 _atom_site_fract_z
 _atom_site_occupancy
  Tb  Tb0  1  0.000000  0.677633  0.586796  1
  Ce  Ce1  1  0.000000  0.322893  0.413939  1
  Er  Er2  1  0.000000  0.823287  0.085454  1
  Er  Er3  1  0.000000  0.176140  0.914058  1
  Er  Er4  1  0.000000  0.942809  0.369671  1
  Er  Er5  1  0.000000  0.056409  0.630656  1
  Er  Er6  1  0.000000  0.443279  0.128738  1
  Er  Er7  1  0.000000  0.557038  0.870749  1
  Re  Re8  1  0.000000  0.638601  0.320165  1
  Re  Re9  1  0.000000  0.361028  0.679491  1
  Re  Re10  1  0.000000  0.138940  0.179184  1
  Re  Re11  1  0.000000  0.861727  0.821373  1
  B  B12  1  0.500000  0.553950  0.431986  1
  B  B13  1  0.500000  0.445953  0.568088  1
  B  B14  1  0.500000  0.053094  0.066510  1
  B  B15  1  0.500000  0.946988  0.933346  1
  B  B16  1  0.500000  0.750169  0.417883  1
  B  B17  1  0.500000  0.250348  0.582800  1
  B  B18  1  0.500000  0.249137  0.080432  1
  B  B19  1  0.500000  0.750540  0.919028  1
  B  B20  1  0.500000  0.792572  0.264886  1
  B  B21  1  0.500000  0.207583  0.735643  1
  B  B22  1  0.500000  0.291525  0.233525  1
  B  B23  1  0.500000  0.707904  0.765966  1
  B  B24  1  0.500000  0.631476  0.184363  1
  B  B25  1  0.500000  0.369337  0.815329  1
  B  B26  1  0.500000  0.130348  0.313728  1
  B  B27  1  0.500000  0.869536  0.686046  1
  B  B28  1  0.500000  0.981820  0.211355  1
  B  B29  1  0.500000  0.017999  0.788487  1
  B  B30  1  0.500000  0.483453  0.286925  1
  B  B31  1  0.500000  0.517679  0.713311  1
  B  B32  1  0.500000  0.600853  0.027811  1
  B  B33  1  0.500000  0.399471  0.971674  1
  B  B34  1  0.500000  0.098727  0.472470  1
  B  B35  1  0.500000  0.899752  0.528133  1
