# generated using pymatgen
data_EuLu(SeO3)3
_symmetry_space_group_name_H-M   'P 1'
_cell_length_a   7.10887409
_cell_length_b   8.15452874
_cell_length_c   9.13075730
_cell_angle_alpha   71.25045889
_cell_angle_beta   70.30102896
_cell_angle_gamma   66.11843394
_symmetry_Int_Tables_number   1
_chemical_formula_structural   EuLu(SeO3)3
_chemical_formula_sum   'Eu2 Lu2 Se6 O18'
_cell_volume   445.02197182
_cell_formula_units_Z   2
loop_
 _symmetry_equiv_pos_site_id
 _symmetry_equiv_pos_as_xyz
  1  'x, y, z'
loop_
 _atom_site_type_symbol
 _atom_site_label
 _atom_site_symmetry_multiplicity
 _atom_site_fract_x
 _atom_site_fract_y
 _atom_site_fract_z
 _atom_site_occupancy
  Eu  Eu0  1  0.258805  0.264148  0.199318  1
  Eu  Eu1  1  0.335365  0.725712  0.588460  1
  Lu  Lu2  1  0.664857  0.275738  0.407394  1
  Lu  Lu3  1  0.741836  0.735789  0.799611  1
  Se  Se4  1  0.113842  0.242411  0.584551  1
  Se  Se5  1  0.432972  0.769121  0.192783  1
  Se  Se6  1  0.147843  0.753253  0.963628  1
  Se  Se7  1  0.847069  0.256952  0.035135  1
  Se  Se8  1  0.578342  0.216570  0.798174  1
  Se  Se9  1  0.879336  0.767249  0.419715  1
  O  O10  1  0.157426  0.014830  0.654344  1
  O  O11  1  0.161382  0.574495  0.124688  1
  O  O12  1  0.027488  0.705753  0.559760  1
  O  O13  1  0.347665  0.252123  0.439956  1
  O  O14  1  0.062518  0.694000  0.836129  1
  O  O15  1  0.589862  0.294458  0.151466  1
  O  O16  1  0.351851  0.208329  0.940919  1
  O  O17  1  0.369962  0.935643  0.299376  1
  O  O18  1  0.525534  0.586293  0.343880  1
  O  O19  1  0.495195  0.394389  0.640044  1
  O  O20  1  0.645496  0.044058  0.698748  1
  O  O21  1  0.651092  0.789195  0.044492  1
  O  O22  1  0.409232  0.709329  0.853285  1
  O  O23  1  0.924362  0.310856  0.170451  1
  O  O24  1  0.655130  0.749421  0.571258  1
  O  O25  1  0.963243  0.293338  0.447955  1
  O  O26  1  0.828689  0.441004  0.879833  1
  O  O27  1  0.833607  0.995544  0.354648  1
