# generated using pymatgen
data_Zr2P3Ir4
_symmetry_space_group_name_H-M   'P 1'
_cell_length_a   12.78085000
_cell_length_b   12.78084969
_cell_length_c   3.94159900
_cell_angle_alpha   90.00000000
_cell_angle_beta   90.00000000
_cell_angle_gamma   119.99999563
_symmetry_Int_Tables_number   1
_chemical_formula_structural   Zr2P3Ir4
_chemical_formula_sum   'Zr8 P12 Ir16'
_cell_volume   557.59973034
_cell_formula_units_Z   4
loop_
 _symmetry_equiv_pos_site_id
 _symmetry_equiv_pos_as_xyz
  1  'x, y, z'
loop_
 _atom_site_type_symbol
 _atom_site_label
 _atom_site_symmetry_multiplicity
 _atom_site_fract_x
 _atom_site_fract_y
 _atom_site_fract_z
 _atom_site_occupancy
  Zr  Zr0  1  0.450929  0.450929  0.000000  1
  Zr  Zr1  1  0.549071  0.000000  0.000000  1
  Zr  Zr2  1  0.000000  0.549071  0.000000  1
  Zr  Zr3  1  0.666667  0.333333  0.000000  1
  Zr  Zr4  1  0.333333  0.666667  0.000000  1
  Zr  Zr5  1  0.821585  0.821585  0.500000  1
  Zr  Zr6  1  0.178415  0.000000  0.500000  1
  Zr  Zr7  1  0.000000  0.178415  0.500000  1
  P  P8  1  0.649371  0.649371  0.000000  1
  P  P9  1  0.350629  0.000000  0.000000  1
  P  P10  1  0.000000  0.350629  0.000000  1
  P  P11  1  0.483103  0.314401  0.500000  1
  P  P12  1  0.685599  0.168701  0.500000  1
  P  P13  1  0.831299  0.516897  0.500000  1
  P  P14  1  0.516897  0.831299  0.500000  1
  P  P15  1  0.168701  0.685599  0.500000  1
  P  P16  1  0.826556  0.000000  0.000000  1
  P  P17  1  0.000000  0.826556  0.000000  1
  P  P18  1  0.314401  0.483103  0.500000  1
  P  P19  1  0.173444  0.173444  0.000000  1
  Ir  Ir20  1  0.188085  0.366195  0.000000  1
  Ir  Ir21  1  0.178109  0.811915  0.000000  1
  Ir  Ir22  1  0.821891  0.633805  0.000000  1
  Ir  Ir23  1  0.811915  0.178109  0.000000  1
  Ir  Ir24  1  0.366195  0.188085  0.000000  1
  Ir  Ir25  1  0.140204  0.494757  0.500000  1
  Ir  Ir26  1  0.354553  0.859796  0.500000  1
  Ir  Ir27  1  0.505243  0.645447  0.500000  1
  Ir  Ir28  1  0.645447  0.505243  0.500000  1
  Ir  Ir29  1  0.859796  0.354553  0.500000  1
  Ir  Ir30  1  0.494757  0.140204  0.500000  1
  Ir  Ir31  1  0.000000  0.000000  0.000000  1
  Ir  Ir32  1  0.720386  0.000000  0.500000  1
  Ir  Ir33  1  0.000000  0.720386  0.500000  1
  Ir  Ir34  1  0.633805  0.821891  0.000000  1
  Ir  Ir35  1  0.279614  0.279614  0.500000  1
