# generated using pymatgen
data_Sr10SiTc3N14
_symmetry_space_group_name_H-M   'P 1'
_cell_length_a   6.43775050
_cell_length_b   9.15715558
_cell_length_c   9.21103476
_cell_angle_alpha   114.05819759
_cell_angle_beta   97.84024585
_cell_angle_gamma   89.98260463
_symmetry_Int_Tables_number   1
_chemical_formula_structural   Sr10SiTc3N14
_chemical_formula_sum   'Sr10 Si1 Tc3 N14'
_cell_volume   490.28054423
_cell_formula_units_Z   1
loop_
 _symmetry_equiv_pos_site_id
 _symmetry_equiv_pos_as_xyz
  1  'x, y, z'
loop_
 _atom_site_type_symbol
 _atom_site_label
 _atom_site_symmetry_multiplicity
 _atom_site_fract_x
 _atom_site_fract_y
 _atom_site_fract_z
 _atom_site_occupancy
  Sr  Sr0  1  0.850786  0.580717  0.340274  1
  Sr  Sr1  1  0.269248  0.000067  0.562332  1
  Sr  Sr2  1  0.703477  0.406198  0.840311  1
  Sr  Sr3  1  0.299414  0.581066  0.154086  1
  Sr  Sr4  1  0.404901  0.782117  0.907870  1
  Sr  Sr5  1  0.598625  0.210102  0.097839  1
  Sr  Sr6  1  0.147969  0.413611  0.655468  1
  Sr  Sr7  1  0.884915  0.848993  0.762457  1
  Sr  Sr8  1  0.111109  0.163119  0.246785  1
  Sr  Sr9  1  0.730510  0.029463  0.431252  1
  Si  Si10  1  0.575402  0.357329  0.473227  1
  Tc  Tc11  1  0.417007  0.655185  0.526754  1
  Tc  Tc12  1  0.122365  0.215734  0.913914  1
  Tc  Tc13  1  0.880928  0.777507  0.086547  1
  N  N14  1  0.550937  0.536174  0.652935  1
  N  N15  1  0.458560  0.441929  0.339925  1
  N  N16  1  0.156587  0.707325  0.580201  1
  N  N17  1  0.828150  0.304153  0.425925  1
  N  N18  1  0.419011  0.202768  0.478576  1
  N  N19  1  0.585885  0.811885  0.522233  1
  N  N20  1  0.951394  0.139824  0.716980  1
  N  N21  1  0.047746  0.853888  0.283810  1
  N  N22  1  0.227113  0.050436  0.962336  1
  N  N23  1  0.769015  0.945197  0.044080  1
  N  N24  1  0.353946  0.327031  0.903270  1
  N  N25  1  0.976127  0.345393  0.073917  1
  N  N26  1  0.027992  0.652892  0.924335  1
  N  N27  1  0.650880  0.659896  0.092359  1
