# generated using pymatgen
data_V10SiB4P
_symmetry_space_group_name_H-M   'P 1'
_cell_length_a   6.72317778
_cell_length_b   6.72317829
_cell_length_c   6.72317750
_cell_angle_alpha   129.27489634
_cell_angle_beta   129.27490184
_cell_angle_gamma   74.56864348
_symmetry_Int_Tables_number   1
_chemical_formula_structural   V10SiB4P
_chemical_formula_sum   'V10 Si1 B4 P1'
_cell_volume   177.45433296
_cell_formula_units_Z   1
loop_
 _symmetry_equiv_pos_site_id
 _symmetry_equiv_pos_as_xyz
  1  'x, y, z'
loop_
 _atom_site_type_symbol
 _atom_site_label
 _atom_site_symmetry_multiplicity
 _atom_site_fract_x
 _atom_site_fract_y
 _atom_site_fract_z
 _atom_site_occupancy
  V  V0  1  0.529364  0.690141  0.496426  1
  V  V1  1  0.032938  0.529364  0.839223  1
  V  V2  1  0.690141  0.193716  0.160777  1
  V  V3  1  0.970636  0.467062  0.160777  1
  V  V4  1  0.193716  0.032938  0.503574  1
  V  V5  1  0.467062  0.306284  0.496426  1
  V  V6  1  0.809859  0.970636  0.503574  1
  V  V7  1  0.306284  0.809859  0.839223  1
  V  V8  1  0.999995  0.999995  0.000000  1
  V  V9  1  0.500005  0.500005  0.000000  1
  Si  Si10  1  0.750000  0.750000  0.000000  1
  B  B11  1  0.614940  0.114940  0.729880  1
  B  B12  1  0.114940  0.385060  0.500000  1
  B  B13  1  0.885060  0.614940  0.500000  1
  B  B14  1  0.385060  0.885060  0.270120  1
  P  P15  1  0.250000  0.250000  0.000000  1
