# generated using pymatgen
data_YTm3(Sc3Pt4)2
_symmetry_space_group_name_H-M   'P 1'
_cell_length_a   7.31056431
_cell_length_b   7.36009329
_cell_length_c   13.86495814
_cell_angle_alpha   90.00948313
_cell_angle_beta   90.01289547
_cell_angle_gamma   90.03079768
_symmetry_Int_Tables_number   1
_chemical_formula_structural   YTm3(Sc3Pt4)2
_chemical_formula_sum   'Y2 Tm6 Sc12 Pt16'
_cell_volume   746.02383642
_cell_formula_units_Z   2
loop_
 _symmetry_equiv_pos_site_id
 _symmetry_equiv_pos_as_xyz
  1  'x, y, z'
loop_
 _atom_site_type_symbol
 _atom_site_label
 _atom_site_symmetry_multiplicity
 _atom_site_fract_x
 _atom_site_fract_y
 _atom_site_fract_z
 _atom_site_occupancy
  Y  Y0  1  0.006255  0.176844  0.094291  1
  Y  Y1  1  0.993745  0.823156  0.905709  1
  Tm  Tm2  1  0.493471  0.676575  0.905378  1
  Tm  Tm3  1  0.992993  0.823247  0.594604  1
  Tm  Tm4  1  0.506529  0.323425  0.094622  1
  Tm  Tm5  1  0.007007  0.176753  0.405396  1
  Tm  Tm6  1  0.506892  0.323197  0.405703  1
  Tm  Tm7  1  0.493108  0.676803  0.594297  1
  Sc  Sc8  1  0.165806  0.500466  0.749472  1
  Sc  Sc9  1  0.834194  0.499534  0.250528  1
  Sc  Sc10  1  0.334592  0.000674  0.250366  1
  Sc  Sc11  1  0.665408  0.999326  0.749634  1
  Sc  Sc12  1  0.333131  0.165609  0.623489  1
  Sc  Sc13  1  0.666869  0.834391  0.376511  1
  Sc  Sc14  1  0.167016  0.665555  0.376616  1
  Sc  Sc15  1  0.666159  0.833909  0.123889  1
  Sc  Sc16  1  0.832984  0.334445  0.623384  1
  Sc  Sc17  1  0.333841  0.166091  0.876111  1
  Sc  Sc18  1  0.832481  0.334984  0.875927  1
  Sc  Sc19  1  0.167519  0.665016  0.124073  1
  Pt  Pt20  1  0.030917  0.122693  0.749157  1
  Pt  Pt21  1  0.969083  0.877307  0.250843  1
  Pt  Pt22  1  0.470194  0.621825  0.250191  1
  Pt  Pt23  1  0.529806  0.378175  0.749809  1
  Pt  Pt24  1  0.297910  0.853734  0.749084  1
  Pt  Pt25  1  0.702090  0.146266  0.250916  1
  Pt  Pt26  1  0.205382  0.354415  0.251545  1
  Pt  Pt27  1  0.794618  0.645585  0.748455  1
  Pt  Pt28  1  0.175910  0.458864  0.542457  1
  Pt  Pt29  1  0.824090  0.541136  0.457543  1
  Pt  Pt30  1  0.324135  0.959101  0.457415  1
  Pt  Pt31  1  0.822796  0.541440  0.042603  1
  Pt  Pt32  1  0.675865  0.040899  0.542585  1
  Pt  Pt33  1  0.177204  0.458560  0.957397  1
  Pt  Pt34  1  0.673115  0.042575  0.957243  1
  Pt  Pt35  1  0.326885  0.957425  0.042757  1
