# generated using pymatgen
data_LaBPt2RhAu
_symmetry_space_group_name_H-M   'P 1'
_cell_length_a   5.59309541
_cell_length_b   5.53582381
_cell_length_c   7.70240600
_cell_angle_alpha   90.00000000
_cell_angle_beta   90.00000000
_cell_angle_gamma   119.66185430
_symmetry_Int_Tables_number   1
_chemical_formula_structural   LaBPt2RhAu
_chemical_formula_sum   'La2 B2 Pt4 Rh2 Au2'
_cell_volume   207.23412437
_cell_formula_units_Z   2
loop_
 _symmetry_equiv_pos_site_id
 _symmetry_equiv_pos_as_xyz
  1  'x, y, z'
loop_
 _atom_site_type_symbol
 _atom_site_label
 _atom_site_symmetry_multiplicity
 _atom_site_fract_x
 _atom_site_fract_y
 _atom_site_fract_z
 _atom_site_occupancy
  La  La0  1  0.000000  0.000000  0.500000  1
  La  La1  1  0.000000  0.000000  0.000000  1
  B  B2  1  0.324898  0.662449  0.000000  1
  B  B3  1  0.675102  0.337551  0.000000  1
  Pt  Pt4  1  0.500000  0.000000  0.195527  1
  Pt  Pt5  1  0.500000  0.000000  0.804473  1
  Pt  Pt6  1  0.500000  0.500000  0.195527  1
  Pt  Pt7  1  0.500000  0.500000  0.804473  1
  Rh  Rh8  1  0.000000  0.500000  0.190267  1
  Rh  Rh9  1  0.000000  0.500000  0.809733  1
  Au  Au10  1  0.327332  0.663666  0.500000  1
  Au  Au11  1  0.672668  0.336334  0.500000  1
