# generated using pymatgen
data_Lu16Tl2In4FePd
_symmetry_space_group_name_H-M   'P 1'
_cell_length_a   10.12931526
_cell_length_b   10.12931462
_cell_length_c   6.88526400
_cell_angle_alpha   90.01293626
_cell_angle_beta   89.98706374
_cell_angle_gamma   119.95269771
_symmetry_Int_Tables_number   1
_chemical_formula_structural   Lu16Tl2In4FePd
_chemical_formula_sum   'Lu16 Tl2 In4 Fe1 Pd1'
_cell_volume   612.09406900
_cell_formula_units_Z   1
loop_
 _symmetry_equiv_pos_site_id
 _symmetry_equiv_pos_as_xyz
  1  'x, y, z'
loop_
 _atom_site_type_symbol
 _atom_site_label
 _atom_site_symmetry_multiplicity
 _atom_site_fract_x
 _atom_site_fract_y
 _atom_site_fract_z
 _atom_site_occupancy
  Lu  Lu0  1  0.535563  0.071822  0.522024  1
  Lu  Lu1  1  0.928178  0.464437  0.522024  1
  Lu  Lu2  1  0.536233  0.463767  0.521400  1
  Lu  Lu3  1  0.473134  0.943622  0.026338  1
  Lu  Lu4  1  0.056378  0.526866  0.026338  1
  Lu  Lu5  1  0.471269  0.528731  0.027710  1
  Lu  Lu6  1  0.175955  0.350951  0.727173  1
  Lu  Lu7  1  0.649049  0.824045  0.727173  1
  Lu  Lu8  1  0.175048  0.824952  0.728008  1
  Lu  Lu9  1  0.821695  0.642487  0.229695  1
  Lu  Lu10  1  0.357513  0.178305  0.229695  1
  Lu  Lu11  1  0.821221  0.178779  0.232238  1
  Lu  Lu12  1  0.666901  0.333099  0.910092  1
  Lu  Lu13  1  0.333119  0.666881  0.397687  1
  Lu  Lu14  1  0.999371  0.000629  0.505848  1
  Lu  Lu15  1  0.998860  0.001140  0.009538  1
  Tl  Tl16  1  0.836945  0.673309  0.773604  1
  Tl  Tl17  1  0.326691  0.163055  0.773604  1
  In  In18  1  0.836806  0.163194  0.771420  1
  In  In19  1  0.162984  0.325616  0.268282  1
  In  In20  1  0.674384  0.837016  0.268282  1
  In  In21  1  0.162952  0.837048  0.267607  1
  Fe  Fe22  1  0.666442  0.333558  0.294520  1
  Pd  Pd23  1  0.333307  0.666693  0.795381  1
