# generated using pymatgen
data_Dy7Y(Sc3Pt4)4
_symmetry_space_group_name_H-M   'P 1'
_cell_length_a   7.28531705
_cell_length_b   7.30013504
_cell_length_c   14.16829406
_cell_angle_alpha   90.00589874
_cell_angle_beta   90.00834130
_cell_angle_gamma   90.01007190
_symmetry_Int_Tables_number   1
_chemical_formula_structural   Dy7Y(Sc3Pt4)4
_chemical_formula_sum   'Dy7 Y1 Sc12 Pt16'
_cell_volume   753.52366887
_cell_formula_units_Z   1
loop_
 _symmetry_equiv_pos_site_id
 _symmetry_equiv_pos_as_xyz
  1  'x, y, z'
loop_
 _atom_site_type_symbol
 _atom_site_label
 _atom_site_symmetry_multiplicity
 _atom_site_fract_x
 _atom_site_fract_y
 _atom_site_fract_z
 _atom_site_occupancy
  Dy  Dy0  1  0.003398  0.823378  0.406829  1
  Dy  Dy1  1  0.503305  0.676653  0.093106  1
  Dy  Dy2  1  0.496678  0.323372  0.593140  1
  Dy  Dy3  1  0.996683  0.176702  0.906877  1
  Dy  Dy4  1  0.996643  0.176610  0.593132  1
  Dy  Dy5  1  0.496634  0.323324  0.906868  1
  Dy  Dy6  1  0.503336  0.676683  0.406862  1
  Y  Y7  1  0.003550  0.823597  0.093054  1
  Sc  Sc8  1  0.678939  0.997484  0.249993  1
  Sc  Sc9  1  0.178893  0.502446  0.250028  1
  Sc  Sc10  1  0.821073  0.497520  0.749977  1
  Sc  Sc11  1  0.321092  0.002473  0.750011  1
  Sc  Sc12  1  0.654982  0.832719  0.624417  1
  Sc  Sc13  1  0.154976  0.667298  0.875621  1
  Sc  Sc14  1  0.845061  0.332671  0.375594  1
  Sc  Sc15  1  0.344971  0.167217  0.124417  1
  Sc  Sc16  1  0.344988  0.167230  0.375551  1
  Sc  Sc17  1  0.845037  0.332707  0.124427  1
  Sc  Sc18  1  0.154979  0.667310  0.624401  1
  Sc  Sc19  1  0.655041  0.832692  0.875619  1
  Pt  Pt20  1  0.814208  0.642638  0.250223  1
  Pt  Pt21  1  0.314642  0.857204  0.250079  1
  Pt  Pt22  1  0.685524  0.142840  0.749975  1
  Pt  Pt23  1  0.185520  0.357136  0.749985  1
  Pt  Pt24  1  0.542702  0.377655  0.250019  1
  Pt  Pt25  1  0.042739  0.122583  0.250121  1
  Pt  Pt26  1  0.957308  0.877584  0.749991  1
  Pt  Pt27  1  0.457308  0.622388  0.749993  1
  Pt  Pt28  1  0.820798  0.542094  0.541541  1
  Pt  Pt29  1  0.321011  0.958007  0.958364  1
  Pt  Pt30  1  0.679176  0.042085  0.458454  1
  Pt  Pt31  1  0.179345  0.457596  0.041479  1
  Pt  Pt32  1  0.179210  0.457922  0.458463  1
  Pt  Pt33  1  0.678777  0.042382  0.041490  1
  Pt  Pt34  1  0.320822  0.957930  0.541565  1
  Pt  Pt35  1  0.820653  0.541875  0.958333  1
