# generated using pymatgen
data_CaThMnIr3
_symmetry_space_group_name_H-M   'P 1'
_cell_length_a   5.54766877
_cell_length_b   5.54766839
_cell_length_c   5.24323206
_cell_angle_alpha   58.05996526
_cell_angle_beta   58.05996688
_cell_angle_gamma   59.99999569
_symmetry_Int_Tables_number   1
_chemical_formula_structural   CaThMnIr3
_chemical_formula_sum   'Ca1 Th1 Mn1 Ir3'
_cell_volume   110.64380793
_cell_formula_units_Z   1
loop_
 _symmetry_equiv_pos_site_id
 _symmetry_equiv_pos_as_xyz
  1  'x, y, z'
loop_
 _atom_site_type_symbol
 _atom_site_label
 _atom_site_symmetry_multiplicity
 _atom_site_fract_x
 _atom_site_fract_y
 _atom_site_fract_z
 _atom_site_occupancy
  Ca  Ca0  1  0.998895  0.998895  0.003313  1
  Th  Th1  1  0.250720  0.250720  0.247842  1
  Mn  Mn2  1  0.625301  0.625301  0.124096  1
  Ir  Ir3  1  0.625838  0.625838  0.624917  1
  Ir  Ir4  1  0.123408  0.625838  0.624917  1
  Ir  Ir5  1  0.625838  0.123408  0.624917  1
