# generated using pymatgen
data_Sm4Co2Ni5P12Ru13
_symmetry_space_group_name_H-M   'P 1'
_cell_length_a   3.83310600
_cell_length_b   10.72307173
_cell_length_c   12.21970662
_cell_angle_alpha   90.40608850
_cell_angle_beta   90.00000000
_cell_angle_gamma   90.00000000
_symmetry_Int_Tables_number   1
_chemical_formula_structural   Sm4Co2Ni5P12Ru13
_chemical_formula_sum   'Sm4 Co2 Ni5 P12 Ru13'
_cell_volume   502.24996046
_cell_formula_units_Z   1
loop_
 _symmetry_equiv_pos_site_id
 _symmetry_equiv_pos_as_xyz
  1  'x, y, z'
loop_
 _atom_site_type_symbol
 _atom_site_label
 _atom_site_symmetry_multiplicity
 _atom_site_fract_x
 _atom_site_fract_y
 _atom_site_fract_z
 _atom_site_occupancy
  Sm  Sm0  1  0.250000  0.585957  0.708127  1
  Sm  Sm1  1  0.250000  0.911909  0.205774  1
  Sm  Sm2  1  0.750000  0.413769  0.293834  1
  Sm  Sm3  1  0.750000  0.086365  0.793629  1
  Co  Co4  1  0.250000  0.039455  0.430839  1
  Co  Co5  1  0.750000  0.966333  0.559153  1
  Ni  Ni6  1  0.250000  0.608808  0.198361  1
  Ni  Ni7  1  0.750000  0.110499  0.302548  1
  Ni  Ni8  1  0.750000  0.388054  0.802721  1
  Ni  Ni9  1  0.250000  0.460185  0.932049  1
  Ni  Ni10  1  0.750000  0.536460  0.070181  1
  P  P11  1  0.250000  0.417937  0.109570  1
  P  P12  1  0.250000  0.078632  0.606951  1
  P  P13  1  0.750000  0.577618  0.892276  1
  P  P14  1  0.750000  0.921607  0.388014  1
  P  P15  1  0.250000  0.269119  0.873607  1
  P  P16  1  0.250000  0.229972  0.374790  1
  P  P17  1  0.750000  0.728632  0.125630  1
  P  P18  1  0.750000  0.776232  0.629565  1
  P  P19  1  0.250000  0.603205  0.390280  1
  P  P20  1  0.250000  0.896096  0.891190  1
  P  P21  1  0.750000  0.399275  0.609454  1
  P  P22  1  0.750000  0.102166  0.109101  1
  Ru  Ru23  1  0.250000  0.706872  0.990237  1
  Ru  Ru24  1  0.250000  0.796257  0.479576  1
  Ru  Ru25  1  0.750000  0.291694  0.015771  1
  Ru  Ru26  1  0.750000  0.209238  0.511803  1
  Ru  Ru27  1  0.250000  0.407618  0.488231  1
  Ru  Ru28  1  0.250000  0.094122  0.988727  1
  Ru  Ru29  1  0.750000  0.598233  0.513779  1
  Ru  Ru30  1  0.750000  0.905549  0.014328  1
  Ru  Ru31  1  0.250000  0.220116  0.182992  1
  Ru  Ru32  1  0.250000  0.278412  0.680262  1
  Ru  Ru33  1  0.750000  0.774769  0.824340  1
  Ru  Ru34  1  0.750000  0.721180  0.317527  1
  Ru  Ru35  1  0.250000  0.887657  0.694780  1
