# generated using pymatgen
data_AcU(PIr)2
_symmetry_space_group_name_H-M   'P 1'
_cell_length_a   4.15984500
_cell_length_b   8.16840179
_cell_length_c   7.12611850
_cell_angle_alpha   89.91490988
_cell_angle_beta   90.00000000
_cell_angle_gamma   90.00000000
_symmetry_Int_Tables_number   1
_chemical_formula_structural   AcU(PIr)2
_chemical_formula_sum   'Ac2 U2 P4 Ir4'
_cell_volume   242.14014703
_cell_formula_units_Z   2
loop_
 _symmetry_equiv_pos_site_id
 _symmetry_equiv_pos_as_xyz
  1  'x, y, z'
loop_
 _atom_site_type_symbol
 _atom_site_label
 _atom_site_symmetry_multiplicity
 _atom_site_fract_x
 _atom_site_fract_y
 _atom_site_fract_z
 _atom_site_occupancy
  Ac  Ac0  1  0.250000  0.499689  0.250419  1
  Ac  Ac1  1  0.750000  0.500311  0.749581  1
  U  U2  1  0.250000  0.999776  0.249637  1
  U  U3  1  0.750000  0.000224  0.750363  1
  P  P4  1  0.250000  0.753656  0.914827  1
  P  P5  1  0.750000  0.246344  0.085173  1
  P  P6  1  0.250000  0.246059  0.585120  1
  P  P7  1  0.750000  0.753941  0.414880  1
  Ir  Ir8  1  0.750000  0.799330  0.079078  1
  Ir  Ir9  1  0.250000  0.200670  0.920922  1
  Ir  Ir10  1  0.750000  0.199930  0.420905  1
  Ir  Ir11  1  0.250000  0.800070  0.579095  1
