# generated using pymatgen
data_Ho7Er3(SiSn3)2
_symmetry_space_group_name_H-M   'P 1'
_cell_length_a   9.17596300
_cell_length_b   9.17596320
_cell_length_c   6.40830500
_cell_angle_alpha   90.00000000
_cell_angle_beta   90.00000000
_cell_angle_gamma   120.00000290
_symmetry_Int_Tables_number   1
_chemical_formula_structural   Ho7Er3(SiSn3)2
_chemical_formula_sum   'Ho7 Er3 Si2 Sn6'
_cell_volume   467.27990969
_cell_formula_units_Z   1
loop_
 _symmetry_equiv_pos_site_id
 _symmetry_equiv_pos_as_xyz
  1  'x, y, z'
loop_
 _atom_site_type_symbol
 _atom_site_label
 _atom_site_symmetry_multiplicity
 _atom_site_fract_x
 _atom_site_fract_y
 _atom_site_fract_z
 _atom_site_occupancy
  Ho  Ho0  1  0.666667  0.333333  0.000000  1
  Ho  Ho1  1  0.746970  0.746993  0.750023  1
  Ho  Ho2  1  0.253007  0.999977  0.750023  1
  Ho  Ho3  1  0.000023  0.253030  0.750023  1
  Ho  Ho4  1  0.253007  0.253030  0.249977  1
  Ho  Ho5  1  0.746970  0.999977  0.249977  1
  Ho  Ho6  1  0.000023  0.746993  0.249977  1
  Er  Er7  1  0.333333  0.666667  0.000000  1
  Er  Er8  1  0.333333  0.666667  0.500000  1
  Er  Er9  1  0.666667  0.333333  0.500000  1
  Si  Si10  1  0.000000  0.000000  0.000000  1
  Si  Si11  1  0.000000  0.000000  0.500000  1
  Sn  Sn12  1  0.391453  0.391514  0.749979  1
  Sn  Sn13  1  0.608486  0.999939  0.749979  1
  Sn  Sn14  1  0.000061  0.608547  0.749979  1
  Sn  Sn15  1  0.608486  0.608547  0.250021  1
  Sn  Sn16  1  0.391453  0.999939  0.250021  1
  Sn  Sn17  1  0.000061  0.391514  0.250021  1
