# generated using pymatgen
data_Dy3Ho7(IrOs)2
_symmetry_space_group_name_H-M   'P 1'
_cell_length_a   6.43705637
_cell_length_b   7.28305487
_cell_length_c   8.41404355
_cell_angle_alpha   96.63022926
_cell_angle_beta   112.47408124
_cell_angle_gamma   90.00610906
_symmetry_Int_Tables_number   1
_chemical_formula_structural   Dy3Ho7(IrOs)2
_chemical_formula_sum   'Dy3 Ho7 Ir2 Os2'
_cell_volume   361.64534404
_cell_formula_units_Z   1
loop_
 _symmetry_equiv_pos_site_id
 _symmetry_equiv_pos_as_xyz
  1  'x, y, z'
loop_
 _atom_site_type_symbol
 _atom_site_label
 _atom_site_symmetry_multiplicity
 _atom_site_fract_x
 _atom_site_fract_y
 _atom_site_fract_z
 _atom_site_occupancy
  Dy  Dy0  1  0.969700  0.916404  0.180137  1
  Dy  Dy1  1  0.789635  0.583499  0.820044  1
  Dy  Dy2  1  0.026936  0.081346  0.816713  1
  Ho  Ho3  1  0.210163  0.418607  0.183248  1
  Ho  Ho4  1  0.653655  0.817162  0.440346  1
  Ho  Ho5  1  0.213178  0.682811  0.559446  1
  Ho  Ho6  1  0.348196  0.180920  0.561181  1
  Ho  Ho7  1  0.786937  0.319032  0.438660  1
  Ho  Ho8  1  0.426755  0.749898  0.000037  1
  Ho  Ho9  1  0.575896  0.250088  0.000154  1
  Ir  Ir10  1  0.173285  0.424802  0.779913  1
  Ir  Ir11  1  0.393070  0.075641  0.219924  1
  Os  Os12  1  0.825582  0.573191  0.218470  1
  Os  Os13  1  0.607013  0.926598  0.781726  1
