# generated using pymatgen
data_K2Hg2(TeO4)3
_symmetry_space_group_name_H-M   'P 1'
_cell_length_a   6.66731600
_cell_length_b   6.60758475
_cell_length_c   14.46648152
_cell_angle_alpha   70.92168651
_cell_angle_beta   90.00000000
_cell_angle_gamma   90.00000000
_symmetry_Int_Tables_number   1
_chemical_formula_structural   K2Hg2(TeO4)3
_chemical_formula_sum   'K4 Hg4 Te6 O24'
_cell_volume   602.31255263
_cell_formula_units_Z   2
loop_
 _symmetry_equiv_pos_site_id
 _symmetry_equiv_pos_as_xyz
  1  'x, y, z'
loop_
 _atom_site_type_symbol
 _atom_site_label
 _atom_site_symmetry_multiplicity
 _atom_site_fract_x
 _atom_site_fract_y
 _atom_site_fract_z
 _atom_site_occupancy
  K  K0  1  0.845498  0.862597  0.780335  1
  K  K1  1  0.654502  0.862597  0.280335  1
  K  K2  1  0.345498  0.137403  0.719665  1
  K  K3  1  0.154502  0.137403  0.219665  1
  Hg  Hg4  1  0.562623  0.288769  0.409319  1
  Hg  Hg5  1  0.937377  0.288769  0.909319  1
  Hg  Hg6  1  0.062623  0.711231  0.090681  1
  Hg  Hg7  1  0.437377  0.711231  0.590681  1
  Te  Te8  1  0.610511  0.432773  0.100361  1
  Te  Te9  1  0.110511  0.567227  0.399639  1
  Te  Te10  1  0.389489  0.567227  0.899639  1
  Te  Te11  1  0.500000  0.000000  0.000000  1
  Te  Te12  1  0.889489  0.432773  0.600361  1
  Te  Te13  1  0.000000  0.000000  0.500000  1
  O  O14  1  0.240387  0.985024  0.064923  1
  O  O15  1  0.875134  0.135851  0.589113  1
  O  O16  1  0.759613  0.014976  0.935077  1
  O  O17  1  0.894940  0.429201  0.120341  1
  O  O18  1  0.259613  0.985024  0.564923  1
  O  O19  1  0.086944  0.268013  0.397039  1
  O  O20  1  0.375134  0.864149  0.910887  1
  O  O21  1  0.333056  0.456015  0.045258  1
  O  O22  1  0.973524  0.308398  0.728757  1
  O  O23  1  0.413056  0.268013  0.897039  1
  O  O24  1  0.740387  0.014976  0.435077  1
  O  O25  1  0.624866  0.135851  0.089113  1
  O  O26  1  0.586944  0.731987  0.102961  1
  O  O27  1  0.526476  0.308398  0.228757  1
  O  O28  1  0.913056  0.731987  0.602961  1
  O  O29  1  0.473524  0.691602  0.771243  1
  O  O30  1  0.166944  0.456015  0.545258  1
  O  O31  1  0.394940  0.570799  0.379659  1
  O  O32  1  0.105060  0.570799  0.879659  1
  O  O33  1  0.124866  0.864149  0.410887  1
  O  O34  1  0.833056  0.543985  0.454742  1
  O  O35  1  0.666944  0.543985  0.954742  1
  O  O36  1  0.026476  0.691602  0.271243  1
  O  O37  1  0.605060  0.429201  0.620341  1
