# generated using pymatgen
data_Lu4Ge3P3Ir6Ru
_symmetry_space_group_name_H-M   'P 1'
_cell_length_a   7.10677641
_cell_length_b   7.10677646
_cell_length_c   7.14806800
_cell_angle_alpha   109.58895783
_cell_angle_beta   109.58895796
_cell_angle_gamma   109.35322298
_symmetry_Int_Tables_number   1
_chemical_formula_structural   Lu4Ge3P3Ir6Ru
_chemical_formula_sum   'Lu4 Ge3 P3 Ir6 Ru1'
_cell_volume   277.51023481
_cell_formula_units_Z   1
loop_
 _symmetry_equiv_pos_site_id
 _symmetry_equiv_pos_as_xyz
  1  'x, y, z'
loop_
 _atom_site_type_symbol
 _atom_site_label
 _atom_site_symmetry_multiplicity
 _atom_site_fract_x
 _atom_site_fract_y
 _atom_site_fract_z
 _atom_site_occupancy
  Lu  Lu0  1  0.000000  0.000000  0.459976  1
  Lu  Lu1  1  0.000000  0.517237  0.001911  1
  Lu  Lu2  1  0.517237  0.000000  0.001911  1
  Lu  Lu3  1  0.482763  0.482763  0.484673  1
  Ge  Ge4  1  0.297559  0.297559  0.989377  1
  Ge  Ge5  1  0.702441  0.000000  0.691818  1
  Ge  Ge6  1  0.000000  0.702441  0.691818  1
  P  P7  1  0.663614  0.663614  0.995487  1
  P  P8  1  0.336386  0.000000  0.331873  1
  P  P9  1  0.000000  0.336386  0.331873  1
  Ir  Ir10  1  0.751081  0.251761  0.498878  1
  Ir  Ir11  1  0.748239  0.499320  0.247117  1
  Ir  Ir12  1  0.500680  0.248919  0.747798  1
  Ir  Ir13  1  0.248919  0.500680  0.747798  1
  Ir  Ir14  1  0.251761  0.751081  0.498878  1
  Ir  Ir15  1  0.499320  0.748239  0.247117  1
  Ru  Ru16  1  0.000000  0.000000  0.031696  1
