# generated using pymatgen
data_Cs3(OsO4)2
_symmetry_space_group_name_H-M   'P 1'
_cell_length_a   6.58675167
_cell_length_b   6.58675118
_cell_length_c   8.77107543
_cell_angle_alpha   68.06018421
_cell_angle_beta   68.06018937
_cell_angle_gamma   60.44782145
_symmetry_Int_Tables_number   1
_chemical_formula_structural   Cs3(OsO4)2
_chemical_formula_sum   'Cs3 Os2 O8'
_cell_volume   298.48233148
_cell_formula_units_Z   1
loop_
 _symmetry_equiv_pos_site_id
 _symmetry_equiv_pos_as_xyz
  1  'x, y, z'
loop_
 _atom_site_type_symbol
 _atom_site_label
 _atom_site_symmetry_multiplicity
 _atom_site_fract_x
 _atom_site_fract_y
 _atom_site_fract_z
 _atom_site_occupancy
  Cs  Cs0  1  0.010059  0.989941  0.000000  1
  Cs  Cs1  1  0.194135  0.213793  0.389026  1
  Cs  Cs2  1  0.786207  0.805865  0.610974  1
  Os  Os3  1  0.393672  0.415755  0.777118  1
  Os  Os4  1  0.584245  0.606328  0.222882  1
  O  O5  1  0.264865  0.708391  0.303272  1
  O  O6  1  0.709000  0.284945  0.290606  1
  O  O7  1  0.719397  0.712606  0.302898  1
  O  O8  1  0.715055  0.291000  0.709394  1
  O  O9  1  0.291609  0.735135  0.696728  1
  O  O10  1  0.287394  0.280603  0.697102  1
  O  O11  1  0.273758  0.367398  0.000244  1
  O  O12  1  0.632602  0.726242  0.999756  1
