# generated using pymatgen
data_Ce2HgPdAu
_symmetry_space_group_name_H-M   'P 1'
_cell_length_a   7.99382200
_cell_length_b   7.99978100
_cell_length_c   3.81780200
_cell_angle_alpha   90.00000000
_cell_angle_beta   90.00000000
_cell_angle_gamma   90.00000000
_symmetry_Int_Tables_number   1
_chemical_formula_structural   Ce2HgPdAu
_chemical_formula_sum   'Ce4 Hg2 Pd2 Au2'
_cell_volume   244.14395333
_cell_formula_units_Z   2
loop_
 _symmetry_equiv_pos_site_id
 _symmetry_equiv_pos_as_xyz
  1  'x, y, z'
loop_
 _atom_site_type_symbol
 _atom_site_label
 _atom_site_symmetry_multiplicity
 _atom_site_fract_x
 _atom_site_fract_y
 _atom_site_fract_z
 _atom_site_occupancy
  Ce  Ce0  1  0.325034  0.183584  0.500000  1
  Ce  Ce1  1  0.825034  0.316416  0.500000  1
  Ce  Ce2  1  0.176255  0.665500  0.500000  1
  Ce  Ce3  1  0.676255  0.834500  0.500000  1
  Hg  Hg4  1  0.997714  0.005526  0.000000  1
  Hg  Hg5  1  0.497714  0.494474  0.000000  1
  Pd  Pd6  1  0.627039  0.128959  0.000000  1
  Pd  Pd7  1  0.127039  0.371041  0.000000  1
  Au  Au8  1  0.873958  0.622631  0.000000  1
  Au  Au9  1  0.373958  0.877369  0.000000  1
