# generated using pymatgen
data_Tm(ThH5)3
_symmetry_space_group_name_H-M   'P 1'
_cell_length_a   7.81104821
_cell_length_b   7.80590943
_cell_length_c   7.76699391
_cell_angle_alpha   109.44501205
_cell_angle_beta   109.47189444
_cell_angle_gamma   109.71204243
_symmetry_Int_Tables_number   1
_chemical_formula_structural   Tm(ThH5)3
_chemical_formula_sum   'Tm2 Th6 H30'
_cell_volume   363.58208583
_cell_formula_units_Z   2
loop_
 _symmetry_equiv_pos_site_id
 _symmetry_equiv_pos_as_xyz
  1  'x, y, z'
loop_
 _atom_site_type_symbol
 _atom_site_label
 _atom_site_symmetry_multiplicity
 _atom_site_fract_x
 _atom_site_fract_y
 _atom_site_fract_z
 _atom_site_occupancy
  Tm  Tm0  1  0.913038  0.914220  0.914891  1
  Tm  Tm1  1  0.498147  0.999329  0.085109  1
  Th  Th2  1  0.993192  0.079505  0.494255  1
  Th  Th3  1  0.085670  0.505180  0.001064  1
  Th  Th4  1  0.998937  0.585250  0.505745  1
  Th  Th5  1  0.584606  0.504117  0.998936  1
  Th  Th6  1  0.504813  0.998540  0.588572  1
  Th  Th7  1  0.416241  0.409967  0.411428  1
  H  H8  1  0.649894  0.965504  0.368583  1
  H  H9  1  0.218477  0.316293  0.846273  1
  H  H10  1  0.186016  0.403830  0.533568  1
  H  H11  1  0.094360  0.277256  0.123718  1
  H  H12  1  0.281043  0.120330  0.092043  1
  H  H13  1  0.122940  0.091834  0.273967  1
  H  H14  1  0.470642  0.153538  0.876282  1
  H  H15  1  0.719829  0.350071  0.814239  1
  H  H16  1  0.626997  0.377773  0.250281  1
  H  H17  1  0.250321  0.624444  0.376019  1
  H  H18  1  0.749625  0.873657  0.125201  1
  H  H19  1  0.124424  0.748456  0.874799  1
  H  H20  1  0.374303  0.248426  0.623981  1
  H  H21  1  0.876716  0.127492  0.749719  1
  H  H22  1  0.781311  0.596921  0.631417  1
  H  H23  1  0.318827  0.849777  0.220533  1
  H  H24  1  0.375389  0.660996  0.968831  1
  H  H25  1  0.964698  0.369422  0.651107  1
  H  H26  1  0.535171  0.183738  0.403494  1
  H  H27  1  0.405590  0.535831  0.185761  1
  H  H28  1  0.838215  0.216146  0.310391  1
  H  H29  1  0.906557  0.692164  0.031169  1
  H  H30  1  0.813592  0.718316  0.348893  1
  H  H31  1  0.152448  0.870262  0.466432  1
  H  H32  1  0.689000  0.028287  0.907957  1
  H  H33  1  0.348972  0.817867  0.726033  1
  H  H34  1  0.872204  0.470020  0.153727  1
  H  H35  1  0.631676  0.780244  0.596506  1
  H  H36  1  0.598294  0.629243  0.779467  1
  H  H37  1  0.027824  0.905755  0.689609  1
