# generated using pymatgen
data_Hf4Nb2Co4Si5As
_symmetry_space_group_name_H-M   'P 1'
_cell_length_a   3.84477400
_cell_length_b   5.25994471
_cell_length_c   12.65142100
_cell_angle_alpha   90.00000000
_cell_angle_beta   90.00000000
_cell_angle_gamma   111.43693155
_symmetry_Int_Tables_number   1
_chemical_formula_structural   Hf4Nb2Co4Si5As
_chemical_formula_sum   'Hf4 Nb2 Co4 Si5 As1'
_cell_volume   238.15363283
_cell_formula_units_Z   1
loop_
 _symmetry_equiv_pos_site_id
 _symmetry_equiv_pos_as_xyz
  1  'x, y, z'
loop_
 _atom_site_type_symbol
 _atom_site_label
 _atom_site_symmetry_multiplicity
 _atom_site_fract_x
 _atom_site_fract_y
 _atom_site_fract_z
 _atom_site_occupancy
  Hf  Hf0  1  0.074690  0.149381  0.384026  1
  Hf  Hf1  1  0.924105  0.848209  0.619190  1
  Hf  Hf2  1  0.074690  0.149381  0.115974  1
  Hf  Hf3  1  0.924105  0.848209  0.880810  1
  Nb  Nb4  1  0.371150  0.742299  0.250000  1
  Nb  Nb5  1  0.632658  0.265317  0.750000  1
  Co  Co6  1  0.218525  0.437051  0.920765  1
  Co  Co7  1  0.783029  0.566057  0.078294  1
  Co  Co8  1  0.218525  0.437051  0.579235  1
  Co  Co9  1  0.783029  0.566057  0.421706  1
  Si  Si10  1  0.390055  0.780109  0.455840  1
  Si  Si11  1  0.610402  0.220804  0.545695  1
  Si  Si12  1  0.390055  0.780109  0.044160  1
  Si  Si13  1  0.610402  0.220804  0.954305  1
  Si  Si14  1  0.324534  0.649069  0.750000  1
  As  As15  1  0.670046  0.340092  0.250000  1
