# generated using pymatgen
data_Nd8Ho12Si15Se
_symmetry_space_group_name_H-M   'P 1'
_cell_length_a   7.59170637
_cell_length_b   7.75301637
_cell_length_c   14.77628867
_cell_angle_alpha   89.84035221
_cell_angle_beta   86.99408872
_cell_angle_gamma   90.24583457
_symmetry_Int_Tables_number   1
_chemical_formula_structural   Nd8Ho12Si15Se
_chemical_formula_sum   'Nd8 Ho12 Si15 Se1'
_cell_volume   868.50346126
_cell_formula_units_Z   1
loop_
 _symmetry_equiv_pos_site_id
 _symmetry_equiv_pos_as_xyz
  1  'x, y, z'
loop_
 _atom_site_type_symbol
 _atom_site_label
 _atom_site_symmetry_multiplicity
 _atom_site_fract_x
 _atom_site_fract_y
 _atom_site_fract_z
 _atom_site_occupancy
  Nd  Nd0  1  0.999633  0.824748  0.100401  1
  Nd  Nd1  1  0.475731  0.680743  0.399195  1
  Nd  Nd2  1  0.496874  0.315843  0.900373  1
  Nd  Nd3  1  0.023505  0.179759  0.600596  1
  Nd  Nd4  1  0.003839  0.178085  0.901524  1
  Nd  Nd5  1  0.523321  0.318338  0.600008  1
  Nd  Nd6  1  0.494685  0.685426  0.100719  1
  Nd  Nd7  1  0.975998  0.817800  0.399623  1
  Ho  Ho8  1  0.666635  0.994547  0.246339  1
  Ho  Ho9  1  0.164768  0.505540  0.245184  1
  Ho  Ho10  1  0.835576  0.493362  0.748425  1
  Ho  Ho11  1  0.332210  0.006291  0.752785  1
  Ho  Ho12  1  0.647921  0.837106  0.878017  1
  Ho  Ho13  1  0.175896  0.676777  0.623333  1
  Ho  Ho14  1  0.849986  0.332745  0.119850  1
  Ho  Ho15  1  0.323698  0.176586  0.377307  1
  Ho  Ho16  1  0.349836  0.167571  0.121378  1
  Ho  Ho17  1  0.824954  0.322311  0.377331  1
  Ho  Ho18  1  0.155719  0.667020  0.881396  1
  Ho  Ho19  1  0.676528  0.822594  0.623390  1
  Si  Si20  1  0.782560  0.622232  0.250991  1
  Si  Si21  1  0.282143  0.876776  0.251719  1
  Si  Si22  1  0.716378  0.124643  0.749112  1
  Si  Si23  1  0.216082  0.376758  0.749637  1
  Si  Si24  1  0.040624  0.115105  0.251385  1
  Si  Si25  1  0.542263  0.385736  0.251177  1
  Si  Si26  1  0.459357  0.612942  0.750393  1
  Si  Si27  1  0.958775  0.883486  0.750606  1
  Si  Si28  1  0.357946  0.968717  0.541538  1
  Si  Si29  1  0.693348  0.039068  0.042174  1
  Si  Si30  1  0.143804  0.468782  0.459253  1
  Si  Si31  1  0.200827  0.462704  0.044668  1
  Si  Si32  1  0.643257  0.029357  0.458529  1
  Si  Si33  1  0.308957  0.963023  0.956178  1
  Si  Si34  1  0.857601  0.529055  0.541720  1
  Se  Se35  1  0.798764  0.538423  0.953743  1
