# generated using pymatgen
data_Na3Pd(NO3)8
_symmetry_space_group_name_H-M   'P 1'
_cell_length_a   7.96063130
_cell_length_b   7.96063076
_cell_length_c   7.96063000
_cell_angle_alpha   88.79436948
_cell_angle_beta   91.20562324
_cell_angle_gamma   88.79438456
_symmetry_Int_Tables_number   1
_chemical_formula_structural   Na3Pd(NO3)8
_chemical_formula_sum   'Na3 Pd1 N8 O24'
_cell_volume   504.13841406
_cell_formula_units_Z   1
loop_
 _symmetry_equiv_pos_site_id
 _symmetry_equiv_pos_as_xyz
  1  'x, y, z'
loop_
 _atom_site_type_symbol
 _atom_site_label
 _atom_site_symmetry_multiplicity
 _atom_site_fract_x
 _atom_site_fract_y
 _atom_site_fract_z
 _atom_site_occupancy
  Na  Na0  1  0.500000  0.500000  0.000000  1
  Na  Na1  1  0.500000  0.000000  0.500000  1
  Na  Na2  1  0.000000  0.000000  0.000000  1
  Pd  Pd3  1  0.000000  0.500000  0.500000  1
  N  N4  1  0.308462  0.356755  0.328570  1
  N  N5  1  0.333314  0.166686  0.833314  1
  N  N6  1  0.171430  0.808462  0.356755  1
  N  N7  1  0.856755  0.328570  0.191538  1
  N  N8  1  0.691538  0.643245  0.671430  1
  N  N9  1  0.143245  0.671430  0.808462  1
  N  N10  1  0.828570  0.191538  0.643245  1
  N  N11  1  0.666686  0.833314  0.166686  1
  O  O12  1  0.743529  0.323031  0.082315  1
  O  O13  1  0.176969  0.917685  0.243529  1
  O  O14  1  0.274119  0.791511  0.474543  1
  O  O15  1  0.236205  0.189769  0.953735  1
  O  O16  1  0.206481  0.343015  0.457718  1
  O  O17  1  0.417685  0.243529  0.323031  1
  O  O18  1  0.291511  0.474543  0.225881  1
  O  O19  1  0.156985  0.542282  0.706481  1
  O  O20  1  0.957718  0.293519  0.656985  1
  O  O21  1  0.689769  0.953735  0.263795  1
  O  O22  1  0.025457  0.774119  0.791511  1
  O  O23  1  0.546265  0.736205  0.189769  1
  O  O24  1  0.823031  0.082315  0.756471  1
  O  O25  1  0.725881  0.208489  0.525457  1
  O  O26  1  0.763795  0.810231  0.046265  1
  O  O27  1  0.256471  0.676969  0.917685  1
  O  O28  1  0.793519  0.656985  0.542282  1
  O  O29  1  0.582315  0.756471  0.676969  1
  O  O30  1  0.708489  0.525457  0.774119  1
  O  O31  1  0.843015  0.457718  0.293519  1
  O  O32  1  0.042282  0.706481  0.343015  1
  O  O33  1  0.310231  0.046265  0.736205  1
  O  O34  1  0.974543  0.225881  0.208489  1
  O  O35  1  0.453735  0.263795  0.810231  1
