# generated using pymatgen
data_Pr6In9Br
_symmetry_space_group_name_H-M   'P 1'
_cell_length_a   8.59673012
_cell_length_b   8.59673038
_cell_length_c   8.59673050
_cell_angle_alpha   119.33215568
_cell_angle_beta   119.33217006
_cell_angle_gamma   91.16068084
_symmetry_Int_Tables_number   1
_chemical_formula_structural   Pr6In9Br
_chemical_formula_sum   'Pr6 In9 Br1'
_cell_volume   453.68078416
_cell_formula_units_Z   1
loop_
 _symmetry_equiv_pos_site_id
 _symmetry_equiv_pos_as_xyz
  1  'x, y, z'
loop_
 _atom_site_type_symbol
 _atom_site_label
 _atom_site_symmetry_multiplicity
 _atom_site_fract_x
 _atom_site_fract_y
 _atom_site_fract_z
 _atom_site_occupancy
  Pr  Pr0  1  0.759106  0.759106  0.000000  1
  Pr  Pr1  1  0.240894  0.240894  0.000000  1
  Pr  Pr2  1  0.338664  0.842734  0.181397  1
  Pr  Pr3  1  0.661336  0.157266  0.818603  1
  Pr  Pr4  1  0.842734  0.661336  0.504070  1
  Pr  Pr5  1  0.157266  0.338664  0.495930  1
  In  In6  1  0.968226  0.455487  0.790893  1
  In  In7  1  0.664595  0.177333  0.209107  1
  In  In8  1  0.455487  0.664595  0.487262  1
  In  In9  1  0.177333  0.968226  0.512738  1
  In  In10  1  0.031774  0.544513  0.209107  1
  In  In11  1  0.335405  0.822667  0.790893  1
  In  In12  1  0.544513  0.335405  0.512738  1
  In  In13  1  0.822667  0.031774  0.487262  1
  In  In14  1  0.500000  0.500000  0.000000  1
  Br  Br15  1  0.000000  0.000000  0.000000  1
