# generated using pymatgen
data_Tm2Re2B4Ru3
_symmetry_space_group_name_H-M   'P 1'
_cell_length_a   3.08360200
_cell_length_b   8.71317000
_cell_length_c   10.17259413
_cell_angle_alpha   90.01093097
_cell_angle_beta   90.00000000
_cell_angle_gamma   90.00000000
_symmetry_Int_Tables_number   1
_chemical_formula_structural   Tm2Re2B4Ru3
_chemical_formula_sum   'Tm4 Re4 B8 Ru6'
_cell_volume   273.31672964
_cell_formula_units_Z   2
loop_
 _symmetry_equiv_pos_site_id
 _symmetry_equiv_pos_as_xyz
  1  'x, y, z'
loop_
 _atom_site_type_symbol
 _atom_site_label
 _atom_site_symmetry_multiplicity
 _atom_site_fract_x
 _atom_site_fract_y
 _atom_site_fract_z
 _atom_site_occupancy
  Tm  Tm0  1  0.500000  0.841927  0.181757  1
  Tm  Tm1  1  0.500000  0.158073  0.818243  1
  Tm  Tm2  1  0.500000  0.658047  0.681631  1
  Tm  Tm3  1  0.500000  0.341953  0.318369  1
  Re  Re4  1  0.000000  0.658580  0.953884  1
  Re  Re5  1  0.000000  0.341420  0.046116  1
  Re  Re6  1  0.000000  0.841465  0.453843  1
  Re  Re7  1  0.000000  0.158535  0.546157  1
  B  B8  1  0.500000  0.965378  0.588052  1
  B  B9  1  0.500000  0.034622  0.411948  1
  B  B10  1  0.500000  0.847102  0.902543  1
  B  B11  1  0.500000  0.152898  0.097457  1
  B  B12  1  0.500000  0.652909  0.402524  1
  B  B13  1  0.500000  0.347091  0.597476  1
  B  B14  1  0.500000  0.465541  0.911972  1
  B  B15  1  0.500000  0.534459  0.088028  1
  Ru  Ru16  1  0.000000  0.000000  0.000000  1
  Ru  Ru17  1  0.000000  0.404916  0.759619  1
  Ru  Ru18  1  0.000000  0.595084  0.240381  1
  Ru  Ru19  1  0.000000  0.500000  0.500000  1
  Ru  Ru20  1  0.000000  0.904849  0.740367  1
  Ru  Ru21  1  0.000000  0.095151  0.259633  1
