# generated using pymatgen
data_CrHg3F12
_symmetry_space_group_name_H-M   'P 1'
_cell_length_a   5.74848898
_cell_length_b   6.05620111
_cell_length_c   8.34868300
_cell_angle_alpha   95.70144157
_cell_angle_beta   91.58880029
_cell_angle_gamma   90.33739174
_symmetry_Int_Tables_number   1
_chemical_formula_structural   CrHg3F12
_chemical_formula_sum   'Cr1 Hg3 F12'
_cell_volume   289.09116284
_cell_formula_units_Z   1
loop_
 _symmetry_equiv_pos_site_id
 _symmetry_equiv_pos_as_xyz
  1  'x, y, z'
loop_
 _atom_site_type_symbol
 _atom_site_label
 _atom_site_symmetry_multiplicity
 _atom_site_fract_x
 _atom_site_fract_y
 _atom_site_fract_z
 _atom_site_occupancy
  Cr  Cr0  1  0.500000  0.500000  0.000000  1
  Hg  Hg1  1  0.000000  0.000000  0.000000  1
  Hg  Hg2  1  0.500000  0.500000  0.500000  1
  Hg  Hg3  1  0.000000  0.000000  0.500000  1
  F  F4  1  0.875841  0.998784  0.770438  1
  F  F5  1  0.203703  0.308937  0.551756  1
  F  F6  1  0.238960  0.622334  0.921730  1
  F  F7  1  0.364694  0.486217  0.192695  1
  F  F8  1  0.390780  0.228502  0.931724  1
  F  F9  1  0.306181  0.798499  0.544012  1
  F  F10  1  0.693819  0.201501  0.455988  1
  F  F11  1  0.609220  0.771498  0.068276  1
  F  F12  1  0.635306  0.513783  0.807305  1
  F  F13  1  0.761040  0.377666  0.078270  1
  F  F14  1  0.796297  0.691063  0.448244  1
  F  F15  1  0.124159  0.001216  0.229562  1
