# generated using pymatgen
data_TmZr(TaB4)2
_symmetry_space_group_name_H-M   'P 1'
_cell_length_a   3.13000200
_cell_length_b   3.13000229
_cell_length_c   14.09660400
_cell_angle_alpha   90.00000000
_cell_angle_beta   90.00000000
_cell_angle_gamma   120.00001810
_symmetry_Int_Tables_number   1
_chemical_formula_structural   TmZr(TaB4)2
_chemical_formula_sum   'Tm1 Zr1 Ta2 B8'
_cell_volume   119.60086542
_cell_formula_units_Z   1
loop_
 _symmetry_equiv_pos_site_id
 _symmetry_equiv_pos_as_xyz
  1  'x, y, z'
loop_
 _atom_site_type_symbol
 _atom_site_label
 _atom_site_symmetry_multiplicity
 _atom_site_fract_x
 _atom_site_fract_y
 _atom_site_fract_z
 _atom_site_occupancy
  Tm  Tm0  1  0.000000  0.000000  0.000000  1
  Zr  Zr1  1  0.000000  0.000000  0.500000  1
  Ta  Ta2  1  0.000000  0.000000  0.744148  1
  Ta  Ta3  1  0.000000  0.000000  0.255852  1
  B  B4  1  0.666667  0.333333  0.863462  1
  B  B5  1  0.666667  0.333333  0.627315  1
  B  B6  1  0.666667  0.333333  0.372685  1
  B  B7  1  0.666667  0.333333  0.136538  1
  B  B8  1  0.333333  0.666667  0.863462  1
  B  B9  1  0.333333  0.666667  0.627315  1
  B  B10  1  0.333333  0.666667  0.372685  1
  B  B11  1  0.333333  0.666667  0.136538  1
