# generated using pymatgen
data_Zr2Si7Rh12
_symmetry_space_group_name_H-M   'P 1'
_cell_length_a   9.67497000
_cell_length_b   9.67496981
_cell_length_c   3.81532700
_cell_angle_alpha   90.00000000
_cell_angle_beta   90.00000000
_cell_angle_gamma   120.00000750
_symmetry_Int_Tables_number   1
_chemical_formula_structural   Zr2Si7Rh12
_chemical_formula_sum   'Zr2 Si7 Rh12'
_cell_volume   309.28696022
_cell_formula_units_Z   1
loop_
 _symmetry_equiv_pos_site_id
 _symmetry_equiv_pos_as_xyz
  1  'x, y, z'
loop_
 _atom_site_type_symbol
 _atom_site_label
 _atom_site_symmetry_multiplicity
 _atom_site_fract_x
 _atom_site_fract_y
 _atom_site_fract_z
 _atom_site_occupancy
  Zr  Zr0  1  0.333333  0.666667  0.751390  1
  Zr  Zr1  1  0.666667  0.333333  0.248610  1
  Si  Si2  1  0.000000  0.000000  0.500000  1
  Si  Si3  1  0.405523  0.290427  0.750822  1
  Si  Si4  1  0.709573  0.115095  0.750822  1
  Si  Si5  1  0.884905  0.594477  0.750822  1
  Si  Si6  1  0.594477  0.709573  0.249178  1
  Si  Si7  1  0.290427  0.884905  0.249178  1
  Si  Si8  1  0.115095  0.405523  0.249178  1
  Rh  Rh9  1  0.446206  0.066226  0.752141  1
  Rh  Rh10  1  0.933774  0.379979  0.752141  1
  Rh  Rh11  1  0.620021  0.553794  0.752141  1
  Rh  Rh12  1  0.553794  0.933774  0.247859  1
  Rh  Rh13  1  0.066226  0.620021  0.247859  1
  Rh  Rh14  1  0.379979  0.446206  0.247859  1
  Rh  Rh15  1  0.144837  0.264938  0.745864  1
  Rh  Rh16  1  0.735062  0.879900  0.745864  1
  Rh  Rh17  1  0.120100  0.855163  0.745864  1
  Rh  Rh18  1  0.855163  0.735062  0.254136  1
  Rh  Rh19  1  0.264938  0.120100  0.254136  1
  Rh  Rh20  1  0.879900  0.144837  0.254136  1
