# generated using pymatgen
data_Tb2Ho2Ni13Ge
_symmetry_space_group_name_H-M   'P 1'
_cell_length_a   4.91846805
_cell_length_b   4.99016381
_cell_length_c   12.47313127
_cell_angle_alpha   78.46091625
_cell_angle_beta   78.65962463
_cell_angle_gamma   59.51661784
_symmetry_Int_Tables_number   1
_chemical_formula_structural   Tb2Ho2Ni13Ge
_chemical_formula_sum   'Tb2 Ho2 Ni13 Ge1'
_cell_volume   256.84506109
_cell_formula_units_Z   1
loop_
 _symmetry_equiv_pos_site_id
 _symmetry_equiv_pos_as_xyz
  1  'x, y, z'
loop_
 _atom_site_type_symbol
 _atom_site_label
 _atom_site_symmetry_multiplicity
 _atom_site_fract_x
 _atom_site_fract_y
 _atom_site_fract_z
 _atom_site_occupancy
  Tb  Tb0  1  0.947374  0.947384  0.157857  1
  Tb  Tb1  1  0.052626  0.052616  0.842143  1
  Ho  Ho2  1  0.853505  0.851954  0.442587  1
  Ho  Ho3  1  0.146495  0.148046  0.557413  1
  Ni  Ni4  1  0.500000  0.500000  0.500000  1
  Ni  Ni5  1  0.724206  0.721658  0.832478  1
  Ni  Ni6  1  0.275794  0.278342  0.167522  1
  Ni  Ni7  1  0.613238  0.609832  0.167097  1
  Ni  Ni8  1  0.386762  0.390168  0.832903  1
  Ni  Ni9  1  0.500000  0.000000  0.000000  1
  Ni  Ni10  1  0.500000  0.500000  0.000000  1
  Ni  Ni11  1  0.390498  0.389624  0.329822  1
  Ni  Ni12  1  0.891557  0.388240  0.331965  1
  Ni  Ni13  1  0.390498  0.890058  0.329822  1
  Ni  Ni14  1  0.609502  0.610376  0.670178  1
  Ni  Ni15  1  0.108443  0.611760  0.668035  1
  Ni  Ni16  1  0.609502  0.109942  0.670178  1
  Ge  Ge17  1  0.000000  0.500000  0.000000  1
