# generated using pymatgen
data_PrTm2Cd(Ir2O7)2
_symmetry_space_group_name_H-M   'P 1'
_cell_length_a   7.19832233
_cell_length_b   7.34418046
_cell_length_c   7.29345200
_cell_angle_alpha   60.22822981
_cell_angle_beta   59.56186222
_cell_angle_gamma   59.57633039
_symmetry_Int_Tables_number   1
_chemical_formula_structural   PrTm2Cd(Ir2O7)2
_chemical_formula_sum   'Pr1 Tm2 Cd1 Ir4 O14'
_cell_volume   271.31058646
_cell_formula_units_Z   1
loop_
 _symmetry_equiv_pos_site_id
 _symmetry_equiv_pos_as_xyz
  1  'x, y, z'
loop_
 _atom_site_type_symbol
 _atom_site_label
 _atom_site_symmetry_multiplicity
 _atom_site_fract_x
 _atom_site_fract_y
 _atom_site_fract_z
 _atom_site_occupancy
  Pr  Pr0  1  0.125000  0.625000  0.125000  1
  Tm  Tm1  1  0.125000  0.125000  0.625000  1
  Tm  Tm2  1  0.125000  0.125000  0.125000  1
  Cd  Cd3  1  0.625000  0.125000  0.125000  1
  Ir  Ir4  1  0.625000  0.625000  0.625000  1
  Ir  Ir5  1  0.125000  0.625000  0.625000  1
  Ir  Ir6  1  0.625000  0.125000  0.625000  1
  Ir  Ir7  1  0.625000  0.625000  0.125000  1
  O  O8  1  0.963938  0.527439  0.549066  1
  O  O9  1  0.287135  0.289879  0.711492  1
  O  O10  1  0.963938  0.527439  0.959557  1
  O  O11  1  0.714246  0.295234  0.296809  1
  O  O12  1  0.550457  0.543801  0.952871  1
  O  O13  1  0.535754  0.954766  0.556289  1
  O  O14  1  0.535754  0.954766  0.953191  1
  O  O15  1  0.248121  0.235068  0.258405  1
  O  O16  1  0.286062  0.722561  0.700934  1
  O  O17  1  0.714246  0.295234  0.693711  1
  O  O18  1  0.001879  0.014932  0.991595  1
  O  O19  1  0.962865  0.960121  0.538508  1
  O  O20  1  0.286062  0.722561  0.290443  1
  O  O21  1  0.699543  0.706199  0.297129  1
