# generated using pymatgen
data_CaNdAl16Pt9
_symmetry_space_group_name_H-M   'P 1'
_cell_length_a   11.20836687
_cell_length_b   11.20836812
_cell_length_c   11.20836700
_cell_angle_alpha   158.47545685
_cell_angle_beta   115.34420864
_cell_angle_gamma   69.00319721
_symmetry_Int_Tables_number   1
_chemical_formula_structural   CaNdAl16Pt9
_chemical_formula_sum   'Ca1 Nd1 Al16 Pt9'
_cell_volume   463.50979300
_cell_formula_units_Z   1
loop_
 _symmetry_equiv_pos_site_id
 _symmetry_equiv_pos_as_xyz
  1  'x, y, z'
loop_
 _atom_site_type_symbol
 _atom_site_label
 _atom_site_symmetry_multiplicity
 _atom_site_fract_x
 _atom_site_fract_y
 _atom_site_fract_z
 _atom_site_occupancy
  Ca  Ca0  1  0.228453  0.228453  0.000000  1
  Nd  Nd1  1  0.772170  0.772170  0.000000  1
  Al  Al2  1  0.272511  0.391416  0.881095  1
  Al  Al3  1  0.092088  0.919972  0.172117  1
  Al  Al4  1  0.511812  0.204463  0.307351  1
  Al  Al5  1  0.251343  0.079833  0.171511  1
  Al  Al6  1  0.913623  0.413623  0.500000  1
  Al  Al7  1  0.726234  0.607911  0.118322  1
  Al  Al8  1  0.897112  0.204463  0.692649  1
  Al  Al9  1  0.489258  0.795433  0.693824  1
  Al  Al10  1  0.385303  0.000599  0.384704  1
  Al  Al11  1  0.615895  0.000599  0.615296  1
  Al  Al12  1  0.489588  0.607911  0.881678  1
  Al  Al13  1  0.101608  0.795433  0.306176  1
  Al  Al14  1  0.908322  0.079833  0.828489  1
  Al  Al15  1  0.747856  0.919972  0.827883  1
  Al  Al16  1  0.510321  0.391416  0.118905  1
  Al  Al17  1  0.086187  0.586187  0.500000  1
  Pt  Pt18  1  0.747892  0.499902  0.247991  1
  Pt  Pt19  1  0.026338  0.340132  0.686207  1
  Pt  Pt20  1  0.624621  0.124621  0.500000  1
  Pt  Pt21  1  0.251911  0.499902  0.752009  1
  Pt  Pt22  1  0.376904  0.876904  0.500000  1
  Pt  Pt23  1  0.999267  0.999267  0.000000  1
  Pt  Pt24  1  0.653925  0.340132  0.313793  1
  Pt  Pt25  1  0.347157  0.659728  0.687429  1
  Pt  Pt26  1  0.972299  0.659728  0.312571  1
