# generated using pymatgen
data_Sm8Hf3Zr9Sn16
_symmetry_space_group_name_H-M   'P 1'
_cell_length_a   7.81684008
_cell_length_b   7.86797408
_cell_length_c   14.79193400
_cell_angle_alpha   90.00000000
_cell_angle_beta   90.00000000
_cell_angle_gamma   89.98329137
_symmetry_Int_Tables_number   1
_chemical_formula_structural   Sm8Hf3Zr9Sn16
_chemical_formula_sum   'Sm8 Hf3 Zr9 Sn16'
_cell_volume   909.74376939
_cell_formula_units_Z   1
loop_
 _symmetry_equiv_pos_site_id
 _symmetry_equiv_pos_as_xyz
  1  'x, y, z'
loop_
 _atom_site_type_symbol
 _atom_site_label
 _atom_site_symmetry_multiplicity
 _atom_site_fract_x
 _atom_site_fract_y
 _atom_site_fract_z
 _atom_site_occupancy
  Sm  Sm0  1  0.509982  0.323523  0.907385  1
  Sm  Sm1  1  0.010438  0.176601  0.592517  1
  Sm  Sm2  1  0.489419  0.676387  0.407402  1
  Sm  Sm3  1  0.989500  0.823992  0.092648  1
  Sm  Sm4  1  0.489419  0.676387  0.092598  1
  Sm  Sm5  1  0.989500  0.823992  0.407352  1
  Sm  Sm6  1  0.509982  0.323523  0.592615  1
  Sm  Sm7  1  0.010438  0.176601  0.907483  1
  Hf  Hf8  1  0.667077  0.989159  0.750000  1
  Hf  Hf9  1  0.832836  0.488419  0.250000  1
  Hf  Hf10  1  0.332680  0.010942  0.250000  1
  Zr  Zr11  1  0.345903  0.838149  0.870648  1
  Zr  Zr12  1  0.845494  0.661835  0.629360  1
  Zr  Zr13  1  0.654386  0.161642  0.370227  1
  Zr  Zr14  1  0.154596  0.338544  0.130063  1
  Zr  Zr15  1  0.654386  0.161642  0.129773  1
  Zr  Zr16  1  0.154596  0.338544  0.369937  1
  Zr  Zr17  1  0.345903  0.838149  0.629352  1
  Zr  Zr18  1  0.845494  0.661835  0.870640  1
  Zr  Zr19  1  0.167536  0.509958  0.750000  1
  Sn  Sn20  1  0.315823  0.041669  0.043987  1
  Sn  Sn21  1  0.816230  0.458220  0.456217  1
  Sn  Sn22  1  0.684270  0.958656  0.543797  1
  Sn  Sn23  1  0.183964  0.542118  0.957044  1
  Sn  Sn24  1  0.684270  0.958656  0.956203  1
  Sn  Sn25  1  0.183964  0.542118  0.542956  1
  Sn  Sn26  1  0.315823  0.041669  0.456013  1
  Sn  Sn27  1  0.816230  0.458220  0.043783  1
  Sn  Sn28  1  0.540317  0.618573  0.750000  1
  Sn  Sn29  1  0.039198  0.882499  0.750000  1
  Sn  Sn30  1  0.460816  0.382148  0.250000  1
  Sn  Sn31  1  0.960548  0.117691  0.250000  1
  Sn  Sn32  1  0.314921  0.152354  0.750000  1
  Sn  Sn33  1  0.812714  0.345637  0.750000  1
  Sn  Sn34  1  0.685635  0.845411  0.250000  1
  Sn  Sn35  1  0.185712  0.654537  0.250000  1
