# generated using pymatgen
data_Tb2SiPd14
_symmetry_space_group_name_H-M   'P 1'
_cell_length_a   8.92470300
_cell_length_b   8.92470300
_cell_length_c   7.11370500
_cell_angle_alpha   90.00000000
_cell_angle_beta   90.00000000
_cell_angle_gamma   90.00000000
_symmetry_Int_Tables_number   1
_chemical_formula_structural   Tb2SiPd14
_chemical_formula_sum   'Tb4 Si2 Pd28'
_cell_volume   566.60890552
_cell_formula_units_Z   2
loop_
 _symmetry_equiv_pos_site_id
 _symmetry_equiv_pos_as_xyz
  1  'x, y, z'
loop_
 _atom_site_type_symbol
 _atom_site_label
 _atom_site_symmetry_multiplicity
 _atom_site_fract_x
 _atom_site_fract_y
 _atom_site_fract_z
 _atom_site_occupancy
  Tb  Tb0  1  0.500000  0.000000  0.936097  1
  Tb  Tb1  1  0.000000  0.500000  0.063903  1
  Tb  Tb2  1  0.000000  0.000000  0.500000  1
  Tb  Tb3  1  0.500000  0.500000  0.500000  1
  Si  Si4  1  0.500000  0.000000  0.448820  1
  Si  Si5  1  0.000000  0.500000  0.551180  1
  Pd  Pd6  1  0.334623  0.834623  0.616358  1
  Pd  Pd7  1  0.334623  0.165377  0.616358  1
  Pd  Pd8  1  0.665377  0.834623  0.616358  1
  Pd  Pd9  1  0.665377  0.165377  0.616358  1
  Pd  Pd10  1  0.165377  0.665377  0.383642  1
  Pd  Pd11  1  0.165377  0.334623  0.383642  1
  Pd  Pd12  1  0.834623  0.665377  0.383642  1
  Pd  Pd13  1  0.834623  0.334623  0.383642  1
  Pd  Pd14  1  0.500000  0.770237  0.256802  1
  Pd  Pd15  1  0.500000  0.229763  0.256802  1
  Pd  Pd16  1  0.270237  0.000000  0.256802  1
  Pd  Pd17  1  0.729763  0.000000  0.256802  1
  Pd  Pd18  1  0.000000  0.729763  0.743198  1
  Pd  Pd19  1  0.000000  0.270237  0.743198  1
  Pd  Pd20  1  0.229763  0.500000  0.743198  1
  Pd  Pd21  1  0.770237  0.500000  0.743198  1
  Pd  Pd22  1  0.500000  0.348814  0.853906  1
  Pd  Pd23  1  0.500000  0.651186  0.853906  1
  Pd  Pd24  1  0.848814  0.000000  0.853906  1
  Pd  Pd25  1  0.151186  0.000000  0.853906  1
  Pd  Pd26  1  0.000000  0.151186  0.146094  1
  Pd  Pd27  1  0.000000  0.848814  0.146094  1
  Pd  Pd28  1  0.651186  0.500000  0.146094  1
  Pd  Pd29  1  0.348814  0.500000  0.146094  1
  Pd  Pd30  1  0.250000  0.750000  0.000000  1
  Pd  Pd31  1  0.250000  0.250000  0.000000  1
  Pd  Pd32  1  0.750000  0.750000  0.000000  1
  Pd  Pd33  1  0.750000  0.250000  0.000000  1
