# generated using pymatgen
data_Tm3Ta5(CoB6)4
_symmetry_space_group_name_H-M   'P 1'
_cell_length_a   3.31632900
_cell_length_b   8.86930522
_cell_length_c   11.18245093
_cell_angle_alpha   89.92583534
_cell_angle_beta   90.00000000
_cell_angle_gamma   90.00000000
_symmetry_Int_Tables_number   1
_chemical_formula_structural   Tm3Ta5(CoB6)4
_chemical_formula_sum   'Tm3 Ta5 Co4 B24'
_cell_volume   328.91512618
_cell_formula_units_Z   1
loop_
 _symmetry_equiv_pos_site_id
 _symmetry_equiv_pos_as_xyz
  1  'x, y, z'
loop_
 _atom_site_type_symbol
 _atom_site_label
 _atom_site_symmetry_multiplicity
 _atom_site_fract_x
 _atom_site_fract_y
 _atom_site_fract_z
 _atom_site_occupancy
  Tm  Tm0  1  0.000000  0.821824  0.087143  1
  Tm  Tm1  1  0.000000  0.177030  0.912461  1
  Tm  Tm2  1  0.000000  0.325156  0.414165  1
  Ta  Ta3  1  0.000000  0.676767  0.586973  1
  Ta  Ta4  1  0.000000  0.446375  0.129091  1
  Ta  Ta5  1  0.000000  0.555331  0.868533  1
  Ta  Ta6  1  0.000000  0.943267  0.373369  1
  Ta  Ta7  1  0.000000  0.053118  0.628378  1
  Co  Co8  1  0.000000  0.143314  0.182371  1
  Co  Co9  1  0.000000  0.853476  0.815018  1
  Co  Co10  1  0.000000  0.643510  0.323393  1
  Co  Co11  1  0.000000  0.360536  0.680221  1
  B  B12  1  0.500000  0.053787  0.066874  1
  B  B13  1  0.500000  0.945683  0.933151  1
  B  B14  1  0.500000  0.555243  0.438072  1
  B  B15  1  0.500000  0.449839  0.565479  1
  B  B16  1  0.500000  0.252412  0.082505  1
  B  B17  1  0.500000  0.748128  0.916937  1
  B  B18  1  0.500000  0.751228  0.422220  1
  B  B19  1  0.500000  0.247394  0.582361  1
  B  B20  1  0.500000  0.298294  0.238022  1
  B  B21  1  0.500000  0.702150  0.759707  1
  B  B22  1  0.500000  0.796339  0.264203  1
  B  B23  1  0.500000  0.201552  0.736031  1
  B  B24  1  0.500000  0.130508  0.318379  1
  B  B25  1  0.500000  0.866661  0.679751  1
  B  B26  1  0.500000  0.630647  0.181680  1
  B  B27  1  0.500000  0.368982  0.816804  1
  B  B28  1  0.500000  0.483443  0.287524  1
  B  B29  1  0.500000  0.519730  0.709950  1
  B  B30  1  0.500000  0.981737  0.214005  1
  B  B31  1  0.500000  0.016599  0.786725  1
  B  B32  1  0.500000  0.101721  0.473558  1
  B  B33  1  0.500000  0.897825  0.526866  1
  B  B34  1  0.500000  0.600352  0.025379  1
  B  B35  1  0.500000  0.400045  0.972703  1
