# generated using pymatgen
data_UMoP3O13
_symmetry_space_group_name_H-M   'P 1'
_cell_length_a   6.68970473
_cell_length_b   7.73181014
_cell_length_c   11.88341300
_cell_angle_alpha   76.15776356
_cell_angle_beta   86.45607144
_cell_angle_gamma   78.61689306
_symmetry_Int_Tables_number   1
_chemical_formula_structural   UMoP3O13
_chemical_formula_sum   'U2 Mo2 P6 O26'
_cell_volume   584.99321365
_cell_formula_units_Z   2
loop_
 _symmetry_equiv_pos_site_id
 _symmetry_equiv_pos_as_xyz
  1  'x, y, z'
loop_
 _atom_site_type_symbol
 _atom_site_label
 _atom_site_symmetry_multiplicity
 _atom_site_fract_x
 _atom_site_fract_y
 _atom_site_fract_z
 _atom_site_occupancy
  U  U0  1  0.204172  0.200753  0.095235  1
  U  U1  1  0.236324  0.213893  0.601464  1
  Mo  Mo2  1  0.757632  0.803553  0.401368  1
  Mo  Mo3  1  0.796685  0.783922  0.904640  1
  P  P4  1  0.116781  0.485259  0.312595  1
  P  P5  1  0.254734  0.801770  0.337719  1
  P  P6  1  0.272780  0.912286  0.888983  1
  P  P7  1  0.732916  0.045534  0.112961  1
  P  P8  1  0.739180  0.208813  0.680491  1
  P  P9  1  0.868845  0.544674  0.679376  1
  O  O10  1  0.130447  0.394685  0.211239  1
  O  O11  1  0.075424  0.804931  0.422949  1
  O  O12  1  0.094148  0.457244  0.650429  1
  O  O13  1  0.235754  0.080561  0.782374  1
  O  O14  1  0.103399  0.803578  0.892524  1
  O  O15  1  0.235945  0.358119  0.417691  1
  O  O16  1  0.241459  0.650413  0.266803  1
  O  O17  1  0.205683  0.371432  0.960680  1
  O  O18  1  0.259943  0.989815  0.999665  1
  O  O19  1  0.232109  0.984238  0.244353  1
  O  O20  1  0.331238  0.996517  0.566747  1
  O  O21  1  0.525396  0.174521  0.119639  1
  O  O22  1  0.464715  0.754455  0.391239  1
  O  O23  1  0.535212  0.277053  0.617330  1
  O  O24  1  0.485720  0.798106  0.879506  1
  O  O25  1  0.698650  0.012038  0.430654  1
  O  O26  1  0.745263  0.039372  0.773445  1
  O  O27  1  0.735705  0.963413  0.008434  1
  O  O28  1  0.817375  0.595798  0.014222  1
  O  O29  1  0.764953  0.372462  0.739550  1
  O  O30  1  0.756605  0.644161  0.568276  1
  O  O31  1  0.893045  0.170528  0.095967  1
  O  O32  1  0.771896  0.897432  0.224650  1
  O  O33  1  0.900927  0.560283  0.347435  1
  O  O34  1  0.915957  0.193777  0.591296  1
  O  O35  1  0.862983  0.654616  0.768067  1
