# generated using pymatgen
data_La2Nd2Zn10GaSn
_symmetry_space_group_name_H-M   'P 1'
_cell_length_a   8.54431200
_cell_length_b   8.54431105
_cell_length_c   9.05747700
_cell_angle_alpha   90.00000000
_cell_angle_beta   90.00000000
_cell_angle_gamma   149.24726969
_symmetry_Int_Tables_number   1
_chemical_formula_structural   La2Nd2Zn10GaSn
_chemical_formula_sum   'La2 Nd2 Zn10 Ga1 Sn1'
_cell_volume   338.11628846
_cell_formula_units_Z   1
loop_
 _symmetry_equiv_pos_site_id
 _symmetry_equiv_pos_as_xyz
  1  'x, y, z'
loop_
 _atom_site_type_symbol
 _atom_site_label
 _atom_site_symmetry_multiplicity
 _atom_site_fract_x
 _atom_site_fract_y
 _atom_site_fract_z
 _atom_site_occupancy
  La  La0  1  0.000064  0.999936  0.491418  1
  La  La1  1  0.000064  0.999936  0.008582  1
  Nd  Nd2  1  0.202720  0.797280  0.250000  1
  Nd  Nd3  1  0.794879  0.205121  0.750000  1
  Zn  Zn4  1  0.812058  0.187942  0.391202  1
  Zn  Zn5  1  0.186807  0.813193  0.606578  1
  Zn  Zn6  1  0.812058  0.187942  0.108798  1
  Zn  Zn7  1  0.186807  0.813193  0.893422  1
  Zn  Zn8  1  0.650588  0.349412  0.478374  1
  Zn  Zn9  1  0.344366  0.655634  0.512694  1
  Zn  Zn10  1  0.650588  0.349412  0.021626  1
  Zn  Zn11  1  0.344366  0.655634  0.987306  1
  Zn  Zn12  1  0.404328  0.595672  0.250000  1
  Zn  Zn13  1  0.606155  0.393845  0.750000  1
  Ga  Ga14  1  0.559921  0.440079  0.250000  1
  Sn  Sn15  1  0.444232  0.555768  0.750000  1
