# generated using pymatgen
data_HoTm4Os2C7
_symmetry_space_group_name_H-M   'P 1'
_cell_length_a   8.08664930
_cell_length_b   8.08665080
_cell_length_c   3.47299200
_cell_angle_alpha   90.00000000
_cell_angle_beta   90.00000000
_cell_angle_gamma   121.56809824
_symmetry_Int_Tables_number   1
_chemical_formula_structural   HoTm4Os2C7
_chemical_formula_sum   'Ho1 Tm4 Os2 C7'
_cell_volume   193.50408316
_cell_formula_units_Z   1
loop_
 _symmetry_equiv_pos_site_id
 _symmetry_equiv_pos_as_xyz
  1  'x, y, z'
loop_
 _atom_site_type_symbol
 _atom_site_label
 _atom_site_symmetry_multiplicity
 _atom_site_fract_x
 _atom_site_fract_y
 _atom_site_fract_z
 _atom_site_occupancy
  Ho  Ho0  1  0.500000  0.500000  0.000000  1
  Tm  Tm1  1  0.078073  0.338806  0.500000  1
  Tm  Tm2  1  0.921927  0.661194  0.500000  1
  Tm  Tm3  1  0.661194  0.921927  0.500000  1
  Tm  Tm4  1  0.338806  0.078073  0.500000  1
  Os  Os5  1  0.714753  0.285247  0.000000  1
  Os  Os6  1  0.285247  0.714753  0.000000  1
  C  C7  1  0.630953  0.369047  0.500000  1
  C  C8  1  0.369047  0.630953  0.500000  1
  C  C9  1  0.000000  0.000000  0.000000  1
  C  C10  1  0.172217  0.172217  0.000000  1
  C  C11  1  0.827783  0.827783  0.000000  1
  C  C12  1  0.000000  0.500000  0.000000  1
  C  C13  1  0.500000  0.000000  0.000000  1
