# generated using pymatgen
data_Nd4AlSi3Pd8
_symmetry_space_group_name_H-M   'P 1'
_cell_length_a   5.73321919
_cell_length_b   7.01587900
_cell_length_c   7.57722265
_cell_angle_alpha   90.00000000
_cell_angle_beta   89.52487753
_cell_angle_gamma   90.00000000
_symmetry_Int_Tables_number   1
_chemical_formula_structural   Nd4AlSi3Pd8
_chemical_formula_sum   'Nd4 Al1 Si3 Pd8'
_cell_volume   304.77248281
_cell_formula_units_Z   1
loop_
 _symmetry_equiv_pos_site_id
 _symmetry_equiv_pos_as_xyz
  1  'x, y, z'
loop_
 _atom_site_type_symbol
 _atom_site_label
 _atom_site_symmetry_multiplicity
 _atom_site_fract_x
 _atom_site_fract_y
 _atom_site_fract_z
 _atom_site_occupancy
  Nd  Nd0  1  0.353194  0.750000  0.032289  1
  Nd  Nd1  1  0.143129  0.750000  0.528423  1
  Nd  Nd2  1  0.648822  0.250000  0.966118  1
  Nd  Nd3  1  0.855271  0.250000  0.470563  1
  Al  Al4  1  0.150362  0.250000  0.122089  1
  Si  Si5  1  0.647319  0.750000  0.378364  1
  Si  Si6  1  0.851715  0.750000  0.876406  1
  Si  Si7  1  0.353667  0.250000  0.624596  1
  Pd  Pd8  1  0.899822  0.554148  0.173658  1
  Pd  Pd9  1  0.592826  0.946164  0.676252  1
  Pd  Pd10  1  0.091796  0.051662  0.821942  1
  Pd  Pd11  1  0.413816  0.448122  0.328725  1
  Pd  Pd12  1  0.091796  0.448338  0.821942  1
  Pd  Pd13  1  0.413816  0.051878  0.328725  1
  Pd  Pd14  1  0.899822  0.945852  0.173658  1
  Pd  Pd15  1  0.592826  0.553836  0.676252  1
