# generated using pymatgen
data_Na20Zr2SnGeAs12
_symmetry_space_group_name_H-M   'P 1'
_cell_length_a   7.64314413
_cell_length_b   8.53995932
_cell_length_c   16.24303012
_cell_angle_alpha   57.66823436
_cell_angle_beta   89.79850295
_cell_angle_gamma   90.01655889
_symmetry_Int_Tables_number   1
_chemical_formula_structural   Na20Zr2SnGeAs12
_chemical_formula_sum   'Na20 Zr2 Sn1 Ge1 As12'
_cell_volume   895.83852376
_cell_formula_units_Z   1
loop_
 _symmetry_equiv_pos_site_id
 _symmetry_equiv_pos_as_xyz
  1  'x, y, z'
loop_
 _atom_site_type_symbol
 _atom_site_label
 _atom_site_symmetry_multiplicity
 _atom_site_fract_x
 _atom_site_fract_y
 _atom_site_fract_z
 _atom_site_occupancy
  Na  Na0  1  0.159536  0.991644  0.582327  1
  Na  Na1  1  0.487499  0.914237  0.757979  1
  Na  Na2  1  0.990047  0.078693  0.745415  1
  Na  Na3  1  0.511484  0.086370  0.240054  1
  Na  Na4  1  0.009731  0.913853  0.259544  1
  Na  Na5  1  0.028948  0.589556  0.585904  1
  Na  Na6  1  0.529807  0.412725  0.914463  1
  Na  Na7  1  0.959759  0.411329  0.413093  1
  Na  Na8  1  0.459172  0.589386  0.085641  1
  Na  Na9  1  0.526391  0.749323  0.588587  1
  Na  Na10  1  0.025500  0.252240  0.911518  1
  Na  Na11  1  0.483572  0.254540  0.409270  1
  Na  Na12  1  0.856496  0.687215  0.744093  1
  Na  Na13  1  0.353226  0.311767  0.757982  1
  Na  Na14  1  0.146946  0.317652  0.259181  1
  Na  Na15  1  0.646883  0.683165  0.239499  1
  Na  Na16  1  0.844206  0.012128  0.415462  1
  Na  Na17  1  0.343094  0.989153  0.083221  1
  Na  Na18  1  0.659654  0.005707  0.918870  1
  Na  Na19  1  0.983967  0.744536  0.089510  1
  Zr  Zr20  1  0.862571  0.352308  0.080462  1
  Zr  Zr21  1  0.360091  0.650401  0.418100  1
  Sn  Sn22  1  0.639430  0.344405  0.585369  1
  Ge  Ge23  1  0.136550  0.652712  0.916079  1
  As  As24  1  0.760597  0.361808  0.231788  1
  As  As25  1  0.707204  0.676477  0.422205  1
  As  As26  1  0.207625  0.339300  0.069289  1
  As  As27  1  0.283005  0.324785  0.575875  1
  As  As28  1  0.799450  0.678985  0.922927  1
  As  As29  1  0.764136  0.061145  0.579824  1
  As  As30  1  0.259638  0.922388  0.919698  1
  As  As31  1  0.238427  0.935121  0.420461  1
  As  As32  1  0.738517  0.066403  0.079231  1
  As  As33  1  0.740277  0.367582  0.733992  1
  As  As34  1  0.236052  0.631577  0.775467  1
  As  As35  1  0.260511  0.639382  0.267621  1
