# generated using pymatgen
data_Ca20Cd5Hg7
_symmetry_space_group_name_H-M   'P 1'
_cell_length_a   8.25831137
_cell_length_b   8.25815937
_cell_length_c   14.91658300
_cell_angle_alpha   90.00173353
_cell_angle_beta   90.00103670
_cell_angle_gamma   89.88216469
_symmetry_Int_Tables_number   1
_chemical_formula_structural   Ca20Cd5Hg7
_chemical_formula_sum   'Ca20 Cd5 Hg7'
_cell_volume   1017.28570844
_cell_formula_units_Z   1
loop_
 _symmetry_equiv_pos_site_id
 _symmetry_equiv_pos_as_xyz
  1  'x, y, z'
loop_
 _atom_site_type_symbol
 _atom_site_label
 _atom_site_symmetry_multiplicity
 _atom_site_fract_x
 _atom_site_fract_y
 _atom_site_fract_z
 _atom_site_occupancy
  Ca  Ca0  1  0.665956  0.165620  0.100971  1
  Ca  Ca1  1  0.165236  0.664429  0.603326  1
  Ca  Ca2  1  0.332872  0.835613  0.101005  1
  Ca  Ca3  1  0.834810  0.335516  0.603325  1
  Ca  Ca4  1  0.837252  0.664271  0.101408  1
  Ca  Ca5  1  0.335290  0.165468  0.603142  1
  Ca  Ca6  1  0.164161  0.334284  0.102120  1
  Ca  Ca7  1  0.664610  0.834636  0.602996  1
  Ca  Ca8  1  0.836376  0.334780  0.897613  1
  Ca  Ca9  1  0.333623  0.834064  0.398083  1
  Ca  Ca10  1  0.163695  0.665171  0.897611  1
  Ca  Ca11  1  0.665174  0.167110  0.398051  1
  Ca  Ca12  1  0.665358  0.836181  0.897963  1
  Ca  Ca13  1  0.165719  0.335058  0.396942  1
  Ca  Ca14  1  0.334532  0.163933  0.897803  1
  Ca  Ca15  1  0.835741  0.663517  0.397677  1
  Ca  Ca16  1  0.499953  0.499976  0.752634  1
  Ca  Ca17  1  0.002136  0.000826  0.250159  1
  Ca  Ca18  1  0.000023  0.000051  0.749848  1
  Ca  Ca19  1  0.499156  0.497824  0.247346  1
  Cd  Cd20  1  0.499984  0.500136  0.500077  1
  Cd  Cd21  1  0.499982  0.500155  0.999930  1
  Cd  Cd22  1  0.999868  0.000015  0.500080  1
  Cd  Cd23  1  0.630471  0.869264  0.249295  1
  Cd  Cd24  1  0.999851  0.000030  0.999917  1
  Hg  Hg25  1  0.634044  0.134240  0.750693  1
  Hg  Hg26  1  0.134237  0.634210  0.249303  1
  Hg  Hg27  1  0.865565  0.366020  0.249303  1
  Hg  Hg28  1  0.365974  0.865745  0.750693  1
  Hg  Hg29  1  0.865523  0.634240  0.750694  1
  Hg  Hg30  1  0.368352  0.131859  0.249302  1
  Hg  Hg31  1  0.134475  0.365759  0.750692  1
