# generated using pymatgen
data_BaSr(AuF7)2
_symmetry_space_group_name_H-M   'P 1'
_cell_length_a   5.03796001
_cell_length_b   7.89536785
_cell_length_c   8.18561800
_cell_angle_alpha   105.77014628
_cell_angle_beta   96.18458593
_cell_angle_gamma   93.11598658
_symmetry_Int_Tables_number   1
_chemical_formula_structural   BaSr(AuF7)2
_chemical_formula_sum   'Ba1 Sr1 Au2 F14'
_cell_volume   310.32393612
_cell_formula_units_Z   1
loop_
 _symmetry_equiv_pos_site_id
 _symmetry_equiv_pos_as_xyz
  1  'x, y, z'
loop_
 _atom_site_type_symbol
 _atom_site_label
 _atom_site_symmetry_multiplicity
 _atom_site_fract_x
 _atom_site_fract_y
 _atom_site_fract_z
 _atom_site_occupancy
  Ba  Ba0  1  0.849758  0.654561  0.194355  1
  Sr  Sr1  1  0.286780  0.340034  0.835262  1
  Au  Au2  1  0.636502  0.813407  0.701629  1
  Au  Au3  1  0.328972  0.190348  0.295948  1
  F  F4  1  0.155711  0.183565  0.068140  1
  F  F5  1  0.436594  0.800086  0.479423  1
  F  F6  1  0.490061  0.207415  0.529587  1
  F  F7  1  0.454141  0.015802  0.819192  1
  F  F8  1  0.481628  0.968960  0.198039  1
  F  F9  1  0.370648  0.648282  0.749860  1
  F  F10  1  0.844227  0.821818  0.920358  1
  F  F11  1  0.326014  0.572845  0.092053  1
  F  F12  1  0.029227  0.046210  0.336739  1
  F  F13  1  0.170913  0.409718  0.394253  1
  F  F14  1  0.785891  0.407426  0.902913  1
  F  F15  1  0.817636  0.615917  0.577465  1
  F  F16  1  0.633119  0.327586  0.251525  1
  F  F17  1  0.902180  0.976019  0.653262  1
