# generated using pymatgen
data_Er4Tm4Sc12Si15Au
_symmetry_space_group_name_H-M   'P 1'
_cell_length_a   7.08697371
_cell_length_b   7.34867444
_cell_length_c   14.00139301
_cell_angle_alpha   89.93420559
_cell_angle_beta   89.66841600
_cell_angle_gamma   90.16406501
_symmetry_Int_Tables_number   1
_chemical_formula_structural   Er4Tm4Sc12Si15Au
_chemical_formula_sum   'Er4 Tm4 Sc12 Si15 Au1'
_cell_volume   729.17492854
_cell_formula_units_Z   1
loop_
 _symmetry_equiv_pos_site_id
 _symmetry_equiv_pos_as_xyz
  1  'x, y, z'
loop_
 _atom_site_type_symbol
 _atom_site_label
 _atom_site_symmetry_multiplicity
 _atom_site_fract_x
 _atom_site_fract_y
 _atom_site_fract_z
 _atom_site_occupancy
  Er  Er0  1  0.012546  0.176089  0.097280  1
  Er  Er1  1  0.987271  0.824387  0.903702  1
  Er  Er2  1  0.487291  0.677530  0.903560  1
  Er  Er3  1  0.988046  0.826960  0.597500  1
  Tm  Tm4  1  0.512141  0.322952  0.096531  1
  Tm  Tm5  1  0.010915  0.174956  0.400150  1
  Tm  Tm6  1  0.509598  0.324024  0.401308  1
  Tm  Tm7  1  0.490807  0.676365  0.598646  1
  Sc  Sc8  1  0.162700  0.502213  0.751063  1
  Sc  Sc9  1  0.837502  0.497604  0.250769  1
  Sc  Sc10  1  0.338225  0.001714  0.249423  1
  Sc  Sc11  1  0.663445  0.995409  0.750677  1
  Sc  Sc12  1  0.337703  0.175958  0.625724  1
  Sc  Sc13  1  0.666840  0.823443  0.373675  1
  Sc  Sc14  1  0.169151  0.673810  0.373326  1
  Sc  Sc15  1  0.670046  0.824078  0.125350  1
  Sc  Sc16  1  0.828413  0.325436  0.625451  1
  Sc  Sc17  1  0.328940  0.175469  0.875794  1
  Sc  Sc18  1  0.830249  0.322668  0.875721  1
  Sc  Sc19  1  0.169365  0.676783  0.125204  1
  Si  Si20  1  0.034382  0.116804  0.750678  1
  Si  Si21  1  0.967076  0.886231  0.249291  1
  Si  Si22  1  0.467092  0.613482  0.248465  1
  Si  Si23  1  0.534300  0.386638  0.752162  1
  Si  Si24  1  0.284634  0.871864  0.750730  1
  Si  Si25  1  0.713678  0.130059  0.249123  1
  Si  Si26  1  0.214810  0.369016  0.248043  1
  Si  Si27  1  0.786668  0.629221  0.752504  1
  Si  Si28  1  0.834012  0.536127  0.459536  1
  Si  Si29  1  0.339779  0.964045  0.459983  1
  Si  Si30  1  0.842319  0.535002  0.038985  1
  Si  Si31  1  0.659028  0.035407  0.537980  1
  Si  Si32  1  0.157231  0.464801  0.961665  1
  Si  Si33  1  0.658094  0.034543  0.961145  1
  Si  Si34  1  0.342175  0.964955  0.039317  1
  Au  Au35  1  0.163528  0.463958  0.539540  1
