# generated using pymatgen
data_TbErLu3Sn4
_symmetry_space_group_name_H-M   'P 1'
_cell_length_a   7.92511400
_cell_length_b   8.05508200
_cell_length_c   15.21745100
_cell_angle_alpha   90.00000000
_cell_angle_beta   90.00000000
_cell_angle_gamma   90.00000000
_symmetry_Int_Tables_number   1
_chemical_formula_structural   TbErLu3Sn4
_chemical_formula_sum   'Tb4 Er4 Lu12 Sn16'
_cell_volume   971.44316279
_cell_formula_units_Z   4
loop_
 _symmetry_equiv_pos_site_id
 _symmetry_equiv_pos_as_xyz
  1  'x, y, z'
loop_
 _atom_site_type_symbol
 _atom_site_label
 _atom_site_symmetry_multiplicity
 _atom_site_fract_x
 _atom_site_fract_y
 _atom_site_fract_z
 _atom_site_occupancy
  Tb  Tb0  1  0.478848  0.679575  0.096821  1
  Tb  Tb1  1  0.978848  0.820425  0.403179  1
  Tb  Tb2  1  0.521152  0.320425  0.596821  1
  Tb  Tb3  1  0.021152  0.179575  0.903179  1
  Er  Er4  1  0.521395  0.320384  0.902745  1
  Er  Er5  1  0.021395  0.179616  0.597255  1
  Er  Er6  1  0.478605  0.679616  0.402745  1
  Er  Er7  1  0.978605  0.820384  0.097255  1
  Lu  Lu8  1  0.367150  0.836398  0.877255  1
  Lu  Lu9  1  0.867150  0.663602  0.622745  1
  Lu  Lu10  1  0.632850  0.163602  0.377255  1
  Lu  Lu11  1  0.132850  0.336398  0.122745  1
  Lu  Lu12  1  0.632836  0.163612  0.122660  1
  Lu  Lu13  1  0.132836  0.336388  0.377340  1
  Lu  Lu14  1  0.367164  0.836388  0.622660  1
  Lu  Lu15  1  0.867164  0.663612  0.877340  1
  Lu  Lu16  1  0.197599  0.504317  0.750088  1
  Lu  Lu17  1  0.697599  0.995683  0.749912  1
  Lu  Lu18  1  0.802401  0.495683  0.250088  1
  Lu  Lu19  1  0.302401  0.004317  0.249912  1
  Sn  Sn20  1  0.294291  0.037125  0.041907  1
  Sn  Sn21  1  0.794291  0.462875  0.458093  1
  Sn  Sn22  1  0.705709  0.962875  0.541907  1
  Sn  Sn23  1  0.205709  0.537125  0.958093  1
  Sn  Sn24  1  0.704999  0.962344  0.958599  1
  Sn  Sn25  1  0.204999  0.537656  0.541401  1
  Sn  Sn26  1  0.295001  0.037656  0.458599  1
  Sn  Sn27  1  0.795001  0.462344  0.041401  1
  Sn  Sn28  1  0.563586  0.621641  0.750020  1
  Sn  Sn29  1  0.063586  0.878359  0.749980  1
  Sn  Sn30  1  0.436414  0.378359  0.250020  1
  Sn  Sn31  1  0.936414  0.121641  0.249980  1
  Sn  Sn32  1  0.330290  0.147474  0.750290  1
  Sn  Sn33  1  0.830290  0.352526  0.749710  1
  Sn  Sn34  1  0.669710  0.852526  0.250290  1
  Sn  Sn35  1  0.169710  0.647474  0.249710  1
