# generated using pymatgen
data_DyTm2ZnCo9GeB4
_symmetry_space_group_name_H-M   'P 1'
_cell_length_a   5.08913900
_cell_length_b   5.08914005
_cell_length_c   9.66310600
_cell_angle_alpha   90.00000000
_cell_angle_beta   90.00000000
_cell_angle_gamma   120.00001270
_symmetry_Int_Tables_number   1
_chemical_formula_structural   DyTm2ZnCo9GeB4
_chemical_formula_sum   'Dy1 Tm2 Zn1 Co9 Ge1 B4'
_cell_volume   216.73848580
_cell_formula_units_Z   1
loop_
 _symmetry_equiv_pos_site_id
 _symmetry_equiv_pos_as_xyz
  1  'x, y, z'
loop_
 _atom_site_type_symbol
 _atom_site_label
 _atom_site_symmetry_multiplicity
 _atom_site_fract_x
 _atom_site_fract_y
 _atom_site_fract_z
 _atom_site_occupancy
  Dy  Dy0  1  0.000000  0.000000  0.000000  1
  Tm  Tm1  1  0.000000  0.000000  0.659055  1
  Tm  Tm2  1  0.000000  0.000000  0.340945  1
  Zn  Zn3  1  0.666667  0.333333  0.000000  1
  Co  Co4  1  0.500194  0.499806  0.500000  1
  Co  Co5  1  0.999613  0.499806  0.500000  1
  Co  Co6  1  0.498931  0.997861  0.207534  1
  Co  Co7  1  0.498931  0.501069  0.207534  1
  Co  Co8  1  0.002139  0.501069  0.207534  1
  Co  Co9  1  0.498931  0.997861  0.792466  1
  Co  Co10  1  0.498931  0.501069  0.792466  1
  Co  Co11  1  0.002139  0.501069  0.792466  1
  Co  Co12  1  0.500194  0.000387  0.500000  1
  Ge  Ge13  1  0.333333  0.666667  0.000000  1
  B  B14  1  0.333333  0.666667  0.649370  1
  B  B15  1  0.666667  0.333333  0.650968  1
  B  B16  1  0.666667  0.333333  0.349032  1
  B  B17  1  0.333333  0.666667  0.350630  1
