# generated using pymatgen
data_Li2DyTm3Al12(Si3Ru2)4
_symmetry_space_group_name_H-M   'P 1'
_cell_length_a   8.60409378
_cell_length_b   8.58804058
_cell_length_c   9.20904100
_cell_angle_alpha   90.00000000
_cell_angle_beta   90.00000000
_cell_angle_gamma   120.06037023
_symmetry_Int_Tables_number   1
_chemical_formula_structural   Li2DyTm3Al12(Si3Ru2)4
_chemical_formula_sum   'Li2 Dy1 Tm3 Al12 Si12 Ru8'
_cell_volume   588.95178925
_cell_formula_units_Z   1
loop_
 _symmetry_equiv_pos_site_id
 _symmetry_equiv_pos_as_xyz
  1  'x, y, z'
loop_
 _atom_site_type_symbol
 _atom_site_label
 _atom_site_symmetry_multiplicity
 _atom_site_fract_x
 _atom_site_fract_y
 _atom_site_fract_z
 _atom_site_occupancy
  Li  Li0  1  0.213478  0.790152  0.250000  1
  Li  Li1  1  0.421746  0.214912  0.750000  1
  Dy  Dy2  1  0.809898  0.188684  0.750000  1
  Tm  Tm3  1  0.619516  0.810376  0.250000  1
  Tm  Tm4  1  0.812652  0.625075  0.750000  1
  Tm  Tm5  1  0.187482  0.374278  0.250000  1
  Al  Al6  1  0.828930  0.169504  0.416246  1
  Al  Al7  1  0.164775  0.838370  0.572628  1
  Al  Al8  1  0.326161  0.161077  0.425757  1
  Al  Al9  1  0.164775  0.838370  0.927372  1
  Al  Al10  1  0.658551  0.829917  0.582557  1
  Al  Al11  1  0.828930  0.169504  0.083754  1
  Al  Al12  1  0.836187  0.668856  0.415794  1
  Al  Al13  1  0.658551  0.829917  0.917443  1
  Al  Al14  1  0.167711  0.331246  0.583249  1
  Al  Al15  1  0.326161  0.161077  0.074243  1
  Al  Al16  1  0.167711  0.331246  0.916751  1
  Al  Al17  1  0.836187  0.668856  0.084206  1
  Si  Si18  1  0.660135  0.332578  0.948235  1
  Si  Si19  1  0.328106  0.667074  0.052970  1
  Si  Si20  1  0.328106  0.667074  0.447030  1
  Si  Si21  1  0.660135  0.332578  0.551765  1
  Si  Si22  1  0.437182  0.550440  0.750000  1
  Si  Si23  1  0.559670  0.430157  0.250000  1
  Si  Si24  1  0.130182  0.570560  0.750000  1
  Si  Si25  1  0.887965  0.450594  0.250000  1
  Si  Si26  1  0.428994  0.883991  0.750000  1
  Si  Si27  1  0.546988  0.116630  0.250000  1
  Si  Si28  1  0.025893  0.012931  0.750000  1
  Si  Si29  1  0.010133  0.984756  0.250000  1
  Ru  Ru30  1  0.498970  0.499461  0.002201  1
  Ru  Ru31  1  0.999686  0.500778  0.998376  1
  Ru  Ru32  1  0.498970  0.499461  0.497799  1
  Ru  Ru33  1  0.497668  0.999640  0.000809  1
  Ru  Ru34  1  0.999686  0.500778  0.501624  1
  Ru  Ru35  1  0.497668  0.999640  0.499191  1
  Ru  Ru36  1  0.987229  0.999733  0.000049  1
  Ru  Ru37  1  0.987229  0.999733  0.499951  1
