# generated using pymatgen
data_Ho6Lu4BiPb5
_symmetry_space_group_name_H-M   'P 1'
_cell_length_a   6.48028400
_cell_length_b   8.99883651
_cell_length_c   8.98494895
_cell_angle_alpha   120.04301084
_cell_angle_beta   90.00422858
_cell_angle_gamma   89.99837007
_symmetry_Int_Tables_number   1
_chemical_formula_structural   Ho6Lu4BiPb5
_chemical_formula_sum   'Ho6 Lu4 Bi1 Pb5'
_cell_volume   453.56366588
_cell_formula_units_Z   1
loop_
 _symmetry_equiv_pos_site_id
 _symmetry_equiv_pos_as_xyz
  1  'x, y, z'
loop_
 _atom_site_type_symbol
 _atom_site_label
 _atom_site_symmetry_multiplicity
 _atom_site_fract_x
 _atom_site_fract_y
 _atom_site_fract_z
 _atom_site_occupancy
  Ho  Ho0  1  0.750009  0.236628  0.999828  1
  Ho  Ho1  1  0.749946  0.764471  0.760084  1
  Ho  Ho2  1  0.749939  0.004453  0.239981  1
  Ho  Ho3  1  0.249961  0.761288  0.000303  1
  Ho  Ho4  1  0.249888  0.237282  0.238224  1
  Ho  Ho5  1  0.249965  0.999047  0.761972  1
  Lu  Lu6  1  0.499407  0.331130  0.663786  1
  Lu  Lu7  1  0.499347  0.667374  0.336112  1
  Lu  Lu8  1  0.000546  0.667237  0.336117  1
  Lu  Lu9  1  0.000439  0.331136  0.663745  1
  Bi  Bi10  1  0.750109  0.605248  0.999988  1
  Pb  Pb11  1  0.749354  0.397151  0.396423  1
  Pb  Pb12  1  0.749516  0.000062  0.602823  1
  Pb  Pb13  1  0.250802  0.395776  0.000178  1
  Pb  Pb14  1  0.250265  0.603292  0.604998  1
  Pb  Pb15  1  0.250508  0.998426  0.395439  1
