# generated using pymatgen
data_Tb2Tm2Al17GaRh6
_symmetry_space_group_name_H-M   'P 1'
_cell_length_a   7.53583709
_cell_length_b   7.53583660
_cell_length_c   9.47257900
_cell_angle_alpha   90.00000000
_cell_angle_beta   90.00000000
_cell_angle_gamma   119.16319407
_symmetry_Int_Tables_number   1
_chemical_formula_structural   Tb2Tm2Al17GaRh6
_chemical_formula_sum   'Tb2 Tm2 Al17 Ga1 Rh6'
_cell_volume   469.74534970
_cell_formula_units_Z   1
loop_
 _symmetry_equiv_pos_site_id
 _symmetry_equiv_pos_as_xyz
  1  'x, y, z'
loop_
 _atom_site_type_symbol
 _atom_site_label
 _atom_site_symmetry_multiplicity
 _atom_site_fract_x
 _atom_site_fract_y
 _atom_site_fract_z
 _atom_site_occupancy
  Tb  Tb0  1  0.993817  0.675193  0.250000  1
  Tb  Tb1  1  0.675193  0.993817  0.250000  1
  Tm  Tm2  1  0.004809  0.326401  0.750000  1
  Tm  Tm3  1  0.326401  0.004809  0.750000  1
  Al  Al4  1  0.870944  0.870944  0.750000  1
  Al  Al5  1  0.002437  0.336900  0.073350  1
  Al  Al6  1  0.999148  0.663555  0.923451  1
  Al  Al7  1  0.999148  0.663555  0.576549  1
  Al  Al8  1  0.336900  0.002437  0.426650  1
  Al  Al9  1  0.002437  0.336900  0.426650  1
  Al  Al10  1  0.663555  0.999148  0.576549  1
  Al  Al11  1  0.663555  0.999148  0.923451  1
  Al  Al12  1  0.336900  0.002437  0.073350  1
  Al  Al13  1  0.332143  0.332143  0.554068  1
  Al  Al14  1  0.665350  0.665350  0.453495  1
  Al  Al15  1  0.665350  0.665350  0.046505  1
  Al  Al16  1  0.332143  0.332143  0.945932  1
  Al  Al17  1  0.338894  0.550941  0.250000  1
  Al  Al18  1  0.660390  0.448204  0.750000  1
  Al  Al19  1  0.550941  0.338894  0.250000  1
  Al  Al20  1  0.448204  0.660390  0.750000  1
  Ga  Ga21  1  0.134071  0.134071  0.250000  1
  Rh  Rh22  1  0.671190  0.327225  0.999043  1
  Rh  Rh23  1  0.327225  0.671190  0.999043  1
  Rh  Rh24  1  0.327225  0.671190  0.500957  1
  Rh  Rh25  1  0.671190  0.327225  0.500957  1
  Rh  Rh26  1  0.000220  0.000220  0.996305  1
  Rh  Rh27  1  0.000220  0.000220  0.503695  1
