# generated using pymatgen
data_Ti8Co3Ir
_symmetry_space_group_name_H-M   'P 1'
_cell_length_a   7.98912285
_cell_length_b   7.98912303
_cell_length_c   7.95679500
_cell_angle_alpha   60.13376315
_cell_angle_beta   60.13376242
_cell_angle_gamma   60.30358231
_symmetry_Int_Tables_number   1
_chemical_formula_structural   Ti8Co3Ir
_chemical_formula_sum   'Ti16 Co6 Ir2'
_cell_volume   360.65091701
_cell_formula_units_Z   2
loop_
 _symmetry_equiv_pos_site_id
 _symmetry_equiv_pos_as_xyz
  1  'x, y, z'
loop_
 _atom_site_type_symbol
 _atom_site_label
 _atom_site_symmetry_multiplicity
 _atom_site_fract_x
 _atom_site_fract_y
 _atom_site_fract_z
 _atom_site_occupancy
  Ti  Ti0  1  0.081212  0.635677  0.641556  1
  Ti  Ti1  1  0.635677  0.081212  0.641556  1
  Ti  Ti2  1  0.641378  0.641378  0.072349  1
  Ti  Ti3  1  0.641378  0.641378  0.644895  1
  Ti  Ti4  1  0.806399  0.806399  0.193601  1
  Ti  Ti5  1  0.193832  0.193832  0.806168  1
  Ti  Ti6  1  0.805146  0.193723  0.805740  1
  Ti  Ti7  1  0.193723  0.805146  0.195391  1
  Ti  Ti8  1  0.193723  0.805146  0.805740  1
  Ti  Ti9  1  0.805146  0.193723  0.195391  1
  Ti  Ti10  1  0.436100  0.436100  0.063900  1
  Ti  Ti11  1  0.064207  0.064207  0.435793  1
  Ti  Ti12  1  0.435434  0.069148  0.435122  1
  Ti  Ti13  1  0.069148  0.435434  0.060296  1
  Ti  Ti14  1  0.069148  0.435434  0.435122  1
  Ti  Ti15  1  0.435434  0.069148  0.060296  1
  Co  Co16  1  0.414109  0.414109  0.755319  1
  Co  Co17  1  0.414109  0.414109  0.416463  1
  Co  Co18  1  0.431709  0.857482  0.855405  1
  Co  Co19  1  0.857482  0.431709  0.855405  1
  Co  Co20  1  0.855206  0.855206  0.437578  1
  Co  Co21  1  0.855206  0.855206  0.852011  1
  Ir  Ir22  1  0.751815  0.413280  0.417452  1
  Ir  Ir23  1  0.413280  0.751815  0.417452  1
