# generated using pymatgen
data_CeYScAlIr2
_symmetry_space_group_name_H-M   'P 1'
_cell_length_a   6.94307300
_cell_length_b   4.38299000
_cell_length_c   8.18667700
_cell_angle_alpha   90.00000000
_cell_angle_beta   90.00000000
_cell_angle_gamma   90.00000000
_symmetry_Int_Tables_number   1
_chemical_formula_structural   CeYScAlIr2
_chemical_formula_sum   'Ce2 Y2 Sc2 Al2 Ir4'
_cell_volume   249.13220233
_cell_formula_units_Z   2
loop_
 _symmetry_equiv_pos_site_id
 _symmetry_equiv_pos_as_xyz
  1  'x, y, z'
loop_
 _atom_site_type_symbol
 _atom_site_label
 _atom_site_symmetry_multiplicity
 _atom_site_fract_x
 _atom_site_fract_y
 _atom_site_fract_z
 _atom_site_occupancy
  Ce  Ce0  1  0.035333  0.750000  0.819514  1
  Ce  Ce1  1  0.535333  0.750000  0.680486  1
  Y  Y2  1  0.970018  0.250000  0.179144  1
  Y  Y3  1  0.470018  0.250000  0.320856  1
  Sc  Sc4  1  0.134701  0.750000  0.435582  1
  Sc  Sc5  1  0.634701  0.750000  0.064418  1
  Al  Al6  1  0.861997  0.250000  0.557131  1
  Al  Al7  1  0.361997  0.250000  0.942869  1
  Ir  Ir8  1  0.741997  0.250000  0.874672  1
  Ir  Ir9  1  0.241997  0.250000  0.625328  1
  Ir  Ir10  1  0.255954  0.750000  0.105771  1
  Ir  Ir11  1  0.755954  0.750000  0.394229  1
