# generated using pymatgen
data_Gd4Y2TaO12
_symmetry_space_group_name_H-M   'P 1'
_cell_length_a   6.54162464
_cell_length_b   6.53220870
_cell_length_c   6.55349873
_cell_angle_alpha   98.58652186
_cell_angle_beta   98.86117933
_cell_angle_gamma   98.66969743
_symmetry_Int_Tables_number   1
_chemical_formula_structural   Gd4Y2TaO12
_chemical_formula_sum   'Gd4 Y2 Ta1 O12'
_cell_volume   269.23476560
_cell_formula_units_Z   1
loop_
 _symmetry_equiv_pos_site_id
 _symmetry_equiv_pos_as_xyz
  1  'x, y, z'
loop_
 _atom_site_type_symbol
 _atom_site_label
 _atom_site_symmetry_multiplicity
 _atom_site_fract_x
 _atom_site_fract_y
 _atom_site_fract_z
 _atom_site_occupancy
  Gd  Gd0  1  0.304093  0.141778  0.610053  1
  Gd  Gd1  1  0.699488  0.862867  0.390643  1
  Gd  Gd2  1  0.392119  0.695263  0.860900  1
  Gd  Gd3  1  0.137911  0.607804  0.300725  1
  Y  Y4  1  0.859125  0.388269  0.699098  1
  Y  Y5  1  0.610962  0.300439  0.136898  1
  Ta  Ta6  1  0.001275  0.999386  0.999490  1
  O  O7  1  0.927896  0.042627  0.699680  1
  O  O8  1  0.957074  0.301157  0.070760  1
  O  O9  1  0.590327  0.178078  0.435401  1
  O  O10  1  0.821669  0.562745  0.411351  1
  O  O11  1  0.301376  0.074310  0.962595  1
  O  O12  1  0.565595  0.411065  0.823770  1
  O  O13  1  0.436094  0.587909  0.178872  1
  O  O14  1  0.698939  0.929741  0.040628  1
  O  O15  1  0.174875  0.435428  0.588041  1
  O  O16  1  0.411077  0.823659  0.565043  1
  O  O17  1  0.038382  0.698449  0.925805  1
  O  O18  1  0.071721  0.959026  0.300246  1
