# generated using pymatgen
data_YbCe5(NbSb5)2
_symmetry_space_group_name_H-M   'P 1'
_cell_length_a   9.36142000
_cell_length_b   9.31395100
_cell_length_c   6.23087300
_cell_angle_alpha   90.00000000
_cell_angle_beta   90.00000000
_cell_angle_gamma   120.16872903
_symmetry_Int_Tables_number   1
_chemical_formula_structural   YbCe5(NbSb5)2
_chemical_formula_sum   'Yb1 Ce5 Nb2 Sb10'
_cell_volume   469.69322725
_cell_formula_units_Z   1
loop_
 _symmetry_equiv_pos_site_id
 _symmetry_equiv_pos_as_xyz
  1  'x, y, z'
loop_
 _atom_site_type_symbol
 _atom_site_label
 _atom_site_symmetry_multiplicity
 _atom_site_fract_x
 _atom_site_fract_y
 _atom_site_fract_z
 _atom_site_occupancy
  Yb  Yb0  1  0.618782  0.000000  0.250000  1
  Ce  Ce1  1  0.385158  0.000000  0.750000  1
  Ce  Ce2  1  0.000941  0.618699  0.250000  1
  Ce  Ce3  1  0.997393  0.378664  0.750000  1
  Ce  Ce4  1  0.382241  0.381301  0.250000  1
  Ce  Ce5  1  0.618728  0.621336  0.750000  1
  Nb  Nb6  1  0.998324  0.000000  0.005937  1
  Nb  Nb7  1  0.998324  0.000000  0.494063  1
  Sb  Sb8  1  0.263760  0.000000  0.250000  1
  Sb  Sb9  1  0.740120  0.000000  0.750000  1
  Sb  Sb10  1  0.001462  0.264982  0.250000  1
  Sb  Sb11  1  0.999745  0.738859  0.750000  1
  Sb  Sb12  1  0.736480  0.735018  0.250000  1
  Sb  Sb13  1  0.260886  0.261141  0.750000  1
  Sb  Sb14  1  0.331830  0.664833  0.000377  1
  Sb  Sb15  1  0.666998  0.335167  0.000377  1
  Sb  Sb16  1  0.666998  0.335167  0.499623  1
  Sb  Sb17  1  0.331830  0.664833  0.499623  1
