# generated using pymatgen
data_La7Pa(AlRh)8
_symmetry_space_group_name_H-M   'P 1'
_cell_length_a   4.26859100
_cell_length_b   7.27785096
_cell_length_c   16.22888817
_cell_angle_alpha   89.37297026
_cell_angle_beta   90.00000000
_cell_angle_gamma   90.00000000
_symmetry_Int_Tables_number   1
_chemical_formula_structural   La7Pa(AlRh)8
_chemical_formula_sum   'La7 Pa1 Al8 Rh8'
_cell_volume   504.13919402
_cell_formula_units_Z   1
loop_
 _symmetry_equiv_pos_site_id
 _symmetry_equiv_pos_as_xyz
  1  'x, y, z'
loop_
 _atom_site_type_symbol
 _atom_site_label
 _atom_site_symmetry_multiplicity
 _atom_site_fract_x
 _atom_site_fract_y
 _atom_site_fract_z
 _atom_site_occupancy
  La  La0  1  0.750000  0.477650  0.219266  1
  La  La1  1  0.750000  0.976661  0.280418  1
  La  La2  1  0.250000  0.026043  0.721594  1
  La  La3  1  0.250000  0.652289  0.560975  1
  La  La4  1  0.750000  0.338262  0.440391  1
  La  La5  1  0.750000  0.847129  0.058532  1
  La  La6  1  0.250000  0.165242  0.937771  1
  Pa  Pa7  1  0.250000  0.527882  0.780279  1
  Al  Al8  1  0.250000  0.649976  0.352609  1
  Al  Al9  1  0.750000  0.347303  0.648891  1
  Al  Al10  1  0.750000  0.840914  0.850198  1
  Al  Al11  1  0.250000  0.149218  0.146284  1
  Al  Al12  1  0.250000  0.506833  0.059821  1
  Al  Al13  1  0.750000  0.498819  0.939920  1
  Al  Al14  1  0.750000  0.990445  0.562349  1
  Al  Al15  1  0.250000  0.999774  0.439866  1
  Rh  Rh16  1  0.250000  0.768781  0.178493  1
  Rh  Rh17  1  0.750000  0.277915  0.813468  1
  Rh  Rh18  1  0.750000  0.705805  0.693913  1
  Rh  Rh19  1  0.250000  0.270579  0.321402  1
  Rh  Rh20  1  0.250000  0.708736  0.919503  1
  Rh  Rh21  1  0.750000  0.282746  0.072207  1
  Rh  Rh22  1  0.750000  0.782010  0.429030  1
  Rh  Rh23  1  0.250000  0.208985  0.572819  1
