# generated using pymatgen
data_ZrPa2(FeGe)3
_symmetry_space_group_name_H-M   'P 1'
_cell_length_a   6.89060900
_cell_length_b   6.89060785
_cell_length_c   3.79888300
_cell_angle_alpha   90.00000000
_cell_angle_beta   90.00000000
_cell_angle_gamma   123.17242428
_symmetry_Int_Tables_number   1
_chemical_formula_structural   ZrPa2(FeGe)3
_chemical_formula_sum   'Zr1 Pa2 Fe3 Ge3'
_cell_volume   150.97704376
_cell_formula_units_Z   1
loop_
 _symmetry_equiv_pos_site_id
 _symmetry_equiv_pos_as_xyz
  1  'x, y, z'
loop_
 _atom_site_type_symbol
 _atom_site_label
 _atom_site_symmetry_multiplicity
 _atom_site_fract_x
 _atom_site_fract_y
 _atom_site_fract_z
 _atom_site_occupancy
  Zr  Zr0  1  0.594975  0.594975  0.500000  1
  Pa  Pa1  1  0.419366  0.005084  0.500000  1
  Pa  Pa2  1  0.005084  0.419366  0.500000  1
  Fe  Fe3  1  0.311328  0.668760  0.000000  1
  Fe  Fe4  1  0.668760  0.311328  0.000000  1
  Fe  Fe5  1  0.004379  0.004379  0.500000  1
  Ge  Ge6  1  0.749922  0.983483  0.000000  1
  Ge  Ge7  1  0.983483  0.749922  0.000000  1
  Ge  Ge8  1  0.262703  0.262703  0.000000  1
