# generated using pymatgen
data_LiSc8Ir4Ru3
_symmetry_space_group_name_H-M   'P 1'
_cell_length_a   6.39443900
_cell_length_b   4.59638200
_cell_length_c   9.21096000
_cell_angle_alpha   90.00000000
_cell_angle_beta   89.99980813
_cell_angle_gamma   90.00000000
_symmetry_Int_Tables_number   1
_chemical_formula_structural   LiSc8Ir4Ru3
_chemical_formula_sum   'Li1 Sc8 Ir4 Ru3'
_cell_volume   270.72194422
_cell_formula_units_Z   1
loop_
 _symmetry_equiv_pos_site_id
 _symmetry_equiv_pos_as_xyz
  1  'x, y, z'
loop_
 _atom_site_type_symbol
 _atom_site_label
 _atom_site_symmetry_multiplicity
 _atom_site_fract_x
 _atom_site_fract_y
 _atom_site_fract_z
 _atom_site_occupancy
  Li  Li0  1  0.249890  0.250000  0.125001  1
  Sc  Sc1  1  0.993183  0.750000  0.125007  1
  Sc  Sc2  1  0.506565  0.750000  0.125014  1
  Sc  Sc3  1  0.996694  0.250000  0.379236  1
  Sc  Sc4  1  0.503049  0.250000  0.379267  1
  Sc  Sc5  1  0.499638  0.750000  0.624998  1
  Sc  Sc6  1  0.000613  0.750000  0.625005  1
  Sc  Sc7  1  0.503293  0.250000  0.870754  1
  Sc  Sc8  1  0.996957  0.250000  0.870744  1
  Ir  Ir9  1  0.749916  0.250000  0.124995  1
  Ir  Ir10  1  0.249914  0.750000  0.371723  1
  Ir  Ir11  1  0.750095  0.250000  0.624994  1
  Ir  Ir12  1  0.250090  0.750000  0.878296  1
  Ru  Ru13  1  0.749934  0.750000  0.374109  1
  Ru  Ru14  1  0.250095  0.250000  0.624956  1
  Ru  Ru15  1  0.750076  0.750000  0.875895  1
