# generated using pymatgen
data_Sr3MnAl10O20
_symmetry_space_group_name_H-M   'P 1'
_cell_length_a   9.57114818
_cell_length_b   9.57114703
_cell_length_c   4.98688132
_cell_angle_alpha   75.18687724
_cell_angle_beta   75.18688621
_cell_angle_gamma   72.82865584
_symmetry_Int_Tables_number   1
_chemical_formula_structural   Sr3MnAl10O20
_chemical_formula_sum   'Sr3 Mn1 Al10 O20'
_cell_volume   413.85692978
_cell_formula_units_Z   1
loop_
 _symmetry_equiv_pos_site_id
 _symmetry_equiv_pos_as_xyz
  1  'x, y, z'
loop_
 _atom_site_type_symbol
 _atom_site_label
 _atom_site_symmetry_multiplicity
 _atom_site_fract_x
 _atom_site_fract_y
 _atom_site_fract_z
 _atom_site_occupancy
  Sr  Sr0  1  0.000000  0.000000  0.000000  1
  Sr  Sr1  1  0.275608  0.275608  0.715888  1
  Sr  Sr2  1  0.724392  0.724392  0.284112  1
  Mn  Mn3  1  0.500000  0.500000  0.000000  1
  Al  Al4  1  0.851069  0.423242  0.831235  1
  Al  Al5  1  0.576758  0.148931  0.168765  1
  Al  Al6  1  0.148931  0.576758  0.168765  1
  Al  Al7  1  0.423242  0.851069  0.831235  1
  Al  Al8  1  0.366839  0.633161  0.500000  1
  Al  Al9  1  0.633161  0.366839  0.500000  1
  Al  Al10  1  0.992875  0.718760  0.658095  1
  Al  Al11  1  0.281240  0.007125  0.341905  1
  Al  Al12  1  0.007125  0.281240  0.341905  1
  Al  Al13  1  0.718760  0.992875  0.658095  1
  O  O14  1  0.548981  0.308296  0.889882  1
  O  O15  1  0.691704  0.451019  0.110118  1
  O  O16  1  0.451019  0.691704  0.110118  1
  O  O17  1  0.308296  0.548981  0.889882  1
  O  O18  1  0.714256  0.007349  0.008280  1
  O  O19  1  0.992651  0.285744  0.991720  1
  O  O20  1  0.285744  0.992651  0.991720  1
  O  O21  1  0.007349  0.714256  0.008280  1
  O  O22  1  0.434245  0.434245  0.394685  1
  O  O23  1  0.565755  0.565755  0.605315  1
  O  O24  1  0.901264  0.901264  0.514369  1
  O  O25  1  0.098736  0.098736  0.485631  1
  O  O26  1  0.880507  0.600657  0.673834  1
  O  O27  1  0.399343  0.119493  0.326166  1
  O  O28  1  0.119493  0.399343  0.326166  1
  O  O29  1  0.600657  0.880507  0.673834  1
  O  O30  1  0.171461  0.660244  0.435964  1
  O  O31  1  0.339756  0.828539  0.564036  1
  O  O32  1  0.828539  0.339756  0.564036  1
  O  O33  1  0.660244  0.171461  0.435964  1
