# generated using pymatgen
data_TbHoPa2(B4Os)4
_symmetry_space_group_name_H-M   'P 1'
_cell_length_a   3.58564500
_cell_length_b   5.98691091
_cell_length_c   11.60334128
_cell_angle_alpha   89.88906862
_cell_angle_beta   90.00000000
_cell_angle_gamma   90.00000000
_symmetry_Int_Tables_number   1
_chemical_formula_structural   TbHoPa2(B4Os)4
_chemical_formula_sum   'Tb1 Ho1 Pa2 B16 Os4'
_cell_volume   249.08773129
_cell_formula_units_Z   1
loop_
 _symmetry_equiv_pos_site_id
 _symmetry_equiv_pos_as_xyz
  1  'x, y, z'
loop_
 _atom_site_type_symbol
 _atom_site_label
 _atom_site_symmetry_multiplicity
 _atom_site_fract_x
 _atom_site_fract_y
 _atom_site_fract_z
 _atom_site_occupancy
  Tb  Tb0  1  0.000000  0.128874  0.147988  1
  Ho  Ho1  1  0.000000  0.871082  0.851998  1
  Pa  Pa2  1  0.000000  0.628942  0.349096  1
  Pa  Pa3  1  0.000000  0.371040  0.650983  1
  B  B4  1  0.500000  0.789402  0.186100  1
  B  B5  1  0.500000  0.209981  0.813893  1
  B  B6  1  0.500000  0.290782  0.312614  1
  B  B7  1  0.500000  0.709373  0.687623  1
  B  B8  1  0.500000  0.863145  0.030661  1
  B  B9  1  0.500000  0.136619  0.968906  1
  B  B10  1  0.500000  0.365958  0.467574  1
  B  B11  1  0.500000  0.634075  0.532452  1
  B  B12  1  0.500000  0.887325  0.453512  1
  B  B13  1  0.500000  0.112642  0.546557  1
  B  B14  1  0.500000  0.386955  0.045294  1
  B  B15  1  0.500000  0.613671  0.954358  1
  B  B16  1  0.500000  0.972998  0.308282  1
  B  B17  1  0.500000  0.026797  0.692020  1
  B  B18  1  0.500000  0.471792  0.190024  1
  B  B19  1  0.500000  0.528695  0.809967  1
  Os  Os20  1  0.000000  0.640063  0.095128  1
  Os  Os21  1  0.000000  0.359797  0.904544  1
  Os  Os22  1  0.000000  0.141937  0.404884  1
  Os  Os23  1  0.000000  0.858054  0.595541  1
