# generated using pymatgen
data_Sc8Ni4OsPt3
_symmetry_space_group_name_H-M   'P 1'
_cell_length_a   6.45149400
_cell_length_b   4.57688500
_cell_length_c   9.15872800
_cell_angle_alpha   90.00000000
_cell_angle_beta   90.00000000
_cell_angle_gamma   90.00000000
_symmetry_Int_Tables_number   1
_chemical_formula_structural   Sc8Ni4OsPt3
_chemical_formula_sum   'Sc8 Ni4 Os1 Pt3'
_cell_volume   270.43659513
_cell_formula_units_Z   1
loop_
 _symmetry_equiv_pos_site_id
 _symmetry_equiv_pos_as_xyz
  1  'x, y, z'
loop_
 _atom_site_type_symbol
 _atom_site_label
 _atom_site_symmetry_multiplicity
 _atom_site_fract_x
 _atom_site_fract_y
 _atom_site_fract_z
 _atom_site_occupancy
  Sc  Sc0  1  0.502366  0.749999  0.121071  1
  Sc  Sc1  1  0.997573  0.749999  0.121105  1
  Sc  Sc2  1  0.499364  0.249999  0.374980  1
  Sc  Sc3  1  0.000577  0.249999  0.375017  1
  Sc  Sc4  1  0.997641  0.749999  0.628928  1
  Sc  Sc5  1  0.502419  0.749999  0.628961  1
  Sc  Sc6  1  0.994569  0.249999  0.874966  1
  Sc  Sc7  1  0.505490  0.249999  0.874999  1
  Ni  Ni8  1  0.750022  0.249999  0.123378  1
  Ni  Ni9  1  0.250021  0.749999  0.375033  1
  Ni  Ni10  1  0.749987  0.249999  0.626542  1
  Ni  Ni11  1  0.249983  0.749999  0.875029  1
  Os  Os12  1  0.750032  0.749999  0.875033  1
  Pt  Pt13  1  0.249954  0.249999  0.126186  1
  Pt  Pt14  1  0.749949  0.749999  0.375018  1
  Pt  Pt15  1  0.250048  0.249999  0.623755  1
