# generated using pymatgen
data_Ho12IrPd2Ru
_symmetry_space_group_name_H-M   'P 1'
_cell_length_a   6.33923712
_cell_length_b   7.11813169
_cell_length_c   9.43110000
_cell_angle_alpha   90.00000000
_cell_angle_beta   90.00000000
_cell_angle_gamma   90.11265726
_symmetry_Int_Tables_number   1
_chemical_formula_structural   Ho12IrPd2Ru
_chemical_formula_sum   'Ho12 Ir1 Pd2 Ru1'
_cell_volume   425.56365059
_cell_formula_units_Z   1
loop_
 _symmetry_equiv_pos_site_id
 _symmetry_equiv_pos_as_xyz
  1  'x, y, z'
loop_
 _atom_site_type_symbol
 _atom_site_label
 _atom_site_symmetry_multiplicity
 _atom_site_fract_x
 _atom_site_fract_y
 _atom_site_fract_z
 _atom_site_occupancy
  Ho  Ho0  1  0.325375  0.685945  0.057899  1
  Ho  Ho1  1  0.169918  0.176707  0.438035  1
  Ho  Ho2  1  0.670452  0.323658  0.563500  1
  Ho  Ho3  1  0.823579  0.814856  0.940364  1
  Ho  Ho4  1  0.670452  0.323658  0.936500  1
  Ho  Ho5  1  0.823579  0.814856  0.559636  1
  Ho  Ho6  1  0.325375  0.685945  0.442101  1
  Ho  Ho7  1  0.169918  0.176707  0.061965  1
  Ho  Ho8  1  0.876231  0.533520  0.250000  1
  Ho  Ho9  1  0.636999  0.026118  0.250000  1
  Ho  Ho10  1  0.134557  0.475065  0.750000  1
  Ho  Ho11  1  0.376355  0.962611  0.750000  1
  Ir  Ir12  1  0.055681  0.885159  0.250000  1
  Pd  Pd13  1  0.441621  0.390148  0.250000  1
  Pd  Pd14  1  0.948831  0.111620  0.750000  1
  Ru  Ru15  1  0.551076  0.613426  0.750000  1
