# generated using pymatgen
data_HoReF7
_symmetry_space_group_name_H-M   'P 1'
_cell_length_a   5.57398400
_cell_length_b   8.89130654
_cell_length_c   12.03398705
_cell_angle_alpha   62.65411759
_cell_angle_beta   90.00000000
_cell_angle_gamma   90.00000000
_symmetry_Int_Tables_number   1
_chemical_formula_structural   HoReF7
_chemical_formula_sum   'Ho4 Re4 F28'
_cell_volume   529.75600906
_cell_formula_units_Z   4
loop_
 _symmetry_equiv_pos_site_id
 _symmetry_equiv_pos_as_xyz
  1  'x, y, z'
loop_
 _atom_site_type_symbol
 _atom_site_label
 _atom_site_symmetry_multiplicity
 _atom_site_fract_x
 _atom_site_fract_y
 _atom_site_fract_z
 _atom_site_occupancy
  Ho  Ho0  1  0.758086  0.814084  0.764472  1
  Ho  Ho1  1  0.258086  0.185916  0.735528  1
  Ho  Ho2  1  0.241914  0.185916  0.235528  1
  Ho  Ho3  1  0.741914  0.814084  0.264472  1
  Re  Re4  1  0.757643  0.273114  0.956944  1
  Re  Re5  1  0.257643  0.726886  0.543056  1
  Re  Re6  1  0.242357  0.726886  0.043056  1
  Re  Re7  1  0.742357  0.273114  0.456944  1
  F  F8  1  0.442549  0.706092  0.915352  1
  F  F9  1  0.942549  0.293908  0.584648  1
  F  F10  1  0.557451  0.293908  0.084648  1
  F  F11  1  0.057451  0.706092  0.415352  1
  F  F12  1  0.441926  0.275615  0.545794  1
  F  F13  1  0.941926  0.724385  0.954206  1
  F  F14  1  0.558074  0.724385  0.454206  1
  F  F15  1  0.058074  0.275615  0.045794  1
  F  F16  1  0.775059  0.522940  0.858504  1
  F  F17  1  0.275059  0.477060  0.641496  1
  F  F18  1  0.224941  0.477060  0.141496  1
  F  F19  1  0.724941  0.522940  0.358504  1
  F  F20  1  0.755752  0.023750  0.053579  1
  F  F21  1  0.255752  0.976250  0.446421  1
  F  F22  1  0.244248  0.976250  0.946421  1
  F  F23  1  0.744248  0.023750  0.553579  1
  F  F24  1  0.969018  0.726923  0.639034  1
  F  F25  1  0.469018  0.273077  0.860966  1
  F  F26  1  0.030982  0.273077  0.360966  1
  F  F27  1  0.530982  0.726923  0.139034  1
  F  F28  1  0.048257  0.746731  0.174363  1
  F  F29  1  0.548257  0.253269  0.325637  1
  F  F30  1  0.951743  0.253269  0.825637  1
  F  F31  1  0.451743  0.746731  0.674363  1
  F  F32  1  0.418639  0.970197  0.232642  1
  F  F33  1  0.918639  0.029803  0.267358  1
  F  F34  1  0.581361  0.029803  0.767358  1
  F  F35  1  0.081361  0.970197  0.732642  1
