# generated using pymatgen
data_Th4CuSi6Ni
_symmetry_space_group_name_H-M   'P 1'
_cell_length_a   8.18037378
_cell_length_b   8.06925648
_cell_length_c   5.87304532
_cell_angle_alpha   69.82646989
_cell_angle_beta   67.80479575
_cell_angle_gamma   42.36873221
_symmetry_Int_Tables_number   1
_chemical_formula_structural   Th4CuSi6Ni
_chemical_formula_sum   'Th4 Cu1 Si6 Ni1'
_cell_volume   240.54948738
_cell_formula_units_Z   1
loop_
 _symmetry_equiv_pos_site_id
 _symmetry_equiv_pos_as_xyz
  1  'x, y, z'
loop_
 _atom_site_type_symbol
 _atom_site_label
 _atom_site_symmetry_multiplicity
 _atom_site_fract_x
 _atom_site_fract_y
 _atom_site_fract_z
 _atom_site_occupancy
  Th  Th0  1  0.748887  0.748887  0.751113  1
  Th  Th1  1  0.756755  0.245581  0.754419  1
  Th  Th2  1  0.248887  0.248887  0.251113  1
  Th  Th3  1  0.245581  0.756755  0.243245  1
  Cu  Cu4  1  0.334688  0.334688  0.665312  1
  Si  Si5  1  0.827747  0.344257  0.172253  1
  Si  Si6  1  0.663180  0.167587  0.336820  1
  Si  Si7  1  0.167587  0.663180  0.832413  1
  Si  Si8  1  0.344257  0.827747  0.655743  1
  Si  Si9  1  0.169637  0.169637  0.830363  1
  Si  Si10  1  0.827054  0.827054  0.172946  1
  Ni  Ni11  1  0.665737  0.665737  0.334263  1
