# generated using pymatgen
data_Ta4CdHg(PbO7)2
_symmetry_space_group_name_H-M   'P 1'
_cell_length_a   7.53781915
_cell_length_b   7.47834961
_cell_length_c   7.53781901
_cell_angle_alpha   60.76141440
_cell_angle_beta   60.79576848
_cell_angle_gamma   60.76142063
_symmetry_Int_Tables_number   1
_chemical_formula_structural   Ta4CdHg(PbO7)2
_chemical_formula_sum   'Ta4 Cd1 Hg1 Pb2 O14'
_cell_volume   305.69539317
_cell_formula_units_Z   1
loop_
 _symmetry_equiv_pos_site_id
 _symmetry_equiv_pos_as_xyz
  1  'x, y, z'
loop_
 _atom_site_type_symbol
 _atom_site_label
 _atom_site_symmetry_multiplicity
 _atom_site_fract_x
 _atom_site_fract_y
 _atom_site_fract_z
 _atom_site_occupancy
  Ta  Ta0  1  0.125000  0.625000  0.125000  1
  Ta  Ta1  1  0.125000  0.125000  0.625000  1
  Ta  Ta2  1  0.625000  0.125000  0.125000  1
  Ta  Ta3  1  0.125000  0.125000  0.125000  1
  Cd  Cd4  1  0.625000  0.125000  0.625000  1
  Hg  Hg5  1  0.625000  0.625000  0.625000  1
  Pb  Pb6  1  0.125000  0.625000  0.625000  1
  Pb  Pb7  1  0.625000  0.625000  0.125000  1
  O  O8  1  0.724437  0.773891  0.724437  1
  O  O9  1  0.180852  0.813381  0.814973  1
  O  O10  1  0.190430  0.810611  0.190430  1
  O  O11  1  0.816947  0.179149  0.816947  1
  O  O12  1  0.187303  0.190015  0.813125  1
  O  O13  1  0.814973  0.813381  0.180852  1
  O  O14  1  0.436875  0.059985  0.062697  1
  O  O15  1  0.813125  0.190015  0.187303  1
  O  O16  1  0.059570  0.439389  0.059570  1
  O  O17  1  0.062697  0.059985  0.436875  1
  O  O18  1  0.435027  0.436619  0.069148  1
  O  O19  1  0.433053  0.070851  0.433053  1
  O  O20  1  0.069148  0.436619  0.435027  1
  O  O21  1  0.525563  0.476109  0.525563  1
