# generated using pymatgen
data_YLu5(BiO7)2
_symmetry_space_group_name_H-M   'P 1'
_cell_length_a   6.49738354
_cell_length_b   6.48146068
_cell_length_c   7.61508500
_cell_angle_alpha   107.04530310
_cell_angle_beta   89.85246993
_cell_angle_gamma   99.12700504
_symmetry_Int_Tables_number   1
_chemical_formula_structural   YLu5(BiO7)2
_chemical_formula_sum   'Y1 Lu5 Bi2 O14'
_cell_volume   302.39392775
_cell_formula_units_Z   1
loop_
 _symmetry_equiv_pos_site_id
 _symmetry_equiv_pos_as_xyz
  1  'x, y, z'
loop_
 _atom_site_type_symbol
 _atom_site_label
 _atom_site_symmetry_multiplicity
 _atom_site_fract_x
 _atom_site_fract_y
 _atom_site_fract_z
 _atom_site_occupancy
  Y  Y0  1  0.265038  0.523417  0.384101  1
  Lu  Lu1  1  0.465740  0.007803  0.250949  1
  Lu  Lu2  1  0.536301  0.991475  0.749111  1
  Lu  Lu3  1  0.276151  0.538892  0.883092  1
  Lu  Lu4  1  0.724762  0.463293  0.115591  1
  Lu  Lu5  1  0.724660  0.469052  0.614250  1
  Bi  Bi6  1  0.998646  0.001298  0.501054  1
  Bi  Bi7  1  0.000290  0.998772  0.999651  1
  O  O8  1  0.454554  0.654931  0.162241  1
  O  O9  1  0.551335  0.345620  0.831861  1
  O  O10  1  0.304534  0.918017  0.949328  1
  O  O11  1  0.697054  0.083219  0.050039  1
  O  O12  1  0.301380  0.926282  0.516022  1
  O  O13  1  0.695967  0.077127  0.488330  1
  O  O14  1  0.547702  0.362351  0.343620  1
  O  O15  1  0.458706  0.636478  0.660506  1
  O  O16  1  0.925628  0.662083  0.963363  1
  O  O17  1  0.080247  0.337001  0.038940  1
  O  O18  1  0.063734  0.357882  0.625787  1
  O  O19  1  0.926476  0.649310  0.372157  1
  O  O20  1  0.865659  0.893692  0.722917  1
  O  O21  1  0.135435  0.102004  0.277091  1
