# generated using pymatgen
data_Li12Pr11Gd(TeO6)8
_symmetry_space_group_name_H-M   'P 1'
_cell_length_a   11.02336002
_cell_length_b   11.04014833
_cell_length_c   11.04012804
_cell_angle_alpha   109.46161856
_cell_angle_beta   109.50696238
_cell_angle_gamma   109.50713517
_symmetry_Int_Tables_number   1
_chemical_formula_structural   Li12Pr11Gd(TeO6)8
_chemical_formula_sum   'Li12 Pr11 Gd1 Te8 O48'
_cell_volume   1033.49411496
_cell_formula_units_Z   1
loop_
 _symmetry_equiv_pos_site_id
 _symmetry_equiv_pos_as_xyz
  1  'x, y, z'
loop_
 _atom_site_type_symbol
 _atom_site_label
 _atom_site_symmetry_multiplicity
 _atom_site_fract_x
 _atom_site_fract_y
 _atom_site_fract_z
 _atom_site_occupancy
  Li  Li0  1  0.874698  0.749405  0.125050  1
  Li  Li1  1  0.249999  0.875032  0.125035  1
  Li  Li2  1  0.874692  0.125291  0.249644  1
  Li  Li3  1  0.374873  0.624828  0.249935  1
  Li  Li4  1  0.749999  0.623660  0.373661  1
  Li  Li5  1  0.625310  0.250358  0.374709  1
  Li  Li6  1  0.374869  0.750050  0.624937  1
  Li  Li7  1  0.250000  0.374967  0.624965  1
  Li  Li8  1  0.125129  0.875063  0.749953  1
  Li  Li9  1  0.625304  0.374951  0.750597  1
  Li  Li10  1  0.125130  0.250065  0.875178  1
  Li  Li11  1  0.750002  0.126340  0.876339  1
  Pr  Pr12  1  0.376185  0.250596  0.125366  1
  Pr  Pr13  1  0.624981  0.874995  0.250010  1
  Pr  Pr14  1  0.123816  0.374634  0.249403  1
  Pr  Pr15  1  0.250001  0.124998  0.375003  1
  Pr  Pr16  1  0.123815  0.749182  0.374412  1
  Pr  Pr17  1  0.750000  0.874998  0.625002  1
  Pr  Pr18  1  0.875019  0.249990  0.625005  1
  Pr  Pr19  1  0.376185  0.125589  0.750818  1
  Pr  Pr20  1  0.875020  0.625029  0.750013  1
  Pr  Pr21  1  0.250000  0.625000  0.875001  1
  Pr  Pr22  1  0.624980  0.749985  0.874970  1
  Gd  Gd23  1  0.750000  0.374998  0.124998  1
  Te  Te24  1  0.000104  0.000156  0.000080  1
  Te  Te25  1  0.501916  0.002167  0.001294  1
  Te  Te26  1  0.501911  0.499748  0.000620  1
  Te  Te27  1  0.998083  0.499383  0.000255  1
  Te  Te28  1  0.000104  0.999948  0.500023  1
  Te  Te29  1  0.499896  0.499919  0.499843  1
  Te  Te30  1  0.499897  0.999977  0.500053  1
  Te  Te31  1  0.998086  0.498706  0.497831  1
  O  O32  1  0.902565  0.330614  0.024468  1
  O  O33  1  0.115751  0.192775  0.022092  1
  O  O34  1  0.406610  0.885075  0.076637  1
  O  O35  1  0.671218  0.693010  0.077050  1
  O  O36  1  0.671218  0.978208  0.094167  1
  O  O37  1  0.424670  0.614930  0.094574  1
  O  O38  1  0.920357  0.591826  0.115883  1
  O  O39  1  0.192921  0.022333  0.115926  1
  O  O40  1  0.579644  0.195527  0.171471  1
  O  O41  1  0.597435  0.475531  0.169386  1
  O  O42  1  0.169611  0.576184  0.192261  1
  O  O43  1  0.022055  0.115877  0.192493  1
  O  O44  1  0.384248  0.477908  0.307225  1
  O  O45  1  0.920357  0.328529  0.304472  1
  O  O46  1  0.307077  0.923005  0.329411  1
  O  O47  1  0.022055  0.906178  0.329561  1
  O  O48  1  0.902567  0.571950  0.378097  1
  O  O49  1  0.477944  0.307507  0.384123  1
  O  O50  1  0.521947  0.829614  0.406165  1
  O  O51  1  0.884237  0.076687  0.406152  1
  O  O52  1  0.807232  0.829226  0.423151  1
  O  O53  1  0.615764  0.093849  0.423313  1
  O  O54  1  0.307078  0.384074  0.477666  1
  O  O55  1  0.169612  0.593428  0.477352  1
  O  O56  1  0.692769  0.615919  0.521994  1
  O  O57  1  0.828781  0.405831  0.521791  1
  O  O58  1  0.192922  0.170589  0.576995  1
  O  O59  1  0.384249  0.906340  0.577022  1
  O  O60  1  0.115752  0.922978  0.593660  1
  O  O61  1  0.477946  0.170439  0.593823  1
  O  O62  1  0.521947  0.692334  0.615781  1
  O  O63  1  0.093390  0.423364  0.614925  1
  O  O64  1  0.978053  0.093835  0.670386  1
  O  O65  1  0.692769  0.076850  0.670775  1
  O  O66  1  0.615764  0.521917  0.692453  1
  O  O67  1  0.075330  0.669904  0.690260  1
  O  O68  1  0.978052  0.884219  0.807666  1
  O  O69  1  0.828783  0.422949  0.806989  1
  O  O70  1  0.406611  0.521535  0.829973  1
  O  O71  1  0.424670  0.809740  0.830097  1
  O  O72  1  0.807231  0.978006  0.884081  1
  O  O73  1  0.075331  0.405426  0.885069  1
  O  O74  1  0.579643  0.384117  0.908173  1
  O  O75  1  0.330388  0.022648  0.906571  1
  O  O76  1  0.330389  0.307739  0.923815  1
  O  O77  1  0.597435  0.121902  0.928051  1
  O  O78  1  0.093391  0.670027  0.978466  1
  O  O79  1  0.884236  0.807548  0.978084  1
