# generated using pymatgen
data_Rb12MoAs8W
_symmetry_space_group_name_H-M   'P 1'
_cell_length_a   10.72679400
_cell_length_b   10.72679304
_cell_length_c   8.59101000
_cell_angle_alpha   90.00000000
_cell_angle_beta   90.00000000
_cell_angle_gamma   120.00000295
_symmetry_Int_Tables_number   1
_chemical_formula_structural   Rb12MoAs8W
_chemical_formula_sum   'Rb12 Mo1 As8 W1'
_cell_volume   856.08065906
_cell_formula_units_Z   1
loop_
 _symmetry_equiv_pos_site_id
 _symmetry_equiv_pos_as_xyz
  1  'x, y, z'
loop_
 _atom_site_type_symbol
 _atom_site_label
 _atom_site_symmetry_multiplicity
 _atom_site_fract_x
 _atom_site_fract_y
 _atom_site_fract_z
 _atom_site_occupancy
  Rb  Rb0  1  0.146102  0.292206  0.287753  1
  Rb  Rb1  1  0.853856  0.146144  0.787692  1
  Rb  Rb2  1  0.533177  0.466823  0.104355  1
  Rb  Rb3  1  0.065996  0.532998  0.604082  1
  Rb  Rb4  1  0.467002  0.934004  0.604082  1
  Rb  Rb5  1  0.533177  0.066353  0.104355  1
  Rb  Rb6  1  0.933647  0.466823  0.104355  1
  Rb  Rb7  1  0.467002  0.532998  0.604082  1
  Rb  Rb8  1  0.146102  0.853898  0.287753  1
  Rb  Rb9  1  0.707794  0.853898  0.287753  1
  Rb  Rb10  1  0.853856  0.707711  0.787692  1
  Rb  Rb11  1  0.292289  0.146144  0.787692  1
  Mo  Mo12  1  0.666667  0.333333  0.497299  1
  As  As13  1  0.791483  0.582965  0.407705  1
  As  As14  1  0.417035  0.208517  0.407705  1
  As  As15  1  0.333333  0.666667  0.279700  1
  As  As16  1  0.666667  0.333333  0.778752  1
  As  As17  1  0.791483  0.208517  0.407705  1
  As  As18  1  0.208206  0.791794  0.907328  1
  As  As19  1  0.208206  0.416412  0.907328  1
  As  As20  1  0.583588  0.791794  0.907328  1
  W  W21  1  0.333333  0.666667  0.997299  1
