# generated using pymatgen
data_Dy3Al12CuRu3
_symmetry_space_group_name_H-M   'P 1'
_cell_length_a   8.82127002
_cell_length_b   8.82126987
_cell_length_c   9.45065900
_cell_angle_alpha   90.00000000
_cell_angle_beta   90.00000000
_cell_angle_gamma   119.61027668
_symmetry_Int_Tables_number   1
_chemical_formula_structural   Dy3Al12CuRu3
_chemical_formula_sum   'Dy6 Al24 Cu2 Ru6'
_cell_volume   639.36242743
_cell_formula_units_Z   2
loop_
 _symmetry_equiv_pos_site_id
 _symmetry_equiv_pos_as_xyz
  1  'x, y, z'
loop_
 _atom_site_type_symbol
 _atom_site_label
 _atom_site_symmetry_multiplicity
 _atom_site_fract_x
 _atom_site_fract_y
 _atom_site_fract_z
 _atom_site_occupancy
  Dy  Dy0  1  0.193506  0.806494  0.250000  1
  Dy  Dy1  1  0.188839  0.383914  0.250000  1
  Dy  Dy2  1  0.616086  0.811161  0.250000  1
  Dy  Dy3  1  0.806494  0.193506  0.750000  1
  Dy  Dy4  1  0.811161  0.616086  0.750000  1
  Dy  Dy5  1  0.383914  0.188839  0.750000  1
  Al  Al6  1  0.560796  0.439204  0.250000  1
  Al  Al7  1  0.560279  0.122069  0.250000  1
  Al  Al8  1  0.877931  0.439721  0.250000  1
  Al  Al9  1  0.439204  0.560796  0.750000  1
  Al  Al10  1  0.439721  0.877931  0.750000  1
  Al  Al11  1  0.122069  0.560279  0.750000  1
  Al  Al12  1  0.323841  0.157228  0.422085  1
  Al  Al13  1  0.836456  0.163544  0.423096  1
  Al  Al14  1  0.842772  0.676159  0.422085  1
  Al  Al15  1  0.676159  0.842772  0.577915  1
  Al  Al16  1  0.163544  0.836456  0.576904  1
  Al  Al17  1  0.157228  0.323841  0.577915  1
  Al  Al18  1  0.676159  0.842772  0.922085  1
  Al  Al19  1  0.163544  0.836456  0.923096  1
  Al  Al20  1  0.157228  0.323841  0.922085  1
  Al  Al21  1  0.323841  0.157228  0.077915  1
  Al  Al22  1  0.836456  0.163544  0.076904  1
  Al  Al23  1  0.842772  0.676159  0.077915  1
  Al  Al24  1  0.667953  0.332047  0.519752  1
  Al  Al25  1  0.332047  0.667953  0.480248  1
  Al  Al26  1  0.332047  0.667953  0.019752  1
  Al  Al27  1  0.667953  0.332047  0.980248  1
  Al  Al28  1  0.998249  0.001751  0.250000  1
  Al  Al29  1  0.001751  0.998249  0.750000  1
  Cu  Cu30  1  0.500000  0.500000  0.500000  1
  Cu  Cu31  1  0.500000  0.500000  0.000000  1
  Ru  Ru32  1  0.000000  0.000000  0.500000  1
  Ru  Ru33  1  0.000000  0.000000  0.000000  1
  Ru  Ru34  1  0.500000  0.000000  0.500000  1
  Ru  Ru35  1  0.000000  0.500000  0.500000  1
  Ru  Ru36  1  0.500000  0.000000  0.000000  1
  Ru  Ru37  1  0.000000  0.500000  0.000000  1
