# generated using pymatgen
data_Sc8Mn3Re9Si16
_symmetry_space_group_name_H-M   'P 1'
_cell_length_a   6.59074090
_cell_length_b   6.58010713
_cell_length_c   12.28000215
_cell_angle_alpha   90.05265300
_cell_angle_beta   89.80530675
_cell_angle_gamma   90.07614644
_symmetry_Int_Tables_number   1
_chemical_formula_structural   Sc8Mn3Re9Si16
_chemical_formula_sum   'Sc8 Mn3 Re9 Si16'
_cell_volume   532.55267909
_cell_formula_units_Z   1
loop_
 _symmetry_equiv_pos_site_id
 _symmetry_equiv_pos_as_xyz
  1  'x, y, z'
loop_
 _atom_site_type_symbol
 _atom_site_label
 _atom_site_symmetry_multiplicity
 _atom_site_fract_x
 _atom_site_fract_y
 _atom_site_fract_z
 _atom_site_occupancy
  Sc  Sc0  1  0.004213  0.662602  0.031015  1
  Sc  Sc1  1  0.994677  0.340371  0.528827  1
  Sc  Sc2  1  0.339578  0.995991  0.468626  1
  Sc  Sc3  1  0.157673  0.490243  0.780504  1
  Sc  Sc4  1  0.842066  0.509449  0.280625  1
  Sc  Sc5  1  0.492527  0.159847  0.221328  1
  Sc  Sc6  1  0.507056  0.841777  0.717801  1
  Sc  Sc7  1  0.659094  0.005246  0.968890  1
  Mn  Mn8  1  0.020116  0.812353  0.632233  1
  Mn  Mn9  1  0.980501  0.187329  0.132769  1
  Mn  Mn10  1  0.812742  0.019951  0.367992  1
  Re  Re11  1  0.665659  0.665670  0.499772  1
  Re  Re12  1  0.168298  0.831781  0.250604  1
  Re  Re13  1  0.334104  0.333678  0.002081  1
  Re  Re14  1  0.318919  0.479896  0.381115  1
  Re  Re15  1  0.685474  0.515445  0.882915  1
  Re  Re16  1  0.479179  0.318218  0.616333  1
  Re  Re17  1  0.522911  0.681266  0.120363  1
  Re  Re18  1  0.182643  0.981985  0.868721  1
  Re  Re19  1  0.831131  0.167773  0.746464  1
  Si  Si20  1  0.020994  0.732575  0.440044  1
  Si  Si21  1  0.626463  0.294206  0.428069  1
  Si  Si22  1  0.379289  0.696705  0.931903  1
  Si  Si23  1  0.190762  0.111486  0.677573  1
  Si  Si24  1  0.293697  0.626481  0.570500  1
  Si  Si25  1  0.704894  0.372160  0.072787  1
  Si  Si26  1  0.810467  0.892259  0.184464  1
  Si  Si27  1  0.107750  0.190527  0.316470  1
  Si  Si28  1  0.975448  0.276171  0.942523  1
  Si  Si29  1  0.732493  0.020996  0.559267  1
  Si  Si30  1  0.213385  0.465913  0.185367  1
  Si  Si31  1  0.785154  0.531500  0.684264  1
  Si  Si32  1  0.471269  0.220236  0.812217  1
  Si  Si33  1  0.534574  0.786412  0.315620  1
  Si  Si34  1  0.274460  0.976717  0.066091  1
  Si  Si35  1  0.880342  0.804786  0.813864  1
