# generated using pymatgen
data_Yb2GdN2
_symmetry_space_group_name_H-M   'P 1'
_cell_length_a   3.53107200
_cell_length_b   3.53104993
_cell_length_c   9.23439800
_cell_angle_alpha   89.99886448
_cell_angle_beta   90.00181882
_cell_angle_gamma   119.99918669
_symmetry_Int_Tables_number   1
_chemical_formula_structural   Yb2GdN2
_chemical_formula_sum   'Yb2 Gd1 N2'
_cell_volume   99.71332784
_cell_formula_units_Z   1
loop_
 _symmetry_equiv_pos_site_id
 _symmetry_equiv_pos_as_xyz
  1  'x, y, z'
loop_
 _atom_site_type_symbol
 _atom_site_label
 _atom_site_symmetry_multiplicity
 _atom_site_fract_x
 _atom_site_fract_y
 _atom_site_fract_z
 _atom_site_occupancy
  Yb  Yb0  1  0.666669  0.333332  0.290669  1
  Yb  Yb1  1  0.333331  0.666667  0.709331  1
  Gd  Gd2  1  0.000000  0.000001  0.000000  1
  N  N3  1  0.666671  0.333330  0.843363  1
  N  N4  1  0.333329  0.666669  0.156637  1
