# generated using pymatgen
data_Sc4Ti2Pb5
_symmetry_space_group_name_H-M   'P 1'
_cell_length_a   10.96738765
_cell_length_b   10.96738728
_cell_length_c   10.96738748
_cell_angle_alpha   148.21910376
_cell_angle_beta   131.65264030
_cell_angle_gamma   59.02384522
_symmetry_Int_Tables_number   1
_chemical_formula_structural   Sc4Ti2Pb5
_chemical_formula_sum   'Sc8 Ti4 Pb10'
_cell_volume   514.87877598
_cell_formula_units_Z   2
loop_
 _symmetry_equiv_pos_site_id
 _symmetry_equiv_pos_as_xyz
  1  'x, y, z'
loop_
 _atom_site_type_symbol
 _atom_site_label
 _atom_site_symmetry_multiplicity
 _atom_site_fract_x
 _atom_site_fract_y
 _atom_site_fract_z
 _atom_site_occupancy
  Sc  Sc0  1  0.672014  0.438036  0.233978  1
  Sc  Sc1  1  0.327986  0.561964  0.766022  1
  Sc  Sc2  1  0.204057  0.938036  0.266022  1
  Sc  Sc3  1  0.795943  0.061964  0.733978  1
  Sc  Sc4  1  0.253921  0.146213  0.107708  1
  Sc  Sc5  1  0.746079  0.853787  0.892292  1
  Sc  Sc6  1  0.038505  0.646213  0.392292  1
  Sc  Sc7  1  0.961495  0.353787  0.607708  1
  Ti  Ti8  1  0.305619  0.555619  0.250000  1
  Ti  Ti9  1  0.694381  0.444381  0.750000  1
  Ti  Ti10  1  0.694381  0.944381  0.250000  1
  Ti  Ti11  1  0.305619  0.055619  0.750000  1
  Pb  Pb12  1  0.588846  0.289279  0.299567  1
  Pb  Pb13  1  0.411154  0.710721  0.700433  1
  Pb  Pb14  1  0.989712  0.789279  0.200433  1
  Pb  Pb15  1  0.010288  0.210721  0.799567  1
  Pb  Pb16  1  0.000000  0.250000  0.250000  1
  Pb  Pb17  1  0.000000  0.750000  0.750000  1
  Pb  Pb18  1  0.473474  0.076454  0.397018  1
  Pb  Pb19  1  0.526526  0.923546  0.602982  1
  Pb  Pb20  1  0.679436  0.576454  0.102982  1
  Pb  Pb21  1  0.320564  0.423546  0.897018  1
