# generated using pymatgen
data_Ti20Si15Sn
_symmetry_space_group_name_H-M   'P 1'
_cell_length_a   6.76775107
_cell_length_b   6.74005458
_cell_length_c   12.26996407
_cell_angle_alpha   90.12420196
_cell_angle_beta   90.21131479
_cell_angle_gamma   89.89928903
_symmetry_Int_Tables_number   1
_chemical_formula_structural   Ti20Si15Sn
_chemical_formula_sum   'Ti20 Si15 Sn1'
_cell_volume   559.68857473
_cell_formula_units_Z   1
loop_
 _symmetry_equiv_pos_site_id
 _symmetry_equiv_pos_as_xyz
  1  'x, y, z'
loop_
 _atom_site_type_symbol
 _atom_site_label
 _atom_site_symmetry_multiplicity
 _atom_site_fract_x
 _atom_site_fract_y
 _atom_site_fract_z
 _atom_site_occupancy
  Ti  Ti0  1  0.998397  0.147167  0.613536  1
  Ti  Ti1  1  0.362183  0.501065  0.873980  1
  Ti  Ti2  1  0.649404  0.504663  0.371726  1
  Ti  Ti3  1  0.495363  0.350701  0.128592  1
  Ti  Ti4  1  0.506146  0.651205  0.626319  1
  Ti  Ti5  1  0.003977  0.849773  0.122001  1
  Ti  Ti6  1  0.149451  0.996633  0.378310  1
  Ti  Ti7  1  0.841286  0.989518  0.885427  1
  Ti  Ti8  1  0.002254  0.347682  0.217805  1
  Ti  Ti9  1  0.153090  0.502195  0.466581  1
  Ti  Ti10  1  0.831404  0.507846  0.977689  1
  Ti  Ti11  1  0.506331  0.151294  0.530020  1
  Ti  Ti12  1  0.498781  0.845676  0.033061  1
  Ti  Ti13  1  0.994904  0.670211  0.713503  1
  Ti  Ti14  1  0.355574  0.996073  0.781346  1
  Ti  Ti15  1  0.653223  0.996230  0.282724  1
  Ti  Ti16  1  0.174652  0.165389  0.006855  1
  Ti  Ti17  1  0.328074  0.669776  0.250722  1
  Ti  Ti18  1  0.656934  0.327519  0.746953  1
  Ti  Ti19  1  0.829161  0.829542  0.499127  1
  Si  Si20  1  0.198415  0.543729  0.063930  1
  Si  Si21  1  0.801333  0.455522  0.563198  1
  Si  Si22  1  0.543957  0.198776  0.937269  1
  Si  Si23  1  0.455999  0.800231  0.435467  1
  Si  Si24  1  0.954946  0.699490  0.313623  1
  Si  Si25  1  0.302622  0.042387  0.188859  1
  Si  Si26  1  0.703324  0.957102  0.686479  1
  Si  Si27  1  0.299896  0.357397  0.664848  1
  Si  Si28  1  0.144899  0.795222  0.922682  1
  Si  Si29  1  0.856727  0.205853  0.420004  1
  Si  Si30  1  0.794034  0.143158  0.079498  1
  Si  Si31  1  0.209009  0.857229  0.575359  1
  Si  Si32  1  0.703950  0.643726  0.175030  1
  Si  Si33  1  0.357792  0.294529  0.327449  1
  Si  Si34  1  0.645926  0.701250  0.823462  1
  Sn  Sn35  1  0.036581  0.304243  0.816563  1
