# generated using pymatgen
data_BeV10B4Se
_symmetry_space_group_name_H-M   'P 1'
_cell_length_a   6.73392293
_cell_length_b   6.73392259
_cell_length_c   6.73392305
_cell_angle_alpha   129.45912000
_cell_angle_beta   129.45913518
_cell_angle_gamma   74.27293991
_symmetry_Int_Tables_number   1
_chemical_formula_structural   BeV10B4Se
_chemical_formula_sum   'Be1 V10 B4 Se1'
_cell_volume   177.44600415
_cell_formula_units_Z   1
loop_
 _symmetry_equiv_pos_site_id
 _symmetry_equiv_pos_as_xyz
  1  'x, y, z'
loop_
 _atom_site_type_symbol
 _atom_site_label
 _atom_site_symmetry_multiplicity
 _atom_site_fract_x
 _atom_site_fract_y
 _atom_site_fract_z
 _atom_site_occupancy
  Be  Be0  1  0.750000  0.750000  0.000000  1
  V  V1  1  0.536430  0.697908  0.510088  1
  V  V2  1  0.026343  0.536430  0.838523  1
  V  V3  1  0.697908  0.187819  0.161477  1
  V  V4  1  0.963570  0.473657  0.161477  1
  V  V5  1  0.187819  0.026343  0.489912  1
  V  V6  1  0.473657  0.312181  0.510088  1
  V  V7  1  0.802092  0.963570  0.489912  1
  V  V8  1  0.312181  0.802092  0.838523  1
  V  V9  1  0.997656  0.997656  0.000000  1
  V  V10  1  0.502344  0.502344  0.000000  1
  B  B11  1  0.615252  0.115252  0.730504  1
  B  B12  1  0.115252  0.384748  0.500000  1
  B  B13  1  0.884748  0.615252  0.500000  1
  B  B14  1  0.384748  0.884748  0.269496  1
  Se  Se15  1  0.250000  0.250000  0.000000  1
