# generated using pymatgen
data_Li4Nd12Si7AsH4
_symmetry_space_group_name_H-M   'P 1'
_cell_length_a   4.34537600
_cell_length_b   11.80402469
_cell_length_c   11.82563670
_cell_angle_alpha   89.83876925
_cell_angle_beta   90.00000000
_cell_angle_gamma   90.00000000
_symmetry_Int_Tables_number   1
_chemical_formula_structural   Li4Nd12Si7AsH4
_chemical_formula_sum   'Li4 Nd12 Si7 As1 H4'
_cell_volume   606.56910168
_cell_formula_units_Z   1
loop_
 _symmetry_equiv_pos_site_id
 _symmetry_equiv_pos_as_xyz
  1  'x, y, z'
loop_
 _atom_site_type_symbol
 _atom_site_label
 _atom_site_symmetry_multiplicity
 _atom_site_fract_x
 _atom_site_fract_y
 _atom_site_fract_z
 _atom_site_occupancy
  Li  Li0  1  0.250000  0.130492  0.866338  1
  Li  Li1  1  0.250000  0.631329  0.633126  1
  Li  Li2  1  0.750000  0.869233  0.133237  1
  Li  Li3  1  0.750000  0.370152  0.369832  1
  Nd  Nd4  1  0.250000  0.053616  0.625776  1
  Nd  Nd5  1  0.250000  0.555962  0.876141  1
  Nd  Nd6  1  0.750000  0.942922  0.374730  1
  Nd  Nd7  1  0.750000  0.444253  0.125787  1
  Nd  Nd8  1  0.250000  0.373062  0.568373  1
  Nd  Nd9  1  0.250000  0.869932  0.932389  1
  Nd  Nd10  1  0.750000  0.630309  0.433455  1
  Nd  Nd11  1  0.750000  0.127762  0.065028  1
  Nd  Nd12  1  0.250000  0.209069  0.301366  1
  Nd  Nd13  1  0.250000  0.707012  0.193832  1
  Nd  Nd14  1  0.750000  0.792107  0.694704  1
  Nd  Nd15  1  0.750000  0.294181  0.809467  1
  Si  Si16  1  0.250000  0.479550  0.324009  1
  Si  Si17  1  0.250000  0.981365  0.178073  1
  Si  Si18  1  0.750000  0.518138  0.677014  1
  Si  Si19  1  0.750000  0.020289  0.820317  1
  Si  Si20  1  0.250000  0.314579  0.996428  1
  Si  Si21  1  0.250000  0.817623  0.506998  1
  Si  Si22  1  0.750000  0.684835  0.005541  1
  As  As23  1  0.750000  0.183469  0.490647  1
  H  H24  1  0.250000  0.234680  0.726400  1
  H  H25  1  0.250000  0.733758  0.771773  1
  H  H26  1  0.750000  0.766111  0.271660  1
  H  H27  1  0.750000  0.264209  0.227562  1
