# generated using pymatgen
data_Lu9Mg(Zn2Sb)2
_symmetry_space_group_name_H-M   'P 1'
_cell_length_a   8.45003010
_cell_length_b   8.45003033
_cell_length_c   8.45003092
_cell_angle_alpha   125.50374628
_cell_angle_beta   125.50374861
_cell_angle_gamma   80.70530800
_symmetry_Int_Tables_number   1
_chemical_formula_structural   Lu9Mg(Zn2Sb)2
_chemical_formula_sum   'Lu9 Mg1 Zn4 Sb2'
_cell_volume   385.53906584
_cell_formula_units_Z   1
loop_
 _symmetry_equiv_pos_site_id
 _symmetry_equiv_pos_as_xyz
  1  'x, y, z'
loop_
 _atom_site_type_symbol
 _atom_site_label
 _atom_site_symmetry_multiplicity
 _atom_site_fract_x
 _atom_site_fract_y
 _atom_site_fract_z
 _atom_site_occupancy
  Lu  Lu0  1  0.500000  0.500000  0.000000  1
  Lu  Lu1  1  0.805975  0.296970  0.816080  1
  Lu  Lu2  1  0.194025  0.703030  0.183920  1
  Lu  Lu3  1  0.480890  0.989895  0.183920  1
  Lu  Lu4  1  0.296970  0.480890  0.490995  1
  Lu  Lu5  1  0.010105  0.194025  0.490995  1
  Lu  Lu6  1  0.519110  0.010105  0.816080  1
  Lu  Lu7  1  0.703030  0.519110  0.509005  1
  Lu  Lu8  1  0.989895  0.805975  0.509005  1
  Mg  Mg9  1  0.000000  0.000000  0.000000  1
  Zn  Zn10  1  0.134196  0.629258  0.763455  1
  Zn  Zn11  1  0.865804  0.370742  0.236545  1
  Zn  Zn12  1  0.629258  0.865804  0.495062  1
  Zn  Zn13  1  0.370742  0.134196  0.504938  1
  Sb  Sb14  1  0.250903  0.250903  0.000000  1
  Sb  Sb15  1  0.749097  0.749097  0.000000  1
