# generated using pymatgen
data_Cs8Mn3GaS10
_symmetry_space_group_name_H-M   'P 1'
_cell_length_a   7.88269588
_cell_length_b   8.96292570
_cell_length_c   10.95099969
_cell_angle_alpha   77.87615154
_cell_angle_beta   85.40488848
_cell_angle_gamma   80.05683742
_symmetry_Int_Tables_number   1
_chemical_formula_structural   Cs8Mn3GaS10
_chemical_formula_sum   'Cs8 Mn3 Ga1 S10'
_cell_volume   744.31825207
_cell_formula_units_Z   1
loop_
 _symmetry_equiv_pos_site_id
 _symmetry_equiv_pos_as_xyz
  1  'x, y, z'
loop_
 _atom_site_type_symbol
 _atom_site_label
 _atom_site_symmetry_multiplicity
 _atom_site_fract_x
 _atom_site_fract_y
 _atom_site_fract_z
 _atom_site_occupancy
  Cs  Cs0  1  0.419518  0.322384  0.088072  1
  Cs  Cs1  1  0.575170  0.679742  0.908818  1
  Cs  Cs2  1  0.194991  0.081336  0.859910  1
  Cs  Cs3  1  0.058812  0.605282  0.751989  1
  Cs  Cs4  1  0.794983  0.927446  0.118623  1
  Cs  Cs5  1  0.931627  0.395635  0.252357  1
  Cs  Cs6  1  0.595402  0.707384  0.510103  1
  Cs  Cs7  1  0.424072  0.277588  0.498787  1
  Mn  Mn8  1  0.916300  0.076824  0.587677  1
  Mn  Mn9  1  0.091343  0.914275  0.403215  1
  Mn  Mn10  1  0.264282  0.737875  0.228819  1
  Ga  Ga11  1  0.728948  0.273140  0.783151  1
  S  S12  1  0.901192  0.340207  0.600325  1
  S  S13  1  0.195690  0.949986  0.571903  1
  S  S14  1  0.453842  0.403908  0.764398  1
  S  S15  1  0.170960  0.690958  0.058203  1
  S  S16  1  0.841549  0.311160  0.959300  1
  S  S17  1  0.525048  0.601331  0.235102  1
  S  S18  1  0.101882  0.671636  0.403879  1
  S  S19  1  0.243026  0.991941  0.233002  1
  S  S20  1  0.747848  0.007267  0.776048  1
  S  S21  1  0.823515  0.032696  0.406319  1
