# generated using pymatgen
data_CaNdCd2RuRh3O14
_symmetry_space_group_name_H-M   'P 1'
_cell_length_a   7.29417521
_cell_length_b   7.29417489
_cell_length_c   7.37611300
_cell_angle_alpha   59.61510547
_cell_angle_beta   59.61512518
_cell_angle_gamma   59.42648903
_symmetry_Int_Tables_number   1
_chemical_formula_structural   CaNdCd2RuRh3O14
_chemical_formula_sum   'Ca1 Nd1 Cd2 Ru1 Rh3 O14'
_cell_volume   274.67425812
_cell_formula_units_Z   1
loop_
 _symmetry_equiv_pos_site_id
 _symmetry_equiv_pos_as_xyz
  1  'x, y, z'
loop_
 _atom_site_type_symbol
 _atom_site_label
 _atom_site_symmetry_multiplicity
 _atom_site_fract_x
 _atom_site_fract_y
 _atom_site_fract_z
 _atom_site_occupancy
  Ca  Ca0  1  0.125000  0.125000  0.125000  1
  Nd  Nd1  1  0.125000  0.125000  0.625000  1
  Cd  Cd2  1  0.125000  0.625000  0.125000  1
  Cd  Cd3  1  0.625000  0.125000  0.125000  1
  Ru  Ru4  1  0.625000  0.625000  0.125000  1
  Rh  Rh5  1  0.625000  0.125000  0.625000  1
  Rh  Rh6  1  0.125000  0.625000  0.625000  1
  Rh  Rh7  1  0.625000  0.625000  0.625000  1
  O  O8  1  0.690787  0.690787  0.304682  1
  O  O9  1  0.954381  0.549146  0.543703  1
  O  O10  1  0.555569  0.940374  0.946805  1
  O  O11  1  0.958740  0.958740  0.538741  1
  O  O12  1  0.940374  0.555569  0.946805  1
  O  O13  1  0.549146  0.954381  0.543703  1
  O  O14  1  0.309626  0.694431  0.303195  1
  O  O15  1  0.295619  0.700854  0.706297  1
  O  O16  1  0.694431  0.309626  0.303195  1
  O  O17  1  0.700854  0.295619  0.706297  1
  O  O18  1  0.559213  0.559213  0.945318  1
  O  O19  1  0.291260  0.291260  0.711259  1
  O  O20  1  0.261000  0.261000  0.234553  1
  O  O21  1  0.989000  0.989000  0.015447  1
