# generated using pymatgen
data_Zr11Sc(Si3Rh)4
_symmetry_space_group_name_H-M   'P 1'
_cell_length_a   3.91840500
_cell_length_b   10.41945976
_cell_length_c   11.78241328
_cell_angle_alpha   90.04580060
_cell_angle_beta   90.00000000
_cell_angle_gamma   90.00000000
_symmetry_Int_Tables_number   1
_chemical_formula_structural   Zr11Sc(Si3Rh)4
_chemical_formula_sum   'Zr11 Sc1 Si12 Rh4'
_cell_volume   481.04824756
_cell_formula_units_Z   1
loop_
 _symmetry_equiv_pos_site_id
 _symmetry_equiv_pos_as_xyz
  1  'x, y, z'
loop_
 _atom_site_type_symbol
 _atom_site_label
 _atom_site_symmetry_multiplicity
 _atom_site_fract_x
 _atom_site_fract_y
 _atom_site_fract_z
 _atom_site_occupancy
  Zr  Zr0  1  0.250000  0.876008  0.021879  1
  Zr  Zr1  1  0.250000  0.624388  0.522680  1
  Zr  Zr2  1  0.750000  0.123601  0.977838  1
  Zr  Zr3  1  0.750000  0.376746  0.477419  1
  Zr  Zr4  1  0.250000  0.926389  0.595044  1
  Zr  Zr5  1  0.250000  0.572156  0.096096  1
  Zr  Zr6  1  0.750000  0.073402  0.403957  1
  Zr  Zr7  1  0.750000  0.426605  0.903833  1
  Zr  Zr8  1  0.250000  0.658395  0.800312  1
  Zr  Zr9  1  0.250000  0.841464  0.300290  1
  Zr  Zr10  1  0.750000  0.341692  0.199503  1
  Sc  Sc11  1  0.750000  0.158536  0.699577  1
  Si  Si12  1  0.250000  0.016901  0.824607  1
  Si  Si13  1  0.250000  0.483497  0.325331  1
  Si  Si14  1  0.750000  0.982992  0.174398  1
  Si  Si15  1  0.750000  0.516845  0.674921  1
  Si  Si16  1  0.250000  0.249151  0.842903  1
  Si  Si17  1  0.250000  0.250031  0.343871  1
  Si  Si18  1  0.750000  0.749905  0.156388  1
  Si  Si19  1  0.750000  0.750658  0.657171  1
  Si  Si20  1  0.250000  0.193349  0.544058  1
  Si  Si21  1  0.250000  0.306429  0.042259  1
  Si  Si22  1  0.750000  0.807780  0.457192  1
  Si  Si23  1  0.750000  0.693472  0.957689  1
  Rh  Rh24  1  0.250000  0.384682  0.680756  1
  Rh  Rh25  1  0.250000  0.114026  0.181788  1
  Rh  Rh26  1  0.750000  0.614641  0.318865  1
  Rh  Rh27  1  0.750000  0.886263  0.819377  1
