# generated using pymatgen
data_Er3(Cd2Ga)2
_symmetry_space_group_name_H-M   'P 1'
_cell_length_a   4.45372800
_cell_length_b   7.28678309
_cell_length_c   7.28678300
_cell_angle_alpha   120.00000415
_cell_angle_beta   90.00000000
_cell_angle_gamma   90.00000000
_symmetry_Int_Tables_number   1
_chemical_formula_structural   Er3(Cd2Ga)2
_chemical_formula_sum   'Er3 Cd4 Ga2'
_cell_volume   204.79812756
_cell_formula_units_Z   1
loop_
 _symmetry_equiv_pos_site_id
 _symmetry_equiv_pos_as_xyz
  1  'x, y, z'
loop_
 _atom_site_type_symbol
 _atom_site_label
 _atom_site_symmetry_multiplicity
 _atom_site_fract_x
 _atom_site_fract_y
 _atom_site_fract_z
 _atom_site_occupancy
  Er  Er0  1  0.000000  0.429514  0.429514  1
  Er  Er1  1  0.000000  0.000000  0.570486  1
  Er  Er2  1  0.000000  0.570486  0.000000  1
  Cd  Cd3  1  0.500000  0.747048  0.747048  1
  Cd  Cd4  1  0.500000  0.000000  0.252952  1
  Cd  Cd5  1  0.500000  0.252952  0.000000  1
  Cd  Cd6  1  0.000000  0.000000  0.000000  1
  Ga  Ga7  1  0.500000  0.666667  0.333333  1
  Ga  Ga8  1  0.500000  0.333333  0.666667  1
