# generated using pymatgen
data_Tb16Cd3CoHgRu3
_symmetry_space_group_name_H-M   'P 1'
_cell_length_a   9.67423706
_cell_length_b   9.67423757
_cell_length_c   9.58767267
_cell_angle_alpha   59.70087755
_cell_angle_beta   59.70087208
_cell_angle_gamma   60.00000674
_symmetry_Int_Tables_number   1
_chemical_formula_structural   Tb16Cd3CoHgRu3
_chemical_formula_sum   'Tb16 Cd3 Co1 Hg1 Ru3'
_cell_volume   631.61620313
_cell_formula_units_Z   1
loop_
 _symmetry_equiv_pos_site_id
 _symmetry_equiv_pos_as_xyz
  1  'x, y, z'
loop_
 _atom_site_type_symbol
 _atom_site_label
 _atom_site_symmetry_multiplicity
 _atom_site_fract_x
 _atom_site_fract_y
 _atom_site_fract_z
 _atom_site_occupancy
  Tb  Tb0  1  0.438368  0.438368  0.057434  1
  Tb  Tb1  1  0.594318  0.594318  0.601474  1
  Tb  Tb2  1  0.187090  0.814843  0.810977  1
  Tb  Tb3  1  0.060473  0.060473  0.438101  1
  Tb  Tb4  1  0.438368  0.065829  0.057434  1
  Tb  Tb5  1  0.814843  0.187090  0.810977  1
  Tb  Tb6  1  0.440952  0.060473  0.438101  1
  Tb  Tb7  1  0.594318  0.209889  0.601474  1
  Tb  Tb8  1  0.811707  0.811707  0.188448  1
  Tb  Tb9  1  0.209889  0.594318  0.601474  1
  Tb  Tb10  1  0.811707  0.188138  0.188448  1
  Tb  Tb11  1  0.060473  0.440952  0.438101  1
  Tb  Tb12  1  0.188138  0.811707  0.188448  1
  Tb  Tb13  1  0.595192  0.595192  0.214423  1
  Tb  Tb14  1  0.187090  0.187090  0.810977  1
  Tb  Tb15  1  0.065829  0.438368  0.057434  1
  Cd  Cd16  1  0.829485  0.829485  0.829118  1
  Cd  Cd17  1  0.511909  0.829485  0.829118  1
  Cd  Cd18  1  0.829485  0.511909  0.829118  1
  Co  Co19  1  0.389775  0.389775  0.830677  1
  Hg  Hg20  1  0.834973  0.834973  0.495080  1
  Ru  Ru21  1  0.387038  0.387038  0.394388  1
  Ru  Ru22  1  0.831535  0.387038  0.394388  1
  Ru  Ru23  1  0.387038  0.831535  0.394388  1
