# generated using pymatgen
data_Sc8TaNb10Si16Mo
_symmetry_space_group_name_H-M   'P 1'
_cell_length_a   6.69393107
_cell_length_b   6.89036519
_cell_length_c   13.13763400
_cell_angle_alpha   90.00000000
_cell_angle_beta   90.00000000
_cell_angle_gamma   89.97838723
_symmetry_Int_Tables_number   1
_chemical_formula_structural   Sc8TaNb10Si16Mo
_chemical_formula_sum   'Sc8 Ta1 Nb10 Si16 Mo1'
_cell_volume   605.95532146
_cell_formula_units_Z   1
loop_
 _symmetry_equiv_pos_site_id
 _symmetry_equiv_pos_as_xyz
  1  'x, y, z'
loop_
 _atom_site_type_symbol
 _atom_site_label
 _atom_site_symmetry_multiplicity
 _atom_site_fract_x
 _atom_site_fract_y
 _atom_site_fract_z
 _atom_site_occupancy
  Sc  Sc0  1  0.499929  0.325549  0.094378  1
  Sc  Sc1  1  0.000725  0.174358  0.405593  1
  Sc  Sc2  1  0.498691  0.674790  0.594761  1
  Sc  Sc3  1  0.998345  0.825956  0.904861  1
  Sc  Sc4  1  0.498691  0.674790  0.905239  1
  Sc  Sc5  1  0.998345  0.825956  0.595139  1
  Sc  Sc6  1  0.499929  0.325549  0.405622  1
  Sc  Sc7  1  0.000725  0.174358  0.094407  1
  Ta  Ta8  1  0.160145  0.493158  0.750000  1
  Nb  Nb9  1  0.835752  0.326131  0.624562  1
  Nb  Nb10  1  0.334737  0.174406  0.874984  1
  Nb  Nb11  1  0.165687  0.672357  0.125695  1
  Nb  Nb12  1  0.665091  0.826687  0.374328  1
  Nb  Nb13  1  0.165687  0.672357  0.374305  1
  Nb  Nb14  1  0.665091  0.826687  0.125672  1
  Nb  Nb15  1  0.835752  0.326131  0.875438  1
  Nb  Nb16  1  0.334737  0.174406  0.625016  1
  Nb  Nb17  1  0.660335  0.005178  0.750000  1
  Nb  Nb18  1  0.339251  0.994089  0.250000  1
  Si  Si19  1  0.668259  0.032741  0.539664  1
  Si  Si20  1  0.168488  0.467695  0.960411  1
  Si  Si21  1  0.331739  0.967054  0.039774  1
  Si  Si22  1  0.832113  0.533207  0.458954  1
  Si  Si23  1  0.331739  0.967054  0.460226  1
  Si  Si24  1  0.832113  0.533207  0.041046  1
  Si  Si25  1  0.668259  0.032741  0.960336  1
  Si  Si26  1  0.168488  0.467695  0.539589  1
  Si  Si27  1  0.538786  0.386965  0.750000  1
  Si  Si28  1  0.037487  0.112071  0.750000  1
  Si  Si29  1  0.466758  0.609918  0.250000  1
  Si  Si30  1  0.961529  0.886981  0.250000  1
  Si  Si31  1  0.793538  0.638721  0.750000  1
  Si  Si32  1  0.293280  0.860054  0.750000  1
  Si  Si33  1  0.202273  0.361194  0.250000  1
  Si  Si34  1  0.706813  0.144043  0.250000  1
  Mo  Mo35  1  0.840689  0.505763  0.250000  1
