# generated using pymatgen
data_Tb6YbCoCl12
_symmetry_space_group_name_H-M   'P 1'
_cell_length_a   8.84611152
_cell_length_b   8.84611260
_cell_length_c   8.84611359
_cell_angle_alpha   106.64164272
_cell_angle_beta   106.64164585
_cell_angle_gamma   106.64165350
_symmetry_Int_Tables_number   1
_chemical_formula_structural   Tb6YbCoCl12
_chemical_formula_sum   'Tb6 Yb1 Co1 Cl12'
_cell_volume   582.04867413
_cell_formula_units_Z   1
loop_
 _symmetry_equiv_pos_site_id
 _symmetry_equiv_pos_as_xyz
  1  'x, y, z'
loop_
 _atom_site_type_symbol
 _atom_site_label
 _atom_site_symmetry_multiplicity
 _atom_site_fract_x
 _atom_site_fract_y
 _atom_site_fract_z
 _atom_site_occupancy
  Tb  Tb0  1  0.314532  0.108318  0.022523  1
  Tb  Tb1  1  0.108318  0.022523  0.314532  1
  Tb  Tb2  1  0.022523  0.314532  0.108318  1
  Tb  Tb3  1  0.685468  0.891682  0.977477  1
  Tb  Tb4  1  0.891682  0.977477  0.685468  1
  Tb  Tb5  1  0.977477  0.685468  0.891682  1
  Yb  Yb6  1  0.500000  0.500000  0.500000  1
  Co  Co7  1  0.000000  0.000000  0.000000  1
  Cl  Cl8  1  0.213749  0.070404  0.679320  1
  Cl  Cl9  1  0.070404  0.679320  0.213749  1
  Cl  Cl10  1  0.679320  0.213749  0.070404  1
  Cl  Cl11  1  0.786251  0.929596  0.320680  1
  Cl  Cl12  1  0.929596  0.320680  0.786251  1
  Cl  Cl13  1  0.320680  0.786251  0.929596  1
  Cl  Cl14  1  0.372709  0.454463  0.162665  1
  Cl  Cl15  1  0.454463  0.162665  0.372709  1
  Cl  Cl16  1  0.162665  0.372709  0.454463  1
  Cl  Cl17  1  0.627291  0.545537  0.837335  1
  Cl  Cl18  1  0.545537  0.837335  0.627291  1
  Cl  Cl19  1  0.837335  0.627291  0.545537  1
