# generated using pymatgen
data_NaAgPSe3
_symmetry_space_group_name_H-M   'P 1'
_cell_length_a   11.50417500
_cell_length_b   7.12011894
_cell_length_c   9.23572945
_cell_angle_alpha   67.58747885
_cell_angle_beta   90.00000000
_cell_angle_gamma   90.00000000
_symmetry_Int_Tables_number   1
_chemical_formula_structural   NaAgPSe3
_chemical_formula_sum   'Na4 Ag4 P4 Se12'
_cell_volume   699.36410650
_cell_formula_units_Z   4
loop_
 _symmetry_equiv_pos_site_id
 _symmetry_equiv_pos_as_xyz
  1  'x, y, z'
loop_
 _atom_site_type_symbol
 _atom_site_label
 _atom_site_symmetry_multiplicity
 _atom_site_fract_x
 _atom_site_fract_y
 _atom_site_fract_z
 _atom_site_occupancy
  Na  Na0  1  0.214334  0.113221  0.600659  1
  Na  Na1  1  0.714334  0.886779  0.899341  1
  Na  Na2  1  0.785666  0.886779  0.399341  1
  Na  Na3  1  0.285666  0.113221  0.100659  1
  Ag  Ag4  1  0.091787  0.639698  0.879521  1
  Ag  Ag5  1  0.591787  0.360302  0.620479  1
  Ag  Ag6  1  0.908213  0.360302  0.120479  1
  Ag  Ag7  1  0.408213  0.639698  0.379521  1
  P  P8  1  0.484499  0.875547  0.625227  1
  P  P9  1  0.984499  0.124453  0.874773  1
  P  P10  1  0.515501  0.124453  0.374773  1
  P  P11  1  0.015501  0.875547  0.125227  1
  Se  Se12  1  0.322081  0.715689  0.618135  1
  Se  Se13  1  0.822081  0.284311  0.881865  1
  Se  Se14  1  0.677919  0.284311  0.381865  1
  Se  Se15  1  0.177919  0.715689  0.118135  1
  Se  Se16  1  0.468437  0.040103  0.786067  1
  Se  Se17  1  0.968437  0.959897  0.713933  1
  Se  Se18  1  0.531563  0.959897  0.213933  1
  Se  Se19  1  0.031563  0.040103  0.286067  1
  Se  Se20  1  0.643291  0.678484  0.683334  1
  Se  Se21  1  0.143291  0.321516  0.816666  1
  Se  Se22  1  0.356709  0.321516  0.316666  1
  Se  Se23  1  0.856709  0.678484  0.183334  1
