# generated using pymatgen
data_Rb14Nb2Tl3In3P10
_symmetry_space_group_name_H-M   'P 1'
_cell_length_a   8.57936060
_cell_length_b   9.45965009
_cell_length_c   14.30584021
_cell_angle_alpha   85.91382008
_cell_angle_beta   83.33227859
_cell_angle_gamma   86.35161159
_symmetry_Int_Tables_number   1
_chemical_formula_structural   Rb14Nb2Tl3In3P10
_chemical_formula_sum   'Rb14 Nb2 Tl3 In3 P10'
_cell_volume   1148.44828399
_cell_formula_units_Z   1
loop_
 _symmetry_equiv_pos_site_id
 _symmetry_equiv_pos_as_xyz
  1  'x, y, z'
loop_
 _atom_site_type_symbol
 _atom_site_label
 _atom_site_symmetry_multiplicity
 _atom_site_fract_x
 _atom_site_fract_y
 _atom_site_fract_z
 _atom_site_occupancy
  Rb  Rb0  1  0.844941  0.357825  0.651261  1
  Rb  Rb1  1  0.820422  0.801307  0.137902  1
  Rb  Rb2  1  0.237541  0.007840  0.467447  1
  Rb  Rb3  1  0.274257  0.256879  0.252442  1
  Rb  Rb4  1  0.733461  0.499188  0.971982  1
  Rb  Rb5  1  0.260454  0.501249  0.027896  1
  Rb  Rb6  1  0.671680  0.082086  0.885773  1
  Rb  Rb7  1  0.764475  0.989863  0.530988  1
  Rb  Rb8  1  0.727688  0.741720  0.747086  1
  Rb  Rb9  1  0.336663  0.349969  0.595576  1
  Rb  Rb10  1  0.152961  0.641245  0.348902  1
  Rb  Rb11  1  0.176650  0.199490  0.862490  1
  Rb  Rb12  1  0.331229  0.916204  0.115858  1
  Rb  Rb13  1  0.656836  0.653537  0.402146  1
  Nb  Nb14  1  0.352514  0.605694  0.775356  1
  Nb  Nb15  1  0.649276  0.393344  0.224921  1
  Tl  Tl16  1  0.046399  0.821418  0.878411  1
  Tl  Tl17  1  0.955749  0.179153  0.121330  1
  Tl  Tl18  1  0.368038  0.962381  0.701445  1
  In  In19  1  0.096124  0.722368  0.625077  1
  In  In20  1  0.906221  0.280242  0.375584  1
  In  In21  1  0.640363  0.046872  0.297584  1
  P  P22  1  0.922592  0.451746  0.209929  1
  P  P23  1  0.624158  0.195955  0.124807  1
  P  P24  1  0.078485  0.549539  0.789706  1
  P  P25  1  0.586233  0.295646  0.387403  1
  P  P26  1  0.415832  0.700275  0.612238  1
  P  P27  1  0.023149  0.996263  0.700277  1
  P  P28  1  0.511605  0.401592  0.808678  1
  P  P29  1  0.486188  0.594104  0.190898  1
  P  P30  1  0.378253  0.798786  0.878418  1
  P  P31  1  0.969564  0.006218  0.300188  1
