# generated using pymatgen
data_Pr20Sn8Os3Rh
_symmetry_space_group_name_H-M   'P 1'
_cell_length_a   8.25789061
_cell_length_b   9.21819000
_cell_length_c   12.85668900
_cell_angle_alpha   90.00000000
_cell_angle_beta   89.81166626
_cell_angle_gamma   90.00000000
_symmetry_Int_Tables_number   1
_chemical_formula_structural   Pr20Sn8Os3Rh
_chemical_formula_sum   'Pr20 Sn8 Os3 Rh1'
_cell_volume   978.68193812
_cell_formula_units_Z   1
loop_
 _symmetry_equiv_pos_site_id
 _symmetry_equiv_pos_as_xyz
  1  'x, y, z'
loop_
 _atom_site_type_symbol
 _atom_site_label
 _atom_site_symmetry_multiplicity
 _atom_site_fract_x
 _atom_site_fract_y
 _atom_site_fract_z
 _atom_site_occupancy
  Pr  Pr0  1  0.839423  0.750000  0.782829  1
  Pr  Pr1  1  0.156049  0.250000  0.215110  1
  Pr  Pr2  1  0.340818  0.250000  0.715495  1
  Pr  Pr3  1  0.656217  0.750000  0.285778  1
  Pr  Pr4  1  0.374216  0.750000  0.695966  1
  Pr  Pr5  1  0.626632  0.250000  0.303185  1
  Pr  Pr6  1  0.874295  0.250000  0.803029  1
  Pr  Pr7  1  0.130723  0.750000  0.200443  1
  Pr  Pr8  1  0.949750  0.750000  0.502053  1
  Pr  Pr9  1  0.051879  0.250000  0.497868  1
  Pr  Pr10  1  0.447263  0.250000  0.998501  1
  Pr  Pr11  1  0.549185  0.750000  0.003058  1
  Pr  Pr12  1  0.674513  0.035883  0.569365  1
  Pr  Pr13  1  0.326458  0.964371  0.430269  1
  Pr  Pr14  1  0.176108  0.964687  0.928786  1
  Pr  Pr15  1  0.326458  0.535629  0.430269  1
  Pr  Pr16  1  0.823767  0.037111  0.068888  1
  Pr  Pr17  1  0.674513  0.464117  0.569365  1
  Pr  Pr18  1  0.823767  0.462889  0.068888  1
  Pr  Pr19  1  0.176108  0.535313  0.928786  1
  Sn  Sn20  1  0.570635  0.495262  0.830504  1
  Sn  Sn21  1  0.428530  0.504157  0.170162  1
  Sn  Sn22  1  0.070994  0.505291  0.669488  1
  Sn  Sn23  1  0.428530  0.995843  0.170162  1
  Sn  Sn24  1  0.928634  0.495643  0.330183  1
  Sn  Sn25  1  0.570635  0.004738  0.830504  1
  Sn  Sn26  1  0.928634  0.004357  0.330183  1
  Sn  Sn27  1  0.070994  0.994709  0.669488  1
  Os  Os28  1  0.581168  0.750000  0.509335  1
  Os  Os29  1  0.421444  0.250000  0.491708  1
  Os  Os30  1  0.077758  0.250000  0.990674  1
  Rh  Rh31  1  0.923903  0.750000  0.009676  1
