# generated using pymatgen
data_TbY2BCl3
_symmetry_space_group_name_H-M   'P 1'
_cell_length_a   9.48600298
_cell_length_b   9.48144342
_cell_length_c   9.48015705
_cell_angle_alpha   109.50966087
_cell_angle_beta   109.46821225
_cell_angle_gamma   109.44255657
_symmetry_Int_Tables_number   1
_chemical_formula_structural   TbY2BCl3
_chemical_formula_sum   'Tb4 Y8 B4 Cl12'
_cell_volume   656.31897894
_cell_formula_units_Z   4
loop_
 _symmetry_equiv_pos_site_id
 _symmetry_equiv_pos_as_xyz
  1  'x, y, z'
loop_
 _atom_site_type_symbol
 _atom_site_label
 _atom_site_symmetry_multiplicity
 _atom_site_fract_x
 _atom_site_fract_y
 _atom_site_fract_z
 _atom_site_occupancy
  Tb  Tb0  1  0.470013  0.485025  0.234898  1
  Tb  Tb1  1  0.750004  0.235031  0.264911  1
  Tb  Tb2  1  0.749813  0.014619  0.485044  1
  Tb  Tb3  1  0.235289  0.470513  0.485241  1
  Y  Y4  1  0.265083  0.749648  0.234412  1
  Y  Y5  1  0.030987  0.265413  0.015392  1
  Y  Y6  1  0.015246  0.030685  0.265445  1
  Y  Y7  1  0.484244  0.749776  0.015175  1
  Y  Y8  1  0.484374  0.234429  0.469188  1
  Y  Y9  1  0.015272  0.484561  0.749916  1
  Y  Y10  1  0.264939  0.014945  0.030236  1
  Y  Y11  1  0.234632  0.265283  0.750080  1
  B  B12  1  0.249879  0.249861  0.249840  1
  B  B13  1  0.499829  0.999773  0.249862  1
  B  B14  1  0.999989  0.249978  0.500145  1
  B  B15  1  0.249860  0.499928  0.999857  1
  Cl  Cl16  1  0.249863  0.755847  0.745300  1
  Cl  Cl17  1  0.510756  0.505086  0.755445  1
  Cl  Cl18  1  0.989304  0.744632  0.994678  1
  Cl  Cl19  1  0.744616  0.250335  0.755537  1
  Cl  Cl20  1  0.995335  0.989265  0.745230  1
  Cl  Cl21  1  0.249964  0.994620  0.505255  1
  Cl  Cl22  1  0.755821  0.510704  0.506276  1
  Cl  Cl23  1  0.504398  0.249559  0.993642  1
  Cl  Cl24  1  0.755890  0.745001  0.249505  1
  Cl  Cl25  1  0.744561  0.994211  0.989006  1
  Cl  Cl26  1  0.994976  0.505863  0.249734  1
  Cl  Cl27  1  0.505060  0.755410  0.510748  1
