# generated using pymatgen
data_Er2FeCo8ReP6
_symmetry_space_group_name_H-M   'P 1'
_cell_length_a   3.68086400
_cell_length_b   10.28825600
_cell_length_c   11.75602500
_cell_angle_alpha   90.00000000
_cell_angle_beta   90.00000000
_cell_angle_gamma   90.00000000
_symmetry_Int_Tables_number   1
_chemical_formula_structural   Er2FeCo8ReP6
_chemical_formula_sum   'Er4 Fe2 Co16 Re2 P12'
_cell_volume   445.19680058
_cell_formula_units_Z   2
loop_
 _symmetry_equiv_pos_site_id
 _symmetry_equiv_pos_as_xyz
  1  'x, y, z'
loop_
 _atom_site_type_symbol
 _atom_site_label
 _atom_site_symmetry_multiplicity
 _atom_site_fract_x
 _atom_site_fract_y
 _atom_site_fract_z
 _atom_site_occupancy
  Er  Er0  1  0.250000  0.581994  0.703163  1
  Er  Er1  1  0.250000  0.918006  0.203163  1
  Er  Er2  1  0.750000  0.415482  0.294961  1
  Er  Er3  1  0.750000  0.084518  0.794961  1
  Fe  Fe4  1  0.750000  0.286871  0.011298  1
  Fe  Fe5  1  0.750000  0.213129  0.511298  1
  Co  Co6  1  0.250000  0.406426  0.487451  1
  Co  Co7  1  0.250000  0.093574  0.987451  1
  Co  Co8  1  0.750000  0.593056  0.511446  1
  Co  Co9  1  0.750000  0.906944  0.011446  1
  Co  Co10  1  0.250000  0.220603  0.177250  1
  Co  Co11  1  0.250000  0.279397  0.677250  1
  Co  Co12  1  0.750000  0.778020  0.822683  1
  Co  Co13  1  0.750000  0.721980  0.322683  1
  Co  Co14  1  0.250000  0.886663  0.701293  1
  Co  Co15  1  0.250000  0.613337  0.201293  1
  Co  Co16  1  0.750000  0.116264  0.300868  1
  Co  Co17  1  0.750000  0.383736  0.800868  1
  Co  Co18  1  0.250000  0.464320  0.932957  1
  Co  Co19  1  0.250000  0.035680  0.432957  1
  Co  Co20  1  0.750000  0.532934  0.068309  1
  Co  Co21  1  0.750000  0.967066  0.568309  1
  Re  Re22  1  0.250000  0.710065  0.989107  1
  Re  Re23  1  0.250000  0.789935  0.489107  1
  P  P24  1  0.250000  0.416181  0.113138  1
  P  P25  1  0.250000  0.083819  0.613138  1
  P  P26  1  0.750000  0.578317  0.885544  1
  P  P27  1  0.750000  0.921683  0.385544  1
  P  P28  1  0.250000  0.268668  0.867701  1
  P  P29  1  0.250000  0.231332  0.367701  1
  P  P30  1  0.750000  0.730386  0.133499  1
  P  P31  1  0.750000  0.769614  0.633499  1
  P  P32  1  0.250000  0.594309  0.390643  1
  P  P33  1  0.250000  0.905691  0.890643  1
  P  P34  1  0.750000  0.398309  0.608689  1
  P  P35  1  0.750000  0.101691  0.108689  1
