# generated using pymatgen
data_Y16Al4Ir3Pd
_symmetry_space_group_name_H-M   'P 1'
_cell_length_a   9.55772457
_cell_length_b   9.55772444
_cell_length_c   9.55772366
_cell_angle_alpha   60.61300579
_cell_angle_beta   60.61300725
_cell_angle_gamma   60.61301262
_symmetry_Int_Tables_number   1
_chemical_formula_structural   Y16Al4Ir3Pd
_chemical_formula_sum   'Y16 Al4 Ir3 Pd1'
_cell_volume   625.92093673
_cell_formula_units_Z   1
loop_
 _symmetry_equiv_pos_site_id
 _symmetry_equiv_pos_as_xyz
  1  'x, y, z'
loop_
 _atom_site_type_symbol
 _atom_site_label
 _atom_site_symmetry_multiplicity
 _atom_site_fract_x
 _atom_site_fract_y
 _atom_site_fract_z
 _atom_site_occupancy
  Y  Y0  1  0.348038  0.348038  0.348038  1
  Y  Y1  1  0.356849  0.356849  0.937174  1
  Y  Y2  1  0.356849  0.937174  0.356849  1
  Y  Y3  1  0.937174  0.356849  0.356849  1
  Y  Y4  1  0.799642  0.195372  0.195372  1
  Y  Y5  1  0.195754  0.806394  0.806394  1
  Y  Y6  1  0.195372  0.799642  0.195372  1
  Y  Y7  1  0.806394  0.195754  0.806394  1
  Y  Y8  1  0.195372  0.195372  0.799642  1
  Y  Y9  1  0.806394  0.806394  0.195754  1
  Y  Y10  1  0.938892  0.563115  0.563115  1
  Y  Y11  1  0.565330  0.939057  0.939057  1
  Y  Y12  1  0.563115  0.938892  0.563115  1
  Y  Y13  1  0.939057  0.565330  0.939057  1
  Y  Y14  1  0.563115  0.563115  0.938892  1
  Y  Y15  1  0.939057  0.939057  0.565330  1
  Al  Al16  1  0.577744  0.577744  0.577744  1
  Al  Al17  1  0.576813  0.576813  0.267883  1
  Al  Al18  1  0.576813  0.267883  0.576813  1
  Al  Al19  1  0.267883  0.576813  0.576813  1
  Ir  Ir20  1  0.138269  0.138269  0.574431  1
  Ir  Ir21  1  0.138269  0.574431  0.138269  1
  Ir  Ir22  1  0.574431  0.138269  0.138269  1
  Pd  Pd23  1  0.143375  0.143375  0.143375  1
