# generated using pymatgen
data_Ho3Zr(Co3Si5)2
_symmetry_space_group_name_H-M   'P 1'
_cell_length_a   5.52018825
_cell_length_b   7.80205129
_cell_length_c   7.80388617
_cell_angle_alpha   74.70441818
_cell_angle_beta   69.28729901
_cell_angle_gamma   69.28220797
_symmetry_Int_Tables_number   1
_chemical_formula_structural   Ho3Zr(Co3Si5)2
_chemical_formula_sum   'Ho3 Zr1 Co6 Si10'
_cell_volume   290.33283033
_cell_formula_units_Z   1
loop_
 _symmetry_equiv_pos_site_id
 _symmetry_equiv_pos_as_xyz
  1  'x, y, z'
loop_
 _atom_site_type_symbol
 _atom_site_label
 _atom_site_symmetry_multiplicity
 _atom_site_fract_x
 _atom_site_fract_y
 _atom_site_fract_z
 _atom_site_occupancy
  Ho  Ho0  1  0.634116  0.133030  0.598737  1
  Ho  Ho1  1  0.865777  0.399118  0.869326  1
  Ho  Ho2  1  0.135334  0.597673  0.131658  1
  Zr  Zr3  1  0.365090  0.866829  0.402991  1
  Co  Co4  1  0.751208  0.997439  0.998717  1
  Co  Co5  1  0.252636  0.997439  0.998717  1
  Co  Co6  1  0.136524  0.257961  0.468990  1
  Co  Co7  1  0.860349  0.754371  0.524931  1
  Co  Co8  1  0.637154  0.467116  0.258576  1
  Co  Co9  1  0.361614  0.528212  0.748560  1
  Si  Si10  1  0.743828  0.507883  0.503654  1
  Si  Si11  1  0.244636  0.507883  0.503654  1
  Si  Si12  1  0.522380  0.222900  0.226035  1
  Si  Si13  1  0.978713  0.771455  0.770112  1
  Si  Si14  1  0.479720  0.771455  0.770112  1
  Si  Si15  1  0.028684  0.222900  0.226035  1
  Si  Si16  1  0.103845  0.056026  0.736284  1
  Si  Si17  1  0.900806  0.941914  0.256475  1
  Si  Si18  1  0.597885  0.739830  0.064399  1
  Si  Si19  1  0.399698  0.258565  0.942039  1
