# generated using pymatgen
data_NaTa3TlBr9
_symmetry_space_group_name_H-M   'P 1'
_cell_length_a   10.19579600
_cell_length_b   10.35302192
_cell_length_c   10.37146600
_cell_angle_alpha   118.85148718
_cell_angle_beta   98.34046873
_cell_angle_gamma   104.91383122
_symmetry_Int_Tables_number   1
_chemical_formula_structural   NaTa3TlBr9
_chemical_formula_sum   'Na2 Ta6 Tl2 Br18'
_cell_volume   878.45567322
_cell_formula_units_Z   2
loop_
 _symmetry_equiv_pos_site_id
 _symmetry_equiv_pos_as_xyz
  1  'x, y, z'
loop_
 _atom_site_type_symbol
 _atom_site_label
 _atom_site_symmetry_multiplicity
 _atom_site_fract_x
 _atom_site_fract_y
 _atom_site_fract_z
 _atom_site_occupancy
  Na  Na0  1  0.640287  0.204721  0.052469  1
  Na  Na1  1  0.359713  0.795279  0.947531  1
  Ta  Ta2  1  0.118122  0.893319  0.364171  1
  Ta  Ta3  1  0.867564  0.779519  0.444054  1
  Ta  Ta4  1  0.866721  0.971520  0.309505  1
  Ta  Ta5  1  0.881878  0.106681  0.635829  1
  Ta  Ta6  1  0.132436  0.220481  0.555946  1
  Ta  Ta7  1  0.133279  0.028480  0.690495  1
  Tl  Tl8  1  0.345021  0.486194  0.273714  1
  Tl  Tl9  1  0.654979  0.513806  0.726286  1
  Br  Br10  1  0.671577  0.472542  0.366630  1
  Br  Br11  1  0.676816  0.924147  0.037648  1
  Br  Br12  1  0.329415  0.312402  0.809317  1
  Br  Br13  1  0.670585  0.687598  0.190683  1
  Br  Br14  1  0.281058  0.742091  0.181131  1
  Br  Br15  1  0.686130  0.090960  0.429494  1
  Br  Br16  1  0.328423  0.527458  0.633370  1
  Br  Br17  1  0.978800  0.593090  0.259524  1
  Br  Br18  1  0.689784  0.857063  0.600053  1
  Br  Br19  1  0.718942  0.257909  0.818869  1
  Br  Br20  1  0.004321  0.757010  0.662554  1
  Br  Br21  1  0.016475  0.161501  0.904224  1
  Br  Br22  1  0.995679  0.242990  0.337446  1
  Br  Br23  1  0.310216  0.142937  0.399947  1
  Br  Br24  1  0.323184  0.075853  0.962352  1
  Br  Br25  1  0.021200  0.406910  0.740476  1
  Br  Br26  1  0.983525  0.838499  0.095776  1
  Br  Br27  1  0.313870  0.909040  0.570506  1
