# generated using pymatgen
data_TbIn(ReH9)2
_symmetry_space_group_name_H-M   'P 1'
_cell_length_a   5.13267766
_cell_length_b   5.13243889
_cell_length_c   8.97051700
_cell_angle_alpha   93.48452216
_cell_angle_beta   86.52124311
_cell_angle_gamma   124.87354612
_symmetry_Int_Tables_number   1
_chemical_formula_structural   TbIn(ReH9)2
_chemical_formula_sum   'Tb1 In1 Re2 H18'
_cell_volume   193.41846114
_cell_formula_units_Z   1
loop_
 _symmetry_equiv_pos_site_id
 _symmetry_equiv_pos_as_xyz
  1  'x, y, z'
loop_
 _atom_site_type_symbol
 _atom_site_label
 _atom_site_symmetry_multiplicity
 _atom_site_fract_x
 _atom_site_fract_y
 _atom_site_fract_z
 _atom_site_occupancy
  Tb  Tb0  1  0.000000  0.000000  0.500000  1
  In  In1  1  0.000000  0.000000  0.000000  1
  Re  Re2  1  0.333795  0.666376  0.713711  1
  Re  Re3  1  0.666205  0.333624  0.286289  1
  H  H4  1  0.386573  0.613545  0.526264  1
  H  H5  1  0.613427  0.386455  0.473736  1
  H  H6  1  0.413443  0.586658  0.875623  1
  H  H7  1  0.586557  0.413342  0.124377  1
  H  H8  1  0.467809  0.968873  0.841954  1
  H  H9  1  0.968642  0.467542  0.158053  1
  H  H10  1  0.593406  0.026085  0.643218  1
  H  H11  1  0.025923  0.593200  0.356802  1
  H  H12  1  0.532191  0.031127  0.158046  1
  H  H13  1  0.031358  0.532458  0.841947  1
  H  H14  1  0.406594  0.973915  0.356782  1
  H  H15  1  0.974077  0.406800  0.643198  1
  H  H16  1  0.700835  0.729434  0.708839  1
  H  H17  1  0.729359  0.700720  0.291173  1
  H  H18  1  0.299165  0.270566  0.291161  1
  H  H19  1  0.270641  0.299280  0.708827  1
  H  H20  1  0.149909  0.850359  0.689141  1
  H  H21  1  0.850091  0.149641  0.310859  1
