# generated using pymatgen
data_YPd4Pt
_symmetry_space_group_name_H-M   'P 1'
_cell_length_a   6.39895466
_cell_length_b   6.39895543
_cell_length_c   4.10346100
_cell_angle_alpha   90.00000000
_cell_angle_beta   90.00000000
_cell_angle_gamma   142.66381380
_symmetry_Int_Tables_number   1
_chemical_formula_structural   YPd4Pt
_chemical_formula_sum   'Y1 Pd4 Pt1'
_cell_volume   101.90431072
_cell_formula_units_Z   1
loop_
 _symmetry_equiv_pos_site_id
 _symmetry_equiv_pos_as_xyz
  1  'x, y, z'
loop_
 _atom_site_type_symbol
 _atom_site_label
 _atom_site_symmetry_multiplicity
 _atom_site_fract_x
 _atom_site_fract_y
 _atom_site_fract_z
 _atom_site_occupancy
  Y  Y0  1  0.000000  0.000000  0.000000  1
  Pd  Pd1  1  0.330684  0.669316  0.000000  1
  Pd  Pd2  1  0.669316  0.330684  0.000000  1
  Pd  Pd3  1  0.828293  0.171707  0.500000  1
  Pd  Pd4  1  0.171707  0.828293  0.500000  1
  Pt  Pt5  1  0.500000  0.500000  0.500000  1
