# generated using pymatgen
data_Ho7Er9In4Pt3Rh
_symmetry_space_group_name_H-M   'P 1'
_cell_length_a   9.62585733
_cell_length_b   9.62863971
_cell_length_c   9.62860410
_cell_angle_alpha   60.15478114
_cell_angle_beta   60.11405686
_cell_angle_gamma   60.10246050
_symmetry_Int_Tables_number   1
_chemical_formula_structural   Ho7Er9In4Pt3Rh
_chemical_formula_sum   'Ho7 Er9 In4 Pt3 Rh1'
_cell_volume   632.80295768
_cell_formula_units_Z   1
loop_
 _symmetry_equiv_pos_site_id
 _symmetry_equiv_pos_as_xyz
  1  'x, y, z'
loop_
 _atom_site_type_symbol
 _atom_site_label
 _atom_site_symmetry_multiplicity
 _atom_site_fract_x
 _atom_site_fract_y
 _atom_site_fract_z
 _atom_site_occupancy
  Ho  Ho0  1  0.190236  0.190626  0.808670  1
  Ho  Ho1  1  0.438787  0.062036  0.062059  1
  Ho  Ho2  1  0.437381  0.064058  0.436983  1
  Ho  Ho3  1  0.061955  0.438570  0.062311  1
  Ho  Ho4  1  0.650425  0.052268  0.650130  1
  Ho  Ho5  1  0.186623  0.810474  0.810612  1
  Ho  Ho6  1  0.061870  0.062182  0.438528  1
  Er  Er7  1  0.808571  0.190501  0.190339  1
  Er  Er8  1  0.810388  0.810687  0.186833  1
  Er  Er9  1  0.650469  0.650212  0.052040  1
  Er  Er10  1  0.649431  0.649236  0.649212  1
  Er  Er11  1  0.063767  0.437597  0.437125  1
  Er  Er12  1  0.051862  0.650464  0.650316  1
  Er  Er13  1  0.810336  0.186760  0.810766  1
  Er  Er14  1  0.437357  0.437437  0.063905  1
  Er  Er15  1  0.190342  0.808495  0.190613  1
  In  In16  1  0.416876  0.749105  0.416735  1
  In  In17  1  0.416819  0.416705  0.749381  1
  In  In18  1  0.749441  0.416756  0.416646  1
  In  In19  1  0.416082  0.416327  0.415928  1
  Pt  Pt20  1  0.857339  0.427894  0.857807  1
  Pt  Pt21  1  0.858089  0.857313  0.427258  1
  Pt  Pt22  1  0.428152  0.856867  0.858063  1
  Rh  Rh23  1  0.857405  0.857433  0.857743  1
