# generated using pymatgen
data_V8Mo3
_symmetry_space_group_name_H-M   'P 1'
_cell_length_a   5.02319533
_cell_length_b   5.02319574
_cell_length_c   11.03235608
_cell_angle_alpha   104.99858298
_cell_angle_beta   104.99858467
_cell_angle_gamma   35.45828197
_symmetry_Int_Tables_number   1
_chemical_formula_structural   V8Mo3
_chemical_formula_sum   'V8 Mo3'
_cell_volume   155.41267116
_cell_formula_units_Z   1
loop_
 _symmetry_equiv_pos_site_id
 _symmetry_equiv_pos_as_xyz
  1  'x, y, z'
loop_
 _atom_site_type_symbol
 _atom_site_label
 _atom_site_symmetry_multiplicity
 _atom_site_fract_x
 _atom_site_fract_y
 _atom_site_fract_z
 _atom_site_occupancy
  V  V0  1  0.724401  0.724401  0.088576  1
  V  V1  1  0.456269  0.456269  0.181490  1
  V  V2  1  0.186515  0.186515  0.273433  1
  V  V3  1  0.636221  0.636221  0.454399  1
  V  V4  1  0.363780  0.363780  0.545600  1
  V  V5  1  0.813485  0.813485  0.726567  1
  V  V6  1  0.543731  0.543731  0.818510  1
  V  V7  1  0.275600  0.275600  0.911425  1
  Mo  Mo8  1  0.000000  0.000000  0.000000  1
  Mo  Mo9  1  0.908784  0.908784  0.360931  1
  Mo  Mo10  1  0.091216  0.091216  0.639070  1
