# generated using pymatgen
data_Pa4Tc7P6
_symmetry_space_group_name_H-M   'P 1'
_cell_length_a   7.12846287
_cell_length_b   7.12846283
_cell_length_c   7.12846200
_cell_angle_alpha   109.47122681
_cell_angle_beta   109.47122668
_cell_angle_gamma   109.47121875
_symmetry_Int_Tables_number   1
_chemical_formula_structural   Pa4Tc7P6
_chemical_formula_sum   'Pa4 Tc7 P6'
_cell_volume   278.84680580
_cell_formula_units_Z   1
loop_
 _symmetry_equiv_pos_site_id
 _symmetry_equiv_pos_as_xyz
  1  'x, y, z'
loop_
 _atom_site_type_symbol
 _atom_site_label
 _atom_site_symmetry_multiplicity
 _atom_site_fract_x
 _atom_site_fract_y
 _atom_site_fract_z
 _atom_site_occupancy
  Pa  Pa0  1  0.500000  0.500000  0.500000  1
  Pa  Pa1  1  0.000000  0.000000  0.500000  1
  Pa  Pa2  1  0.500000  0.000000  0.000000  1
  Pa  Pa3  1  0.000000  0.500000  0.000000  1
  Tc  Tc4  1  0.750000  0.250000  0.500000  1
  Tc  Tc5  1  0.500000  0.250000  0.750000  1
  Tc  Tc6  1  0.500000  0.750000  0.250000  1
  Tc  Tc7  1  0.250000  0.500000  0.750000  1
  Tc  Tc8  1  0.750000  0.500000  0.250000  1
  Tc  Tc9  1  0.250000  0.750000  0.500000  1
  Tc  Tc10  1  0.000000  0.000000  0.000000  1
  P  P11  1  0.316127  0.316127  0.000000  1
  P  P12  1  0.000000  0.316127  0.316127  1
  P  P13  1  0.000000  0.683873  0.683873  1
  P  P14  1  0.683873  0.000000  0.683873  1
  P  P15  1  0.316127  0.000000  0.316127  1
  P  P16  1  0.683873  0.683873  0.000000  1
