# generated using pymatgen
data_La2Tb4TaMoO14
_symmetry_space_group_name_H-M   'P 1'
_cell_length_a   6.56252827
_cell_length_b   6.56252882
_cell_length_c   7.66608100
_cell_angle_alpha   90.20805416
_cell_angle_beta   89.79193709
_cell_angle_gamma   108.94868717
_symmetry_Int_Tables_number   1
_chemical_formula_structural   La2Tb4TaMoO14
_chemical_formula_sum   'La2 Tb4 Ta1 Mo1 O14'
_cell_volume   312.25923143
_cell_formula_units_Z   1
loop_
 _symmetry_equiv_pos_site_id
 _symmetry_equiv_pos_as_xyz
  1  'x, y, z'
loop_
 _atom_site_type_symbol
 _atom_site_label
 _atom_site_symmetry_multiplicity
 _atom_site_fract_x
 _atom_site_fract_y
 _atom_site_fract_z
 _atom_site_occupancy
  La  La0  1  0.500000  0.500000  0.500000  1
  La  La1  1  0.500000  0.500000  0.000000  1
  Tb  Tb2  1  0.534125  0.001068  0.748760  1
  Tb  Tb3  1  0.001068  0.534125  0.251240  1
  Tb  Tb4  1  0.465875  0.998932  0.251240  1
  Tb  Tb5  1  0.998932  0.465875  0.748760  1
  Ta  Ta6  1  0.000000  0.000000  0.500000  1
  Mo  Mo7  1  0.000000  0.000000  0.000000  1
  O  O8  1  0.682463  0.934011  0.467775  1
  O  O9  1  0.934011  0.682463  0.532225  1
  O  O10  1  0.682628  0.932304  0.029699  1
  O  O11  1  0.932304  0.682628  0.970301  1
  O  O12  1  0.317537  0.065989  0.532225  1
  O  O13  1  0.065989  0.317537  0.467775  1
  O  O14  1  0.317372  0.067696  0.970301  1
  O  O15  1  0.067696  0.317372  0.029699  1
  O  O16  1  0.934577  0.065423  0.748881  1
  O  O17  1  0.065423  0.934577  0.251119  1
  O  O18  1  0.363010  0.636990  0.750083  1
  O  O19  1  0.636990  0.363010  0.249917  1
  O  O20  1  0.642403  0.357597  0.750228  1
  O  O21  1  0.357597  0.642403  0.249772  1
