# generated using pymatgen
data_CoPt4Pb3O14
_symmetry_space_group_name_H-M   'P 1'
_cell_length_a   7.34804743
_cell_length_b   7.25798161
_cell_length_c   7.34804700
_cell_angle_alpha   59.58863879
_cell_angle_beta   59.99998843
_cell_angle_gamma   59.58864535
_symmetry_Int_Tables_number   1
_chemical_formula_structural   CoPt4Pb3O14
_chemical_formula_sum   'Co1 Pt4 Pb3 O14'
_cell_volume   275.36975171
_cell_formula_units_Z   1
loop_
 _symmetry_equiv_pos_site_id
 _symmetry_equiv_pos_as_xyz
  1  'x, y, z'
loop_
 _atom_site_type_symbol
 _atom_site_label
 _atom_site_symmetry_multiplicity
 _atom_site_fract_x
 _atom_site_fract_y
 _atom_site_fract_z
 _atom_site_occupancy
  Co  Co0  1  0.125000  0.625000  0.125000  1
  Pt  Pt1  1  0.625000  0.625000  0.125000  1
  Pt  Pt2  1  0.625000  0.625000  0.625000  1
  Pt  Pt3  1  0.625000  0.125000  0.625000  1
  Pt  Pt4  1  0.125000  0.625000  0.625000  1
  Pb  Pb5  1  0.125000  0.125000  0.125000  1
  Pb  Pb6  1  0.625000  0.125000  0.125000  1
  Pb  Pb7  1  0.125000  0.125000  0.625000  1
  O  O8  1  0.708934  0.290336  0.291797  1
  O  O9  1  0.708934  0.290336  0.708934  1
  O  O10  1  0.009416  0.971751  0.009416  1
  O  O11  1  0.290548  0.702322  0.290548  1
  O  O12  1  0.716583  0.702322  0.290548  1
  O  O13  1  0.959452  0.547678  0.533417  1
  O  O14  1  0.290548  0.702322  0.716583  1
  O  O15  1  0.240584  0.278249  0.240584  1
  O  O16  1  0.959452  0.547678  0.959452  1
  O  O17  1  0.541066  0.959664  0.541066  1
  O  O18  1  0.533417  0.547678  0.959452  1
  O  O19  1  0.958203  0.959664  0.541066  1
  O  O20  1  0.541066  0.959664  0.958203  1
  O  O21  1  0.291797  0.290336  0.708934  1
