# generated using pymatgen
data_PrNdDy6(WO6)4
_symmetry_space_group_name_H-M   'P 1'
_cell_length_a   5.45436100
_cell_length_b   7.78026632
_cell_length_c   11.56922700
_cell_angle_alpha   75.55853365
_cell_angle_beta   90.00000000
_cell_angle_gamma   90.00000000
_symmetry_Int_Tables_number   1
_chemical_formula_structural   PrNdDy6(WO6)4
_chemical_formula_sum   'Pr1 Nd1 Dy6 W4 O24'
_cell_volume   475.44334935
_cell_formula_units_Z   1
loop_
 _symmetry_equiv_pos_site_id
 _symmetry_equiv_pos_as_xyz
  1  'x, y, z'
loop_
 _atom_site_type_symbol
 _atom_site_label
 _atom_site_symmetry_multiplicity
 _atom_site_fract_x
 _atom_site_fract_y
 _atom_site_fract_z
 _atom_site_occupancy
  Pr  Pr0  1  0.685417  0.500000  0.750000  1
  Nd  Nd1  1  0.315046  0.500000  0.250000  1
  Dy  Dy2  1  0.740936  0.000000  0.750000  1
  Dy  Dy3  1  0.259413  0.000000  0.250000  1
  Dy  Dy4  1  0.187167  0.797900  0.576447  1
  Dy  Dy5  1  0.813168  0.797286  0.076944  1
  Dy  Dy6  1  0.187167  0.202100  0.923553  1
  Dy  Dy7  1  0.813168  0.202714  0.423056  1
  W  W8  1  0.253134  0.727881  0.884801  1
  W  W9  1  0.746847  0.727475  0.384076  1
  W  W10  1  0.253134  0.272119  0.615199  1
  W  W11  1  0.746847  0.272525  0.115924  1
  O  O12  1  0.041268  0.940774  0.896245  1
  O  O13  1  0.531515  0.847031  0.930589  1
  O  O14  1  0.958423  0.941147  0.395419  1
  O  O15  1  0.455131  0.794685  0.727776  1
  O  O16  1  0.469104  0.847201  0.430385  1
  O  O17  1  0.986777  0.719763  0.769877  1
  O  O18  1  0.544095  0.793764  0.227589  1
  O  O19  1  0.854964  0.641308  0.544896  1
  O  O20  1  0.348015  0.493602  0.887964  1
  O  O21  1  0.014356  0.717968  0.270134  1
  O  O22  1  0.348015  0.506398  0.612036  1
  O  O23  1  0.854964  0.358692  0.955104  1
  O  O24  1  0.146107  0.641461  0.045960  1
  O  O25  1  0.649524  0.493611  0.387263  1
  O  O26  1  0.986777  0.280237  0.730123  1
  O  O27  1  0.649524  0.506389  0.112737  1
  O  O28  1  0.146107  0.358539  0.454040  1
  O  O29  1  0.455131  0.205315  0.772224  1
  O  O30  1  0.014356  0.282032  0.229866  1
  O  O31  1  0.531515  0.152969  0.569411  1
  O  O32  1  0.544095  0.206236  0.272411  1
  O  O33  1  0.041268  0.059226  0.603755  1
  O  O34  1  0.469104  0.152799  0.069615  1
  O  O35  1  0.958423  0.058853  0.104581  1
