# generated using pymatgen
data_Tb3Yb12Dy5Pb16
_symmetry_space_group_name_H-M   'P 1'
_cell_length_a   8.04840114
_cell_length_b   8.66174628
_cell_length_c   16.48293000
_cell_angle_alpha   89.99378870
_cell_angle_beta   90.01071395
_cell_angle_gamma   89.98681785
_symmetry_Int_Tables_number   1
_chemical_formula_structural   Tb3Yb12Dy5Pb16
_chemical_formula_sum   'Tb3 Yb12 Dy5 Pb16'
_cell_volume   1149.07788086
_cell_formula_units_Z   1
loop_
 _symmetry_equiv_pos_site_id
 _symmetry_equiv_pos_as_xyz
  1  'x, y, z'
loop_
 _atom_site_type_symbol
 _atom_site_label
 _atom_site_symmetry_multiplicity
 _atom_site_fract_x
 _atom_site_fract_y
 _atom_site_fract_z
 _atom_site_occupancy
  Tb  Tb0  1  0.674318  0.163904  0.621404  1
  Tb  Tb1  1  0.174321  0.336053  0.878454  1
  Tb  Tb2  1  0.325624  0.835821  0.121717  1
  Yb  Yb3  1  0.504469  0.689375  0.592606  1
  Yb  Yb4  1  0.004286  0.811081  0.907582  1
  Yb  Yb5  1  0.495793  0.311031  0.092431  1
  Yb  Yb6  1  0.995600  0.189332  0.407514  1
  Yb  Yb7  1  0.495460  0.310849  0.407732  1
  Yb  Yb8  1  0.995710  0.189273  0.092496  1
  Yb  Yb9  1  0.504213  0.688968  0.907482  1
  Yb  Yb10  1  0.004334  0.810765  0.592225  1
  Yb  Yb11  1  0.836520  0.511007  0.750129  1
  Yb  Yb12  1  0.336543  0.989106  0.749790  1
  Yb  Yb13  1  0.163438  0.489256  0.250333  1
  Yb  Yb14  1  0.663563  0.010812  0.250036  1
  Dy  Dy15  1  0.825819  0.663639  0.378249  1
  Dy  Dy16  1  0.325629  0.836246  0.378283  1
  Dy  Dy17  1  0.825475  0.663648  0.121673  1
  Dy  Dy18  1  0.674344  0.163718  0.878352  1
  Dy  Dy19  1  0.174465  0.336328  0.621541  1
  Pb  Pb20  1  0.676153  0.963679  0.457873  1
  Pb  Pb21  1  0.175556  0.535705  0.041968  1
  Pb  Pb22  1  0.324185  0.035379  0.957887  1
  Pb  Pb23  1  0.824221  0.464767  0.541769  1
  Pb  Pb24  1  0.323265  0.035592  0.541629  1
  Pb  Pb25  1  0.823143  0.464399  0.958161  1
  Pb  Pb26  1  0.676518  0.964110  0.041715  1
  Pb  Pb27  1  0.176377  0.536141  0.458247  1
  Pb  Pb28  1  0.475429  0.371104  0.749912  1
  Pb  Pb29  1  0.975551  0.128904  0.749964  1
  Pb  Pb30  1  0.524833  0.628804  0.250177  1
  Pb  Pb31  1  0.024305  0.871081  0.250264  1
  Pb  Pb32  1  0.714570  0.868130  0.750303  1
  Pb  Pb33  1  0.214545  0.632047  0.749878  1
  Pb  Pb34  1  0.285804  0.131880  0.250130  1
  Pb  Pb35  1  0.785625  0.368069  0.250093  1
