# generated using pymatgen
data_Nd3Ho5Cd2CoPt
_symmetry_space_group_name_H-M   'P 1'
_cell_length_a   9.66948272
_cell_length_b   9.66948313
_cell_length_c   9.65105708
_cell_angle_alpha   60.07534821
_cell_angle_beta   60.07534681
_cell_angle_gamma   60.32401486
_symmetry_Int_Tables_number   1
_chemical_formula_structural   Nd3Ho5Cd2CoPt
_chemical_formula_sum   'Nd6 Ho10 Cd4 Co2 Pt2'
_cell_volume   640.34598480
_cell_formula_units_Z   2
loop_
 _symmetry_equiv_pos_site_id
 _symmetry_equiv_pos_as_xyz
  1  'x, y, z'
loop_
 _atom_site_type_symbol
 _atom_site_label
 _atom_site_symmetry_multiplicity
 _atom_site_fract_x
 _atom_site_fract_y
 _atom_site_fract_z
 _atom_site_occupancy
  Nd  Nd0  1  0.938678  0.559856  0.561977  1
  Nd  Nd1  1  0.558538  0.939348  0.941088  1
  Nd  Nd2  1  0.559856  0.938678  0.561977  1
  Nd  Nd3  1  0.939348  0.558538  0.941088  1
  Nd  Nd4  1  0.557774  0.557774  0.942313  1
  Nd  Nd5  1  0.937967  0.937967  0.561312  1
  Ho  Ho6  1  0.344141  0.344141  0.358219  1
  Ho  Ho7  1  0.344854  0.344854  0.953598  1
  Ho  Ho8  1  0.339301  0.961127  0.350221  1
  Ho  Ho9  1  0.961127  0.339301  0.350221  1
  Ho  Ho10  1  0.821095  0.187620  0.186262  1
  Ho  Ho11  1  0.184894  0.821568  0.804436  1
  Ho  Ho12  1  0.187620  0.821095  0.186262  1
  Ho  Ho13  1  0.821568  0.184894  0.804436  1
  Ho  Ho14  1  0.186758  0.186758  0.812780  1
  Ho  Ho15  1  0.811728  0.811728  0.185132  1
  Cd  Cd16  1  0.579386  0.579386  0.578364  1
  Cd  Cd17  1  0.580231  0.580231  0.261687  1
  Cd  Cd18  1  0.581351  0.260284  0.579239  1
  Cd  Cd19  1  0.260284  0.581351  0.579239  1
  Co  Co20  1  0.142058  0.142058  0.141604  1
  Co  Co21  1  0.142603  0.142603  0.575880  1
  Pt  Pt22  1  0.144385  0.574459  0.141332  1
  Pt  Pt23  1  0.574459  0.144385  0.141332  1
