# generated using pymatgen
data_Sr4DyY(MoO6)2
_symmetry_space_group_name_H-M   'P 1'
_cell_length_a   5.83522634
_cell_length_b   8.34429109
_cell_length_c   5.91365417
_cell_angle_alpha   89.97041184
_cell_angle_beta   90.00499438
_cell_angle_gamma   90.68195346
_symmetry_Int_Tables_number   1
_chemical_formula_structural   Sr4DyY(MoO6)2
_chemical_formula_sum   'Sr4 Dy1 Y1 Mo2 O12'
_cell_volume   287.92027834
_cell_formula_units_Z   1
loop_
 _symmetry_equiv_pos_site_id
 _symmetry_equiv_pos_as_xyz
  1  'x, y, z'
loop_
 _atom_site_type_symbol
 _atom_site_label
 _atom_site_symmetry_multiplicity
 _atom_site_fract_x
 _atom_site_fract_y
 _atom_site_fract_z
 _atom_site_occupancy
  Sr  Sr0  1  0.492969  0.251442  0.538320  1
  Sr  Sr1  1  0.006976  0.247870  0.038239  1
  Sr  Sr2  1  0.993025  0.752130  0.961762  1
  Sr  Sr3  1  0.507031  0.748556  0.461679  1
  Dy  Dy4  1  0.499999  0.000001  0.999999  1
  Y  Y5  1  0.000000  0.500000  0.500000  1
  Mo  Mo6  1  0.000002  0.000002  0.499998  1
  Mo  Mo7  1  0.499999  0.499998  0.999999  1
  O  O8  1  0.769181  0.537930  0.192110  1
  O  O9  1  0.230818  0.462070  0.807890  1
  O  O10  1  0.269574  0.037534  0.307135  1
  O  O11  1  0.730426  0.962467  0.692865  1
  O  O12  1  0.580779  0.263261  0.978223  1
  O  O13  1  0.918974  0.236269  0.478141  1
  O  O14  1  0.081026  0.763731  0.521858  1
  O  O15  1  0.419219  0.736739  0.021779  1
  O  O16  1  0.302724  0.454260  0.278317  1
  O  O17  1  0.802440  0.954329  0.221858  1
  O  O18  1  0.197563  0.045671  0.778140  1
  O  O19  1  0.697275  0.545740  0.721683  1
