# generated using pymatgen
data_Hf3Co2SnN
_symmetry_space_group_name_H-M   'P 1'
_cell_length_a   8.46862388
_cell_length_b   8.47160676
_cell_length_c   8.46799600
_cell_angle_alpha   59.98803021
_cell_angle_beta   59.97871652
_cell_angle_gamma   59.98972654
_symmetry_Int_Tables_number   1
_chemical_formula_structural   Hf3Co2SnN
_chemical_formula_sum   'Hf12 Co8 Sn4 N4'
_cell_volume   429.43888944
_cell_formula_units_Z   4
loop_
 _symmetry_equiv_pos_site_id
 _symmetry_equiv_pos_as_xyz
  1  'x, y, z'
loop_
 _atom_site_type_symbol
 _atom_site_label
 _atom_site_symmetry_multiplicity
 _atom_site_fract_x
 _atom_site_fract_y
 _atom_site_fract_z
 _atom_site_occupancy
  Hf  Hf0  1  0.812818  0.812889  0.187084  1
  Hf  Hf1  1  0.187208  0.187207  0.812755  1
  Hf  Hf2  1  0.812658  0.187224  0.812674  1
  Hf  Hf3  1  0.187232  0.812769  0.187214  1
  Hf  Hf4  1  0.187142  0.812828  0.812791  1
  Hf  Hf5  1  0.812798  0.187254  0.187118  1
  Hf  Hf6  1  0.437203  0.437180  0.062902  1
  Hf  Hf7  1  0.062865  0.062744  0.437260  1
  Hf  Hf8  1  0.437304  0.062699  0.437363  1
  Hf  Hf9  1  0.062837  0.437226  0.062840  1
  Hf  Hf10  1  0.062797  0.437216  0.437251  1
  Hf  Hf11  1  0.437249  0.062749  0.062818  1
  Co  Co12  1  0.769834  0.410025  0.409969  1
  Co  Co13  1  0.410045  0.769861  0.410074  1
  Co  Co14  1  0.409995  0.410048  0.769845  1
  Co  Co15  1  0.410046  0.409991  0.410058  1
  Co  Co16  1  0.480205  0.839923  0.839969  1
  Co  Co17  1  0.839905  0.480148  0.840007  1
  Co  Co18  1  0.839913  0.839969  0.480198  1
  Co  Co19  1  0.839918  0.839945  0.839932  1
  Sn  Sn20  1  0.125091  0.625008  0.624920  1
  Sn  Sn21  1  0.624989  0.125047  0.624939  1
  Sn  Sn22  1  0.624853  0.625018  0.125110  1
  Sn  Sn23  1  0.625076  0.624944  0.624912  1
  N  N24  1  0.624997  0.125000  0.125010  1
  N  N25  1  0.125050  0.625015  0.124978  1
  N  N26  1  0.124990  0.125061  0.624992  1
  N  N27  1  0.124981  0.125011  0.125013  1
