# generated using pymatgen
data_Er8CdInNi2
_symmetry_space_group_name_H-M   'P 1'
_cell_length_a   9.46624753
_cell_length_b   9.46591790
_cell_length_c   9.46480800
_cell_angle_alpha   60.00695293
_cell_angle_beta   60.00789039
_cell_angle_gamma   60.10311595
_symmetry_Int_Tables_number   1
_chemical_formula_structural   Er8CdInNi2
_chemical_formula_sum   'Er16 Cd2 In2 Ni4'
_cell_volume   600.23800313
_cell_formula_units_Z   2
loop_
 _symmetry_equiv_pos_site_id
 _symmetry_equiv_pos_as_xyz
  1  'x, y, z'
loop_
 _atom_site_type_symbol
 _atom_site_label
 _atom_site_symmetry_multiplicity
 _atom_site_fract_x
 _atom_site_fract_y
 _atom_site_fract_z
 _atom_site_occupancy
  Er  Er0  1  0.347849  0.347605  0.347645  1
  Er  Er1  1  0.347798  0.347580  0.956937  1
  Er  Er2  1  0.350242  0.953107  0.348290  1
  Er  Er3  1  0.953010  0.350141  0.348388  1
  Er  Er4  1  0.811437  0.188939  0.188216  1
  Er  Er5  1  0.188967  0.811520  0.811261  1
  Er  Er6  1  0.188963  0.811547  0.188248  1
  Er  Er7  1  0.811387  0.188946  0.811447  1
  Er  Er8  1  0.187901  0.187913  0.812140  1
  Er  Er9  1  0.810689  0.810977  0.189161  1
  Er  Er10  1  0.937828  0.563825  0.563803  1
  Er  Er11  1  0.563844  0.937844  0.934555  1
  Er  Er12  1  0.563870  0.937842  0.563753  1
  Er  Er13  1  0.937836  0.563796  0.934567  1
  Er  Er14  1  0.564288  0.564205  0.935760  1
  Er  Er15  1  0.937493  0.937514  0.562489  1
  Cd  Cd16  1  0.580661  0.253657  0.582844  1
  Cd  Cd17  1  0.253653  0.580669  0.582844  1
  In  In18  1  0.581733  0.581721  0.583045  1
  In  In19  1  0.581734  0.581734  0.253506  1
  Ni  Ni20  1  0.142158  0.142159  0.143228  1
  Ni  Ni21  1  0.142160  0.142163  0.572421  1
  Ni  Ni22  1  0.141589  0.572980  0.142717  1
  Ni  Ni23  1  0.572911  0.141617  0.142736  1
