# generated using pymatgen
data_Ho7Er13(IrRh)6
_symmetry_space_group_name_H-M   'P 1'
_cell_length_a   10.80026930
_cell_length_b   10.79921601
_cell_length_c   6.33706803
_cell_angle_alpha   90.00377850
_cell_angle_beta   89.96619097
_cell_angle_gamma   90.00156599
_symmetry_Int_Tables_number   1
_chemical_formula_structural   Ho7Er13(IrRh)6
_chemical_formula_sum   'Ho7 Er13 Ir6 Rh6'
_cell_volume   739.12025803
_cell_formula_units_Z   1
loop_
 _symmetry_equiv_pos_site_id
 _symmetry_equiv_pos_as_xyz
  1  'x, y, z'
loop_
 _atom_site_type_symbol
 _atom_site_label
 _atom_site_symmetry_multiplicity
 _atom_site_fract_x
 _atom_site_fract_y
 _atom_site_fract_z
 _atom_site_occupancy
  Ho  Ho0  1  0.289970  0.088697  0.378824  1
  Ho  Ho1  1  0.289961  0.911481  0.878835  1
  Ho  Ho2  1  0.708500  0.090135  0.878271  1
  Ho  Ho3  1  0.708587  0.909907  0.378294  1
  Ho  Ho4  1  0.587159  0.789772  0.878994  1
  Ho  Ho5  1  0.587089  0.210242  0.379007  1
  Ho  Ho6  1  0.410700  0.790299  0.378818  1
  Er  Er7  1  0.410718  0.209567  0.878935  1
  Er  Er8  1  0.209727  0.411089  0.620742  1
  Er  Er9  1  0.209683  0.588814  0.120640  1
  Er  Er10  1  0.790412  0.412888  0.121409  1
  Er  Er11  1  0.790444  0.587079  0.621386  1
  Er  Er12  1  0.912173  0.709063  0.121444  1
  Er  Er13  1  0.912157  0.290936  0.621413  1
  Er  Er14  1  0.090275  0.708711  0.620716  1
  Er  Er15  1  0.090309  0.291281  0.120698  1
  Er  Er16  1  0.000056  0.999662  0.500039  1
  Er  Er17  1  0.000047  0.000311  0.000012  1
  Er  Er18  1  0.500195  0.499376  0.000207  1
  Er  Er19  1  0.500274  0.500521  0.500291  1
  Ir  Ir20  1  0.152889  0.154244  0.749997  1
  Ir  Ir21  1  0.152699  0.845804  0.249913  1
  Ir  Ir22  1  0.654980  0.345952  0.749905  1
  Ir  Ir23  1  0.655118  0.653971  0.249826  1
  Ir  Ir24  1  0.346381  0.346094  0.250292  1
  Ir  Ir25  1  0.346317  0.653812  0.750635  1
  Rh  Rh26  1  0.846025  0.153498  0.250039  1
  Rh  Rh27  1  0.846009  0.846502  0.750047  1
  Rh  Rh28  1  0.500985  0.000199  0.124041  1
  Rh  Rh29  1  0.500975  0.000109  0.624320  1
  Rh  Rh30  1  0.999600  0.500116  0.876003  1
  Rh  Rh31  1  0.999587  0.499868  0.376006  1
