# generated using pymatgen
data_LaDyRh6
_symmetry_space_group_name_H-M   'P 1'
_cell_length_a   5.32928500
_cell_length_b   5.32928458
_cell_length_c   17.63034700
_cell_angle_alpha   90.00000000
_cell_angle_beta   90.00000000
_cell_angle_gamma   119.99999639
_symmetry_Int_Tables_number   1
_chemical_formula_structural   LaDyRh6
_chemical_formula_sum   'La3 Dy3 Rh18'
_cell_volume   433.64003001
_cell_formula_units_Z   3
loop_
 _symmetry_equiv_pos_site_id
 _symmetry_equiv_pos_as_xyz
  1  'x, y, z'
loop_
 _atom_site_type_symbol
 _atom_site_label
 _atom_site_symmetry_multiplicity
 _atom_site_fract_x
 _atom_site_fract_y
 _atom_site_fract_z
 _atom_site_occupancy
  La  La0  1  0.333333  0.666667  0.957969  1
  La  La1  1  0.333333  0.666667  0.749481  1
  La  La2  1  0.666667  0.333333  0.250631  1
  Dy  Dy3  1  0.333333  0.666667  0.541117  1
  Dy  Dy4  1  0.666667  0.333333  0.043446  1
  Dy  Dy5  1  0.666667  0.333333  0.458052  1
  Rh  Rh6  1  0.166805  0.333612  0.126659  1
  Rh  Rh7  1  0.832638  0.665276  0.624488  1
  Rh  Rh8  1  0.666388  0.833195  0.126659  1
  Rh  Rh9  1  0.166805  0.833195  0.126659  1
  Rh  Rh10  1  0.832638  0.167362  0.624488  1
  Rh  Rh11  1  0.334724  0.167362  0.624488  1
  Rh  Rh12  1  0.832954  0.665908  0.872985  1
  Rh  Rh13  1  0.832954  0.167046  0.872985  1
  Rh  Rh14  1  0.334092  0.167046  0.872985  1
  Rh  Rh15  1  0.665074  0.832537  0.375433  1
  Rh  Rh16  1  0.167463  0.832537  0.375433  1
  Rh  Rh17  1  0.167463  0.334926  0.375433  1
  Rh  Rh18  1  0.000000  0.000000  0.251555  1
  Rh  Rh19  1  0.000000  0.000000  0.748930  1
  Rh  Rh20  1  0.333333  0.666667  0.250778  1
  Rh  Rh21  1  0.666667  0.333333  0.749183  1
  Rh  Rh22  1  0.000000  0.000000  0.000466  1
  Rh  Rh23  1  0.000000  0.000000  0.499695  1
