# generated using pymatgen
data_Sc4V2Os5W
_symmetry_space_group_name_H-M   'P 1'
_cell_length_a   5.13736990
_cell_length_b   5.25839752
_cell_length_c   8.66754600
_cell_angle_alpha   90.00000000
_cell_angle_beta   90.00000000
_cell_angle_gamma   120.28432771
_symmetry_Int_Tables_number   1
_chemical_formula_structural   Sc4V2Os5W
_chemical_formula_sum   'Sc4 V2 Os5 W1'
_cell_volume   202.19462585
_cell_formula_units_Z   1
loop_
 _symmetry_equiv_pos_site_id
 _symmetry_equiv_pos_as_xyz
  1  'x, y, z'
loop_
 _atom_site_type_symbol
 _atom_site_label
 _atom_site_symmetry_multiplicity
 _atom_site_fract_x
 _atom_site_fract_y
 _atom_site_fract_z
 _atom_site_occupancy
  Sc  Sc0  1  0.336988  0.670368  0.434558  1
  Sc  Sc1  1  0.663994  0.332157  0.556975  1
  Sc  Sc2  1  0.663994  0.332157  0.943025  1
  Sc  Sc3  1  0.336988  0.670368  0.065442  1
  V  V4  1  0.169721  0.830923  0.750000  1
  V  V5  1  0.341835  0.170591  0.250000  1
  Os  Os6  1  0.828474  0.655494  0.250000  1
  Os  Os7  1  0.644814  0.821839  0.750000  1
  Os  Os8  1  0.007756  0.002746  0.999531  1
  Os  Os9  1  0.830208  0.172548  0.250000  1
  Os  Os10  1  0.007756  0.002746  0.500469  1
  W  W11  1  0.167471  0.338063  0.750000  1
