# generated using pymatgen
data_Tm8Zr11Si16Os
_symmetry_space_group_name_H-M   'P 1'
_cell_length_a   7.02891685
_cell_length_b   7.24217401
_cell_length_c   13.83029400
_cell_angle_alpha   90.00000000
_cell_angle_beta   90.00000000
_cell_angle_gamma   89.93560544
_symmetry_Int_Tables_number   1
_chemical_formula_structural   Tm8Zr11Si16Os
_chemical_formula_sum   'Tm8 Zr11 Si16 Os1'
_cell_volume   704.02567739
_cell_formula_units_Z   1
loop_
 _symmetry_equiv_pos_site_id
 _symmetry_equiv_pos_as_xyz
  1  'x, y, z'
loop_
 _atom_site_type_symbol
 _atom_site_label
 _atom_site_symmetry_multiplicity
 _atom_site_fract_x
 _atom_site_fract_y
 _atom_site_fract_z
 _atom_site_occupancy
  Tm  Tm0  1  0.013140  0.177826  0.094518  1
  Tm  Tm1  1  0.988346  0.822379  0.901307  1
  Tm  Tm2  1  0.487631  0.674910  0.902535  1
  Tm  Tm3  1  0.988346  0.822379  0.598693  1
  Tm  Tm4  1  0.514964  0.322806  0.095798  1
  Tm  Tm5  1  0.013140  0.177826  0.405482  1
  Tm  Tm6  1  0.514964  0.322806  0.404202  1
  Tm  Tm7  1  0.487631  0.674910  0.597465  1
  Zr  Zr8  1  0.845867  0.500412  0.250000  1
  Zr  Zr9  1  0.344186  0.998635  0.250000  1
  Zr  Zr10  1  0.654087  0.001212  0.750000  1
  Zr  Zr11  1  0.324611  0.176011  0.626080  1
  Zr  Zr12  1  0.671326  0.823140  0.376114  1
  Zr  Zr13  1  0.172620  0.676431  0.377739  1
  Zr  Zr14  1  0.671326  0.823140  0.123886  1
  Zr  Zr15  1  0.828427  0.327358  0.627315  1
  Zr  Zr16  1  0.324611  0.176011  0.873920  1
  Zr  Zr17  1  0.828427  0.327358  0.872685  1
  Zr  Zr18  1  0.172620  0.676431  0.122261  1
  Si  Si19  1  0.031634  0.111387  0.750000  1
  Si  Si20  1  0.968193  0.882222  0.250000  1
  Si  Si21  1  0.468380  0.613995  0.250000  1
  Si  Si22  1  0.518358  0.391121  0.750000  1
  Si  Si23  1  0.281736  0.858359  0.750000  1
  Si  Si24  1  0.720353  0.129569  0.250000  1
  Si  Si25  1  0.218500  0.369290  0.250000  1
  Si  Si26  1  0.793431  0.630188  0.750000  1
  Si  Si27  1  0.156013  0.470427  0.546975  1
  Si  Si28  1  0.842032  0.533385  0.462405  1
  Si  Si29  1  0.344211  0.970709  0.460060  1
  Si  Si30  1  0.842032  0.533385  0.037595  1
  Si  Si31  1  0.658229  0.032576  0.541323  1
  Si  Si32  1  0.156013  0.470427  0.953025  1
  Si  Si33  1  0.658229  0.032576  0.958677  1
  Si  Si34  1  0.344211  0.970709  0.039940  1
  Os  Os35  1  0.152174  0.497695  0.750000  1
