# generated using pymatgen
data_PrNd3CdOs
_symmetry_space_group_name_H-M   'P 1'
_cell_length_a   9.96381483
_cell_length_b   9.96481317
_cell_length_c   9.96481205
_cell_angle_alpha   59.99338178
_cell_angle_beta   60.00331475
_cell_angle_gamma   60.00331289
_symmetry_Int_Tables_number   1
_chemical_formula_structural   PrNd3CdOs
_chemical_formula_sum   'Pr4 Nd12 Cd4 Os4'
_cell_volume   699.59862060
_cell_formula_units_Z   4
loop_
 _symmetry_equiv_pos_site_id
 _symmetry_equiv_pos_as_xyz
  1  'x, y, z'
loop_
 _atom_site_type_symbol
 _atom_site_label
 _atom_site_symmetry_multiplicity
 _atom_site_fract_x
 _atom_site_fract_y
 _atom_site_fract_z
 _atom_site_occupancy
  Pr  Pr0  1  0.559450  0.940550  0.559450  1
  Pr  Pr1  1  0.940550  0.559450  0.940550  1
  Pr  Pr2  1  0.559450  0.559450  0.940550  1
  Pr  Pr3  1  0.940550  0.940550  0.559450  1
  Nd  Nd4  1  0.345636  0.345748  0.345748  1
  Nd  Nd5  1  0.345748  0.345636  0.962869  1
  Nd  Nd6  1  0.345748  0.962869  0.345636  1
  Nd  Nd7  1  0.962869  0.345748  0.345748  1
  Nd  Nd8  1  0.809300  0.190700  0.190700  1
  Nd  Nd9  1  0.190700  0.809300  0.809300  1
  Nd  Nd10  1  0.190745  0.809255  0.190745  1
  Nd  Nd11  1  0.809255  0.190745  0.809255  1
  Nd  Nd12  1  0.190745  0.190745  0.809255  1
  Nd  Nd13  1  0.809255  0.809255  0.190745  1
  Nd  Nd14  1  0.940724  0.559276  0.559276  1
  Nd  Nd15  1  0.559276  0.940724  0.940724  1
  Cd  Cd16  1  0.579344  0.579181  0.579181  1
  Cd  Cd17  1  0.579181  0.579344  0.262293  1
  Cd  Cd18  1  0.579181  0.262293  0.579344  1
  Cd  Cd19  1  0.262293  0.579181  0.579181  1
  Os  Os20  1  0.138319  0.138057  0.138057  1
  Os  Os21  1  0.138057  0.138319  0.585565  1
  Os  Os22  1  0.138057  0.585565  0.138319  1
  Os  Os23  1  0.585565  0.138057  0.138057  1
