# generated using pymatgen
data_YTm3(HfPt)4
_symmetry_space_group_name_H-M   'P 1'
_cell_length_a   4.64420900
_cell_length_b   7.03548476
_cell_length_c   8.20571634
_cell_angle_alpha   90.02512687
_cell_angle_beta   90.00000000
_cell_angle_gamma   90.00000000
_symmetry_Int_Tables_number   1
_chemical_formula_structural   YTm3(HfPt)4
_chemical_formula_sum   'Y1 Tm3 Hf4 Pt4'
_cell_volume   268.11569666
_cell_formula_units_Z   1
loop_
 _symmetry_equiv_pos_site_id
 _symmetry_equiv_pos_as_xyz
  1  'x, y, z'
loop_
 _atom_site_type_symbol
 _atom_site_label
 _atom_site_symmetry_multiplicity
 _atom_site_fract_x
 _atom_site_fract_y
 _atom_site_fract_z
 _atom_site_occupancy
  Y  Y0  1  0.750000  0.516020  0.820941  1
  Tm  Tm1  1  0.250000  0.983339  0.321914  1
  Tm  Tm2  1  0.250000  0.483550  0.178216  1
  Tm  Tm3  1  0.750000  0.016206  0.677361  1
  Hf  Hf4  1  0.250000  0.854536  0.923087  1
  Hf  Hf5  1  0.250000  0.353215  0.576044  1
  Hf  Hf6  1  0.750000  0.145761  0.078144  1
  Hf  Hf7  1  0.750000  0.646614  0.421823  1
  Pt  Pt8  1  0.250000  0.230536  0.904868  1
  Pt  Pt9  1  0.250000  0.732920  0.595121  1
  Pt  Pt10  1  0.750000  0.769133  0.098399  1
  Pt  Pt11  1  0.750000  0.268170  0.404083  1
