# generated using pymatgen
data_NaCa(PrB12)2
_symmetry_space_group_name_H-M   'P 1'
_cell_length_a   7.18195135
_cell_length_b   7.18195255
_cell_length_c   5.87420000
_cell_angle_alpha   90.00000000
_cell_angle_beta   90.00000000
_cell_angle_gamma   109.42851762
_symmetry_Int_Tables_number   1
_chemical_formula_structural   NaCa(PrB12)2
_chemical_formula_sum   'Na1 Ca1 Pr2 B24'
_cell_volume   285.74047464
_cell_formula_units_Z   1
loop_
 _symmetry_equiv_pos_site_id
 _symmetry_equiv_pos_as_xyz
  1  'x, y, z'
loop_
 _atom_site_type_symbol
 _atom_site_label
 _atom_site_symmetry_multiplicity
 _atom_site_fract_x
 _atom_site_fract_y
 _atom_site_fract_z
 _atom_site_occupancy
  Na  Na0  1  0.000000  0.000000  0.000000  1
  Ca  Ca1  1  0.500000  0.500000  0.000000  1
  Pr  Pr2  1  0.750470  0.249530  0.500000  1
  Pr  Pr3  1  0.249530  0.750470  0.500000  1
  B  B4  1  0.175658  0.324617  0.650115  1
  B  B5  1  0.924744  0.574952  0.148608  1
  B  B6  1  0.675383  0.824342  0.650115  1
  B  B7  1  0.425048  0.075256  0.148608  1
  B  B8  1  0.175658  0.324617  0.349885  1
  B  B9  1  0.924744  0.574952  0.851392  1
  B  B10  1  0.675383  0.824342  0.349885  1
  B  B11  1  0.425048  0.075256  0.851392  1
  B  B12  1  0.399507  0.399507  0.500000  1
  B  B13  1  0.148988  0.649982  0.000000  1
  B  B14  1  0.899272  0.899272  0.500000  1
  B  B15  1  0.649982  0.148988  0.000000  1
  B  B16  1  0.324617  0.175658  0.650115  1
  B  B17  1  0.075256  0.425048  0.148608  1
  B  B18  1  0.824342  0.675383  0.650115  1
  B  B19  1  0.574952  0.924744  0.148608  1
  B  B20  1  0.100728  0.100728  0.500000  1
  B  B21  1  0.851012  0.350018  0.000000  1
  B  B22  1  0.600493  0.600493  0.500000  1
  B  B23  1  0.350018  0.851012  0.000000  1
  B  B24  1  0.324617  0.175658  0.349885  1
  B  B25  1  0.075256  0.425048  0.851392  1
  B  B26  1  0.824342  0.675383  0.349885  1
  B  B27  1  0.574952  0.924744  0.851392  1
