# generated using pymatgen
data_Dy8InAgRh2
_symmetry_space_group_name_H-M   'P 1'
_cell_length_a   9.59525860
_cell_length_b   9.59525776
_cell_length_c   9.60627600
_cell_angle_alpha   59.96201416
_cell_angle_beta   59.96201704
_cell_angle_gamma   60.02564369
_symmetry_Int_Tables_number   1
_chemical_formula_structural   Dy8InAgRh2
_chemical_formula_sum   'Dy16 In2 Ag2 Rh4'
_cell_volume   625.15514516
_cell_formula_units_Z   2
loop_
 _symmetry_equiv_pos_site_id
 _symmetry_equiv_pos_as_xyz
  1  'x, y, z'
loop_
 _atom_site_type_symbol
 _atom_site_label
 _atom_site_symmetry_multiplicity
 _atom_site_fract_x
 _atom_site_fract_y
 _atom_site_fract_z
 _atom_site_occupancy
  Dy  Dy0  1  0.186056  0.186056  0.813944  1
  Dy  Dy1  1  0.600403  0.600403  0.198679  1
  Dy  Dy2  1  0.438999  0.060349  0.440385  1
  Dy  Dy3  1  0.441252  0.441252  0.058748  1
  Dy  Dy4  1  0.812630  0.182941  0.814488  1
  Dy  Dy5  1  0.182941  0.812630  0.189941  1
  Dy  Dy6  1  0.438999  0.060349  0.060267  1
  Dy  Dy7  1  0.182941  0.812630  0.814488  1
  Dy  Dy8  1  0.060349  0.438999  0.060267  1
  Dy  Dy9  1  0.811749  0.811749  0.188251  1
  Dy  Dy10  1  0.197769  0.601319  0.600456  1
  Dy  Dy11  1  0.060349  0.438999  0.440385  1
  Dy  Dy12  1  0.061499  0.061499  0.438501  1
  Dy  Dy13  1  0.812630  0.182941  0.189941  1
  Dy  Dy14  1  0.601319  0.197769  0.600456  1
  Dy  Dy15  1  0.600403  0.600403  0.600514  1
  In  In16  1  0.507527  0.833223  0.829626  1
  In  In17  1  0.833223  0.507527  0.829626  1
  Ag  Ag18  1  0.833698  0.833698  0.831836  1
  Ag  Ag19  1  0.833698  0.833698  0.500769  1
  Rh  Rh20  1  0.393094  0.822437  0.392234  1
  Rh  Rh21  1  0.393017  0.393017  0.391805  1
  Rh  Rh22  1  0.822437  0.393094  0.392234  1
  Rh  Rh23  1  0.393017  0.393017  0.822161  1
