# generated using pymatgen
data_Hf(ZrTe)4
_symmetry_space_group_name_H-M   'P 1'
_cell_length_a   7.93658796
_cell_length_b   7.93658780
_cell_length_c   7.93658875
_cell_angle_alpha   93.37991051
_cell_angle_beta   93.37991375
_cell_angle_gamma   151.89518095
_symmetry_Int_Tables_number   1
_chemical_formula_structural   Hf(ZrTe)4
_chemical_formula_sum   'Hf1 Zr4 Te4'
_cell_volume   228.45816022
_cell_formula_units_Z   1
loop_
 _symmetry_equiv_pos_site_id
 _symmetry_equiv_pos_as_xyz
  1  'x, y, z'
loop_
 _atom_site_type_symbol
 _atom_site_label
 _atom_site_symmetry_multiplicity
 _atom_site_fract_x
 _atom_site_fract_y
 _atom_site_fract_z
 _atom_site_occupancy
  Hf  Hf0  1  0.000000  0.000000  0.000000  1
  Zr  Zr1  1  0.629915  0.309503  0.939418  1
  Zr  Zr2  1  0.370085  0.690497  0.060582  1
  Zr  Zr3  1  0.309503  0.370085  0.679588  1
  Zr  Zr4  1  0.690497  0.629915  0.320412  1
  Te  Te5  1  0.719056  0.053515  0.772571  1
  Te  Te6  1  0.280944  0.946485  0.227429  1
  Te  Te7  1  0.053515  0.280944  0.334458  1
  Te  Te8  1  0.946485  0.719056  0.665542  1
