# generated using pymatgen
data_Pr3Nd2TiRuO12
_symmetry_space_group_name_H-M   'P 1'
_cell_length_a   7.10378551
_cell_length_b   7.10378650
_cell_length_c   7.64604488
_cell_angle_alpha   74.32161204
_cell_angle_beta   74.32161287
_cell_angle_gamma   50.46600927
_symmetry_Int_Tables_number   1
_chemical_formula_structural   Pr3Nd2TiRuO12
_chemical_formula_sum   'Pr3 Nd2 Ti1 Ru1 O12'
_cell_volume   283.99478201
_cell_formula_units_Z   1
loop_
 _symmetry_equiv_pos_site_id
 _symmetry_equiv_pos_as_xyz
  1  'x, y, z'
loop_
 _atom_site_type_symbol
 _atom_site_label
 _atom_site_symmetry_multiplicity
 _atom_site_fract_x
 _atom_site_fract_y
 _atom_site_fract_z
 _atom_site_occupancy
  Pr  Pr0  1  0.690077  0.697851  0.165368  1
  Pr  Pr1  1  0.302149  0.309923  0.834632  1
  Pr  Pr2  1  0.001853  0.998147  0.500000  1
  Nd  Nd3  1  0.306443  0.303905  0.358108  1
  Nd  Nd4  1  0.696095  0.693557  0.641892  1
  Ti  Ti5  1  0.775869  0.224131  0.000000  1
  Ru  Ru6  1  0.252719  0.747281  0.000000  1
  O  O7  1  0.094075  0.595786  0.575841  1
  O  O8  1  0.000748  0.998275  0.176113  1
  O  O9  1  0.404214  0.905925  0.424159  1
  O  O10  1  0.492948  0.507014  0.175913  1
  O  O11  1  0.099026  0.582166  0.080406  1
  O  O12  1  0.905210  0.404477  0.422951  1
  O  O13  1  0.001725  0.999252  0.823887  1
  O  O14  1  0.595523  0.094789  0.577049  1
  O  O15  1  0.492986  0.507052  0.824087  1
  O  O16  1  0.578795  0.108286  0.078369  1
  O  O17  1  0.417834  0.900974  0.919594  1
  O  O18  1  0.891714  0.421205  0.921631  1
