# generated using pymatgen
data_NiMo2O7
_symmetry_space_group_name_H-M   'P 1'
_cell_length_a   5.79234500
_cell_length_b   8.28940482
_cell_length_c   15.48288800
_cell_angle_alpha   65.08711574
_cell_angle_beta   90.00000000
_cell_angle_gamma   90.00000000
_symmetry_Int_Tables_number   1
_chemical_formula_structural   NiMo2O7
_chemical_formula_sum   'Ni4 Mo8 O28'
_cell_volume   674.23727457
_cell_formula_units_Z   4
loop_
 _symmetry_equiv_pos_site_id
 _symmetry_equiv_pos_as_xyz
  1  'x, y, z'
loop_
 _atom_site_type_symbol
 _atom_site_label
 _atom_site_symmetry_multiplicity
 _atom_site_fract_x
 _atom_site_fract_y
 _atom_site_fract_z
 _atom_site_occupancy
  Ni  Ni0  1  0.127168  0.989026  0.909967  1
  Ni  Ni1  1  0.627168  0.010974  0.590033  1
  Ni  Ni2  1  0.872832  0.010974  0.090033  1
  Ni  Ni3  1  0.372832  0.989026  0.409967  1
  Mo  Mo4  1  0.364965  0.709865  0.123275  1
  Mo  Mo5  1  0.135035  0.709865  0.623275  1
  Mo  Mo6  1  0.635035  0.290135  0.876725  1
  Mo  Mo7  1  0.864965  0.290135  0.376725  1
  Mo  Mo8  1  0.626539  0.756369  0.859667  1
  Mo  Mo9  1  0.126539  0.243631  0.640333  1
  Mo  Mo10  1  0.373461  0.243631  0.140333  1
  Mo  Mo11  1  0.873461  0.756369  0.359667  1
  O  O12  1  0.678909  0.348095  0.757055  1
  O  O13  1  0.178909  0.651905  0.742945  1
  O  O14  1  0.321091  0.651905  0.242945  1
  O  O15  1  0.821091  0.348095  0.257055  1
  O  O16  1  0.868959  0.138522  0.939554  1
  O  O17  1  0.368959  0.861478  0.560446  1
  O  O18  1  0.131041  0.861478  0.060446  1
  O  O19  1  0.631041  0.138522  0.439554  1
  O  O20  1  0.370705  0.173994  0.907558  1
  O  O21  1  0.870705  0.826006  0.592442  1
  O  O22  1  0.629295  0.826006  0.092442  1
  O  O23  1  0.129295  0.173994  0.407558  1
  O  O24  1  0.112309  0.814925  0.413099  1
  O  O25  1  0.612309  0.185075  0.086901  1
  O  O26  1  0.887691  0.185075  0.586901  1
  O  O27  1  0.387691  0.814925  0.913099  1
  O  O28  1  0.883596  0.881854  0.235580  1
  O  O29  1  0.383596  0.118146  0.264420  1
  O  O30  1  0.116404  0.118146  0.764420  1
  O  O31  1  0.616404  0.881854  0.735580  1
  O  O32  1  0.627511  0.507131  0.893356  1
  O  O33  1  0.120346  0.186357  0.096686  1
  O  O34  1  0.379654  0.186357  0.596686  1
  O  O35  1  0.879654  0.813643  0.903314  1
  O  O36  1  0.872489  0.507131  0.393356  1
  O  O37  1  0.372489  0.492869  0.106644  1
  O  O38  1  0.127511  0.492869  0.606644  1
  O  O39  1  0.620346  0.813643  0.403314  1
