# generated using pymatgen
data_Er9Sc10Si16W
_symmetry_space_group_name_H-M   'P 1'
_cell_length_a   7.02572765
_cell_length_b   7.35296898
_cell_length_c   13.88793592
_cell_angle_alpha   90.13594706
_cell_angle_beta   90.15205438
_cell_angle_gamma   89.62491647
_symmetry_Int_Tables_number   1
_chemical_formula_structural   Er9Sc10Si16W
_chemical_formula_sum   'Er9 Sc10 Si16 W1'
_cell_volume   717.43028836
_cell_formula_units_Z   1
loop_
 _symmetry_equiv_pos_site_id
 _symmetry_equiv_pos_as_xyz
  1  'x, y, z'
loop_
 _atom_site_type_symbol
 _atom_site_label
 _atom_site_symmetry_multiplicity
 _atom_site_fract_x
 _atom_site_fract_y
 _atom_site_fract_z
 _atom_site_occupancy
  Er  Er0  1  0.989767  0.681530  0.600586  1
  Er  Er1  1  0.014318  0.322390  0.405303  1
  Er  Er2  1  0.515494  0.178609  0.401788  1
  Er  Er3  1  0.013244  0.321705  0.093680  1
  Er  Er4  1  0.484705  0.824177  0.597862  1
  Er  Er5  1  0.991025  0.681470  0.902006  1
  Er  Er6  1  0.485534  0.825666  0.904009  1
  Er  Er7  1  0.512624  0.178081  0.095648  1
  Er  Er8  1  0.326480  0.323135  0.625843  1
  Sc  Sc9  1  0.843985  0.004176  0.249454  1
  Sc  Sc10  1  0.343842  0.497032  0.248463  1
  Sc  Sc11  1  0.656554  0.507829  0.751362  1
  Sc  Sc12  1  0.674778  0.677518  0.372092  1
  Sc  Sc13  1  0.174551  0.828377  0.375281  1
  Sc  Sc14  1  0.673713  0.676062  0.125810  1
  Sc  Sc15  1  0.824798  0.168685  0.629422  1
  Sc  Sc16  1  0.325485  0.319934  0.873447  1
  Sc  Sc17  1  0.823561  0.168507  0.873438  1
  Sc  Sc18  1  0.173668  0.827381  0.123385  1
  Si  Si19  1  0.023961  0.378049  0.753989  1
  Si  Si20  1  0.975307  0.614033  0.249292  1
  Si  Si21  1  0.471562  0.887278  0.249210  1
  Si  Si22  1  0.518521  0.097678  0.752516  1
  Si  Si23  1  0.281404  0.646005  0.751454  1
  Si  Si24  1  0.719854  0.369756  0.249243  1
  Si  Si25  1  0.216114  0.131654  0.249152  1
  Si  Si26  1  0.791705  0.869195  0.751348  1
  Si  Si27  1  0.147824  0.026814  0.547744  1
  Si  Si28  1  0.842928  0.964681  0.462230  1
  Si  Si29  1  0.349727  0.537988  0.457601  1
  Si  Si30  1  0.842660  0.964697  0.038102  1
  Si  Si31  1  0.666144  0.466339  0.536742  1
  Si  Si32  1  0.153994  0.032469  0.951936  1
  Si  Si33  1  0.656850  0.466042  0.960723  1
  Si  Si34  1  0.344773  0.534885  0.037493  1
  W  W35  1  0.148543  0.000171  0.752346  1
