# generated using pymatgen
data_Sr4Cd8HgAu5
_symmetry_space_group_name_H-M   'P 1'
_cell_length_a   15.47901863
_cell_length_b   15.43708905
_cell_length_c   4.55415300
_cell_angle_alpha   90.00000000
_cell_angle_beta   90.00000000
_cell_angle_gamma   120.12230687
_symmetry_Int_Tables_number   1
_chemical_formula_structural   Sr4Cd8HgAu5
_chemical_formula_sum   'Sr8 Cd16 Hg2 Au10'
_cell_volume   941.26197988
_cell_formula_units_Z   2
loop_
 _symmetry_equiv_pos_site_id
 _symmetry_equiv_pos_as_xyz
  1  'x, y, z'
loop_
 _atom_site_type_symbol
 _atom_site_label
 _atom_site_symmetry_multiplicity
 _atom_site_fract_x
 _atom_site_fract_y
 _atom_site_fract_z
 _atom_site_occupancy
  Sr  Sr0  1  0.453626  0.001744  0.000000  1
  Sr  Sr1  1  0.993222  0.450852  0.000000  1
  Sr  Sr2  1  0.550769  0.543317  0.000000  1
  Sr  Sr3  1  0.333669  0.675845  0.000000  1
  Sr  Sr4  1  0.667175  0.333202  0.000000  1
  Sr  Sr5  1  0.820429  0.999274  0.500000  1
  Sr  Sr6  1  0.000708  0.821820  0.500000  1
  Sr  Sr7  1  0.178293  0.178070  0.500000  1
  Cd  Cd8  1  0.180565  0.375751  0.000000  1
  Cd  Cd9  1  0.624745  0.804187  0.000000  1
  Cd  Cd10  1  0.378365  0.177691  0.000000  1
  Cd  Cd11  1  0.199313  0.821462  0.000000  1
  Cd  Cd12  1  0.801641  0.621203  0.000000  1
  Cd  Cd13  1  0.820010  0.199159  0.000000  1
  Cd  Cd14  1  0.282898  0.999971  0.500000  1
  Cd  Cd15  1  0.994128  0.278330  0.500000  1
  Cd  Cd16  1  0.721200  0.716651  0.500000  1
  Cd  Cd17  1  0.343757  0.461934  0.500000  1
  Cd  Cd18  1  0.531556  0.880532  0.500000  1
  Cd  Cd19  1  0.470588  0.343392  0.500000  1
  Cd  Cd20  1  0.121628  0.660156  0.500000  1
  Cd  Cd21  1  0.874011  0.529596  0.500000  1
  Cd  Cd22  1  0.655497  0.126080  0.500000  1
  Cd  Cd23  1  0.000559  0.000085  0.000000  1
  Hg  Hg24  1  0.169763  0.494960  0.500000  1
  Hg  Hg25  1  0.505234  0.675323  0.500000  1
  Au  Au26  1  0.494029  0.168425  0.500000  1
  Au  Au27  1  0.324861  0.831188  0.500000  1
  Au  Au28  1  0.675474  0.505570  0.500000  1
  Au  Au29  1  0.830356  0.324801  0.500000  1
  Au  Au30  1  0.175775  0.998964  0.000000  1
  Au  Au31  1  0.001171  0.176396  0.000000  1
  Au  Au32  1  0.823905  0.824455  0.000000  1
  Au  Au33  1  0.658566  0.001580  0.000000  1
  Au  Au34  1  0.999159  0.658183  0.000000  1
  Au  Au35  1  0.343353  0.339851  0.000000  1
