# generated using pymatgen
data_ErLu3(ScOs)4
_symmetry_space_group_name_H-M   'P 1'
_cell_length_a   4.11145600
_cell_length_b   7.19975076
_cell_length_c   8.58422284
_cell_angle_alpha   90.12156859
_cell_angle_beta   90.00000000
_cell_angle_gamma   90.00000000
_symmetry_Int_Tables_number   1
_chemical_formula_structural   ErLu3(ScOs)4
_chemical_formula_sum   'Er1 Lu3 Sc4 Os4'
_cell_volume   254.10494400
_cell_formula_units_Z   1
loop_
 _symmetry_equiv_pos_site_id
 _symmetry_equiv_pos_as_xyz
  1  'x, y, z'
loop_
 _atom_site_type_symbol
 _atom_site_label
 _atom_site_symmetry_multiplicity
 _atom_site_fract_x
 _atom_site_fract_y
 _atom_site_fract_z
 _atom_site_occupancy
  Er  Er0  1  0.750000  0.527844  0.828937  1
  Lu  Lu1  1  0.250000  0.971404  0.329689  1
  Lu  Lu2  1  0.250000  0.471359  0.171348  1
  Lu  Lu3  1  0.750000  0.028679  0.670254  1
  Sc  Sc4  1  0.250000  0.356112  0.557964  1
  Sc  Sc5  1  0.250000  0.856843  0.941788  1
  Sc  Sc6  1  0.750000  0.644289  0.440419  1
  Sc  Sc7  1  0.750000  0.143273  0.059668  1
  Os  Os8  1  0.250000  0.234669  0.872045  1
  Os  Os9  1  0.250000  0.739557  0.626920  1
  Os  Os10  1  0.750000  0.763043  0.129081  1
  Os  Os11  1  0.750000  0.262929  0.371887  1
