# generated using pymatgen
data_Sm8Lu12Si15Au
_symmetry_space_group_name_H-M   'P 1'
_cell_length_a   7.37501570
_cell_length_b   7.64865959
_cell_length_c   14.55773388
_cell_angle_alpha   89.87694727
_cell_angle_beta   89.67400372
_cell_angle_gamma   90.20295893
_symmetry_Int_Tables_number   1
_chemical_formula_structural   Sm8Lu12Si15Au
_chemical_formula_sum   'Sm8 Lu12 Si15 Au1'
_cell_volume   821.16661162
_cell_formula_units_Z   1
loop_
 _symmetry_equiv_pos_site_id
 _symmetry_equiv_pos_as_xyz
  1  'x, y, z'
loop_
 _atom_site_type_symbol
 _atom_site_label
 _atom_site_symmetry_multiplicity
 _atom_site_fract_x
 _atom_site_fract_y
 _atom_site_fract_z
 _atom_site_occupancy
  Sm  Sm0  1  0.014921  0.176992  0.098695  1
  Sm  Sm1  1  0.984708  0.824219  0.902985  1
  Sm  Sm2  1  0.484551  0.676721  0.902801  1
  Sm  Sm3  1  0.986632  0.828412  0.598438  1
  Sm  Sm4  1  0.514083  0.323154  0.097398  1
  Sm  Sm5  1  0.012155  0.174329  0.399030  1
  Sm  Sm6  1  0.513193  0.323140  0.399321  1
  Sm  Sm7  1  0.488865  0.677658  0.599790  1
  Lu  Lu8  1  0.163360  0.505980  0.750052  1
  Lu  Lu9  1  0.837475  0.494276  0.250847  1
  Lu  Lu10  1  0.337325  0.004518  0.248980  1
  Lu  Lu11  1  0.664685  0.992307  0.751048  1
  Lu  Lu12  1  0.335913  0.176797  0.623897  1
  Lu  Lu13  1  0.667904  0.823591  0.375197  1
  Lu  Lu14  1  0.170552  0.672163  0.375677  1
  Lu  Lu15  1  0.672359  0.823984  0.123456  1
  Lu  Lu16  1  0.828394  0.326237  0.623189  1
  Lu  Lu17  1  0.327162  0.176248  0.877371  1
  Lu  Lu18  1  0.828095  0.321797  0.877767  1
  Lu  Lu19  1  0.170926  0.676797  0.123413  1
  Si  Si20  1  0.036022  0.117644  0.751053  1
  Si  Si21  1  0.966287  0.884533  0.249820  1
  Si  Si22  1  0.465762  0.614471  0.248429  1
  Si  Si23  1  0.536770  0.386339  0.752295  1
  Si  Si24  1  0.282485  0.876477  0.750955  1
  Si  Si25  1  0.714955  0.126403  0.248505  1
  Si  Si26  1  0.217276  0.372282  0.248110  1
  Si  Si27  1  0.783890  0.625087  0.752843  1
  Si  Si28  1  0.837149  0.535506  0.459050  1
  Si  Si29  1  0.342575  0.964521  0.460590  1
  Si  Si30  1  0.845576  0.534158  0.038689  1
  Si  Si31  1  0.656369  0.035015  0.537495  1
  Si  Si32  1  0.153152  0.466088  0.961730  1
  Si  Si33  1  0.653981  0.032594  0.960829  1
  Si  Si34  1  0.345462  0.966151  0.039306  1
  Au  Au35  1  0.159027  0.463417  0.540951  1
