# generated using pymatgen
data_Ho2Zn(Co2B)3
_symmetry_space_group_name_H-M   'P 1'
_cell_length_a   5.08999127
_cell_length_b   5.08903121
_cell_length_c   12.62967400
_cell_angle_alpha   90.00068434
_cell_angle_beta   89.99926165
_cell_angle_gamma   119.98633074
_symmetry_Int_Tables_number   1
_chemical_formula_structural   Ho2Zn(Co2B)3
_chemical_formula_sum   'Ho4 Zn2 Co12 B6'
_cell_volume   283.35751009
_cell_formula_units_Z   2
loop_
 _symmetry_equiv_pos_site_id
 _symmetry_equiv_pos_as_xyz
  1  'x, y, z'
loop_
 _atom_site_type_symbol
 _atom_site_label
 _atom_site_symmetry_multiplicity
 _atom_site_fract_x
 _atom_site_fract_y
 _atom_site_fract_z
 _atom_site_occupancy
  Ho  Ho0  1  0.999978  0.999987  0.499999  1
  Ho  Ho1  1  0.999994  0.999991  0.260628  1
  Ho  Ho2  1  0.999978  0.000017  0.739427  1
  Ho  Ho3  1  0.000000  0.999997  0.999998  1
  Zn  Zn4  1  0.333429  0.666582  0.999950  1
  Zn  Zn5  1  0.666593  0.333394  0.999948  1
  Co  Co6  1  0.500094  0.000146  0.386310  1
  Co  Co7  1  0.999924  0.499938  0.386301  1
  Co  Co8  1  0.500064  0.499877  0.386397  1
  Co  Co9  1  0.499941  0.999973  0.613713  1
  Co  Co10  1  0.499916  0.500005  0.613707  1
  Co  Co11  1  0.000109  0.500075  0.613737  1
  Co  Co12  1  0.499953  0.999919  0.161711  1
  Co  Co13  1  0.000050  0.500020  0.161690  1
  Co  Co14  1  0.499962  0.499999  0.161665  1
  Co  Co15  1  0.500021  0.000097  0.838241  1
  Co  Co16  1  0.500009  0.499972  0.838182  1
  Co  Co17  1  0.999873  0.499956  0.838298  1
  B  B18  1  0.333362  0.666638  0.269785  1
  B  B19  1  0.666661  0.333353  0.269647  1
  B  B20  1  0.666701  0.333340  0.730257  1
  B  B21  1  0.333268  0.666700  0.730386  1
  B  B22  1  0.333301  0.666686  0.499923  1
  B  B23  1  0.666718  0.333339  0.500099  1
