# generated using pymatgen
data_Tb3Tm4Th(CdNi)2
_symmetry_space_group_name_H-M   'P 1'
_cell_length_a   9.54093526
_cell_length_b   9.54093571
_cell_length_c   9.54821600
_cell_angle_alpha   59.97474808
_cell_angle_beta   59.97474653
_cell_angle_gamma   60.03082179
_symmetry_Int_Tables_number   1
_chemical_formula_structural   Tb3Tm4Th(CdNi)2
_chemical_formula_sum   'Tb6 Tm8 Th2 Cd4 Ni4'
_cell_volume   614.50336510
_cell_formula_units_Z   2
loop_
 _symmetry_equiv_pos_site_id
 _symmetry_equiv_pos_as_xyz
  1  'x, y, z'
loop_
 _atom_site_type_symbol
 _atom_site_label
 _atom_site_symmetry_multiplicity
 _atom_site_fract_x
 _atom_site_fract_y
 _atom_site_fract_z
 _atom_site_occupancy
  Tb  Tb0  1  0.937295  0.563299  0.565100  1
  Tb  Tb1  1  0.563299  0.937295  0.934304  1
  Tb  Tb2  1  0.563299  0.937295  0.565100  1
  Tb  Tb3  1  0.937295  0.563299  0.934304  1
  Tb  Tb4  1  0.563438  0.563438  0.936562  1
  Tb  Tb5  1  0.936453  0.936453  0.563547  1
  Tm  Tm6  1  0.347651  0.950946  0.350702  1
  Tm  Tm7  1  0.950946  0.347651  0.350702  1
  Tm  Tm8  1  0.814370  0.187320  0.185884  1
  Tm  Tm9  1  0.187320  0.814370  0.812427  1
  Tm  Tm10  1  0.187320  0.814370  0.185884  1
  Tm  Tm11  1  0.814370  0.187320  0.812427  1
  Tm  Tm12  1  0.186038  0.186038  0.813962  1
  Tm  Tm13  1  0.812704  0.812704  0.187296  1
  Th  Th14  1  0.344126  0.344126  0.351354  1
  Th  Th15  1  0.344126  0.344126  0.960394  1
  Cd  Cd16  1  0.583285  0.583285  0.577958  1
  Cd  Cd17  1  0.583285  0.583285  0.255469  1
  Cd  Cd18  1  0.584976  0.256669  0.579177  1
  Cd  Cd19  1  0.256669  0.584976  0.579177  1
  Ni  Ni20  1  0.142803  0.142803  0.142188  1
  Ni  Ni21  1  0.142803  0.142803  0.572208  1
  Ni  Ni22  1  0.145283  0.570848  0.141935  1
  Ni  Ni23  1  0.570848  0.145283  0.141935  1
