# generated using pymatgen
data_Y2Er3OsRh
_symmetry_space_group_name_H-M   'P 1'
_cell_length_a   6.31689653
_cell_length_b   7.29693580
_cell_length_c   8.42356800
_cell_angle_alpha   96.90444664
_cell_angle_beta   112.02145393
_cell_angle_gamma   89.99999921
_symmetry_Int_Tables_number   1
_chemical_formula_structural   Y2Er3OsRh
_chemical_formula_sum   'Y4 Er6 Os2 Rh2'
_cell_volume   356.90942453
_cell_formula_units_Z   2
loop_
 _symmetry_equiv_pos_site_id
 _symmetry_equiv_pos_as_xyz
  1  'x, y, z'
loop_
 _atom_site_type_symbol
 _atom_site_label
 _atom_site_symmetry_multiplicity
 _atom_site_fract_x
 _atom_site_fract_y
 _atom_site_fract_z
 _atom_site_occupancy
  Y  Y0  1  0.788004  0.583948  0.813794  1
  Y  Y1  1  0.974211  0.916052  0.186206  1
  Y  Y2  1  0.210607  0.418502  0.189048  1
  Y  Y3  1  0.021559  0.081498  0.810952  1
  Er  Er4  1  0.204085  0.685711  0.563013  1
  Er  Er5  1  0.641071  0.814289  0.436987  1
  Er  Er6  1  0.794807  0.316210  0.434556  1
  Er  Er7  1  0.360250  0.183790  0.565444  1
  Er  Er8  1  0.423226  0.750000  0.000000  1
  Er  Er9  1  0.580627  0.250000  0.000000  1
  Os  Os10  1  0.597315  0.924995  0.779311  1
  Os  Os11  1  0.818003  0.575005  0.220689  1
  Rh  Rh12  1  0.404108  0.076256  0.221977  1
  Rh  Rh13  1  0.182132  0.423744  0.778023  1
