# generated using pymatgen
data_Mn5Fe3(BiO5)4
_symmetry_space_group_name_H-M   'P 1'
_cell_length_a   5.86676507
_cell_length_b   7.61591325
_cell_length_c   8.72317920
_cell_angle_alpha   90.02348113
_cell_angle_beta   89.99955991
_cell_angle_gamma   90.01814430
_symmetry_Int_Tables_number   1
_chemical_formula_structural   Mn5Fe3(BiO5)4
_chemical_formula_sum   'Mn5 Fe3 Bi4 O20'
_cell_volume   389.75834442
_cell_formula_units_Z   1
loop_
 _symmetry_equiv_pos_site_id
 _symmetry_equiv_pos_as_xyz
  1  'x, y, z'
loop_
 _atom_site_type_symbol
 _atom_site_label
 _atom_site_symmetry_multiplicity
 _atom_site_fract_x
 _atom_site_fract_y
 _atom_site_fract_z
 _atom_site_occupancy
  Mn  Mn0  1  0.255638  0.501540  0.499888  1
  Mn  Mn1  1  0.746849  0.999400  0.999871  1
  Mn  Mn2  1  0.744092  0.501382  0.499916  1
  Mn  Mn3  1  0.252898  0.999310  0.999628  1
  Mn  Mn4  1  0.499922  0.904953  0.651844  1
  Fe  Fe5  1  0.500368  0.613461  0.144679  1
  Fe  Fe6  1  0.499867  0.386261  0.855025  1
  Fe  Fe7  1  0.500251  0.113174  0.353600  1
  Bi  Bi8  1  0.000141  0.848334  0.337305  1
  Bi  Bi9  1  0.999937  0.151878  0.661714  1
  Bi  Bi10  1  0.000131  0.351509  0.165733  1
  Bi  Bi11  1  0.999897  0.643590  0.835430  1
  O  O12  1  0.999914  0.844523  0.055496  1
  O  O13  1  0.000035  0.153436  0.944155  1
  O  O14  1  0.999966  0.343614  0.444387  1
  O  O15  1  0.000032  0.655096  0.555224  1
  O  O16  1  0.499938  0.852560  0.072343  1
  O  O17  1  0.500032  0.145621  0.925999  1
  O  O18  1  0.499934  0.352046  0.427602  1
  O  O19  1  0.500069  0.647048  0.568857  1
  O  O20  1  0.249829  0.610025  0.298633  1
  O  O21  1  0.250347  0.390467  0.700654  1
  O  O22  1  0.749186  0.109933  0.199956  1
  O  O23  1  0.749355  0.886925  0.800235  1
  O  O24  1  0.749555  0.390467  0.700604  1
  O  O25  1  0.750231  0.610000  0.298567  1
  O  O26  1  0.250640  0.886952  0.800182  1
  O  O27  1  0.250854  0.109938  0.199947  1
  O  O28  1  0.278680  0.499294  0.999796  1
  O  O29  1  0.718385  0.999002  0.501439  1
  O  O30  1  0.721299  0.499270  0.999792  1
  O  O31  1  0.281730  0.998987  0.501502  1
