# generated using pymatgen
data_Tb3Lu5(AlPt)2
_symmetry_space_group_name_H-M   'P 1'
_cell_length_a   9.48194417
_cell_length_b   9.48194477
_cell_length_c   9.48194500
_cell_angle_alpha   59.99999572
_cell_angle_beta   59.99999362
_cell_angle_gamma   59.99999382
_symmetry_Int_Tables_number   1
_chemical_formula_structural   Tb3Lu5(AlPt)2
_chemical_formula_sum   'Tb6 Lu10 Al4 Pt4'
_cell_volume   602.80548318
_cell_formula_units_Z   2
loop_
 _symmetry_equiv_pos_site_id
 _symmetry_equiv_pos_as_xyz
  1  'x, y, z'
loop_
 _atom_site_type_symbol
 _atom_site_label
 _atom_site_symmetry_multiplicity
 _atom_site_fract_x
 _atom_site_fract_y
 _atom_site_fract_z
 _atom_site_occupancy
  Tb  Tb0  1  0.937029  0.562971  0.562971  1
  Tb  Tb1  1  0.562971  0.937029  0.937029  1
  Tb  Tb2  1  0.562971  0.937029  0.562971  1
  Tb  Tb3  1  0.937029  0.562971  0.937029  1
  Tb  Tb4  1  0.562971  0.562971  0.937029  1
  Tb  Tb5  1  0.937029  0.937029  0.562971  1
  Lu  Lu6  1  0.353186  0.353186  0.353186  1
  Lu  Lu7  1  0.353186  0.353186  0.940441  1
  Lu  Lu8  1  0.353186  0.940441  0.353186  1
  Lu  Lu9  1  0.940441  0.353186  0.353186  1
  Lu  Lu10  1  0.807865  0.192135  0.192135  1
  Lu  Lu11  1  0.192135  0.807865  0.807865  1
  Lu  Lu12  1  0.192135  0.807865  0.192135  1
  Lu  Lu13  1  0.807865  0.192135  0.807865  1
  Lu  Lu14  1  0.192135  0.192135  0.807865  1
  Lu  Lu15  1  0.807865  0.807865  0.192135  1
  Al  Al16  1  0.577066  0.577066  0.577066  1
  Al  Al17  1  0.577066  0.577066  0.268803  1
  Al  Al18  1  0.577066  0.268803  0.577066  1
  Al  Al19  1  0.268803  0.577066  0.577066  1
  Pt  Pt20  1  0.142672  0.142672  0.142672  1
  Pt  Pt21  1  0.142672  0.142672  0.571986  1
  Pt  Pt22  1  0.142672  0.571986  0.142672  1
  Pt  Pt23  1  0.571986  0.142672  0.142672  1
