# generated using pymatgen
data_Ce2NdSn3IrRh2
_symmetry_space_group_name_H-M   'P 1'
_cell_length_a   7.56786127
_cell_length_b   7.50617219
_cell_length_c   4.06693300
_cell_angle_alpha   90.00000000
_cell_angle_beta   90.00000000
_cell_angle_gamma   119.78550367
_symmetry_Int_Tables_number   1
_chemical_formula_structural   Ce2NdSn3IrRh2
_chemical_formula_sum   'Ce2 Nd1 Sn3 Ir1 Rh2'
_cell_volume   200.50442875
_cell_formula_units_Z   1
loop_
 _symmetry_equiv_pos_site_id
 _symmetry_equiv_pos_as_xyz
  1  'x, y, z'
loop_
 _atom_site_type_symbol
 _atom_site_label
 _atom_site_symmetry_multiplicity
 _atom_site_fract_x
 _atom_site_fract_y
 _atom_site_fract_z
 _atom_site_occupancy
  Ce  Ce0  1  0.586478  0.584401  0.000000  1
  Ce  Ce1  1  0.415792  0.002039  0.000000  1
  Nd  Nd2  1  0.998715  0.410244  0.000000  1
  Sn  Sn3  1  0.247945  0.253078  0.500000  1
  Sn  Sn4  1  0.001174  0.744141  0.500000  1
  Sn  Sn5  1  0.750437  0.002323  0.500000  1
  Ir  Ir6  1  0.650658  0.330684  0.500000  1
  Rh  Rh7  1  0.348559  0.680024  0.500000  1
  Rh  Rh8  1  0.000240  0.993067  0.000000  1
