# generated using pymatgen
data_Pr3Bi(Mo2O7)2
_symmetry_space_group_name_H-M   'P 1'
_cell_length_a   7.58568843
_cell_length_b   7.51012015
_cell_length_c   7.52542854
_cell_angle_alpha   119.37468060
_cell_angle_beta   120.34899128
_cell_angle_gamma   90.08950787
_symmetry_Int_Tables_number   1
_chemical_formula_structural   Pr3Bi(Mo2O7)2
_chemical_formula_sum   'Pr3 Bi1 Mo4 O14'
_cell_volume   304.15553289
_cell_formula_units_Z   1
loop_
 _symmetry_equiv_pos_site_id
 _symmetry_equiv_pos_as_xyz
  1  'x, y, z'
loop_
 _atom_site_type_symbol
 _atom_site_label
 _atom_site_symmetry_multiplicity
 _atom_site_fract_x
 _atom_site_fract_y
 _atom_site_fract_z
 _atom_site_occupancy
  Pr  Pr0  1  0.375000  0.625000  0.250000  1
  Pr  Pr1  1  0.875000  0.625000  0.250000  1
  Pr  Pr2  1  0.375000  0.125000  0.750000  1
  Bi  Bi3  1  0.375000  0.625000  0.750000  1
  Mo  Mo4  1  0.875000  0.625000  0.750000  1
  Mo  Mo5  1  0.375000  0.125000  0.250000  1
  Mo  Mo6  1  0.875000  0.125000  0.250000  1
  Mo  Mo7  1  0.875000  0.125000  0.750000  1
  O  O8  1  0.784302  0.200416  0.995984  1
  O  O9  1  0.549323  0.461166  0.499001  1
  O  O10  1  0.207778  0.206747  0.000317  1
  O  O11  1  0.955471  0.455563  0.498599  1
  O  O12  1  0.798782  0.797884  0.584017  1
  O  O13  1  0.537985  0.033807  0.085329  1
  O  O14  1  0.250419  0.749604  0.499790  1
  O  O15  1  0.951218  0.452116  0.915983  1
  O  O16  1  0.965698  0.049584  0.504016  1
  O  O17  1  0.542222  0.043253  0.499683  1
  O  O18  1  0.212015  0.216193  0.414671  1
  O  O19  1  0.499581  0.500396  0.000210  1
  O  O20  1  0.794529  0.794437  0.001401  1
  O  O21  1  0.200677  0.788834  0.000999  1
