# generated using pymatgen
data_Rb2U(SF)2
_symmetry_space_group_name_H-M   'P 1'
_cell_length_a   7.38108861
_cell_length_b   7.38108865
_cell_length_c   8.62929600
_cell_angle_alpha   72.82492320
_cell_angle_beta   72.82492310
_cell_angle_gamma   63.39859274
_symmetry_Int_Tables_number   1
_chemical_formula_structural   Rb2U(SF)2
_chemical_formula_sum   'Rb4 U2 S4 F4'
_cell_volume   394.23198068
_cell_formula_units_Z   2
loop_
 _symmetry_equiv_pos_site_id
 _symmetry_equiv_pos_as_xyz
  1  'x, y, z'
loop_
 _atom_site_type_symbol
 _atom_site_label
 _atom_site_symmetry_multiplicity
 _atom_site_fract_x
 _atom_site_fract_y
 _atom_site_fract_z
 _atom_site_occupancy
  Rb  Rb0  1  0.669821  0.667430  0.666961  1
  Rb  Rb1  1  0.332575  0.330174  0.833039  1
  Rb  Rb2  1  0.330179  0.332570  0.333039  1
  Rb  Rb3  1  0.667425  0.669826  0.166961  1
  U  U4  1  0.000250  0.999749  0.749999  1
  U  U5  1  0.999750  0.000251  0.250001  1
  S  S6  1  0.224462  0.775755  0.999867  1
  S  S7  1  0.224262  0.775559  0.499887  1
  S  S8  1  0.775538  0.224245  0.000133  1
  S  S9  1  0.775738  0.224441  0.500113  1
  F  F10  1  0.184418  0.185211  0.657079  1
  F  F11  1  0.814646  0.815728  0.842920  1
  F  F12  1  0.815582  0.814789  0.342921  1
  F  F13  1  0.185354  0.184272  0.157080  1
