# generated using pymatgen
data_Dy4Y12CdHg3Pt4
_symmetry_space_group_name_H-M   'P 1'
_cell_length_a   9.68713081
_cell_length_b   9.69034896
_cell_length_c   9.69034900
_cell_angle_alpha   60.00000327
_cell_angle_beta   59.98901330
_cell_angle_gamma   59.98901477
_symmetry_Int_Tables_number   1
_chemical_formula_structural   Dy4Y12CdHg3Pt4
_chemical_formula_sum   'Dy4 Y12 Cd1 Hg3 Pt4'
_cell_volume   643.11239022
_cell_formula_units_Z   1
loop_
 _symmetry_equiv_pos_site_id
 _symmetry_equiv_pos_as_xyz
  1  'x, y, z'
loop_
 _atom_site_type_symbol
 _atom_site_label
 _atom_site_symmetry_multiplicity
 _atom_site_fract_x
 _atom_site_fract_y
 _atom_site_fract_z
 _atom_site_occupancy
  Dy  Dy0  1  0.354574  0.353395  0.353395  1
  Dy  Dy1  1  0.354574  0.353395  0.938636  1
  Dy  Dy2  1  0.354574  0.938636  0.353395  1
  Dy  Dy3  1  0.936223  0.354593  0.354593  1
  Y  Y4  1  0.809913  0.189965  0.189965  1
  Y  Y5  1  0.188922  0.810675  0.810675  1
  Y  Y6  1  0.188922  0.810675  0.189729  1
  Y  Y7  1  0.809913  0.189965  0.810156  1
  Y  Y8  1  0.188922  0.189729  0.810675  1
  Y  Y9  1  0.809913  0.810156  0.189965  1
  Y  Y10  1  0.933829  0.564862  0.564862  1
  Y  Y11  1  0.563997  0.935786  0.935786  1
  Y  Y12  1  0.563997  0.935786  0.564431  1
  Y  Y13  1  0.933829  0.564862  0.936447  1
  Y  Y14  1  0.563997  0.564431  0.935786  1
  Y  Y15  1  0.933829  0.936447  0.564862  1
  Cd  Cd16  1  0.254295  0.581901  0.581901  1
  Hg  Hg17  1  0.585371  0.587336  0.587336  1
  Hg  Hg18  1  0.585371  0.587336  0.239957  1
  Hg  Hg19  1  0.585371  0.239957  0.587336  1
  Pt  Pt20  1  0.143877  0.144274  0.144274  1
  Pt  Pt21  1  0.143877  0.144274  0.567577  1
  Pt  Pt22  1  0.143877  0.567577  0.144274  1
  Pt  Pt23  1  0.568034  0.143988  0.143988  1
