# generated using pymatgen
data_Ti(VC)5
_symmetry_space_group_name_H-M   'P 1'
_cell_length_a   5.13521700
_cell_length_b   5.13521816
_cell_length_c   14.49917600
_cell_angle_alpha   90.00000000
_cell_angle_beta   90.00000000
_cell_angle_gamma   119.99998611
_symmetry_Int_Tables_number   1
_chemical_formula_structural   Ti(VC)5
_chemical_formula_sum   'Ti3 V15 C15'
_cell_volume   331.12480284
_cell_formula_units_Z   3
loop_
 _symmetry_equiv_pos_site_id
 _symmetry_equiv_pos_as_xyz
  1  'x, y, z'
loop_
 _atom_site_type_symbol
 _atom_site_label
 _atom_site_symmetry_multiplicity
 _atom_site_fract_x
 _atom_site_fract_y
 _atom_site_fract_z
 _atom_site_occupancy
  Ti  Ti0  1  0.776880  0.541190  0.417220  1
  Ti  Ti1  1  0.764310  0.223120  0.083887  1
  Ti  Ti2  1  0.458810  0.235690  0.750553  1
  V  V3  1  0.748816  0.527330  0.919074  1
  V  V4  1  0.778515  0.251184  0.585741  1
  V  V5  1  0.472670  0.221485  0.252408  1
  V  V6  1  0.110107  0.526499  0.749182  1
  V  V7  1  0.473501  0.583606  0.082516  1
  V  V8  1  0.416394  0.889893  0.415849  1
  V  V9  1  0.477987  0.891743  0.917845  1
  V  V10  1  0.413757  0.522013  0.584512  1
  V  V11  1  0.108257  0.586243  0.251179  1
  V  V12  1  0.137826  0.886698  0.589686  1
  V  V13  1  0.113302  0.251129  0.923020  1
  V  V14  1  0.748871  0.862174  0.256353  1
  V  V15  1  0.113289  0.867118  0.074955  1
  V  V16  1  0.753829  0.886711  0.741622  1
  V  V17  1  0.132882  0.246171  0.408289  1
  C  C18  1  0.440106  0.221336  0.999897  1
  C  C19  1  0.781230  0.559894  0.666564  1
  C  C20  1  0.778664  0.218770  0.333230  1
  C  C21  1  0.117747  0.561797  0.998542  1
  C  C22  1  0.444050  0.882253  0.665209  1
  C  C23  1  0.438203  0.555950  0.331875  1
  C  C24  1  0.786052  0.888829  0.998582  1
  C  C25  1  0.102778  0.213948  0.665249  1
  C  C26  1  0.111171  0.897222  0.331915  1
  C  C27  1  0.436052  0.214492  0.500724  1
  C  C28  1  0.778440  0.563948  0.167391  1
  C  C29  1  0.785508  0.221560  0.834057  1
  C  C30  1  0.111550  0.551977  0.500958  1
  C  C31  1  0.440425  0.888450  0.167625  1
  C  C32  1  0.448023  0.559575  0.834291  1
