# generated using pymatgen
data_HfZr3Sb4(PdRu)2
_symmetry_space_group_name_H-M   'P 1'
_cell_length_a   6.36469883
_cell_length_b   6.36436577
_cell_length_c   7.77941722
_cell_angle_alpha   65.82355340
_cell_angle_beta   65.85338325
_cell_angle_gamma   89.99999809
_symmetry_Int_Tables_number   1
_chemical_formula_structural   HfZr3Sb4(PdRu)2
_chemical_formula_sum   'Hf1 Zr3 Sb4 Pd2 Ru2'
_cell_volume   256.96141289
_cell_formula_units_Z   1
loop_
 _symmetry_equiv_pos_site_id
 _symmetry_equiv_pos_as_xyz
  1  'x, y, z'
loop_
 _atom_site_type_symbol
 _atom_site_label
 _atom_site_symmetry_multiplicity
 _atom_site_fract_x
 _atom_site_fract_y
 _atom_site_fract_z
 _atom_site_occupancy
  Hf  Hf0  1  0.881249  0.375000  0.750001  1
  Zr  Zr1  1  0.124847  0.118961  0.250023  1
  Zr  Zr2  1  0.624869  0.631039  0.249978  1
  Zr  Zr3  1  0.368787  0.875001  0.749999  1
  Sb  Sb4  1  0.625332  0.119911  0.249483  1
  Sb  Sb5  1  0.124814  0.630088  0.250518  1
  Sb  Sb6  1  0.369162  0.375000  0.749999  1
  Sb  Sb7  1  0.880529  0.875000  0.750001  1
  Pd  Pd8  1  0.501566  0.499454  0.998990  1
  Pd  Pd9  1  0.750556  0.250546  0.501009  1
  Ru  Ru10  1  0.999615  0.001347  0.999059  1
  Ru  Ru11  1  0.248673  0.748653  0.500940  1
