# generated using pymatgen
data_AsSe23
_symmetry_space_group_name_H-M   'P 1'
_cell_length_a   5.23736715
_cell_length_b   10.19426330
_cell_length_c   16.49151900
_cell_angle_alpha   88.31348080
_cell_angle_beta   86.83688808
_cell_angle_gamma   91.83957472
_symmetry_Int_Tables_number   1
_chemical_formula_structural   AsSe23
_chemical_formula_sum   'As1 Se23'
_cell_volume   878.27619183
_cell_formula_units_Z   1
loop_
 _symmetry_equiv_pos_site_id
 _symmetry_equiv_pos_as_xyz
  1  'x, y, z'
loop_
 _atom_site_type_symbol
 _atom_site_label
 _atom_site_symmetry_multiplicity
 _atom_site_fract_x
 _atom_site_fract_y
 _atom_site_fract_z
 _atom_site_occupancy
  As  As0  1  0.461701  0.412711  0.466130  1
  Se  Se1  1  0.568599  0.825741  0.374451  1
  Se  Se2  1  0.019717  0.327588  0.123807  1
  Se  Se3  1  0.610779  0.196942  0.485784  1
  Se  Se4  1  0.272162  0.764698  0.483308  1
  Se  Se5  1  0.257928  0.278252  0.002553  1
  Se  Se6  1  0.754030  0.702436  0.001766  1
  Se  Se7  1  0.312816  0.365863  0.336926  1
  Se  Se8  1  0.807173  0.635087  0.344878  1
  Se  Se9  1  0.777634  0.134580  0.167211  1
  Se  Se10  1  0.264878  0.880078  0.115716  1
  Se  Se11  1  0.705907  0.614547  0.636566  1
  Se  Se12  1  0.195425  0.329404  0.654102  1
  Se  Se13  1  0.235554  0.848125  0.840905  1
  Se  Se14  1  0.753586  0.110517  0.879600  1
  Se  Se15  1  0.044014  0.675053  0.105229  1
  Se  Se16  1  0.472535  0.803150  0.605677  1
  Se  Se17  1  0.438072  0.147339  0.625021  1
  Se  Se18  1  0.980973  0.657554  0.878124  1
  Se  Se19  1  0.986517  0.310481  0.894633  1
  Se  Se20  1  0.593093  0.518445  0.249090  1
  Se  Se21  1  0.067240  0.991244  0.225141  1
  Se  Se22  1  0.451920  0.475609  0.728159  1
  Se  Se23  1  0.967744  0.994551  0.775227  1
