# generated using pymatgen
data_Ac4Pd3Rh
_symmetry_space_group_name_H-M   'P 1'
_cell_length_a   4.81339800
_cell_length_b   6.04867159
_cell_length_c   7.72314400
_cell_angle_alpha   89.97467065
_cell_angle_beta   90.00000000
_cell_angle_gamma   90.00000000
_symmetry_Int_Tables_number   1
_chemical_formula_structural   Ac4Pd3Rh
_chemical_formula_sum   'Ac4 Pd3 Rh1'
_cell_volume   224.85671860
_cell_formula_units_Z   1
loop_
 _symmetry_equiv_pos_site_id
 _symmetry_equiv_pos_as_xyz
  1  'x, y, z'
loop_
 _atom_site_type_symbol
 _atom_site_label
 _atom_site_symmetry_multiplicity
 _atom_site_fract_x
 _atom_site_fract_y
 _atom_site_fract_z
 _atom_site_occupancy
  Ac  Ac0  1  0.250000  0.361549  0.680043  1
  Ac  Ac1  1  0.250000  0.139050  0.186156  1
  Ac  Ac2  1  0.750000  0.648413  0.322305  1
  Ac  Ac3  1  0.750000  0.858916  0.808794  1
  Pd  Pd4  1  0.250000  0.649058  0.042806  1
  Pd  Pd5  1  0.750000  0.153496  0.454450  1
  Pd  Pd6  1  0.750000  0.352052  0.959663  1
  Rh  Rh7  1  0.250000  0.837465  0.545782  1
