# generated using pymatgen
data_Pr17Ho3(Ga3Sn)3
_symmetry_space_group_name_H-M   'P 1'
_cell_length_a   7.98811000
_cell_length_b   7.98811000
_cell_length_c   14.75714200
_cell_angle_alpha   90.00000000
_cell_angle_beta   90.00000000
_cell_angle_gamma   90.00000000
_symmetry_Int_Tables_number   1
_chemical_formula_structural   Pr17Ho3(Ga3Sn)3
_chemical_formula_sum   'Pr17 Ho3 Ga9 Sn3'
_cell_volume   941.65177555
_cell_formula_units_Z   1
loop_
 _symmetry_equiv_pos_site_id
 _symmetry_equiv_pos_as_xyz
  1  'x, y, z'
loop_
 _atom_site_type_symbol
 _atom_site_label
 _atom_site_symmetry_multiplicity
 _atom_site_fract_x
 _atom_site_fract_y
 _atom_site_fract_z
 _atom_site_occupancy
  Pr  Pr0  1  0.819229  0.839912  0.607380  1
  Pr  Pr1  1  0.181993  0.841468  0.104259  1
  Pr  Pr2  1  0.160293  0.823338  0.392251  1
  Pr  Pr3  1  0.839707  0.176662  0.392251  1
  Pr  Pr4  1  0.676662  0.660293  0.392251  1
  Pr  Pr5  1  0.660088  0.319229  0.607380  1
  Pr  Pr6  1  0.339912  0.680771  0.607380  1
  Pr  Pr7  1  0.658532  0.681993  0.104259  1
  Pr  Pr8  1  0.678176  0.340180  0.894306  1
  Pr  Pr9  1  0.840180  0.821824  0.894306  1
  Pr  Pr10  1  0.323338  0.339707  0.392251  1
  Pr  Pr11  1  0.180771  0.160088  0.607380  1
  Pr  Pr12  1  0.818007  0.158532  0.104259  1
  Pr  Pr13  1  0.321824  0.659820  0.894306  1
  Pr  Pr14  1  0.341468  0.318007  0.104259  1
  Pr  Pr15  1  0.159820  0.178176  0.894306  1
  Pr  Pr16  1  0.500000  0.000000  0.787975  1
  Ho  Ho17  1  0.000000  0.500000  0.731475  1
  Ho  Ho18  1  0.000000  0.500000  0.229794  1
  Ho  Ho19  1  0.500000  0.000000  0.263717  1
  Ga  Ga20  1  0.624486  0.375502  0.249382  1
  Ga  Ga21  1  0.119302  0.872469  0.748647  1
  Ga  Ga22  1  0.372469  0.380698  0.748647  1
  Ga  Ga23  1  0.375514  0.624498  0.249382  1
  Ga  Ga24  1  0.875502  0.875514  0.249382  1
  Ga  Ga25  1  0.627531  0.619302  0.748647  1
  Ga  Ga26  1  0.880698  0.127531  0.748647  1
  Ga  Ga27  1  0.500000  0.000000  0.998235  1
  Ga  Ga28  1  0.124498  0.124486  0.249382  1
  Sn  Sn29  1  0.000000  0.500000  0.509635  1
  Sn  Sn30  1  0.500000  0.000000  0.484865  1
  Sn  Sn31  1  0.000000  0.500000  0.009398  1
