# generated using pymatgen
data_DyY7Si12(IrRh)2
_symmetry_space_group_name_H-M   'P 1'
_cell_length_a   8.17444923
_cell_length_b   8.17776591
_cell_length_c   7.97050801
_cell_angle_alpha   89.99997038
_cell_angle_beta   89.99637339
_cell_angle_gamma   120.01342283
_symmetry_Int_Tables_number   1
_chemical_formula_structural   DyY7Si12(IrRh)2
_chemical_formula_sum   'Dy1 Y7 Si12 Ir2 Rh2'
_cell_volume   461.37180522
_cell_formula_units_Z   1
loop_
 _symmetry_equiv_pos_site_id
 _symmetry_equiv_pos_as_xyz
  1  'x, y, z'
loop_
 _atom_site_type_symbol
 _atom_site_label
 _atom_site_symmetry_multiplicity
 _atom_site_fract_x
 _atom_site_fract_y
 _atom_site_fract_z
 _atom_site_occupancy
  Dy  Dy0  1  0.017994  0.508997  0.749652  1
  Y  Y1  1  0.000103  0.000052  0.248475  1
  Y  Y2  1  0.999976  0.999988  0.751477  1
  Y  Y3  1  0.509177  0.490759  0.250200  1
  Y  Y4  1  0.509178  0.018420  0.250199  1
  Y  Y5  1  0.981545  0.490772  0.250213  1
  Y  Y6  1  0.490772  0.509264  0.749776  1
  Y  Y7  1  0.490771  0.981507  0.749776  1
  Si  Si8  1  0.166958  0.833004  0.499069  1
  Si  Si9  1  0.166959  0.333954  0.499068  1
  Si  Si10  1  0.666021  0.833010  0.498875  1
  Si  Si11  1  0.833061  0.167023  0.501311  1
  Si  Si12  1  0.833060  0.666038  0.501312  1
  Si  Si13  1  0.334081  0.167041  0.501044  1
  Si  Si14  1  0.832814  0.167282  0.999987  1
  Si  Si15  1  0.832813  0.665531  0.999987  1
  Si  Si16  1  0.334541  0.167270  0.000235  1
  Si  Si17  1  0.167224  0.832728  0.999582  1
  Si  Si18  1  0.167224  0.334497  0.999582  1
  Si  Si19  1  0.665539  0.832770  0.999784  1
  Ir  Ir20  1  0.332994  0.666497  0.470389  1
  Ir  Ir21  1  0.667111  0.333555  0.530419  1
  Rh  Rh22  1  0.667049  0.333525  0.963685  1
  Rh  Rh23  1  0.333032  0.666516  0.035904  1
