# generated using pymatgen
data_Tb8Lu4ZnInCo3Ni
_symmetry_space_group_name_H-M   'P 1'
_cell_length_a   8.28186468
_cell_length_b   8.28186457
_cell_length_c   8.28186400
_cell_angle_alpha   111.46992959
_cell_angle_beta   110.07684689
_cell_angle_gamma   106.90028798
_symmetry_Int_Tables_number   1
_chemical_formula_structural   Tb8Lu4ZnInCo3Ni
_chemical_formula_sum   'Tb8 Lu4 Zn1 In1 Co3 Ni1'
_cell_volume   436.55851798
_cell_formula_units_Z   1
loop_
 _symmetry_equiv_pos_site_id
 _symmetry_equiv_pos_as_xyz
  1  'x, y, z'
loop_
 _atom_site_type_symbol
 _atom_site_label
 _atom_site_symmetry_multiplicity
 _atom_site_fract_x
 _atom_site_fract_y
 _atom_site_fract_z
 _atom_site_occupancy
  Tb  Tb0  1  0.430176  0.228009  0.202158  1
  Tb  Tb1  1  0.570252  0.773330  0.796928  1
  Tb  Tb2  1  0.023597  0.226670  0.796923  1
  Tb  Tb3  1  0.974149  0.771991  0.202166  1
  Tb  Tb4  1  0.183526  0.287086  0.470596  1
  Tb  Tb5  1  0.814986  0.714188  0.529184  1
  Tb  Tb6  1  0.183509  0.712914  0.896441  1
  Tb  Tb7  1  0.814997  0.285812  0.100797  1
  Lu  Lu8  1  0.318503  0.624201  0.308565  1
  Lu  Lu9  1  0.684366  0.375799  0.694303  1
  Lu  Lu10  1  0.318499  0.009936  0.694306  1
  Lu  Lu11  1  0.684371  0.990064  0.308564  1
  Zn  Zn12  1  0.999849  0.000000  0.999849  1
  In  In13  1  0.499944  0.500000  0.999944  1
  Co  Co14  1  0.626966  0.000000  0.626966  1
  Co  Co15  1  0.114585  0.614820  0.499770  1
  Co  Co16  1  0.884950  0.385180  0.499765  1
  Ni  Ni17  1  0.372775  0.000000  0.372775  1
