# generated using pymatgen
data_K8CdF23
_symmetry_space_group_name_H-M   'P 1'
_cell_length_a   7.47778968
_cell_length_b   7.44051616
_cell_length_c   9.87763200
_cell_angle_alpha   92.06028457
_cell_angle_beta   90.57049315
_cell_angle_gamma   87.75874831
_symmetry_Int_Tables_number   1
_chemical_formula_structural   K8CdF23
_chemical_formula_sum   'K8 Cd1 F23'
_cell_volume   548.78222536
_cell_formula_units_Z   1
loop_
 _symmetry_equiv_pos_site_id
 _symmetry_equiv_pos_as_xyz
  1  'x, y, z'
loop_
 _atom_site_type_symbol
 _atom_site_label
 _atom_site_symmetry_multiplicity
 _atom_site_fract_x
 _atom_site_fract_y
 _atom_site_fract_z
 _atom_site_occupancy
  K  K0  1  0.376134  0.832616  0.677935  1
  K  K1  1  0.089004  0.694031  0.272848  1
  K  K2  1  0.552835  0.315259  0.860681  1
  K  K3  1  0.007514  0.188128  0.144792  1
  K  K4  1  0.587441  0.832405  0.126110  1
  K  K5  1  0.015240  0.636975  0.847049  1
  K  K6  1  0.515289  0.283768  0.386326  1
  K  K7  1  0.942112  0.175301  0.626485  1
  Cd  Cd8  1  0.788031  0.733136  0.531113  1
  F  F9  1  0.393522  0.829103  0.365587  1
  F  F10  1  0.155592  0.160960  0.892856  1
  F  F11  1  0.711092  0.381911  0.118449  1
  F  F12  1  0.032002  0.838829  0.626395  1
  F  F13  1  0.505339  0.646812  0.444939  1
  F  F14  1  0.955764  0.299185  0.877390  1
  F  F15  1  0.601839  0.178756  0.135135  1
  F  F16  1  0.339556  0.027570  0.915850  1
  F  F17  1  0.831650  0.568575  0.095918  1
  F  F18  1  0.720286  0.554223  0.688153  1
  F  F19  1  0.288004  0.005812  0.287573  1
  F  F20  1  0.822397  0.928533  0.924978  1
  F  F21  1  0.326265  0.523075  0.063819  1
  F  F22  1  0.092433  0.466998  0.530092  1
  F  F23  1  0.632402  0.022787  0.546077  1
  F  F24  1  0.250905  0.484165  0.646038  1
  F  F25  1  0.819518  0.883020  0.348875  1
  F  F26  1  0.697840  0.980010  0.791467  1
  F  F27  1  0.271056  0.405043  0.205030  1
  F  F28  1  0.385029  0.638712  0.922975  1
  F  F29  1  0.971285  0.862896  0.063073  1
  F  F30  1  0.421586  0.171978  0.624957  1
  F  F31  1  0.901039  0.449430  0.411031  1
