# generated using pymatgen
data_Nb4Si3PRu4
_symmetry_space_group_name_H-M   'P 1'
_cell_length_a   3.83033400
_cell_length_b   6.38280945
_cell_length_c   7.29560251
_cell_angle_alpha   89.95697362
_cell_angle_beta   90.00000000
_cell_angle_gamma   90.00000000
_symmetry_Int_Tables_number   1
_chemical_formula_structural   Nb4Si3PRu4
_chemical_formula_sum   'Nb4 Si3 P1 Ru4'
_cell_volume   178.36497067
_cell_formula_units_Z   1
loop_
 _symmetry_equiv_pos_site_id
 _symmetry_equiv_pos_as_xyz
  1  'x, y, z'
loop_
 _atom_site_type_symbol
 _atom_site_label
 _atom_site_symmetry_multiplicity
 _atom_site_fract_x
 _atom_site_fract_y
 _atom_site_fract_z
 _atom_site_occupancy
  Nb  Nb0  1  0.250000  0.022174  0.820171  1
  Nb  Nb1  1  0.250000  0.520979  0.678578  1
  Nb  Nb2  1  0.750000  0.976822  0.178327  1
  Nb  Nb3  1  0.750000  0.476768  0.322266  1
  Si  Si4  1  0.250000  0.272620  0.124146  1
  Si  Si5  1  0.250000  0.774217  0.377796  1
  Si  Si6  1  0.750000  0.725823  0.876186  1
  P  P7  1  0.750000  0.226479  0.621432  1
  Ru  Ru8  1  0.250000  0.152856  0.444084  1
  Ru  Ru9  1  0.250000  0.648575  0.062649  1
  Ru  Ru10  1  0.750000  0.854267  0.561797  1
  Ru  Ru11  1  0.750000  0.348420  0.932568  1
