# generated using pymatgen
data_Cr2CdPbO8
_symmetry_space_group_name_H-M   'P 1'
_cell_length_a   5.41014258
_cell_length_b   5.41014313
_cell_length_c   7.56605682
_cell_angle_alpha   90.40057087
_cell_angle_beta   89.59942605
_cell_angle_gamma   115.00945782
_symmetry_Int_Tables_number   1
_chemical_formula_structural   Cr2CdPbO8
_chemical_formula_sum   'Cr2 Cd1 Pb1 O8'
_cell_volume   200.68477149
_cell_formula_units_Z   1
loop_
 _symmetry_equiv_pos_site_id
 _symmetry_equiv_pos_as_xyz
  1  'x, y, z'
loop_
 _atom_site_type_symbol
 _atom_site_label
 _atom_site_symmetry_multiplicity
 _atom_site_fract_x
 _atom_site_fract_y
 _atom_site_fract_z
 _atom_site_occupancy
  Cr  Cr0  1  0.641072  0.358928  0.238347  1
  Cr  Cr1  1  0.358928  0.641072  0.761653  1
  Cd  Cd2  1  0.000000  0.000000  0.000000  1
  Pb  Pb3  1  0.000000  0.000000  0.500000  1
  O  O4  1  0.704956  0.776049  0.769745  1
  O  O5  1  0.295044  0.223951  0.230255  1
  O  O6  1  0.776049  0.704956  0.230255  1
  O  O7  1  0.223951  0.295044  0.769745  1
  O  O8  1  0.243620  0.756380  0.928963  1
  O  O9  1  0.729431  0.270569  0.427409  1
  O  O10  1  0.756380  0.243620  0.071037  1
  O  O11  1  0.270569  0.729431  0.572591  1
