# generated using pymatgen
data_EuY3(Ga8Pt3)3
_symmetry_space_group_name_H-M   'P 1'
_cell_length_a   7.50810430
_cell_length_b   7.59365819
_cell_length_c   13.37271300
_cell_angle_alpha   84.76554036
_cell_angle_beta   79.55986633
_cell_angle_gamma   60.14200068
_symmetry_Int_Tables_number   1
_chemical_formula_structural   EuY3(Ga8Pt3)3
_chemical_formula_sum   'Eu1 Y3 Ga24 Pt9'
_cell_volume   650.28063591
_cell_formula_units_Z   1
loop_
 _symmetry_equiv_pos_site_id
 _symmetry_equiv_pos_as_xyz
  1  'x, y, z'
loop_
 _atom_site_type_symbol
 _atom_site_label
 _atom_site_symmetry_multiplicity
 _atom_site_fract_x
 _atom_site_fract_y
 _atom_site_fract_z
 _atom_site_occupancy
  Eu  Eu0  1  0.267496  0.501523  0.189140  1
  Y  Y1  1  0.394191  0.168921  0.810704  1
  Y  Y2  1  0.605373  0.831062  0.189525  1
  Y  Y3  1  0.732311  0.497934  0.811040  1
  Ga  Ga4  1  0.686261  0.834066  0.938371  1
  Ga  Ga5  1  0.314182  0.165552  0.060172  1
  Ga  Ga6  1  0.145089  0.832964  0.560415  1
  Ga  Ga7  1  0.854864  0.167146  0.440363  1
  Ga  Ga8  1  0.478297  0.166129  0.556993  1
  Ga  Ga9  1  0.521606  0.833419  0.443323  1
  Ga  Ga10  1  0.221408  0.165027  0.324834  1
  Ga  Ga11  1  0.778129  0.834779  0.676344  1
  Ga  Ga12  1  0.437409  0.503912  0.675015  1
  Ga  Ga13  1  0.562441  0.496265  0.326604  1
  Ga  Ga14  1  0.106485  0.164035  0.674639  1
  Ga  Ga15  1  0.892563  0.836447  0.327163  1
  Ga  Ga16  1  0.357265  0.499026  0.939610  1
  Ga  Ga17  1  0.643610  0.501850  0.059357  1
  Ga  Ga18  1  0.020415  0.168883  0.944029  1
  Ga  Ga19  1  0.979944  0.831743  0.054010  1
  Ga  Ga20  1  0.187042  0.499567  0.442706  1
  Ga  Ga21  1  0.812514  0.500411  0.557878  1
  Ga  Ga22  1  0.736467  0.161497  0.181881  1
  Ga  Ga23  1  0.265948  0.835350  0.817533  1
  Ga  Ga24  1  0.061694  0.630969  0.816565  1
  Ga  Ga25  1  0.935733  0.369646  0.182869  1
  Ga  Ga26  1  0.857803  0.038905  0.816218  1
  Ga  Ga27  1  0.143288  0.962258  0.183207  1
  Pt  Pt28  1  0.117213  0.495429  0.638968  1
  Pt  Pt29  1  0.881812  0.503915  0.362047  1
  Pt  Pt30  1  0.661325  0.169447  0.997762  1
  Pt  Pt31  1  0.340205  0.831340  0.999874  1
  Pt  Pt32  1  0.542896  0.166115  0.361225  1
  Pt  Pt33  1  0.458143  0.833064  0.639851  1
  Pt  Pt34  1  0.778245  0.172372  0.637627  1
  Pt  Pt35  1  0.220463  0.829255  0.363554  1
  Pt  Pt36  1  0.999866  0.499779  0.998585  1
