# generated using pymatgen
data_Sc12Zn(RhI8)2
_symmetry_space_group_name_H-M   'P 1'
_cell_length_a   9.20703040
_cell_length_b   12.23993304
_cell_length_c   12.88598034
_cell_angle_alpha   116.97239407
_cell_angle_beta   101.05797003
_cell_angle_gamma   100.46698323
_symmetry_Int_Tables_number   1
_chemical_formula_structural   Sc12Zn(RhI8)2
_chemical_formula_sum   'Sc12 Zn1 Rh2 I16'
_cell_volume   1208.77611165
_cell_formula_units_Z   1
loop_
 _symmetry_equiv_pos_site_id
 _symmetry_equiv_pos_as_xyz
  1  'x, y, z'
loop_
 _atom_site_type_symbol
 _atom_site_label
 _atom_site_symmetry_multiplicity
 _atom_site_fract_x
 _atom_site_fract_y
 _atom_site_fract_z
 _atom_site_occupancy
  Sc  Sc0  1  0.097981  0.274903  0.362192  1
  Sc  Sc1  1  0.902019  0.725097  0.637808  1
  Sc  Sc2  1  0.774519  0.535534  0.332654  1
  Sc  Sc3  1  0.225481  0.464466  0.667346  1
  Sc  Sc4  1  0.280909  0.725539  0.637597  1
  Sc  Sc5  1  0.719091  0.274461  0.362403  1
  Sc  Sc6  1  0.153131  0.535900  0.332430  1
  Sc  Sc7  1  0.846869  0.464100  0.667570  1
  Sc  Sc8  1  0.411017  0.367870  0.286878  1
  Sc  Sc9  1  0.588983  0.632130  0.713122  1
  Sc  Sc10  1  0.461516  0.318959  0.520893  1
  Sc  Sc11  1  0.538484  0.681041  0.479107  1
  Zn  Zn12  1  0.000000  0.500000  0.500000  1
  Rh  Rh13  1  0.339390  0.500177  0.499890  1
  Rh  Rh14  1  0.660611  0.499823  0.500110  1
  I  I15  1  0.389511  0.732296  0.874068  1
  I  I16  1  0.610489  0.267704  0.125932  1
  I  I17  1  0.181959  0.949556  0.774539  1
  I  I18  1  0.818041  0.050444  0.225461  1
  I  I19  1  0.341075  0.106861  0.260501  1
  I  I20  1  0.658925  0.893139  0.739499  1
  I  I21  1  0.562424  0.436496  0.791921  1
  I  I22  1  0.437576  0.563504  0.208079  1
  I  I23  1  0.300652  0.819549  0.462977  1
  I  I24  1  0.699348  0.180451  0.537023  1
  I  I25  1  0.165353  0.181089  0.536656  1
  I  I26  1  0.834647  0.818911  0.463344  1
  I  I27  1  0.927376  0.571909  0.166767  1
  I  I28  1  0.072624  0.428091  0.833233  1
  I  I29  1  0.922862  0.731788  0.874185  1
  I  I30  1  0.077138  0.268212  0.125815  1
