# generated using pymatgen
data_Be4SbO7
_symmetry_space_group_name_H-M   'P 1'
_cell_length_a   5.45495336
_cell_length_b   5.45495360
_cell_length_c   5.45495400
_cell_angle_alpha   59.99999755
_cell_angle_beta   59.99999611
_cell_angle_gamma   60.00000235
_symmetry_Int_Tables_number   1
_chemical_formula_structural   Be4SbO7
_chemical_formula_sum   'Be4 Sb1 O7'
_cell_volume   114.77787602
_cell_formula_units_Z   1
loop_
 _symmetry_equiv_pos_site_id
 _symmetry_equiv_pos_as_xyz
  1  'x, y, z'
loop_
 _atom_site_type_symbol
 _atom_site_label
 _atom_site_symmetry_multiplicity
 _atom_site_fract_x
 _atom_site_fract_y
 _atom_site_fract_z
 _atom_site_occupancy
  Be  Be0  1  0.626434  0.626434  0.626434  1
  Be  Be1  1  0.626434  0.626434  0.120698  1
  Be  Be2  1  0.120698  0.626434  0.626434  1
  Be  Be3  1  0.626434  0.120698  0.626434  1
  Sb  Sb4  1  0.000000  0.000000  0.000000  1
  O  O5  1  0.750000  0.750000  0.750000  1
  O  O6  1  0.258547  0.741453  0.258547  1
  O  O7  1  0.741453  0.258547  0.258547  1
  O  O8  1  0.258547  0.741453  0.741453  1
  O  O9  1  0.741453  0.258547  0.741453  1
  O  O10  1  0.258547  0.258547  0.741453  1
  O  O11  1  0.741453  0.741453  0.258547  1
