# generated using pymatgen
data_Ho2Fe2CoP6Ru7
_symmetry_space_group_name_H-M   'P 1'
_cell_length_a   3.83780600
_cell_length_b   10.59222000
_cell_length_c   12.23329700
_cell_angle_alpha   90.00000000
_cell_angle_beta   90.00000000
_cell_angle_gamma   90.00000000
_symmetry_Int_Tables_number   1
_chemical_formula_structural   Ho2Fe2CoP6Ru7
_chemical_formula_sum   'Ho4 Fe4 Co2 P12 Ru14'
_cell_volume   497.29435526
_cell_formula_units_Z   2
loop_
 _symmetry_equiv_pos_site_id
 _symmetry_equiv_pos_as_xyz
  1  'x, y, z'
loop_
 _atom_site_type_symbol
 _atom_site_label
 _atom_site_symmetry_multiplicity
 _atom_site_fract_x
 _atom_site_fract_y
 _atom_site_fract_z
 _atom_site_occupancy
  Ho  Ho0  1  0.250000  0.582926  0.709484  1
  Ho  Ho1  1  0.250000  0.917074  0.209484  1
  Ho  Ho2  1  0.750000  0.416554  0.292465  1
  Ho  Ho3  1  0.750000  0.083446  0.792465  1
  Fe  Fe4  1  0.250000  0.459301  0.932307  1
  Fe  Fe5  1  0.250000  0.040699  0.432307  1
  Fe  Fe6  1  0.750000  0.533587  0.060686  1
  Fe  Fe7  1  0.750000  0.966413  0.560686  1
  Co  Co8  1  0.750000  0.117001  0.299907  1
  Co  Co9  1  0.750000  0.382999  0.799907  1
  P  P10  1  0.250000  0.424179  0.107352  1
  P  P11  1  0.250000  0.075821  0.607352  1
  P  P12  1  0.750000  0.566709  0.887334  1
  P  P13  1  0.750000  0.933291  0.387334  1
  P  P14  1  0.250000  0.268526  0.869162  1
  P  P15  1  0.250000  0.231474  0.369162  1
  P  P16  1  0.750000  0.726057  0.131179  1
  P  P17  1  0.750000  0.773943  0.631179  1
  P  P18  1  0.250000  0.604564  0.393700  1
  P  P19  1  0.250000  0.895436  0.893700  1
  P  P20  1  0.750000  0.397308  0.611634  1
  P  P21  1  0.750000  0.102692  0.111634  1
  Ru  Ru22  1  0.250000  0.701238  0.986466  1
  Ru  Ru23  1  0.250000  0.798762  0.486466  1
  Ru  Ru24  1  0.750000  0.293213  0.010728  1
  Ru  Ru25  1  0.750000  0.206787  0.510728  1
  Ru  Ru26  1  0.250000  0.406624  0.486744  1
  Ru  Ru27  1  0.250000  0.093376  0.986744  1
  Ru  Ru28  1  0.750000  0.597081  0.516785  1
  Ru  Ru29  1  0.750000  0.902919  0.016785  1
  Ru  Ru30  1  0.250000  0.224755  0.179164  1
  Ru  Ru31  1  0.250000  0.275245  0.679164  1
  Ru  Ru32  1  0.750000  0.769050  0.824396  1
  Ru  Ru33  1  0.750000  0.730950  0.324396  1
  Ru  Ru34  1  0.250000  0.886259  0.700505  1
  Ru  Ru35  1  0.250000  0.613741  0.200505  1
