# generated using pymatgen
data_Zr5Pa3(Ni4As3)4
_symmetry_space_group_name_H-M   'P 1'
_cell_length_a   12.71185000
_cell_length_b   12.71185034
_cell_length_c   3.88156200
_cell_angle_alpha   90.00000000
_cell_angle_beta   90.00000000
_cell_angle_gamma   119.99999391
_symmetry_Int_Tables_number   1
_chemical_formula_structural   Zr5Pa3(Ni4As3)4
_chemical_formula_sum   'Zr5 Pa3 Ni16 As12'
_cell_volume   543.19369036
_cell_formula_units_Z   1
loop_
 _symmetry_equiv_pos_site_id
 _symmetry_equiv_pos_as_xyz
  1  'x, y, z'
loop_
 _atom_site_type_symbol
 _atom_site_label
 _atom_site_symmetry_multiplicity
 _atom_site_fract_x
 _atom_site_fract_y
 _atom_site_fract_z
 _atom_site_occupancy
  Zr  Zr0  1  0.436991  0.436991  0.000000  1
  Zr  Zr1  1  0.563009  0.000000  0.000000  1
  Zr  Zr2  1  0.000000  0.563009  0.000000  1
  Zr  Zr3  1  0.666667  0.333333  0.000000  1
  Zr  Zr4  1  0.333333  0.666667  0.000000  1
  Pa  Pa5  1  0.816453  0.816453  0.500000  1
  Pa  Pa6  1  0.183547  0.000000  0.500000  1
  Pa  Pa7  1  0.000000  0.183547  0.500000  1
  Ni  Ni8  1  0.193553  0.376937  0.000000  1
  Ni  Ni9  1  0.183384  0.806447  0.000000  1
  Ni  Ni10  1  0.816616  0.623063  0.000000  1
  Ni  Ni11  1  0.806447  0.183384  0.000000  1
  Ni  Ni12  1  0.376937  0.193553  0.000000  1
  Ni  Ni13  1  0.120785  0.478890  0.500000  1
  Ni  Ni14  1  0.358105  0.879215  0.500000  1
  Ni  Ni15  1  0.521110  0.641895  0.500000  1
  Ni  Ni16  1  0.641895  0.521110  0.500000  1
  Ni  Ni17  1  0.879215  0.358105  0.500000  1
  Ni  Ni18  1  0.478890  0.120785  0.500000  1
  Ni  Ni19  1  0.000000  0.000000  0.000000  1
  Ni  Ni20  1  0.722126  0.000000  0.500000  1
  Ni  Ni21  1  0.000000  0.722126  0.500000  1
  Ni  Ni22  1  0.623063  0.816616  0.000000  1
  Ni  Ni23  1  0.277874  0.277874  0.500000  1
  As  As24  1  0.642000  0.642000  0.000000  1
  As  As25  1  0.358000  0.000000  0.000000  1
  As  As26  1  0.000000  0.358000  0.000000  1
  As  As27  1  0.487429  0.311256  0.500000  1
  As  As28  1  0.688744  0.176173  0.500000  1
  As  As29  1  0.823827  0.512571  0.500000  1
  As  As30  1  0.512571  0.823827  0.500000  1
  As  As31  1  0.176173  0.688744  0.500000  1
  As  As32  1  0.819770  0.000000  0.000000  1
  As  As33  1  0.000000  0.819770  0.000000  1
  As  As34  1  0.311256  0.487429  0.500000  1
  As  As35  1  0.180230  0.180230  0.000000  1
