# generated using pymatgen
data_Tb12Sm8Si15Pb
_symmetry_space_group_name_H-M   'P 1'
_cell_length_a   7.51333086
_cell_length_b   7.82076863
_cell_length_c   14.86618100
_cell_angle_alpha   90.11832402
_cell_angle_beta   89.23091426
_cell_angle_gamma   90.07795602
_symmetry_Int_Tables_number   1
_chemical_formula_structural   Tb12Sm8Si15Pb
_chemical_formula_sum   'Tb12 Sm8 Si15 Pb1'
_cell_volume   873.45579282
_cell_formula_units_Z   1
loop_
 _symmetry_equiv_pos_site_id
 _symmetry_equiv_pos_as_xyz
  1  'x, y, z'
loop_
 _atom_site_type_symbol
 _atom_site_label
 _atom_site_symmetry_multiplicity
 _atom_site_fract_x
 _atom_site_fract_y
 _atom_site_fract_z
 _atom_site_occupancy
  Tb  Tb0  1  0.156766  0.511340  0.755192  1
  Tb  Tb1  1  0.841771  0.487387  0.249796  1
  Tb  Tb2  1  0.343717  0.013703  0.249318  1
  Tb  Tb3  1  0.659276  0.986957  0.752425  1
  Tb  Tb4  1  0.336823  0.162828  0.629946  1
  Tb  Tb5  1  0.670008  0.822549  0.374652  1
  Tb  Tb6  1  0.166669  0.688906  0.370825  1
  Tb  Tb7  1  0.675769  0.819354  0.121711  1
  Tb  Tb8  1  0.819287  0.321620  0.623377  1
  Tb  Tb9  1  0.322121  0.179136  0.878598  1
  Tb  Tb10  1  0.822024  0.320057  0.878282  1
  Tb  Tb11  1  0.177536  0.679657  0.122294  1
  Sm  Sm12  1  0.022570  0.182887  0.098049  1
  Sm  Sm13  1  0.976790  0.818170  0.903043  1
  Sm  Sm14  1  0.477552  0.682757  0.902697  1
  Sm  Sm15  1  0.978238  0.824079  0.599636  1
  Sm  Sm16  1  0.522197  0.317571  0.098401  1
  Sm  Sm17  1  0.014597  0.174480  0.397807  1
  Sm  Sm18  1  0.521825  0.316074  0.398866  1
  Sm  Sm19  1  0.493039  0.690333  0.601622  1
  Si  Si20  1  0.030721  0.108646  0.751621  1
  Si  Si21  1  0.966969  0.896064  0.246050  1
  Si  Si22  1  0.467771  0.606474  0.248165  1
  Si  Si23  1  0.529968  0.394295  0.752662  1
  Si  Si24  1  0.272738  0.872708  0.752827  1
  Si  Si25  1  0.725993  0.123607  0.247575  1
  Si  Si26  1  0.225888  0.377025  0.248929  1
  Si  Si27  1  0.775623  0.624003  0.751356  1
  Si  Si28  1  0.832003  0.534065  0.457989  1
  Si  Si29  1  0.345530  0.969618  0.460657  1
  Si  Si30  1  0.853140  0.529447  0.039631  1
  Si  Si31  1  0.655470  0.032278  0.537346  1
  Si  Si32  1  0.145734  0.470132  0.961345  1
  Si  Si33  1  0.646267  0.030368  0.961184  1
  Si  Si34  1  0.352633  0.970585  0.039943  1
  Pb  Pb35  1  0.174976  0.460838  0.536191  1
