# generated using pymatgen
data_LaSm3Mg3Au10
_symmetry_space_group_name_H-M   'P 1'
_cell_length_a   8.67183118
_cell_length_b   8.67183045
_cell_length_c   10.32100885
_cell_angle_alpha   89.92784568
_cell_angle_beta   89.92784732
_cell_angle_gamma   108.13318112
_symmetry_Int_Tables_number   1
_chemical_formula_structural   LaSm3Mg3Au10
_chemical_formula_sum   'La2 Sm6 Mg6 Au20'
_cell_volume   737.59806021
_cell_formula_units_Z   2
loop_
 _symmetry_equiv_pos_site_id
 _symmetry_equiv_pos_as_xyz
  1  'x, y, z'
loop_
 _atom_site_type_symbol
 _atom_site_label
 _atom_site_symmetry_multiplicity
 _atom_site_fract_x
 _atom_site_fract_y
 _atom_site_fract_z
 _atom_site_occupancy
  La  La0  1  0.197252  0.197252  0.703009  1
  La  La1  1  0.802748  0.802748  0.296991  1
  Sm  Sm2  1  0.698895  0.301105  0.000000  1
  Sm  Sm3  1  0.301105  0.698895  0.000000  1
  Sm  Sm4  1  0.800926  0.199074  0.500000  1
  Sm  Sm5  1  0.199074  0.800926  0.500000  1
  Sm  Sm6  1  0.304394  0.304394  0.202221  1
  Sm  Sm7  1  0.695606  0.695606  0.797779  1
  Mg  Mg8  1  0.015270  0.512901  0.248677  1
  Mg  Mg9  1  0.984730  0.487099  0.751323  1
  Mg  Mg10  1  0.487099  0.984730  0.751323  1
  Mg  Mg11  1  0.512901  0.015270  0.248677  1
  Mg  Mg12  1  0.000000  0.000000  0.000000  1
  Mg  Mg13  1  0.500000  0.500000  0.500000  1
  Au  Au14  1  0.099179  0.099179  0.403082  1
  Au  Au15  1  0.900821  0.900821  0.596918  1
  Au  Au16  1  0.402784  0.402784  0.904687  1
  Au  Au17  1  0.597216  0.597216  0.095313  1
  Au  Au18  1  0.882395  0.168622  0.205871  1
  Au  Au19  1  0.117605  0.831378  0.794129  1
  Au  Au20  1  0.618871  0.334512  0.707061  1
  Au  Au21  1  0.665488  0.381129  0.292939  1
  Au  Au22  1  0.381129  0.665488  0.292939  1
  Au  Au23  1  0.334512  0.618871  0.707061  1
  Au  Au24  1  0.831378  0.117605  0.794129  1
  Au  Au25  1  0.168622  0.882395  0.205871  1
  Au  Au26  1  0.934514  0.654379  0.018951  1
  Au  Au27  1  0.065486  0.345621  0.981049  1
  Au  Au28  1  0.563119  0.845905  0.521248  1
  Au  Au29  1  0.154095  0.436881  0.478752  1
  Au  Au30  1  0.436881  0.154095  0.478752  1
  Au  Au31  1  0.845905  0.563119  0.521248  1
  Au  Au32  1  0.345621  0.065486  0.981049  1
  Au  Au33  1  0.654379  0.934514  0.018951  1
