# generated using pymatgen
data_K7Ce(SeO4)6
_symmetry_space_group_name_H-M   'P 1'
_cell_length_a   9.91426002
_cell_length_b   9.91425970
_cell_length_c   9.91425974
_cell_angle_alpha   109.14579862
_cell_angle_beta   109.14580344
_cell_angle_gamma   109.14579502
_symmetry_Int_Tables_number   1
_chemical_formula_structural   K7Ce(SeO4)6
_chemical_formula_sum   'K7 Ce1 Se6 O24'
_cell_volume   759.07259901
_cell_formula_units_Z   1
loop_
 _symmetry_equiv_pos_site_id
 _symmetry_equiv_pos_as_xyz
  1  'x, y, z'
loop_
 _atom_site_type_symbol
 _atom_site_label
 _atom_site_symmetry_multiplicity
 _atom_site_fract_x
 _atom_site_fract_y
 _atom_site_fract_z
 _atom_site_occupancy
  K  K0  1  0.500000  0.500000  0.500000  1
  K  K1  1  0.661068  0.161475  0.317885  1
  K  K2  1  0.317885  0.661068  0.161475  1
  K  K3  1  0.161475  0.317885  0.661068  1
  K  K4  1  0.338932  0.838525  0.682115  1
  K  K5  1  0.682115  0.338932  0.838525  1
  K  K6  1  0.838525  0.682115  0.338932  1
  Ce  Ce7  1  0.000000  0.000000  0.000000  1
  Se  Se8  1  0.264198  0.034929  0.397766  1
  Se  Se9  1  0.397766  0.264198  0.034929  1
  Se  Se10  1  0.034929  0.397766  0.264198  1
  Se  Se11  1  0.735802  0.965071  0.602234  1
  Se  Se12  1  0.602234  0.735802  0.965071  1
  Se  Se13  1  0.965071  0.602234  0.735802  1
  O  O14  1  0.093126  0.544968  0.823458  1
  O  O15  1  0.823458  0.093126  0.544968  1
  O  O16  1  0.544968  0.823458  0.093126  1
  O  O17  1  0.906874  0.455032  0.176542  1
  O  O18  1  0.176542  0.906874  0.455032  1
  O  O19  1  0.455032  0.176542  0.906874  1
  O  O20  1  0.020775  0.682651  0.627433  1
  O  O21  1  0.627433  0.020775  0.682651  1
  O  O22  1  0.682651  0.627433  0.020775  1
  O  O23  1  0.979225  0.317349  0.372567  1
  O  O24  1  0.372567  0.979225  0.317349  1
  O  O25  1  0.317349  0.372567  0.979225  1
  O  O26  1  0.029572  0.251958  0.106511  1
  O  O27  1  0.106511  0.029572  0.251958  1
  O  O28  1  0.549700  0.374020  0.228421  1
  O  O29  1  0.374020  0.228421  0.549700  1
  O  O30  1  0.228421  0.549700  0.374020  1
  O  O31  1  0.450300  0.625980  0.771579  1
  O  O32  1  0.625980  0.771579  0.450300  1
  O  O33  1  0.771579  0.450300  0.625980  1
  O  O34  1  0.748042  0.893489  0.970428  1
  O  O35  1  0.893489  0.970428  0.748042  1
  O  O36  1  0.970428  0.748042  0.893489  1
  O  O37  1  0.251958  0.106511  0.029572  1
