# generated using pymatgen
data_HgSe22
_symmetry_space_group_name_H-M   'P 1'
_cell_length_a   18.78200149
_cell_length_b   18.78200156
_cell_length_c   12.79809385
_cell_angle_alpha   74.95626248
_cell_angle_beta   74.95626261
_cell_angle_gamma   12.36437559
_symmetry_Int_Tables_number   1
_chemical_formula_structural   HgSe22
_chemical_formula_sum   'Hg1 Se22'
_cell_volume   933.19678711
_cell_formula_units_Z   1
loop_
 _symmetry_equiv_pos_site_id
 _symmetry_equiv_pos_as_xyz
  1  'x, y, z'
loop_
 _atom_site_type_symbol
 _atom_site_label
 _atom_site_symmetry_multiplicity
 _atom_site_fract_x
 _atom_site_fract_y
 _atom_site_fract_z
 _atom_site_occupancy
  Hg  Hg0  1  0.000000  0.000000  0.500000  1
  Se  Se1  1  0.370043  0.370043  0.069611  1
  Se  Se2  1  0.629957  0.629957  0.930389  1
  Se  Se3  1  0.422985  0.422985  0.355789  1
  Se  Se4  1  0.707734  0.707734  0.152475  1
  Se  Se5  1  0.292266  0.292266  0.847525  1
  Se  Se6  1  0.947340  0.947340  0.788192  1
  Se  Se7  1  0.052660  0.052660  0.211808  1
  Se  Se8  1  0.824424  0.824424  0.389559  1
  Se  Se9  1  0.175576  0.175576  0.610441  1
  Se  Se10  1  0.577015  0.577015  0.644211  1
  Se  Se11  1  0.176588  0.176588  0.190804  1
  Se  Se12  1  0.691080  0.691080  0.865732  1
  Se  Se13  1  0.308920  0.308920  0.134268  1
  Se  Se14  1  0.823412  0.823412  0.809196  1
  Se  Se15  1  0.360123  0.360123  0.470545  1
  Se  Se16  1  0.709821  0.709821  0.663404  1
  Se  Se17  1  0.290179  0.290179  0.336596  1
  Se  Se18  1  0.639877  0.639877  0.529455  1
  Se  Se19  1  0.465033  0.465033  0.848614  1
  Se  Se20  1  0.534967  0.534967  0.151386  1
  Se  Se21  1  0.926220  0.926220  0.255470  1
  Se  Se22  1  0.073780  0.073780  0.744530  1
