# generated using pymatgen
data_Y(Ti3Bi2)2
_symmetry_space_group_name_H-M   'P 1'
_cell_length_a   8.49597624
_cell_length_b   8.49597574
_cell_length_c   8.49597557
_cell_angle_alpha   40.49331832
_cell_angle_beta   40.49332145
_cell_angle_gamma   40.49332431
_symmetry_Int_Tables_number   1
_chemical_formula_structural   Y(Ti3Bi2)2
_chemical_formula_sum   'Y1 Ti6 Bi4'
_cell_volume   233.21787803
_cell_formula_units_Z   1
loop_
 _symmetry_equiv_pos_site_id
 _symmetry_equiv_pos_as_xyz
  1  'x, y, z'
loop_
 _atom_site_type_symbol
 _atom_site_label
 _atom_site_symmetry_multiplicity
 _atom_site_fract_x
 _atom_site_fract_y
 _atom_site_fract_z
 _atom_site_occupancy
  Y  Y0  1  0.000000  0.000000  0.000000  1
  Ti  Ti1  1  0.596653  0.596653  0.122399  1
  Ti  Ti2  1  0.877600  0.403347  0.403347  1
  Ti  Ti3  1  0.403347  0.877600  0.403347  1
  Ti  Ti4  1  0.596653  0.122400  0.596653  1
  Ti  Ti5  1  0.122400  0.596653  0.596653  1
  Ti  Ti6  1  0.403347  0.403347  0.877600  1
  Bi  Bi7  1  0.129273  0.129273  0.129273  1
  Bi  Bi8  1  0.331506  0.331506  0.331506  1
  Bi  Bi9  1  0.668494  0.668494  0.668494  1
  Bi  Bi10  1  0.870727  0.870727  0.870727  1
