# generated using pymatgen
data_UTi4Nb3Tc8
_symmetry_space_group_name_H-M   'P 1'
_cell_length_a   6.32911200
_cell_length_b   6.32955200
_cell_length_c   6.35836300
_cell_angle_alpha   89.99998194
_cell_angle_beta   90.00059606
_cell_angle_gamma   89.99900423
_symmetry_Int_Tables_number   1
_chemical_formula_structural   UTi4Nb3Tc8
_chemical_formula_sum   'U1 Ti4 Nb3 Tc8'
_cell_volume   254.71884180
_cell_formula_units_Z   1
loop_
 _symmetry_equiv_pos_site_id
 _symmetry_equiv_pos_as_xyz
  1  'x, y, z'
loop_
 _atom_site_type_symbol
 _atom_site_label
 _atom_site_symmetry_multiplicity
 _atom_site_fract_x
 _atom_site_fract_y
 _atom_site_fract_z
 _atom_site_occupancy
  U  U0  1  0.749999  0.749999  0.000176  1
  Ti  Ti1  1  0.250003  0.750000  0.000390  1
  Ti  Ti2  1  0.750007  0.250000  0.499684  1
  Ti  Ti3  1  0.249995  0.750000  0.500381  1
  Ti  Ti4  1  0.749995  0.250001  0.999593  1
  Nb  Nb5  1  0.249995  0.250000  0.499843  1
  Nb  Nb6  1  0.750003  0.750000  0.500151  1
  Nb  Nb7  1  0.250001  0.250002  0.999810  1
  Tc  Tc8  1  0.998101  0.998271  0.247601  1
  Tc  Tc9  1  0.998098  0.501746  0.247600  1
  Tc  Tc10  1  0.501921  0.998256  0.247603  1
  Tc  Tc11  1  0.501918  0.501724  0.247604  1
  Tc  Tc12  1  0.501883  0.998265  0.752387  1
  Tc  Tc13  1  0.501886  0.501750  0.752386  1
  Tc  Tc14  1  0.998097  0.998250  0.752394  1
  Tc  Tc15  1  0.998095  0.501732  0.752393  1
