# generated using pymatgen
data_NaS2IO8
_symmetry_space_group_name_H-M   'P 1'
_cell_length_a   8.94430700
_cell_length_b   4.98438854
_cell_length_c   9.52239515
_cell_angle_alpha   64.59018281
_cell_angle_beta   90.00000000
_cell_angle_gamma   90.00000000
_symmetry_Int_Tables_number   1
_chemical_formula_structural   NaS2IO8
_chemical_formula_sum   'Na2 S4 I2 O16'
_cell_volume   383.45854651
_cell_formula_units_Z   2
loop_
 _symmetry_equiv_pos_site_id
 _symmetry_equiv_pos_as_xyz
  1  'x, y, z'
loop_
 _atom_site_type_symbol
 _atom_site_label
 _atom_site_symmetry_multiplicity
 _atom_site_fract_x
 _atom_site_fract_y
 _atom_site_fract_z
 _atom_site_occupancy
  Na  Na0  1  0.000000  0.000000  0.500000  1
  Na  Na1  1  0.500000  0.000000  0.000000  1
  S  S2  1  0.213518  0.609041  0.885175  1
  S  S3  1  0.286482  0.609041  0.385175  1
  S  S4  1  0.786482  0.390959  0.114825  1
  S  S5  1  0.713518  0.390959  0.614825  1
  I  I6  1  0.000000  0.000000  0.000000  1
  I  I7  1  0.500000  0.000000  0.500000  1
  O  O8  1  0.357168  0.640537  0.528814  1
  O  O9  1  0.642832  0.359463  0.471186  1
  O  O10  1  0.142832  0.640537  0.028814  1
  O  O11  1  0.210789  0.269542  0.938208  1
  O  O12  1  0.710789  0.730458  0.561792  1
  O  O13  1  0.621753  0.236728  0.751056  1
  O  O14  1  0.789211  0.730458  0.061792  1
  O  O15  1  0.857168  0.359463  0.971186  1
  O  O16  1  0.369539  0.693944  0.876215  1
  O  O17  1  0.378247  0.763272  0.248944  1
  O  O18  1  0.878247  0.236728  0.251056  1
  O  O19  1  0.130461  0.693944  0.376215  1
  O  O20  1  0.289211  0.269542  0.438208  1
  O  O21  1  0.630461  0.306056  0.123785  1
  O  O22  1  0.121753  0.763272  0.748944  1
  O  O23  1  0.869539  0.306056  0.623785  1
