# generated using pymatgen
data_Zr3Sc(InPt2)2
_symmetry_space_group_name_H-M   'P 1'
_cell_length_a   7.61300133
_cell_length_b   7.61300196
_cell_length_c   6.80406600
_cell_angle_alpha   90.00000000
_cell_angle_beta   90.00000000
_cell_angle_gamma   89.69302505
_symmetry_Int_Tables_number   1
_chemical_formula_structural   Zr3Sc(InPt2)2
_chemical_formula_sum   'Zr6 Sc2 In4 Pt8'
_cell_volume   394.34299613
_cell_formula_units_Z   2
loop_
 _symmetry_equiv_pos_site_id
 _symmetry_equiv_pos_as_xyz
  1  'x, y, z'
loop_
 _atom_site_type_symbol
 _atom_site_label
 _atom_site_symmetry_multiplicity
 _atom_site_fract_x
 _atom_site_fract_y
 _atom_site_fract_z
 _atom_site_occupancy
  Zr  Zr0  1  0.682158  0.317842  0.500000  1
  Zr  Zr1  1  0.317842  0.682158  0.500000  1
  Zr  Zr2  1  0.182873  0.182873  0.000000  1
  Zr  Zr3  1  0.817127  0.817127  0.000000  1
  Zr  Zr4  1  0.844761  0.844761  0.500000  1
  Zr  Zr5  1  0.155239  0.155239  0.500000  1
  Sc  Sc6  1  0.346105  0.653895  0.000000  1
  Sc  Sc7  1  0.653895  0.346105  0.000000  1
  In  In8  1  0.500000  0.000000  0.250958  1
  In  In9  1  0.000000  0.500000  0.749042  1
  In  In10  1  0.500000  0.000000  0.749042  1
  In  In11  1  0.000000  0.500000  0.250958  1
  Pt  Pt12  1  0.869675  0.130325  0.221799  1
  Pt  Pt13  1  0.130325  0.869675  0.221799  1
  Pt  Pt14  1  0.369889  0.369889  0.723992  1
  Pt  Pt15  1  0.630111  0.630111  0.723992  1
  Pt  Pt16  1  0.130325  0.869675  0.778201  1
  Pt  Pt17  1  0.869675  0.130325  0.778201  1
  Pt  Pt18  1  0.630111  0.630111  0.276008  1
  Pt  Pt19  1  0.369889  0.369889  0.276008  1
