# generated using pymatgen
data_HoLu9In8(IrPt)2
_symmetry_space_group_name_H-M   'P 1'
_cell_length_a   3.55819900
_cell_length_b   8.03733677
_cell_length_c   17.99274168
_cell_angle_alpha   89.99065056
_cell_angle_beta   90.00000000
_cell_angle_gamma   90.00000000
_symmetry_Int_Tables_number   1
_chemical_formula_structural   HoLu9In8(IrPt)2
_chemical_formula_sum   'Ho1 Lu9 In8 Ir2 Pt2'
_cell_volume   514.56440236
_cell_formula_units_Z   1
loop_
 _symmetry_equiv_pos_site_id
 _symmetry_equiv_pos_as_xyz
  1  'x, y, z'
loop_
 _atom_site_type_symbol
 _atom_site_label
 _atom_site_symmetry_multiplicity
 _atom_site_fract_x
 _atom_site_fract_y
 _atom_site_fract_z
 _atom_site_occupancy
  Ho  Ho0  1  0.000000  0.500000  0.500000  1
  Lu  Lu1  1  0.000000  0.115822  0.412484  1
  Lu  Lu2  1  0.000000  0.884178  0.587516  1
  Lu  Lu3  1  0.000000  0.382919  0.913638  1
  Lu  Lu4  1  0.000000  0.617081  0.086362  1
  Lu  Lu5  1  0.000000  0.237173  0.221753  1
  Lu  Lu6  1  0.000000  0.762827  0.778247  1
  Lu  Lu7  1  0.000000  0.250406  0.720657  1
  Lu  Lu8  1  0.000000  0.749594  0.279343  1
  Lu  Lu9  1  0.000000  0.000000  0.000000  1
  In  In10  1  0.500000  0.423391  0.351182  1
  In  In11  1  0.500000  0.576609  0.648818  1
  In  In12  1  0.500000  0.074444  0.851634  1
  In  In13  1  0.500000  0.925556  0.148366  1
  In  In14  1  0.500000  0.292201  0.066019  1
  In  In15  1  0.500000  0.707799  0.933981  1
  In  In16  1  0.500000  0.205725  0.566995  1
  In  In17  1  0.500000  0.794275  0.433005  1
  Ir  Ir18  1  0.500000  0.022469  0.303782  1
  Ir  Ir19  1  0.500000  0.977531  0.696218  1
  Pt  Pt20  1  0.500000  0.477177  0.803923  1
  Pt  Pt21  1  0.500000  0.522823  0.196077  1
