# generated using pymatgen
data_Tb12Y4MgCd2InPd4
_symmetry_space_group_name_H-M   'P 1'
_cell_length_a   9.79777765
_cell_length_b   9.79679888
_cell_length_c   9.79679900
_cell_angle_alpha   59.78495782
_cell_angle_beta   59.94463990
_cell_angle_gamma   59.94463770
_symmetry_Int_Tables_number   1
_chemical_formula_structural   Tb12Y4MgCd2InPd4
_chemical_formula_sum   'Tb12 Y4 Mg1 Cd2 In1 Pd4'
_cell_volume   663.29611151
_cell_formula_units_Z   1
loop_
 _symmetry_equiv_pos_site_id
 _symmetry_equiv_pos_as_xyz
  1  'x, y, z'
loop_
 _atom_site_type_symbol
 _atom_site_label
 _atom_site_symmetry_multiplicity
 _atom_site_fract_x
 _atom_site_fract_y
 _atom_site_fract_z
 _atom_site_occupancy
  Tb  Tb0  1  0.351684  0.350948  0.351075  1
  Tb  Tb1  1  0.353165  0.351926  0.942868  1
  Tb  Tb2  1  0.353077  0.942890  0.352010  1
  Tb  Tb3  1  0.939169  0.353394  0.353506  1
  Tb  Tb4  1  0.808138  0.191638  0.191444  1
  Tb  Tb5  1  0.188574  0.811171  0.810900  1
  Tb  Tb6  1  0.187910  0.812074  0.189098  1
  Tb  Tb7  1  0.808666  0.191759  0.809021  1
  Tb  Tb8  1  0.188435  0.189538  0.811433  1
  Tb  Tb9  1  0.809058  0.809525  0.191252  1
  Tb  Tb10  1  0.934204  0.566209  0.566579  1
  Tb  Tb11  1  0.565128  0.934015  0.935690  1
  Y  Y12  1  0.565402  0.933915  0.565272  1
  Y  Y13  1  0.934312  0.564860  0.935637  1
  Y  Y14  1  0.565377  0.565115  0.934518  1
  Y  Y15  1  0.934454  0.935422  0.565039  1
  Mg  Mg16  1  0.268682  0.576875  0.576757  1
  Cd  Cd17  1  0.582982  0.584087  0.583552  1
  Cd  Cd18  1  0.581856  0.583359  0.251361  1
  In  In19  1  0.582189  0.251640  0.582787  1
  Pd  Pd20  1  0.143737  0.144533  0.144728  1
  Pd  Pd21  1  0.142799  0.143694  0.568025  1
  Pd  Pd22  1  0.142636  0.568041  0.143847  1
  Pd  Pd23  1  0.568361  0.143369  0.143599  1
