# generated using pymatgen
data_YbTh3Pd5Pt7
_symmetry_space_group_name_H-M   'P 1'
_cell_length_a   5.91865200
_cell_length_b   5.91513889
_cell_length_c   9.74905600
_cell_angle_alpha   90.00000000
_cell_angle_beta   90.00000000
_cell_angle_gamma   120.01964859
_symmetry_Int_Tables_number   1
_chemical_formula_structural   YbTh3Pd5Pt7
_chemical_formula_sum   'Yb1 Th3 Pd5 Pt7'
_cell_volume   295.52547763
_cell_formula_units_Z   1
loop_
 _symmetry_equiv_pos_site_id
 _symmetry_equiv_pos_as_xyz
  1  'x, y, z'
loop_
 _atom_site_type_symbol
 _atom_site_label
 _atom_site_symmetry_multiplicity
 _atom_site_fract_x
 _atom_site_fract_y
 _atom_site_fract_z
 _atom_site_occupancy
  Yb  Yb0  1  0.333377  0.666755  0.250000  1
  Th  Th1  1  0.000242  0.000484  0.493452  1
  Th  Th2  1  0.000242  0.000484  0.006548  1
  Th  Th3  1  0.666043  0.332086  0.750000  1
  Pd  Pd4  1  0.823619  0.647238  0.250000  1
  Pd  Pd5  1  0.351189  0.175725  0.250000  1
  Pd  Pd6  1  0.824536  0.175725  0.250000  1
  Pd  Pd7  1  0.652913  0.826639  0.750000  1
  Pd  Pd8  1  0.173726  0.826639  0.750000  1
  Pt  Pt9  1  0.499240  0.501283  0.498088  1
  Pt  Pt10  1  0.499018  0.998037  0.497727  1
  Pt  Pt11  1  0.002042  0.501283  0.498088  1
  Pt  Pt12  1  0.499240  0.501283  0.001912  1
  Pt  Pt13  1  0.499018  0.998037  0.002273  1
  Pt  Pt14  1  0.002042  0.501283  0.001912  1
  Pt  Pt15  1  0.173511  0.347023  0.750000  1
