# generated using pymatgen
data_Na(Zr3Te4)4
_symmetry_space_group_name_H-M   'P 1'
_cell_length_a   7.94449500
_cell_length_b   11.15691272
_cell_length_c   11.81936951
_cell_angle_alpha   118.07824685
_cell_angle_beta   109.60226076
_cell_angle_gamma   90.02250962
_symmetry_Int_Tables_number   1
_chemical_formula_structural   Na(Zr3Te4)4
_chemical_formula_sum   'Na1 Zr12 Te16'
_cell_volume   854.81487134
_cell_formula_units_Z   1
loop_
 _symmetry_equiv_pos_site_id
 _symmetry_equiv_pos_as_xyz
  1  'x, y, z'
loop_
 _atom_site_type_symbol
 _atom_site_label
 _atom_site_symmetry_multiplicity
 _atom_site_fract_x
 _atom_site_fract_y
 _atom_site_fract_z
 _atom_site_occupancy
  Na  Na0  1  0.500000  0.000000  0.000000  1
  Zr  Zr1  1  0.122181  0.125979  0.492124  1
  Zr  Zr2  1  0.619773  0.125196  0.492050  1
  Zr  Zr3  1  0.311227  0.367349  0.874537  1
  Zr  Zr4  1  0.812104  0.366071  0.873528  1
  Zr  Zr5  1  0.190498  0.507918  0.632926  1
  Zr  Zr6  1  0.693213  0.507743  0.633653  1
  Zr  Zr7  1  0.380227  0.874804  0.507950  1
  Zr  Zr8  1  0.877819  0.874021  0.507876  1
  Zr  Zr9  1  0.187896  0.633929  0.126472  1
  Zr  Zr10  1  0.688773  0.632651  0.125463  1
  Zr  Zr11  1  0.306787  0.492257  0.366347  1
  Zr  Zr12  1  0.809502  0.492082  0.367074  1
  Te  Te13  1  0.730492  0.055070  0.710673  1
  Te  Te14  1  0.229203  0.054810  0.710718  1
  Te  Te15  1  0.847962  0.655249  0.944875  1
  Te  Te16  1  0.347069  0.656541  0.945456  1
  Te  Te17  1  0.546104  0.288945  0.343735  1
  Te  Te18  1  0.047578  0.288859  0.344020  1
  Te  Te19  1  0.770797  0.945190  0.289282  1
  Te  Te20  1  0.269508  0.944930  0.289327  1
  Te  Te21  1  0.652931  0.343459  0.054544  1
  Te  Te22  1  0.152038  0.344751  0.055125  1
  Te  Te23  1  0.952422  0.711141  0.655980  1
  Te  Te24  1  0.453896  0.711055  0.656265  1
  Te  Te25  1  0.958059  0.332736  0.666003  1
  Te  Te26  1  0.458213  0.333902  0.666695  1
  Te  Te27  1  0.541787  0.666098  0.333305  1
  Te  Te28  1  0.041941  0.667264  0.333997  1
