# generated using pymatgen
data_ZrGeCl6
_symmetry_space_group_name_H-M   'P 1'
_cell_length_a   6.72277000
_cell_length_b   6.72277034
_cell_length_c   6.40162700
_cell_angle_alpha   90.00000000
_cell_angle_beta   90.00000000
_cell_angle_gamma   119.99999831
_symmetry_Int_Tables_number   1
_chemical_formula_structural   ZrGeCl6
_chemical_formula_sum   'Zr1 Ge1 Cl6'
_cell_volume   250.56334244
_cell_formula_units_Z   1
loop_
 _symmetry_equiv_pos_site_id
 _symmetry_equiv_pos_as_xyz
  1  'x, y, z'
loop_
 _atom_site_type_symbol
 _atom_site_label
 _atom_site_symmetry_multiplicity
 _atom_site_fract_x
 _atom_site_fract_y
 _atom_site_fract_z
 _atom_site_occupancy
  Zr  Zr0  1  0.333333  0.666667  0.000000  1
  Ge  Ge1  1  0.666667  0.333333  0.000000  1
  Cl  Cl2  1  0.628121  0.647512  0.223564  1
  Cl  Cl3  1  0.352488  0.371879  0.776436  1
  Cl  Cl4  1  0.019391  0.371879  0.223564  1
  Cl  Cl5  1  0.352488  0.980609  0.223564  1
  Cl  Cl6  1  0.628121  0.980609  0.776436  1
  Cl  Cl7  1  0.019391  0.647512  0.776436  1
