# generated using pymatgen
data_Sc5GaSb3
_symmetry_space_group_name_H-M   'P 1'
_cell_length_a   7.56890300
_cell_length_b   14.46732000
_cell_length_c   7.60260600
_cell_angle_alpha   90.00000000
_cell_angle_beta   90.00000000
_cell_angle_gamma   90.00000000
_symmetry_Int_Tables_number   1
_chemical_formula_structural   Sc5GaSb3
_chemical_formula_sum   'Sc20 Ga4 Sb12'
_cell_volume   832.49859884
_cell_formula_units_Z   4
loop_
 _symmetry_equiv_pos_site_id
 _symmetry_equiv_pos_as_xyz
  1  'x, y, z'
loop_
 _atom_site_type_symbol
 _atom_site_label
 _atom_site_symmetry_multiplicity
 _atom_site_fract_x
 _atom_site_fract_y
 _atom_site_fract_z
 _atom_site_occupancy
  Sc  Sc0  1  0.221924  0.250000  0.008705  1
  Sc  Sc1  1  0.105406  0.621745  0.151329  1
  Sc  Sc2  1  0.105406  0.878255  0.151329  1
  Sc  Sc3  1  0.559334  0.113065  0.181877  1
  Sc  Sc4  1  0.559334  0.386935  0.181877  1
  Sc  Sc5  1  0.059334  0.113065  0.318123  1
  Sc  Sc6  1  0.059334  0.386935  0.318123  1
  Sc  Sc7  1  0.605405  0.621745  0.348671  1
  Sc  Sc8  1  0.605405  0.878255  0.348671  1
  Sc  Sc9  1  0.721924  0.250000  0.491295  1
  Sc  Sc10  1  0.278076  0.750000  0.508705  1
  Sc  Sc11  1  0.394594  0.121745  0.651329  1
  Sc  Sc12  1  0.394594  0.378255  0.651329  1
  Sc  Sc13  1  0.940666  0.613065  0.681878  1
  Sc  Sc14  1  0.940666  0.886935  0.681878  1
  Sc  Sc15  1  0.440666  0.613065  0.818123  1
  Sc  Sc16  1  0.440666  0.886935  0.818123  1
  Sc  Sc17  1  0.894594  0.121745  0.848671  1
  Sc  Sc18  1  0.894594  0.378255  0.848671  1
  Sc  Sc19  1  0.778076  0.750000  0.991295  1
  Ga  Ga20  1  0.868205  0.250000  0.146573  1
  Ga  Ga21  1  0.368205  0.250000  0.353427  1
  Ga  Ga22  1  0.631794  0.750000  0.646573  1
  Ga  Ga23  1  0.131794  0.750000  0.853427  1
  Sb  Sb24  1  0.760805  0.544826  0.023915  1
  Sb  Sb25  1  0.760805  0.955174  0.023915  1
  Sb  Sb26  1  0.407362  0.750000  0.123340  1
  Sb  Sb27  1  0.907362  0.750000  0.376660  1
  Sb  Sb28  1  0.260805  0.544826  0.476085  1
  Sb  Sb29  1  0.260805  0.955174  0.476085  1
  Sb  Sb30  1  0.739195  0.044826  0.523915  1
  Sb  Sb31  1  0.739195  0.455174  0.523915  1
  Sb  Sb32  1  0.092638  0.250000  0.623340  1
  Sb  Sb33  1  0.592638  0.250000  0.876660  1
  Sb  Sb34  1  0.239194  0.044826  0.976085  1
  Sb  Sb35  1  0.239194  0.455174  0.976085  1
