# generated using pymatgen
data_Sc3BeAs2Ir3
_symmetry_space_group_name_H-M   'P 1'
_cell_length_a   6.60694700
_cell_length_b   6.60694730
_cell_length_c   3.75357100
_cell_angle_alpha   90.00000000
_cell_angle_beta   90.00000000
_cell_angle_gamma   120.00000351
_symmetry_Int_Tables_number   1
_chemical_formula_structural   Sc3BeAs2Ir3
_chemical_formula_sum   'Sc3 Be1 As2 Ir3'
_cell_volume   141.89821001
_cell_formula_units_Z   1
loop_
 _symmetry_equiv_pos_site_id
 _symmetry_equiv_pos_as_xyz
  1  'x, y, z'
loop_
 _atom_site_type_symbol
 _atom_site_label
 _atom_site_symmetry_multiplicity
 _atom_site_fract_x
 _atom_site_fract_y
 _atom_site_fract_z
 _atom_site_occupancy
  Sc  Sc0  1  0.598429  0.000000  0.500000  1
  Sc  Sc1  1  0.401571  0.401571  0.500000  1
  Sc  Sc2  1  0.000000  0.598429  0.500000  1
  Be  Be3  1  0.000000  0.000000  0.500000  1
  As  As4  1  0.333333  0.666667  0.000000  1
  As  As5  1  0.666667  0.333333  0.000000  1
  Ir  Ir6  1  0.000000  0.235037  0.000000  1
  Ir  Ir7  1  0.235037  0.000000  0.000000  1
  Ir  Ir8  1  0.764963  0.764963  0.000000  1
