# generated using pymatgen
data_Ho16Lu4Ir7Ru5
_symmetry_space_group_name_H-M   'P 1'
_cell_length_a   10.76299715
_cell_length_b   10.76299715
_cell_length_c   6.36144024
_cell_angle_alpha   89.97768458
_cell_angle_beta   89.97768458
_cell_angle_gamma   90.04790844
_symmetry_Int_Tables_number   1
_chemical_formula_structural   Ho16Lu4Ir7Ru5
_chemical_formula_sum   'Ho16 Lu4 Ir7 Ru5'
_cell_volume   736.92227506
_cell_formula_units_Z   1
loop_
 _symmetry_equiv_pos_site_id
 _symmetry_equiv_pos_as_xyz
  1  'x, y, z'
loop_
 _atom_site_type_symbol
 _atom_site_label
 _atom_site_symmetry_multiplicity
 _atom_site_fract_x
 _atom_site_fract_y
 _atom_site_fract_z
 _atom_site_occupancy
  Ho  Ho0  1  0.292381  0.086492  0.377757  1
  Ho  Ho1  1  0.292133  0.913357  0.877774  1
  Ho  Ho2  1  0.708242  0.086753  0.878200  1
  Ho  Ho3  1  0.707999  0.913703  0.377163  1
  Ho  Ho4  1  0.586523  0.792423  0.877778  1
  Ho  Ho5  1  0.587157  0.207780  0.377642  1
  Ho  Ho6  1  0.413363  0.792424  0.377643  1
  Ho  Ho7  1  0.413226  0.207463  0.877354  1
  Ho  Ho8  1  0.207577  0.413477  0.622222  1
  Ho  Ho9  1  0.207576  0.586637  0.122357  1
  Ho  Ho10  1  0.792220  0.412843  0.122358  1
  Ho  Ho11  1  0.792537  0.586774  0.622646  1
  Ho  Ho12  1  0.913508  0.707619  0.122243  1
  Ho  Ho13  1  0.913247  0.291758  0.621800  1
  Ho  Ho14  1  0.086643  0.707867  0.622226  1
  Ho  Ho15  1  0.086297  0.292001  0.122837  1
  Lu  Lu16  1  0.999702  0.000587  0.499302  1
  Lu  Lu17  1  0.999413  0.000298  0.000698  1
  Lu  Lu18  1  0.500097  0.500052  0.000007  1
  Lu  Lu19  1  0.499948  0.499903  0.499993  1
  Ir  Ir20  1  0.848625  0.848390  0.749945  1
  Ir  Ir21  1  0.151610  0.151375  0.750055  1
  Ir  Ir22  1  0.151458  0.848542  0.250000  1
  Ir  Ir23  1  0.650736  0.349264  0.750000  1
  Ir  Ir24  1  0.651197  0.651081  0.249900  1
  Ir  Ir25  1  0.348919  0.348803  0.250100  1
  Ir  Ir26  1  0.348947  0.651053  0.750000  1
  Ru  Ru27  1  0.848805  0.151195  0.250000  1
  Ru  Ru28  1  0.500029  0.000009  0.122412  1
  Ru  Ru29  1  0.499850  0.999955  0.622517  1
  Ru  Ru30  1  0.000045  0.500150  0.877483  1
  Ru  Ru31  1  0.999991  0.499971  0.377588  1
