# generated using pymatgen
data_Sr2LiTcN4
_symmetry_space_group_name_H-M   'P 1'
_cell_length_a   5.86484300
_cell_length_b   6.17798110
_cell_length_c   6.93238342
_cell_angle_alpha   73.62946863
_cell_angle_beta   90.00000000
_cell_angle_gamma   90.00000000
_symmetry_Int_Tables_number   1
_chemical_formula_structural   Sr2LiTcN4
_chemical_formula_sum   'Sr4 Li2 Tc2 N8'
_cell_volume   240.99719653
_cell_formula_units_Z   2
loop_
 _symmetry_equiv_pos_site_id
 _symmetry_equiv_pos_as_xyz
  1  'x, y, z'
loop_
 _atom_site_type_symbol
 _atom_site_label
 _atom_site_symmetry_multiplicity
 _atom_site_fract_x
 _atom_site_fract_y
 _atom_site_fract_z
 _atom_site_occupancy
  Sr  Sr0  1  0.250000  0.260847  0.056290  1
  Sr  Sr1  1  0.750000  0.739153  0.943710  1
  Sr  Sr2  1  0.750000  0.778706  0.431817  1
  Sr  Sr3  1  0.250000  0.221294  0.568183  1
  Li  Li4  1  0.750000  0.306603  0.309991  1
  Li  Li5  1  0.250000  0.693397  0.690009  1
  Tc  Tc6  1  0.250000  0.716990  0.201866  1
  Tc  Tc7  1  0.750000  0.283010  0.798134  1
  N  N8  1  0.504137  0.470640  0.748041  1
  N  N9  1  0.004137  0.529360  0.251959  1
  N  N10  1  0.495863  0.529360  0.251959  1
  N  N11  1  0.995863  0.470640  0.748041  1
  N  N12  1  0.750000  0.098743  0.628544  1
  N  N13  1  0.250000  0.901257  0.371456  1
  N  N14  1  0.750000  0.118596  0.062277  1
  N  N15  1  0.250000  0.881404  0.937723  1
