# generated using pymatgen
data_TmLu3(Rh2O7)2
_symmetry_space_group_name_H-M   'P 1'
_cell_length_a   7.13852079
_cell_length_b   7.14285247
_cell_length_c   7.13852000
_cell_angle_alpha   60.02005308
_cell_angle_beta   59.99999439
_cell_angle_gamma   60.02005762
_symmetry_Int_Tables_number   1
_chemical_formula_structural   TmLu3(Rh2O7)2
_chemical_formula_sum   'Tm1 Lu3 Rh4 O14'
_cell_volume   257.45697191
_cell_formula_units_Z   1
loop_
 _symmetry_equiv_pos_site_id
 _symmetry_equiv_pos_as_xyz
  1  'x, y, z'
loop_
 _atom_site_type_symbol
 _atom_site_label
 _atom_site_symmetry_multiplicity
 _atom_site_fract_x
 _atom_site_fract_y
 _atom_site_fract_z
 _atom_site_occupancy
  Tm  Tm0  1  0.125000  0.625000  0.125000  1
  Lu  Lu1  1  0.125000  0.125000  0.125000  1
  Lu  Lu2  1  0.625000  0.125000  0.125000  1
  Lu  Lu3  1  0.125000  0.125000  0.625000  1
  Rh  Rh4  1  0.625000  0.625000  0.625000  1
  Rh  Rh5  1  0.625000  0.625000  0.125000  1
  Rh  Rh6  1  0.125000  0.625000  0.625000  1
  Rh  Rh7  1  0.625000  0.125000  0.625000  1
  O  O8  1  0.250755  0.247735  0.250755  1
  O  O9  1  0.284154  0.718229  0.284154  1
  O  O10  1  0.964744  0.964748  0.535254  1
  O  O11  1  0.535254  0.964748  0.535254  1
  O  O12  1  0.713463  0.718229  0.284154  1
  O  O13  1  0.965846  0.531771  0.536537  1
  O  O14  1  0.714746  0.285252  0.714746  1
  O  O15  1  0.285256  0.285252  0.714746  1
  O  O16  1  0.714746  0.285252  0.285256  1
  O  O17  1  0.284154  0.718229  0.713463  1
  O  O18  1  0.965846  0.531771  0.965846  1
  O  O19  1  0.536537  0.531771  0.965846  1
  O  O20  1  0.999245  0.002265  0.999245  1
  O  O21  1  0.535254  0.964748  0.964744  1
