# generated using pymatgen
data_Sr6YIn(BO3)6
_symmetry_space_group_name_H-M   'P 1'
_cell_length_a   7.83459296
_cell_length_b   7.83459316
_cell_length_c   7.83459290
_cell_angle_alpha   105.28800009
_cell_angle_beta   105.28799346
_cell_angle_gamma   105.28798336
_symmetry_Int_Tables_number   1
_chemical_formula_structural   Sr6YIn(BO3)6
_chemical_formula_sum   'Sr6 Y1 In1 B6 O18'
_cell_volume   417.78890774
_cell_formula_units_Z   1
loop_
 _symmetry_equiv_pos_site_id
 _symmetry_equiv_pos_as_xyz
  1  'x, y, z'
loop_
 _atom_site_type_symbol
 _atom_site_label
 _atom_site_symmetry_multiplicity
 _atom_site_fract_x
 _atom_site_fract_y
 _atom_site_fract_z
 _atom_site_occupancy
  Sr  Sr0  1  0.649597  0.266953  0.158833  1
  Sr  Sr1  1  0.158833  0.649597  0.266952  1
  Sr  Sr2  1  0.733047  0.841167  0.350403  1
  Sr  Sr3  1  0.266953  0.158833  0.649597  1
  Sr  Sr4  1  0.841167  0.350403  0.733047  1
  Sr  Sr5  1  0.350403  0.733047  0.841167  1
  Y  Y6  1  0.000000  0.000000  0.000000  1
  In  In7  1  0.500000  0.500000  0.500000  1
  B  B8  1  0.294166  0.380868  0.041253  1
  B  B9  1  0.380868  0.041254  0.294166  1
  B  B10  1  0.041254  0.294166  0.380868  1
  B  B11  1  0.958746  0.705834  0.619132  1
  B  B12  1  0.619132  0.958746  0.705834  1
  B  B13  1  0.705834  0.619132  0.958746  1
  O  O14  1  0.728365  0.810858  0.015316  1
  O  O15  1  0.811529  0.549459  0.072201  1
  O  O16  1  0.984684  0.271635  0.189142  1
  O  O17  1  0.450540  0.927798  0.188471  1
  O  O18  1  0.435477  0.506204  0.214493  1
  O  O19  1  0.189142  0.984684  0.271635  1
  O  O20  1  0.506204  0.214493  0.435476  1
  O  O21  1  0.927798  0.188472  0.450540  1
  O  O22  1  0.214493  0.435477  0.506204  1
  O  O23  1  0.785507  0.564523  0.493796  1
  O  O24  1  0.072202  0.811528  0.549460  1
  O  O25  1  0.493796  0.785507  0.564524  1
  O  O26  1  0.810858  0.015316  0.728365  1
  O  O27  1  0.564523  0.493796  0.785507  1
  O  O28  1  0.549460  0.072202  0.811529  1
  O  O29  1  0.015316  0.728365  0.810858  1
  O  O30  1  0.188471  0.450541  0.927799  1
  O  O31  1  0.271635  0.189142  0.984684  1
