# generated using pymatgen
data_La9Pr3(Si7Br3)2
_symmetry_space_group_name_H-M   'P 1'
_cell_length_a   4.12840000
_cell_length_b   11.93387438
_cell_length_c   16.83767258
_cell_angle_alpha   89.82679404
_cell_angle_beta   90.00000000
_cell_angle_gamma   90.00000000
_symmetry_Int_Tables_number   1
_chemical_formula_structural   La9Pr3(Si7Br3)2
_chemical_formula_sum   'La9 Pr3 Si14 Br6'
_cell_volume   829.55141206
_cell_formula_units_Z   1
loop_
 _symmetry_equiv_pos_site_id
 _symmetry_equiv_pos_as_xyz
  1  'x, y, z'
loop_
 _atom_site_type_symbol
 _atom_site_label
 _atom_site_symmetry_multiplicity
 _atom_site_fract_x
 _atom_site_fract_y
 _atom_site_fract_z
 _atom_site_occupancy
  La  La0  1  0.500000  0.340553  0.502176  1
  La  La1  1  0.000000  0.658665  0.999715  1
  La  La2  1  0.000000  0.641576  0.744363  1
  La  La3  1  0.500000  0.357952  0.244214  1
  La  La4  1  0.000000  0.640401  0.256080  1
  La  La5  1  0.500000  0.067835  0.878880  1
  La  La6  1  0.000000  0.934655  0.619707  1
  La  La7  1  0.500000  0.066229  0.118207  1
  La  La8  1  0.000000  0.932424  0.380505  1
  Pr  Pr9  1  0.500000  0.361846  0.757792  1
  Pr  Pr10  1  0.500000  0.357748  0.999405  1
  Pr  Pr11  1  0.000000  0.641285  0.501086  1
  Si  Si12  1  0.000000  0.154864  0.998614  1
  Si  Si13  1  0.500000  0.845331  0.500450  1
  Si  Si14  1  0.500000  0.565491  0.877582  1
  Si  Si15  1  0.000000  0.433923  0.624080  1
  Si  Si16  1  0.500000  0.563723  0.121696  1
  Si  Si17  1  0.000000  0.434973  0.379037  1
  Si  Si18  1  0.000000  0.256103  0.874150  1
  Si  Si19  1  0.500000  0.744639  0.624963  1
  Si  Si20  1  0.000000  0.254873  0.123834  1
  Si  Si21  1  0.500000  0.743461  0.376293  1
  Si  Si22  1  0.000000  0.458941  0.877384  1
  Si  Si23  1  0.500000  0.541260  0.624141  1
  Si  Si24  1  0.500000  0.541047  0.376947  1
  Si  Si25  1  0.000000  0.457401  0.123676  1
  Br  Br26  1  0.500000  0.112671  0.691270  1
  Br  Br27  1  0.000000  0.892238  0.806747  1
  Br  Br28  1  0.000000  0.137059  0.498920  1
  Br  Br29  1  0.500000  0.862390  0.999023  1
  Br  Br30  1  0.500000  0.107006  0.306880  1
  Br  Br31  1  0.000000  0.891438  0.192178  1
