# generated using pymatgen
data_La4Ho6Os3Ru
_symmetry_space_group_name_H-M   'P 1'
_cell_length_a   6.51258840
_cell_length_b   7.33828636
_cell_length_c   8.74376308
_cell_angle_alpha   96.74482888
_cell_angle_beta   112.22365677
_cell_angle_gamma   89.93564025
_symmetry_Int_Tables_number   1
_chemical_formula_structural   La4Ho6Os3Ru
_chemical_formula_sum   'La4 Ho6 Os3 Ru1'
_cell_volume   383.72962542
_cell_formula_units_Z   1
loop_
 _symmetry_equiv_pos_site_id
 _symmetry_equiv_pos_as_xyz
  1  'x, y, z'
loop_
 _atom_site_type_symbol
 _atom_site_label
 _atom_site_symmetry_multiplicity
 _atom_site_fract_x
 _atom_site_fract_y
 _atom_site_fract_z
 _atom_site_occupancy
  La  La0  1  0.981758  0.912748  0.194072  1
  La  La1  1  0.785580  0.586158  0.805285  1
  La  La2  1  0.018865  0.086274  0.805837  1
  La  La3  1  0.216359  0.410188  0.195079  1
  Ho  Ho4  1  0.635273  0.814897  0.431511  1
  Ho  Ho5  1  0.204456  0.684264  0.567967  1
  Ho  Ho6  1  0.364389  0.185883  0.570280  1
  Ho  Ho7  1  0.797608  0.316814  0.432252  1
  Ho  Ho8  1  0.429624  0.747658  0.998816  1
  Ho  Ho9  1  0.571322  0.250998  0.999364  1
  Os  Os10  1  0.823074  0.578481  0.225199  1
  Os  Os11  1  0.596496  0.923318  0.775696  1
  Os  Os12  1  0.177538  0.421662  0.774976  1
  Ru  Ru13  1  0.397660  0.080657  0.223666  1
