# generated using pymatgen
data_V4Co4Si3P
_symmetry_space_group_name_H-M   'P 1'
_cell_length_a   3.51218100
_cell_length_b   5.94331702
_cell_length_c   6.80711102
_cell_angle_alpha   89.99137526
_cell_angle_beta   90.00000000
_cell_angle_gamma   90.00000000
_symmetry_Int_Tables_number   1
_chemical_formula_structural   V4Co4Si3P
_chemical_formula_sum   'V4 Co4 Si3 P1'
_cell_volume   142.09166855
_cell_formula_units_Z   1
loop_
 _symmetry_equiv_pos_site_id
 _symmetry_equiv_pos_as_xyz
  1  'x, y, z'
loop_
 _atom_site_type_symbol
 _atom_site_label
 _atom_site_symmetry_multiplicity
 _atom_site_fract_x
 _atom_site_fract_y
 _atom_site_fract_z
 _atom_site_occupancy
  V  V0  1  0.250000  0.022407  0.173235  1
  V  V1  1  0.250000  0.528141  0.324445  1
  V  V2  1  0.750000  0.971856  0.829853  1
  V  V3  1  0.750000  0.473418  0.673108  1
  Co  Co4  1  0.250000  0.142358  0.559731  1
  Co  Co5  1  0.250000  0.645846  0.944766  1
  Co  Co6  1  0.750000  0.853737  0.433759  1
  Co  Co7  1  0.750000  0.362307  0.061258  1
  Si  Si8  1  0.250000  0.768713  0.626380  1
  Si  Si9  1  0.250000  0.268010  0.874113  1
  Si  Si10  1  0.750000  0.231414  0.373757  1
  P  P11  1  0.750000  0.731794  0.125596  1
