# generated using pymatgen
data_Ac2LaSn7Ru2
_symmetry_space_group_name_H-M   'P 1'
_cell_length_a   14.18598234
_cell_length_b   14.18598423
_cell_length_c   4.72984600
_cell_angle_alpha   90.00000000
_cell_angle_beta   90.00000000
_cell_angle_gamma   160.16097483
_symmetry_Int_Tables_number   1
_chemical_formula_structural   Ac2LaSn7Ru2
_chemical_formula_sum   'Ac2 La1 Sn7 Ru2'
_cell_volume   323.03565477
_cell_formula_units_Z   1
loop_
 _symmetry_equiv_pos_site_id
 _symmetry_equiv_pos_as_xyz
  1  'x, y, z'
loop_
 _atom_site_type_symbol
 _atom_site_label
 _atom_site_symmetry_multiplicity
 _atom_site_fract_x
 _atom_site_fract_y
 _atom_site_fract_z
 _atom_site_occupancy
  Ac  Ac0  1  0.182201  0.817799  0.000000  1
  Ac  Ac1  1  0.817799  0.182201  0.000000  1
  La  La2  1  0.500000  0.500000  0.500000  1
  Sn  Sn3  1  0.085373  0.914627  0.500000  1
  Sn  Sn4  1  0.914627  0.085373  0.500000  1
  Sn  Sn5  1  0.279798  0.720202  0.500000  1
  Sn  Sn6  1  0.720202  0.279798  0.500000  1
  Sn  Sn7  1  0.000000  0.000000  0.000000  1
  Sn  Sn8  1  0.583698  0.416302  0.000000  1
  Sn  Sn9  1  0.416302  0.583698  0.000000  1
  Ru  Ru10  1  0.374036  0.625964  0.500000  1
  Ru  Ru11  1  0.625964  0.374036  0.500000  1
