# generated using pymatgen
data_Dy8Sc11Si16Mo
_symmetry_space_group_name_H-M   'P 1'
_cell_length_a   7.06776064
_cell_length_b   7.31958574
_cell_length_c   13.88288047
_cell_angle_alpha   90.16803808
_cell_angle_beta   89.68770776
_cell_angle_gamma   89.72049735
_symmetry_Int_Tables_number   1
_chemical_formula_structural   Dy8Sc11Si16Mo
_chemical_formula_sum   'Dy8 Sc11 Si16 Mo1'
_cell_volume   718.18180647
_cell_formula_units_Z   1
loop_
 _symmetry_equiv_pos_site_id
 _symmetry_equiv_pos_as_xyz
  1  'x, y, z'
loop_
 _atom_site_type_symbol
 _atom_site_label
 _atom_site_symmetry_multiplicity
 _atom_site_fract_x
 _atom_site_fract_y
 _atom_site_fract_z
 _atom_site_occupancy
  Dy  Dy0  1  0.011925  0.174347  0.097016  1
  Dy  Dy1  1  0.988897  0.825708  0.898792  1
  Dy  Dy2  1  0.487015  0.677180  0.899365  1
  Dy  Dy3  1  0.992722  0.829454  0.595889  1
  Dy  Dy4  1  0.513154  0.323787  0.096604  1
  Dy  Dy5  1  0.010507  0.175031  0.403639  1
  Dy  Dy6  1  0.507315  0.324009  0.409479  1
  Dy  Dy7  1  0.487381  0.675877  0.596355  1
  Sc  Sc8  1  0.163168  0.495165  0.745017  1
  Sc  Sc9  1  0.838075  0.497721  0.251731  1
  Sc  Sc10  1  0.337641  0.002778  0.252136  1
  Sc  Sc11  1  0.658157  0.001810  0.747370  1
  Sc  Sc12  1  0.666088  0.825795  0.378997  1
  Sc  Sc13  1  0.168731  0.678014  0.378199  1
  Sc  Sc14  1  0.669633  0.824099  0.124489  1
  Sc  Sc15  1  0.832342  0.323799  0.623714  1
  Sc  Sc16  1  0.332164  0.176724  0.875124  1
  Sc  Sc17  1  0.829639  0.322947  0.871813  1
  Sc  Sc18  1  0.170373  0.676742  0.125658  1
  Si  Si19  1  0.042257  0.120728  0.745135  1
  Si  Si20  1  0.964378  0.884881  0.251453  1
  Si  Si21  1  0.467084  0.617602  0.250830  1
  Si  Si22  1  0.530562  0.374605  0.745756  1
  Si  Si23  1  0.286639  0.880637  0.746197  1
  Si  Si24  1  0.711916  0.126683  0.250851  1
  Si  Si25  1  0.215529  0.373571  0.250666  1
  Si  Si26  1  0.783924  0.624165  0.746942  1
  Si  Si27  1  0.174375  0.451082  0.541034  1
  Si  Si28  1  0.843359  0.532375  0.460687  1
  Si  Si29  1  0.334603  0.969714  0.470871  1
  Si  Si30  1  0.845201  0.535038  0.038888  1
  Si  Si31  1  0.646398  0.035499  0.544876  1
  Si  Si32  1  0.154008  0.466376  0.959015  1
  Si  Si33  1  0.660367  0.035835  0.958755  1
  Si  Si34  1  0.341977  0.963251  0.038535  1
  Mo  Mo35  1  0.332498  0.176973  0.628119  1
