# generated using pymatgen
data_Tb5HoRh18
_symmetry_space_group_name_H-M   'P 1'
_cell_length_a   5.28153000
_cell_length_b   5.28153024
_cell_length_c   17.57582400
_cell_angle_alpha   90.00000000
_cell_angle_beta   90.00000000
_cell_angle_gamma   119.99998600
_symmetry_Int_Tables_number   1
_chemical_formula_structural   Tb5HoRh18
_chemical_formula_sum   'Tb5 Ho1 Rh18'
_cell_volume   424.58623404
_cell_formula_units_Z   1
loop_
 _symmetry_equiv_pos_site_id
 _symmetry_equiv_pos_as_xyz
  1  'x, y, z'
loop_
 _atom_site_type_symbol
 _atom_site_label
 _atom_site_symmetry_multiplicity
 _atom_site_fract_x
 _atom_site_fract_y
 _atom_site_fract_z
 _atom_site_occupancy
  Tb  Tb0  1  0.333333  0.666667  0.957755  1
  Tb  Tb1  1  0.666667  0.333333  0.042314  1
  Tb  Tb2  1  0.666667  0.333333  0.457686  1
  Tb  Tb3  1  0.333333  0.666667  0.542245  1
  Tb  Tb4  1  0.333333  0.666667  0.750000  1
  Ho  Ho5  1  0.666667  0.333333  0.250000  1
  Rh  Rh6  1  0.167280  0.832720  0.373953  1
  Rh  Rh7  1  0.167280  0.334558  0.373953  1
  Rh  Rh8  1  0.665442  0.832720  0.373953  1
  Rh  Rh9  1  0.832710  0.167290  0.626029  1
  Rh  Rh10  1  0.832710  0.665421  0.626029  1
  Rh  Rh11  1  0.334579  0.167290  0.626029  1
  Rh  Rh12  1  0.832710  0.167290  0.873971  1
  Rh  Rh13  1  0.832710  0.665421  0.873971  1
  Rh  Rh14  1  0.334579  0.167290  0.873971  1
  Rh  Rh15  1  0.167280  0.832720  0.126047  1
  Rh  Rh16  1  0.167280  0.334558  0.126047  1
  Rh  Rh17  1  0.665442  0.832720  0.126047  1
  Rh  Rh18  1  0.333333  0.666667  0.250000  1
  Rh  Rh19  1  0.666667  0.333333  0.750000  1
  Rh  Rh20  1  0.000000  0.000000  0.250000  1
  Rh  Rh21  1  0.000000  0.000000  0.750000  1
  Rh  Rh22  1  0.000000  0.000000  0.500032  1
  Rh  Rh23  1  0.000000  0.000000  0.999968  1
