# generated using pymatgen
data_Sc4Si6Ir5Rh2
_symmetry_space_group_name_H-M   'P 1'
_cell_length_a   6.98598153
_cell_length_b   6.98535098
_cell_length_c   6.98537988
_cell_angle_alpha   109.55540712
_cell_angle_beta   109.42488461
_cell_angle_gamma   109.43071310
_symmetry_Int_Tables_number   1
_chemical_formula_structural   Sc4Si6Ir5Rh2
_chemical_formula_sum   'Sc4 Si6 Ir5 Rh2'
_cell_volume   262.42034666
_cell_formula_units_Z   1
loop_
 _symmetry_equiv_pos_site_id
 _symmetry_equiv_pos_as_xyz
  1  'x, y, z'
loop_
 _atom_site_type_symbol
 _atom_site_label
 _atom_site_symmetry_multiplicity
 _atom_site_fract_x
 _atom_site_fract_y
 _atom_site_fract_z
 _atom_site_occupancy
  Sc  Sc0  1  0.000101  0.000051  0.500053  1
  Sc  Sc1  1  0.000104  0.500051  0.000053  1
  Sc  Sc2  1  0.499872  0.999738  0.999738  1
  Sc  Sc3  1  0.499872  0.500137  0.500134  1
  Si  Si4  1  0.682788  0.682905  0.999882  1
  Si  Si5  1  0.317170  0.000047  0.317123  1
  Si  Si6  1  0.999969  0.317474  0.317476  1
  Si  Si7  1  0.317162  0.317115  0.000042  1
  Si  Si8  1  0.682788  0.999884  0.682903  1
  Si  Si9  1  0.999973  0.682498  0.682499  1
  Ir  Ir10  1  0.500472  0.250235  0.750239  1
  Ir  Ir11  1  0.249382  0.499863  0.749523  1
  Ir  Ir12  1  0.249373  0.749518  0.499857  1
  Ir  Ir13  1  0.500470  0.750231  0.250236  1
  Ir  Ir14  1  0.999978  0.999988  0.999989  1
  Rh  Rh15  1  0.750262  0.250414  0.499852  1
  Rh  Rh16  1  0.750265  0.499854  0.250402  1
