# generated using pymatgen
data_Ce3Ho7(SiB4)4
_symmetry_space_group_name_H-M   'P 1'
_cell_length_a   7.23986873
_cell_length_b   7.23986873
_cell_length_c   8.14631101
_cell_angle_alpha   89.99663618
_cell_angle_beta   89.99663618
_cell_angle_gamma   90.13094379
_symmetry_Int_Tables_number   1
_chemical_formula_structural   Ce3Ho7(SiB4)4
_chemical_formula_sum   'Ce3 Ho7 Si4 B16'
_cell_volume   426.99347097
_cell_formula_units_Z   1
loop_
 _symmetry_equiv_pos_site_id
 _symmetry_equiv_pos_as_xyz
  1  'x, y, z'
loop_
 _atom_site_type_symbol
 _atom_site_label
 _atom_site_symmetry_multiplicity
 _atom_site_fract_x
 _atom_site_fract_y
 _atom_site_fract_z
 _atom_site_occupancy
  Ce  Ce0  1  0.681888  0.181888  0.228835  1
  Ce  Ce1  1  0.317590  0.817590  0.770814  1
  Ce  Ce2  1  0.318375  0.818375  0.229763  1
  Ho  Ho3  1  0.819953  0.679880  0.220521  1
  Ho  Ho4  1  0.819735  0.680263  0.779359  1
  Ho  Ho5  1  0.681553  0.181553  0.778902  1
  Ho  Ho6  1  0.180263  0.319735  0.779359  1
  Ho  Ho7  1  0.179880  0.319953  0.220521  1
  Ho  Ho8  1  0.999317  0.000907  0.500552  1
  Ho  Ho9  1  0.500907  0.499317  0.500552  1
  Si  Si10  1  0.114043  0.614043  0.500595  1
  Si  Si11  1  0.884218  0.384218  0.501026  1
  Si  Si12  1  0.384891  0.115850  0.501286  1
  Si  Si13  1  0.615850  0.884891  0.501286  1
  B  B14  1  0.172457  0.039077  0.998832  1
  B  B15  1  0.826994  0.961425  0.999220  1
  B  B16  1  0.959843  0.172696  0.999018  1
  B  B17  1  0.328231  0.539250  0.998997  1
  B  B18  1  0.039250  0.828231  0.998997  1
  B  B19  1  0.672696  0.459843  0.999018  1
  B  B20  1  0.539077  0.672457  0.998832  1
  B  B21  1  0.461425  0.326994  0.999220  1
  B  B22  1  0.091162  0.591162  0.999177  1
  B  B23  1  0.909058  0.409058  0.000628  1
  B  B24  1  0.409877  0.090529  0.999323  1
  B  B25  1  0.590529  0.909877  0.999323  1
  B  B26  1  0.999863  0.000139  0.160453  1
  B  B27  1  0.000371  0.000566  0.837570  1
  B  B28  1  0.500566  0.500371  0.837570  1
  B  B29  1  0.500139  0.499863  0.160453  1
