# generated using pymatgen
data_Pr2NdAl9Tc3Os4
_symmetry_space_group_name_H-M   'P 1'
_cell_length_a   8.91960106
_cell_length_b   8.91960203
_cell_length_c   9.72091200
_cell_angle_alpha   90.00000000
_cell_angle_beta   90.00000000
_cell_angle_gamma   120.01330186
_symmetry_Int_Tables_number   1
_chemical_formula_structural   Pr2NdAl9Tc3Os4
_chemical_formula_sum   'Pr4 Nd2 Al18 Tc6 Os8'
_cell_volume   669.68461764
_cell_formula_units_Z   2
loop_
 _symmetry_equiv_pos_site_id
 _symmetry_equiv_pos_as_xyz
  1  'x, y, z'
loop_
 _atom_site_type_symbol
 _atom_site_label
 _atom_site_symmetry_multiplicity
 _atom_site_fract_x
 _atom_site_fract_y
 _atom_site_fract_z
 _atom_site_occupancy
  Pr  Pr0  1  0.194763  0.389715  0.250000  1
  Pr  Pr1  1  0.805237  0.610285  0.750000  1
  Pr  Pr2  1  0.610285  0.805237  0.250000  1
  Pr  Pr3  1  0.389715  0.194763  0.750000  1
  Nd  Nd4  1  0.194945  0.805055  0.250000  1
  Nd  Nd5  1  0.805055  0.194945  0.750000  1
  Al  Al6  1  0.333234  0.666766  0.006224  1
  Al  Al7  1  0.666766  0.333234  0.993776  1
  Al  Al8  1  0.666766  0.333234  0.506224  1
  Al  Al9  1  0.333234  0.666766  0.493776  1
  Al  Al10  1  0.165548  0.331495  0.575889  1
  Al  Al11  1  0.834452  0.668505  0.424111  1
  Al  Al12  1  0.668505  0.834452  0.575889  1
  Al  Al13  1  0.834452  0.668505  0.075889  1
  Al  Al14  1  0.331495  0.165548  0.424111  1
  Al  Al15  1  0.165548  0.331495  0.924111  1
  Al  Al16  1  0.165797  0.834203  0.575618  1
  Al  Al17  1  0.331495  0.165548  0.075889  1
  Al  Al18  1  0.834203  0.165797  0.424382  1
  Al  Al19  1  0.668505  0.834452  0.924111  1
  Al  Al20  1  0.834203  0.165797  0.075618  1
  Al  Al21  1  0.165797  0.834203  0.924382  1
  Al  Al22  1  0.000165  0.999835  0.250000  1
  Al  Al23  1  0.999835  0.000165  0.750000  1
  Tc  Tc24  1  0.574212  0.148717  0.250000  1
  Tc  Tc25  1  0.425788  0.851283  0.750000  1
  Tc  Tc26  1  0.851283  0.425788  0.250000  1
  Tc  Tc27  1  0.148717  0.574212  0.750000  1
  Tc  Tc28  1  0.574436  0.425564  0.250000  1
  Tc  Tc29  1  0.425564  0.574436  0.750000  1
  Os  Os30  1  0.500000  0.000000  0.000000  1
  Os  Os31  1  0.000000  0.500000  0.000000  1
  Os  Os32  1  0.500000  0.000000  0.500000  1
  Os  Os33  1  0.500000  0.500000  0.000000  1
  Os  Os34  1  0.000000  0.500000  0.500000  1
  Os  Os35  1  0.500000  0.500000  0.500000  1
  Os  Os36  1  0.000000  0.000000  0.000000  1
  Os  Os37  1  0.000000  0.000000  0.500000  1
