# generated using pymatgen
data_TbY19Cd6IrRu
_symmetry_space_group_name_H-M   'P 1'
_cell_length_a   9.67866100
_cell_length_b   9.67866099
_cell_length_c   9.86820000
_cell_angle_alpha   90.00000000
_cell_angle_beta   90.00000000
_cell_angle_gamma   120.00000345
_symmetry_Int_Tables_number   1
_chemical_formula_structural   TbY19Cd6IrRu
_chemical_formula_sum   'Tb1 Y19 Cd6 Ir1 Ru1'
_cell_volume   800.56964014
_cell_formula_units_Z   1
loop_
 _symmetry_equiv_pos_site_id
 _symmetry_equiv_pos_as_xyz
  1  'x, y, z'
loop_
 _atom_site_type_symbol
 _atom_site_label
 _atom_site_symmetry_multiplicity
 _atom_site_fract_x
 _atom_site_fract_y
 _atom_site_fract_z
 _atom_site_occupancy
  Tb  Tb0  1  0.000000  0.000000  0.499664  1
  Y  Y1  1  0.000000  0.000000  0.000358  1
  Y  Y2  1  0.209317  0.790683  0.440436  1
  Y  Y3  1  0.209317  0.418635  0.440436  1
  Y  Y4  1  0.581365  0.790683  0.440436  1
  Y  Y5  1  0.790401  0.209599  0.560079  1
  Y  Y6  1  0.790401  0.580800  0.560079  1
  Y  Y7  1  0.419200  0.209599  0.560079  1
  Y  Y8  1  0.790402  0.209598  0.939673  1
  Y  Y9  1  0.790402  0.580802  0.939673  1
  Y  Y10  1  0.419198  0.209598  0.939673  1
  Y  Y11  1  0.209282  0.790718  0.059779  1
  Y  Y12  1  0.209282  0.418564  0.059779  1
  Y  Y13  1  0.581436  0.790718  0.059779  1
  Y  Y14  1  0.541370  0.458630  0.249990  1
  Y  Y15  1  0.541370  0.082739  0.249990  1
  Y  Y16  1  0.917261  0.458630  0.249990  1
  Y  Y17  1  0.458669  0.541331  0.750039  1
  Y  Y18  1  0.458669  0.917338  0.750039  1
  Y  Y19  1  0.082662  0.541331  0.750039  1
  Cd  Cd20  1  0.885115  0.114885  0.249858  1
  Cd  Cd21  1  0.885115  0.770231  0.249858  1
  Cd  Cd22  1  0.229769  0.114885  0.249858  1
  Cd  Cd23  1  0.114817  0.885183  0.750131  1
  Cd  Cd24  1  0.114817  0.229633  0.750131  1
  Cd  Cd25  1  0.770367  0.885183  0.750131  1
  Ir  Ir26  1  0.333333  0.666667  0.249952  1
  Ru  Ru27  1  0.666667  0.333333  0.750068  1
