# generated using pymatgen
data_YbHoPtRhO7
_symmetry_space_group_name_H-M   'P 1'
_cell_length_a   7.22057315
_cell_length_b   7.23661331
_cell_length_c   7.23661103
_cell_angle_alpha   60.00336543
_cell_angle_beta   60.07328696
_cell_angle_gamma   60.07329020
_symmetry_Int_Tables_number   1
_chemical_formula_structural   YbHoPtRhO7
_chemical_formula_sum   'Yb2 Ho2 Pt2 Rh2 O14'
_cell_volume   267.68161571
_cell_formula_units_Z   2
loop_
 _symmetry_equiv_pos_site_id
 _symmetry_equiv_pos_as_xyz
  1  'x, y, z'
loop_
 _atom_site_type_symbol
 _atom_site_label
 _atom_site_symmetry_multiplicity
 _atom_site_fract_x
 _atom_site_fract_y
 _atom_site_fract_z
 _atom_site_occupancy
  Yb  Yb0  1  0.625000  0.625000  0.125000  1
  Yb  Yb1  1  0.625000  0.125000  0.625000  1
  Ho  Ho2  1  0.625000  0.625000  0.625000  1
  Ho  Ho3  1  0.125000  0.625000  0.625000  1
  Pt  Pt4  1  0.125000  0.625000  0.125000  1
  Pt  Pt5  1  0.125000  0.125000  0.625000  1
  Rh  Rh6  1  0.125000  0.125000  0.125000  1
  Rh  Rh7  1  0.625000  0.125000  0.125000  1
  O  O8  1  0.035943  0.464057  0.464057  1
  O  O9  1  0.790993  0.790648  0.214826  1
  O  O10  1  0.798213  0.201787  0.201787  1
  O  O11  1  0.459007  0.035174  0.459352  1
  O  O12  1  0.754417  0.745583  0.745583  1
  O  O13  1  0.046468  0.035174  0.459352  1
  O  O14  1  0.046468  0.459352  0.035174  1
  O  O15  1  0.790993  0.214826  0.790648  1
  O  O16  1  0.203532  0.790648  0.214826  1
  O  O17  1  0.203532  0.214826  0.790648  1
  O  O18  1  0.495583  0.504417  0.504417  1
  O  O19  1  0.451787  0.048213  0.048213  1
  O  O20  1  0.459007  0.459352  0.035174  1
  O  O21  1  0.214057  0.785943  0.785943  1
