# generated using pymatgen
data_Sm3ErTi4(SiO9)2
_symmetry_space_group_name_H-M   'P 1'
_cell_length_a   11.36874100
_cell_length_b   4.93301173
_cell_length_c   12.51937667
_cell_angle_alpha   84.54656456
_cell_angle_beta   90.00000000
_cell_angle_gamma   90.00000000
_symmetry_Int_Tables_number   1
_chemical_formula_structural   Sm3ErTi4(SiO9)2
_chemical_formula_sum   'Sm6 Er2 Ti8 Si4 O36'
_cell_volume   698.93541249
_cell_formula_units_Z   2
loop_
 _symmetry_equiv_pos_site_id
 _symmetry_equiv_pos_as_xyz
  1  'x, y, z'
loop_
 _atom_site_type_symbol
 _atom_site_label
 _atom_site_symmetry_multiplicity
 _atom_site_fract_x
 _atom_site_fract_y
 _atom_site_fract_z
 _atom_site_occupancy
  Sm  Sm0  1  0.359074  0.697678  0.932398  1
  Sm  Sm1  1  0.859074  0.302322  0.067602  1
  Sm  Sm2  1  0.637251  0.731805  0.420063  1
  Sm  Sm3  1  0.137251  0.268195  0.579937  1
  Sm  Sm4  1  0.362722  0.768399  0.577879  1
  Sm  Sm5  1  0.862722  0.231601  0.422121  1
  Er  Er6  1  0.640470  0.813178  0.068744  1
  Er  Er7  1  0.140470  0.186822  0.931256  1
  Ti  Ti8  1  0.836809  0.950575  0.849489  1
  Ti  Ti9  1  0.336809  0.049425  0.150511  1
  Ti  Ti10  1  0.163887  0.548280  0.148403  1
  Ti  Ti11  1  0.663887  0.451720  0.851597  1
  Ti  Ti12  1  0.833937  0.581570  0.641729  1
  Ti  Ti13  1  0.333937  0.418430  0.358271  1
  Ti  Ti14  1  0.164937  0.918291  0.358425  1
  Ti  Ti15  1  0.664937  0.081709  0.641575  1
  Si  Si16  1  0.592088  0.320789  0.244538  1
  Si  Si17  1  0.092088  0.679211  0.755462  1
  Si  Si18  1  0.406983  0.178649  0.754138  1
  Si  Si19  1  0.906983  0.821351  0.245862  1
  O  O20  1  0.839547  0.756834  0.134396  1
  O  O21  1  0.339547  0.243166  0.865604  1
  O  O22  1  0.156116  0.759764  0.865589  1
  O  O23  1  0.656116  0.240236  0.134411  1
  O  O24  1  0.787214  0.911528  0.556286  1
  O  O25  1  0.287214  0.088472  0.443714  1
  O  O26  1  0.212044  0.588230  0.443881  1
  O  O27  1  0.712044  0.411770  0.556119  1
  O  O28  1  0.950409  0.076336  0.930463  1
  O  O29  1  0.450409  0.923664  0.069537  1
  O  O30  1  0.055805  0.417432  0.063399  1
  O  O31  1  0.555805  0.582568  0.936601  1
  O  O32  1  0.599082  0.654900  0.240026  1
  O  O33  1  0.099082  0.345100  0.759974  1
  O  O34  1  0.403883  0.845175  0.754555  1
  O  O35  1  0.903883  0.154825  0.245445  1
  O  O36  1  0.948674  0.768403  0.747291  1
  O  O37  1  0.448674  0.231597  0.252709  1
  O  O38  1  0.049937  0.728247  0.251043  1
  O  O39  1  0.549937  0.271753  0.748957  1
  O  O40  1  0.787688  0.624450  0.933996  1
  O  O41  1  0.287688  0.375550  0.066004  1
  O  O42  1  0.212787  0.879452  0.064246  1
  O  O43  1  0.712787  0.120548  0.935754  1
  O  O44  1  0.949784  0.448533  0.565095  1
  O  O45  1  0.449784  0.551467  0.434905  1
  O  O46  1  0.050445  0.050150  0.436476  1
  O  O47  1  0.550445  0.949850  0.563524  1
  O  O48  1  0.838372  0.693306  0.355008  1
  O  O49  1  0.338372  0.306694  0.644992  1
  O  O50  1  0.160790  0.803657  0.645570  1
  O  O51  1  0.660790  0.196343  0.354430  1
  O  O52  1  0.707791  0.767012  0.745538  1
  O  O53  1  0.207791  0.232988  0.254462  1
  O  O54  1  0.291473  0.732897  0.254032  1
  O  O55  1  0.791473  0.267103  0.745968  1
