# generated using pymatgen
data_Er12GaCo4Pd
_symmetry_space_group_name_H-M   'P 1'
_cell_length_a   8.18772587
_cell_length_b   8.18772617
_cell_length_c   8.18772641
_cell_angle_alpha   106.90587918
_cell_angle_beta   110.72667727
_cell_angle_gamma   110.81117617
_symmetry_Int_Tables_number   1
_chemical_formula_structural   Er12GaCo4Pd
_chemical_formula_sum   'Er12 Ga1 Co4 Pd1'
_cell_volume   421.90823486
_cell_formula_units_Z   1
loop_
 _symmetry_equiv_pos_site_id
 _symmetry_equiv_pos_as_xyz
  1  'x, y, z'
loop_
 _atom_site_type_symbol
 _atom_site_label
 _atom_site_symmetry_multiplicity
 _atom_site_fract_x
 _atom_site_fract_y
 _atom_site_fract_z
 _atom_site_occupancy
  Er  Er0  1  0.697683  0.273710  0.971393  1
  Er  Er1  1  0.302317  0.726290  0.028607  1
  Er  Er2  1  0.697683  0.726290  0.423975  1
  Er  Er3  1  0.302317  0.273710  0.576025  1
  Er  Er4  1  0.803284  0.120824  0.317540  1
  Er  Er5  1  0.803284  0.485744  0.682460  1
  Er  Er6  1  0.196716  0.879176  0.682460  1
  Er  Er7  1  0.196716  0.514256  0.317540  1
  Er  Er8  1  0.600775  0.785662  0.815113  1
  Er  Er9  1  0.970548  0.785662  0.184887  1
  Er  Er10  1  0.029452  0.214338  0.815113  1
  Er  Er11  1  0.399225  0.214338  0.184887  1
  Ga  Ga12  1  0.500000  0.000000  0.500000  1
  Co  Co13  1  0.873845  0.500000  0.373845  1
  Co  Co14  1  0.126155  0.500000  0.626155  1
  Co  Co15  1  0.000000  0.113235  0.113235  1
  Co  Co16  1  0.000000  0.886765  0.886765  1
  Pd  Pd17  1  0.500000  0.500000  0.000000  1
