# generated using pymatgen
data_Hf15Sc3V2(Re3P)2
_symmetry_space_group_name_H-M   'P 1'
_cell_length_a   8.59945400
_cell_length_b   8.59945483
_cell_length_c   8.48312900
_cell_angle_alpha   90.00000000
_cell_angle_beta   90.00000000
_cell_angle_gamma   120.00000451
_symmetry_Int_Tables_number   1
_chemical_formula_structural   Hf15Sc3V2(Re3P)2
_chemical_formula_sum   'Hf15 Sc3 V2 Re6 P2'
_cell_volume   543.28595817
_cell_formula_units_Z   1
loop_
 _symmetry_equiv_pos_site_id
 _symmetry_equiv_pos_as_xyz
  1  'x, y, z'
loop_
 _atom_site_type_symbol
 _atom_site_label
 _atom_site_symmetry_multiplicity
 _atom_site_fract_x
 _atom_site_fract_y
 _atom_site_fract_z
 _atom_site_occupancy
  Hf  Hf0  1  0.194941  0.805059  0.451110  1
  Hf  Hf1  1  0.194941  0.389881  0.451110  1
  Hf  Hf2  1  0.610119  0.805059  0.451110  1
  Hf  Hf3  1  0.804672  0.195328  0.548791  1
  Hf  Hf4  1  0.804672  0.609347  0.548791  1
  Hf  Hf5  1  0.390653  0.195328  0.548791  1
  Hf  Hf6  1  0.804672  0.195328  0.951209  1
  Hf  Hf7  1  0.804672  0.609347  0.951209  1
  Hf  Hf8  1  0.390653  0.195328  0.951209  1
  Hf  Hf9  1  0.194941  0.805059  0.048890  1
  Hf  Hf10  1  0.194941  0.389881  0.048890  1
  Hf  Hf11  1  0.610119  0.805059  0.048890  1
  Hf  Hf12  1  0.458705  0.541295  0.750000  1
  Hf  Hf13  1  0.458705  0.917410  0.750000  1
  Hf  Hf14  1  0.082590  0.541295  0.750000  1
  Sc  Sc15  1  0.541621  0.458379  0.250000  1
  Sc  Sc16  1  0.541621  0.083240  0.250000  1
  Sc  Sc17  1  0.916760  0.458379  0.250000  1
  V  V18  1  0.000000  0.000000  0.496786  1
  V  V19  1  0.000000  0.000000  0.003214  1
  Re  Re20  1  0.891297  0.108703  0.250000  1
  Re  Re21  1  0.891297  0.782594  0.250000  1
  Re  Re22  1  0.217406  0.108703  0.250000  1
  Re  Re23  1  0.108400  0.891600  0.750000  1
  Re  Re24  1  0.108400  0.216802  0.750000  1
  Re  Re25  1  0.783198  0.891600  0.750000  1
  P  P26  1  0.333333  0.666667  0.250000  1
  P  P27  1  0.666667  0.333333  0.750000  1
