# generated using pymatgen
data_Mg3Zn(GeRh3)2
_symmetry_space_group_name_H-M   'P 1'
_cell_length_a   4.31054818
_cell_length_b   6.15478000
_cell_length_c   13.00887252
_cell_angle_alpha   90.00000000
_cell_angle_beta   90.03262327
_cell_angle_gamma   90.00000000
_symmetry_Int_Tables_number   1
_chemical_formula_structural   Mg3Zn(GeRh3)2
_chemical_formula_sum   'Mg6 Zn2 Ge4 Rh12'
_cell_volume   345.13152045
_cell_formula_units_Z   2
loop_
 _symmetry_equiv_pos_site_id
 _symmetry_equiv_pos_as_xyz
  1  'x, y, z'
loop_
 _atom_site_type_symbol
 _atom_site_label
 _atom_site_symmetry_multiplicity
 _atom_site_fract_x
 _atom_site_fract_y
 _atom_site_fract_z
 _atom_site_occupancy
  Mg  Mg0  1  0.000117  0.500000  0.005636  1
  Mg  Mg1  1  0.499961  0.000000  0.160973  1
  Mg  Mg2  1  0.999917  0.500000  0.330312  1
  Mg  Mg3  1  0.500246  0.000000  0.501563  1
  Mg  Mg4  1  0.000087  0.500000  0.665143  1
  Mg  Mg5  1  0.499851  0.000000  0.836464  1
  Zn  Zn6  1  0.000127  0.000000  0.000121  1
  Zn  Zn7  1  0.499925  0.500000  0.166541  1
  Ge  Ge8  1  0.000272  0.000000  0.330495  1
  Ge  Ge9  1  0.500404  0.500000  0.497921  1
  Ge  Ge10  1  0.999721  0.000000  0.668777  1
  Ge  Ge11  1  0.499610  0.500000  0.836136  1
  Rh  Rh12  1  0.499973  0.254967  0.995278  1
  Rh  Rh13  1  0.499973  0.745033  0.995278  1
  Rh  Rh14  1  0.999893  0.245152  0.171366  1
  Rh  Rh15  1  0.999893  0.754848  0.171366  1
  Rh  Rh16  1  0.500130  0.245612  0.338511  1
  Rh  Rh17  1  0.500130  0.754388  0.338511  1
  Rh  Rh18  1  0.999943  0.249393  0.500954  1
  Rh  Rh19  1  0.999943  0.750608  0.500954  1
  Rh  Rh20  1  0.500032  0.250580  0.665674  1
  Rh  Rh21  1  0.500032  0.749420  0.665674  1
  Rh  Rh22  1  0.999910  0.254402  0.828174  1
  Rh  Rh23  1  0.999910  0.745598  0.828174  1
