# generated using pymatgen
data_K4MgSiSe5
_symmetry_space_group_name_H-M   'P 1'
_cell_length_a   7.90061921
_cell_length_b   8.90444967
_cell_length_c   10.92882600
_cell_angle_alpha   75.37870759
_cell_angle_beta   86.39975283
_cell_angle_gamma   80.43904834
_symmetry_Int_Tables_number   1
_chemical_formula_structural   K4MgSiSe5
_chemical_formula_sum   'K8 Mg2 Si2 Se10'
_cell_volume   733.44196862
_cell_formula_units_Z   2
loop_
 _symmetry_equiv_pos_site_id
 _symmetry_equiv_pos_as_xyz
  1  'x, y, z'
loop_
 _atom_site_type_symbol
 _atom_site_label
 _atom_site_symmetry_multiplicity
 _atom_site_fract_x
 _atom_site_fract_y
 _atom_site_fract_z
 _atom_site_occupancy
  K  K0  1  0.458139  0.312057  0.107564  1
  K  K1  1  0.541861  0.687943  0.892436  1
  K  K2  1  0.170382  0.086902  0.870632  1
  K  K3  1  0.062929  0.614992  0.751900  1
  K  K4  1  0.829618  0.913098  0.129368  1
  K  K5  1  0.937071  0.385008  0.248100  1
  K  K6  1  0.553707  0.735307  0.477521  1
  K  K7  1  0.446293  0.264693  0.522479  1
  Mg  Mg8  1  0.907064  0.092467  0.595857  1
  Mg  Mg9  1  0.092936  0.907533  0.404143  1
  Si  Si10  1  0.293312  0.716591  0.203205  1
  Si  Si11  1  0.706688  0.283409  0.796795  1
  Se  Se12  1  0.845949  0.388759  0.609505  1
  Se  Se13  1  0.220283  0.953336  0.600938  1
  Se  Se14  1  0.422969  0.386028  0.790670  1
  Se  Se15  1  0.164109  0.667167  0.039824  1
  Se  Se16  1  0.835891  0.332833  0.960176  1
  Se  Se17  1  0.577031  0.613972  0.209330  1
  Se  Se18  1  0.154051  0.611241  0.390495  1
  Se  Se19  1  0.259254  0.986312  0.187487  1
  Se  Se20  1  0.740746  0.013688  0.812513  1
  Se  Se21  1  0.779717  0.046664  0.399062  1
