# generated using pymatgen
data_Dy3Lu4Th(CdNi)2
_symmetry_space_group_name_H-M   'P 1'
_cell_length_a   9.45746280
_cell_length_b   9.45746197
_cell_length_c   9.48147500
_cell_angle_alpha   59.91596959
_cell_angle_beta   59.91597250
_cell_angle_gamma   60.05313124
_symmetry_Int_Tables_number   1
_chemical_formula_structural   Dy3Lu4Th(CdNi)2
_chemical_formula_sum   'Dy6 Lu8 Th2 Cd4 Ni4'
_cell_volume   599.14373754
_cell_formula_units_Z   2
loop_
 _symmetry_equiv_pos_site_id
 _symmetry_equiv_pos_as_xyz
  1  'x, y, z'
loop_
 _atom_site_type_symbol
 _atom_site_label
 _atom_site_symmetry_multiplicity
 _atom_site_fract_x
 _atom_site_fract_y
 _atom_site_fract_z
 _atom_site_occupancy
  Dy  Dy0  1  0.187139  0.813758  0.815291  1
  Dy  Dy1  1  0.813758  0.187139  0.183811  1
  Dy  Dy2  1  0.813758  0.187139  0.815291  1
  Dy  Dy3  1  0.187139  0.813758  0.183811  1
  Dy  Dy4  1  0.813528  0.813528  0.186472  1
  Dy  Dy5  1  0.188015  0.188015  0.811985  1
  Lu  Lu6  1  0.598926  0.200613  0.600231  1
  Lu  Lu7  1  0.200613  0.598926  0.600231  1
  Lu  Lu8  1  0.064372  0.437802  0.435566  1
  Lu  Lu9  1  0.437802  0.064372  0.062261  1
  Lu  Lu10  1  0.437802  0.064372  0.435566  1
  Lu  Lu11  1  0.064372  0.437802  0.062261  1
  Lu  Lu12  1  0.435198  0.435198  0.064802  1
  Lu  Lu13  1  0.063383  0.063383  0.436617  1
  Th  Th14  1  0.593429  0.593429  0.602026  1
  Th  Th15  1  0.593429  0.593429  0.211116  1
  Cd  Cd16  1  0.833178  0.833178  0.828646  1
  Cd  Cd17  1  0.833178  0.833178  0.504997  1
  Cd  Cd18  1  0.834780  0.505934  0.829643  1
  Cd  Cd19  1  0.505934  0.834780  0.829643  1
  Ni  Ni20  1  0.391082  0.391082  0.393040  1
  Ni  Ni21  1  0.391082  0.391082  0.824796  1
  Ni  Ni22  1  0.393345  0.824760  0.390948  1
  Ni  Ni23  1  0.824760  0.393345  0.390948  1
