# generated using pymatgen
data_GeSe27
_symmetry_space_group_name_H-M   'P 1'
_cell_length_a   15.30740726
_cell_length_b   15.00786827
_cell_length_c   15.10684830
_cell_angle_alpha   116.92564024
_cell_angle_beta   120.60625786
_cell_angle_gamma   118.26078248
_symmetry_Int_Tables_number   1
_chemical_formula_structural   GeSe27
_chemical_formula_sum   'Ge1 Se27'
_cell_volume   1059.54131688
_cell_formula_units_Z   1
loop_
 _symmetry_equiv_pos_site_id
 _symmetry_equiv_pos_as_xyz
  1  'x, y, z'
loop_
 _atom_site_type_symbol
 _atom_site_label
 _atom_site_symmetry_multiplicity
 _atom_site_fract_x
 _atom_site_fract_y
 _atom_site_fract_z
 _atom_site_occupancy
  Ge  Ge0  1  0.870413  0.882928  0.877425  1
  Se  Se1  1  0.798788  0.534166  0.540838  1
  Se  Se2  1  0.584526  0.589100  0.846391  1
  Se  Se3  1  0.650051  0.897488  0.652104  1
  Se  Se4  1  0.260836  0.411429  0.643901  1
  Se  Se5  1  0.300638  0.920921  0.293313  1
  Se  Se6  1  0.331600  0.320029  0.947024  1
  Se  Se7  1  0.963229  0.340461  0.344945  1
  Se  Se8  1  0.082615  0.706752  0.220334  1
  Se  Se9  1  0.219451  0.075851  0.696242  1
  Se  Se10  1  0.730067  0.247426  0.098733  1
  Se  Se11  1  0.712257  0.080824  0.225276  1
  Se  Se12  1  0.218941  0.697066  0.073930  1
  Se  Se13  1  0.100203  0.244380  0.729738  1
  Se  Se14  1  0.390857  0.932879  0.587290  1
  Se  Se15  1  0.558914  0.352947  0.895317  1
  Se  Se16  1  0.899136  0.560046  0.359063  1
  Se  Se17  1  0.879803  0.329242  0.541419  1
  Se  Se18  1  0.579326  0.917332  0.380928  1
  Se  Se19  1  0.374660  0.573650  0.917662  1
  Se  Se20  1  0.322161  0.700494  0.475397  1
  Se  Se21  1  0.411127  0.271191  0.640910  1
  Se  Se22  1  0.613533  0.376544  0.231767  1
  Se  Se23  1  0.601653  0.217091  0.364514  1
  Se  Se24  1  0.459988  0.685384  0.317926  1
  Se  Se25  1  0.622056  0.772012  0.774282  1
  Se  Se26  1  0.942002  0.983924  0.813226  1
  Se  Se27  1  0.046465  0.903737  0.035402  1
