# generated using pymatgen
data_Pr17Tm3Si15Sb
_symmetry_space_group_name_H-M   'P 1'
_cell_length_a   7.92111550
_cell_length_b   7.88902517
_cell_length_c   15.19864000
_cell_angle_alpha   90.06065825
_cell_angle_beta   89.60367727
_cell_angle_gamma   89.94453428
_symmetry_Int_Tables_number   1
_chemical_formula_structural   Pr17Tm3Si15Sb
_chemical_formula_sum   'Pr17 Tm3 Si15 Sb1'
_cell_volume   949.73747791
_cell_formula_units_Z   1
loop_
 _symmetry_equiv_pos_site_id
 _symmetry_equiv_pos_as_xyz
  1  'x, y, z'
loop_
 _atom_site_type_symbol
 _atom_site_label
 _atom_site_symmetry_multiplicity
 _atom_site_fract_x
 _atom_site_fract_y
 _atom_site_fract_z
 _atom_site_occupancy
  Pr  Pr0  1  0.687772  0.692705  0.495844  1
  Pr  Pr1  1  0.376632  0.012093  0.447451  1
  Pr  Pr2  1  0.491911  0.871566  0.698850  1
  Pr  Pr3  1  0.511005  0.123125  0.196555  1
  Pr  Pr4  1  0.878226  0.487344  0.299896  1
  Pr  Pr5  1  0.121158  0.516513  0.807033  1
  Pr  Pr6  1  0.625430  0.986532  0.949476  1
  Pr  Pr7  1  0.001346  0.382353  0.546849  1
  Pr  Pr8  1  0.989499  0.621803  0.054080  1
  Pr  Pr9  1  0.129162  0.979940  0.880441  1
  Pr  Pr10  1  0.521200  0.628478  0.126833  1
  Pr  Pr11  1  0.487177  0.381539  0.628282  1
  Pr  Pr12  1  0.628652  0.521655  0.875774  1
  Pr  Pr13  1  0.373611  0.478814  0.370665  1
  Pr  Pr14  1  0.873785  0.021129  0.376902  1
  Pr  Pr15  1  0.980566  0.128144  0.122805  1
  Pr  Pr16  1  0.009484  0.857680  0.620006  1
  Tm  Tm17  1  0.312336  0.311753  0.000285  1
  Tm  Tm18  1  0.190263  0.812426  0.249146  1
  Tm  Tm19  1  0.798998  0.188029  0.753274  1
  Si  Si20  1  0.328396  0.689864  0.955689  1
  Si  Si21  1  0.665916  0.304393  0.453030  1
  Si  Si22  1  0.693416  0.329640  0.047013  1
  Si  Si23  1  0.305009  0.670136  0.544832  1
  Si  Si24  1  0.810490  0.830069  0.203741  1
  Si  Si25  1  0.170789  0.191081  0.294670  1
  Si  Si26  1  0.832417  0.809602  0.797436  1
  Si  Si27  1  0.287230  0.923239  0.064029  1
  Si  Si28  1  0.574201  0.791214  0.308498  1
  Si  Si29  1  0.440532  0.210377  0.820946  1
  Si  Si30  1  0.789287  0.572127  0.692338  1
  Si  Si31  1  0.213924  0.423104  0.186276  1
  Si  Si32  1  0.708240  0.080045  0.564702  1
  Si  Si33  1  0.926238  0.287828  0.937613  1
  Si  Si34  1  0.082610  0.714974  0.433399  1
  Sb  Sb35  1  0.183086  0.168687  0.695343  1
