# generated using pymatgen
data_Te8OsCl2
_symmetry_space_group_name_H-M   'P 1'
_cell_length_a   8.71414076
_cell_length_b   8.71414150
_cell_length_c   10.72660925
_cell_angle_alpha   77.71291948
_cell_angle_beta   77.71292174
_cell_angle_gamma   115.21789213
_symmetry_Int_Tables_number   1
_chemical_formula_structural   Te8OsCl2
_chemical_formula_sum   'Te16 Os2 Cl4'
_cell_volume   676.26520180
_cell_formula_units_Z   2
loop_
 _symmetry_equiv_pos_site_id
 _symmetry_equiv_pos_as_xyz
  1  'x, y, z'
loop_
 _atom_site_type_symbol
 _atom_site_label
 _atom_site_symmetry_multiplicity
 _atom_site_fract_x
 _atom_site_fract_y
 _atom_site_fract_z
 _atom_site_occupancy
  Te  Te0  1  0.785207  0.090776  0.146224  1
  Te  Te1  1  0.909224  0.214793  0.353776  1
  Te  Te2  1  0.214793  0.909224  0.853776  1
  Te  Te3  1  0.090776  0.785207  0.646224  1
  Te  Te4  1  0.980568  0.756233  0.210393  1
  Te  Te5  1  0.243767  0.019432  0.289607  1
  Te  Te6  1  0.019432  0.243767  0.789607  1
  Te  Te7  1  0.756233  0.980568  0.710393  1
  Te  Te8  1  0.748733  0.711474  0.471093  1
  Te  Te9  1  0.288526  0.251267  0.028907  1
  Te  Te10  1  0.251267  0.288526  0.528907  1
  Te  Te11  1  0.711474  0.748733  0.971093  1
  Te  Te12  1  0.510615  0.792562  0.367658  1
  Te  Te13  1  0.207438  0.489385  0.132342  1
  Te  Te14  1  0.489385  0.207438  0.632342  1
  Te  Te15  1  0.792562  0.510615  0.867658  1
  Os  Os16  1  0.000000  0.000000  0.000000  1
  Os  Os17  1  0.000000  0.000000  0.500000  1
  Cl  Cl18  1  0.591817  0.408183  0.250000  1
  Cl  Cl19  1  0.408183  0.591817  0.750000  1
  Cl  Cl20  1  0.000000  0.500000  0.500000  1
  Cl  Cl21  1  0.500000  0.000000  0.000000  1
