# generated using pymatgen
data_Zr12Zn11RhC4
_symmetry_space_group_name_H-M   'P 1'
_cell_length_a   8.69606334
_cell_length_b   8.63821901
_cell_length_c   8.63821900
_cell_angle_alpha   59.99999622
_cell_angle_beta   60.21979262
_cell_angle_gamma   60.21979528
_symmetry_Int_Tables_number   1
_chemical_formula_structural   Zr12Zn11RhC4
_chemical_formula_sum   'Zr12 Zn11 Rh1 C4'
_cell_volume   460.35297191
_cell_formula_units_Z   1
loop_
 _symmetry_equiv_pos_site_id
 _symmetry_equiv_pos_as_xyz
  1  'x, y, z'
loop_
 _atom_site_type_symbol
 _atom_site_label
 _atom_site_symmetry_multiplicity
 _atom_site_fract_x
 _atom_site_fract_y
 _atom_site_fract_z
 _atom_site_occupancy
  Zr  Zr0  1  0.439013  0.439735  0.060626  1
  Zr  Zr1  1  0.063994  0.440521  0.054964  1
  Zr  Zr2  1  0.439013  0.060626  0.060626  1
  Zr  Zr3  1  0.063994  0.054964  0.440521  1
  Zr  Zr4  1  0.439013  0.060626  0.439735  1
  Zr  Zr5  1  0.063994  0.440521  0.440521  1
  Zr  Zr6  1  0.810987  0.810265  0.189374  1
  Zr  Zr7  1  0.186006  0.809479  0.195036  1
  Zr  Zr8  1  0.810987  0.189374  0.189374  1
  Zr  Zr9  1  0.186006  0.195036  0.809479  1
  Zr  Zr10  1  0.810987  0.189374  0.810265  1
  Zr  Zr11  1  0.186006  0.809479  0.809479  1
  Zn  Zn12  1  0.832812  0.829611  0.507965  1
  Zn  Zn13  1  0.832812  0.507965  0.829611  1
  Zn  Zn14  1  0.504480  0.831840  0.831840  1
  Zn  Zn15  1  0.832812  0.829611  0.829611  1
  Zn  Zn16  1  0.417188  0.420389  0.742035  1
  Zn  Zn17  1  0.417188  0.742035  0.420389  1
  Zn  Zn18  1  0.745520  0.418160  0.418160  1
  Zn  Zn19  1  0.417188  0.420389  0.420389  1
  Zn  Zn20  1  0.625000  0.625000  0.125000  1
  Zn  Zn21  1  0.625000  0.125000  0.625000  1
  Zn  Zn22  1  0.625000  0.625000  0.625000  1
  Rh  Rh23  1  0.125000  0.625000  0.625000  1
  C  C24  1  0.125000  0.125000  0.625000  1
  C  C25  1  0.125000  0.625000  0.125000  1
  C  C26  1  0.625000  0.125000  0.125000  1
  C  C27  1  0.125000  0.125000  0.125000  1
