# generated using pymatgen
data_Lu5Sc2Co17P12
_symmetry_space_group_name_H-M   'P 1'
_cell_length_a   12.10933191
_cell_length_b   12.08351078
_cell_length_c   3.67743700
_cell_angle_alpha   90.00000000
_cell_angle_beta   90.00000000
_cell_angle_gamma   119.92947841
_symmetry_Int_Tables_number   1
_chemical_formula_structural   Lu5Sc2Co17P12
_chemical_formula_sum   'Lu5 Sc2 Co17 P12'
_cell_volume   466.33431164
_cell_formula_units_Z   1
loop_
 _symmetry_equiv_pos_site_id
 _symmetry_equiv_pos_as_xyz
  1  'x, y, z'
loop_
 _atom_site_type_symbol
 _atom_site_label
 _atom_site_symmetry_multiplicity
 _atom_site_fract_x
 _atom_site_fract_y
 _atom_site_fract_z
 _atom_site_occupancy
  Lu  Lu0  1  0.667447  0.333376  0.000000  1
  Lu  Lu1  1  0.332553  0.665930  0.000000  1
  Lu  Lu2  1  0.182275  0.182248  0.500000  1
  Lu  Lu3  1  0.817725  0.999973  0.500000  1
  Lu  Lu4  1  0.000000  0.809120  0.500000  1
  Sc  Sc5  1  0.560404  0.559678  0.000000  1
  Sc  Sc6  1  0.439596  0.999274  0.000000  1
  Co  Co7  1  0.000000  0.447872  0.000000  1
  Co  Co8  1  0.827094  0.203435  0.000000  1
  Co  Co9  1  0.808284  0.623850  0.000000  1
  Co  Co10  1  0.371778  0.179740  0.000000  1
  Co  Co11  1  0.191716  0.815566  0.000000  1
  Co  Co12  1  0.628222  0.807963  0.000000  1
  Co  Co13  1  0.172906  0.376341  0.000000  1
  Co  Co14  1  0.648845  0.128091  0.500000  1
  Co  Co15  1  0.876171  0.514509  0.500000  1
  Co  Co16  1  0.479837  0.355573  0.500000  1
  Co  Co17  1  0.123829  0.638336  0.500000  1
  Co  Co18  1  0.520163  0.875736  0.500000  1
  Co  Co19  1  0.351155  0.479246  0.500000  1
  Co  Co20  1  0.724127  0.721853  0.500000  1
  Co  Co21  1  0.275873  0.997726  0.500000  1
  Co  Co22  1  0.000000  0.284879  0.500000  1
  Co  Co23  1  0.000000  0.002521  0.000000  1
  P  P24  1  0.350602  0.356099  0.000000  1
  P  P25  1  0.649398  0.005497  0.000000  1
  P  P26  1  0.000000  0.632287  0.000000  1
  P  P27  1  0.834637  0.314866  0.500000  1
  P  P28  1  0.691816  0.517963  0.500000  1
  P  P29  1  0.479976  0.171962  0.500000  1
  P  P30  1  0.308184  0.826147  0.500000  1
  P  P31  1  0.520024  0.691986  0.500000  1
  P  P32  1  0.165363  0.480229  0.500000  1
  P  P33  1  0.823933  0.821549  0.000000  1
  P  P34  1  0.176067  0.997616  0.000000  1
  P  P35  1  0.000000  0.180968  0.000000  1
