# generated using pymatgen
data_Sc4Si6Ir4Rh3
_symmetry_space_group_name_H-M   'P 1'
_cell_length_a   6.98684427
_cell_length_b   6.98684403
_cell_length_c   6.98703800
_cell_angle_alpha   109.47178592
_cell_angle_beta   109.47178522
_cell_angle_gamma   109.47066084
_symmetry_Int_Tables_number   1
_chemical_formula_structural   Sc4Si6Ir4Rh3
_chemical_formula_sum   'Sc4 Si6 Ir4 Rh3'
_cell_volume   262.56103198
_cell_formula_units_Z   1
loop_
 _symmetry_equiv_pos_site_id
 _symmetry_equiv_pos_as_xyz
  1  'x, y, z'
loop_
 _atom_site_type_symbol
 _atom_site_label
 _atom_site_symmetry_multiplicity
 _atom_site_fract_x
 _atom_site_fract_y
 _atom_site_fract_z
 _atom_site_occupancy
  Sc  Sc0  1  0.000000  0.000000  0.500000  1
  Sc  Sc1  1  0.000356  0.500178  0.000178  1
  Sc  Sc2  1  0.499822  0.999644  0.999822  1
  Sc  Sc3  1  0.499822  0.500178  0.500000  1
  Si  Si4  1  0.681702  0.681926  0.999790  1
  Si  Si5  1  0.318074  0.999776  0.317864  1
  Si  Si6  1  0.000224  0.318298  0.318088  1
  Si  Si7  1  0.318074  0.318298  0.000210  1
  Si  Si8  1  0.681702  0.999776  0.681912  1
  Si  Si9  1  0.000224  0.681926  0.682136  1
  Ir  Ir10  1  0.249737  0.499474  0.749737  1
  Ir  Ir11  1  0.249737  0.750263  0.500000  1
  Ir  Ir12  1  0.500526  0.750263  0.250263  1
  Ir  Ir13  1  0.000000  0.000000  0.000000  1
  Rh  Rh14  1  0.749736  0.250264  0.500000  1
  Rh  Rh15  1  0.749736  0.499471  0.249736  1
  Rh  Rh16  1  0.500529  0.250264  0.750264  1
