# generated using pymatgen
data_Ca2Al16RePt8
_symmetry_space_group_name_H-M   'P 1'
_cell_length_a   11.15456873
_cell_length_b   11.15456873
_cell_length_c   11.15456900
_cell_angle_alpha   158.48023746
_cell_angle_beta   116.95067955
_cell_angle_gamma   67.44845544
_symmetry_Int_Tables_number   1
_chemical_formula_structural   Ca2Al16RePt8
_chemical_formula_sum   'Ca2 Al16 Re1 Pt8'
_cell_volume   450.72775741
_cell_formula_units_Z   1
loop_
 _symmetry_equiv_pos_site_id
 _symmetry_equiv_pos_as_xyz
  1  'x, y, z'
loop_
 _atom_site_type_symbol
 _atom_site_label
 _atom_site_symmetry_multiplicity
 _atom_site_fract_x
 _atom_site_fract_y
 _atom_site_fract_z
 _atom_site_occupancy
  Ca  Ca0  1  0.230923  0.230745  0.000178  1
  Ca  Ca1  1  0.769433  0.769255  0.000178  1
  Al  Al2  1  0.275028  0.392163  0.882865  1
  Al  Al3  1  0.087554  0.923626  0.163928  1
  Al  Al4  1  0.504042  0.200553  0.303491  1
  Al  Al5  1  0.240303  0.076374  0.163928  1
  Al  Al6  1  0.909078  0.416883  0.492195  1
  Al  Al7  1  0.724024  0.598243  0.125781  1
  Al  Al8  1  0.903516  0.209962  0.693554  1
  Al  Al9  1  0.483592  0.790038  0.693554  1
  Al  Al10  1  0.387892  0.000000  0.387892  1
  Al  Al11  1  0.630035  0.000000  0.630035  1
  Al  Al12  1  0.490701  0.607837  0.882865  1
  Al  Al13  1  0.102937  0.799447  0.303491  1
  Al  Al14  1  0.908985  0.087774  0.821211  1
  Al  Al15  1  0.733436  0.912226  0.821211  1
  Al  Al16  1  0.527539  0.401757  0.125781  1
  Al  Al17  1  0.075312  0.583117  0.492195  1
  Re  Re18  1  0.787778  0.500000  0.287778  1
  Pt  Pt19  1  0.025262  0.344188  0.681073  1
  Pt  Pt20  1  0.627244  0.123439  0.503805  1
  Pt  Pt21  1  0.252166  0.500000  0.752166  1
  Pt  Pt22  1  0.380366  0.876561  0.503805  1
  Pt  Pt23  1  0.983169  0.000000  0.983169  1
  Pt  Pt24  1  0.646090  0.334689  0.311401  1
  Pt  Pt25  1  0.336884  0.655812  0.681073  1
  Pt  Pt26  1  0.976712  0.665311  0.311401  1
