# generated using pymatgen
data_Dy2HfScPt2
_symmetry_space_group_name_H-M   'P 1'
_cell_length_a   4.67851300
_cell_length_b   6.99479700
_cell_length_c   8.31690100
_cell_angle_alpha   90.00000000
_cell_angle_beta   90.00000000
_cell_angle_gamma   90.00000000
_symmetry_Int_Tables_number   1
_chemical_formula_structural   Dy2HfScPt2
_chemical_formula_sum   'Dy4 Hf2 Sc2 Pt4'
_cell_volume   272.17265361
_cell_formula_units_Z   2
loop_
 _symmetry_equiv_pos_site_id
 _symmetry_equiv_pos_as_xyz
  1  'x, y, z'
loop_
 _atom_site_type_symbol
 _atom_site_label
 _atom_site_symmetry_multiplicity
 _atom_site_fract_x
 _atom_site_fract_y
 _atom_site_fract_z
 _atom_site_occupancy
  Dy  Dy0  1  0.250000  0.981449  0.320518  1
  Dy  Dy1  1  0.250000  0.481449  0.179482  1
  Dy  Dy2  1  0.750000  0.019496  0.674435  1
  Dy  Dy3  1  0.750000  0.519496  0.825565  1
  Hf  Hf4  1  0.750000  0.640253  0.427601  1
  Hf  Hf5  1  0.750000  0.140253  0.072399  1
  Sc  Sc6  1  0.250000  0.357103  0.577031  1
  Sc  Sc7  1  0.250000  0.857103  0.922969  1
  Pt  Pt8  1  0.250000  0.238519  0.909405  1
  Pt  Pt9  1  0.250000  0.738519  0.590595  1
  Pt  Pt10  1  0.750000  0.763180  0.104642  1
  Pt  Pt11  1  0.750000  0.263180  0.395358  1
