# generated using pymatgen
data_Sc4Zn2NiOs5
_symmetry_space_group_name_H-M   'P 1'
_cell_length_a   5.10863600
_cell_length_b   5.16309574
_cell_length_c   8.59758200
_cell_angle_alpha   90.00000000
_cell_angle_beta   90.00000000
_cell_angle_gamma   120.35327159
_symmetry_Int_Tables_number   1
_chemical_formula_structural   Sc4Zn2NiOs5
_chemical_formula_sum   'Sc4 Zn2 Ni1 Os5'
_cell_volume   195.68839098
_cell_formula_units_Z   1
loop_
 _symmetry_equiv_pos_site_id
 _symmetry_equiv_pos_as_xyz
  1  'x, y, z'
loop_
 _atom_site_type_symbol
 _atom_site_label
 _atom_site_symmetry_multiplicity
 _atom_site_fract_x
 _atom_site_fract_y
 _atom_site_fract_z
 _atom_site_occupancy
  Sc  Sc0  1  0.324536  0.662267  0.427274  1
  Sc  Sc1  1  0.651205  0.325602  0.553539  1
  Sc  Sc2  1  0.651205  0.325602  0.946461  1
  Sc  Sc3  1  0.324536  0.662267  0.072726  1
  Zn  Zn4  1  0.199611  0.357419  0.750000  1
  Zn  Zn5  1  0.199611  0.842192  0.750000  1
  Ni  Ni6  1  0.338051  0.169026  0.250000  1
  Os  Os7  1  0.831665  0.659030  0.250000  1
  Os  Os8  1  0.696277  0.848138  0.750000  1
  Os  Os9  1  0.975820  0.987910  0.999560  1
  Os  Os10  1  0.831665  0.172635  0.250000  1
  Os  Os11  1  0.975820  0.987910  0.500440  1
