# generated using pymatgen
data_SmEr(SeO3)3
_symmetry_space_group_name_H-M   'P 1'
_cell_length_a   7.16441589
_cell_length_b   8.20892041
_cell_length_c   9.12319584
_cell_angle_alpha   71.03857808
_cell_angle_beta   70.17567643
_cell_angle_gamma   66.21678520
_symmetry_Int_Tables_number   1
_chemical_formula_structural   SmEr(SeO3)3
_chemical_formula_sum   'Sm2 Er2 Se6 O18'
_cell_volume   450.72246814
_cell_formula_units_Z   2
loop_
 _symmetry_equiv_pos_site_id
 _symmetry_equiv_pos_as_xyz
  1  'x, y, z'
loop_
 _atom_site_type_symbol
 _atom_site_label
 _atom_site_symmetry_multiplicity
 _atom_site_fract_x
 _atom_site_fract_y
 _atom_site_fract_z
 _atom_site_occupancy
  Sm  Sm0  1  0.333261  0.729395  0.591303  1
  Sm  Sm1  1  0.666739  0.270605  0.408697  1
  Er  Er2  1  0.741218  0.735845  0.799937  1
  Er  Er3  1  0.258782  0.264155  0.200063  1
  Se  Se4  1  0.425940  0.780594  0.193951  1
  Se  Se5  1  0.574060  0.219406  0.806049  1
  Se  Se6  1  0.149248  0.747442  0.967620  1
  Se  Se7  1  0.850752  0.252558  0.032380  1
  Se  Se8  1  0.886824  0.756170  0.418002  1
  Se  Se9  1  0.113176  0.243830  0.581998  1
  O  O10  1  0.646559  0.793207  0.047275  1
  O  O11  1  0.353441  0.206793  0.952725  1
  O  O12  1  0.363063  0.948709  0.296961  1
  O  O13  1  0.636937  0.051291  0.703039  1
  O  O14  1  0.515002  0.599947  0.347115  1
  O  O15  1  0.484998  0.400053  0.652885  1
  O  O16  1  0.170934  0.561380  0.120921  1
  O  O17  1  0.829066  0.438620  0.879079  1
  O  O18  1  0.406066  0.710971  0.850830  1
  O  O19  1  0.593934  0.289029  0.149170  1
  O  O20  1  0.342453  0.249975  0.432910  1
  O  O21  1  0.657547  0.750025  0.567090  1
  O  O22  1  0.971403  0.292957  0.441094  1
  O  O23  1  0.028597  0.707043  0.558906  1
  O  O24  1  0.153063  0.019208  0.657989  1
  O  O25  1  0.846937  0.980792  0.342011  1
  O  O26  1  0.938599  0.303062  0.163334  1
  O  O27  1  0.061401  0.696938  0.836666  1
