# generated using pymatgen
data_Ac2DyMg3Ir2Pt
_symmetry_space_group_name_H-M   'P 1'
_cell_length_a   7.63055864
_cell_length_b   7.63055915
_cell_length_c   4.18814800
_cell_angle_alpha   90.00000000
_cell_angle_beta   90.00000000
_cell_angle_gamma   120.46004195
_symmetry_Int_Tables_number   1
_chemical_formula_structural   Ac2DyMg3Ir2Pt
_chemical_formula_sum   'Ac2 Dy1 Mg3 Ir2 Pt1'
_cell_volume   210.20031962
_cell_formula_units_Z   1
loop_
 _symmetry_equiv_pos_site_id
 _symmetry_equiv_pos_as_xyz
  1  'x, y, z'
loop_
 _atom_site_type_symbol
 _atom_site_label
 _atom_site_symmetry_multiplicity
 _atom_site_fract_x
 _atom_site_fract_y
 _atom_site_fract_z
 _atom_site_occupancy
  Ac  Ac0  1  0.420700  0.999674  0.000000  1
  Ac  Ac1  1  0.999674  0.420700  0.000000  1
  Dy  Dy2  1  0.588636  0.588636  0.000000  1
  Mg  Mg3  1  0.987324  0.758226  0.500000  1
  Mg  Mg4  1  0.250963  0.250963  0.500000  1
  Mg  Mg5  1  0.758226  0.987324  0.500000  1
  Ir  Ir6  1  0.345099  0.660084  0.500000  1
  Ir  Ir7  1  0.660084  0.345099  0.500000  1
  Pt  Pt8  1  0.989293  0.989293  0.000000  1
