# generated using pymatgen
data_Ba6TlBiPb7Au
_symmetry_space_group_name_H-M   'P 1'
_cell_length_a   9.47910717
_cell_length_b   9.45695894
_cell_length_c   9.48306161
_cell_angle_alpha   119.70107965
_cell_angle_beta   120.02422222
_cell_angle_gamma   90.29700247
_symmetry_Int_Tables_number   1
_chemical_formula_structural   Ba6TlBiPb7Au
_chemical_formula_sum   'Ba6 Tl1 Bi1 Pb7 Au1'
_cell_volume   602.03369635
_cell_formula_units_Z   1
loop_
 _symmetry_equiv_pos_site_id
 _symmetry_equiv_pos_as_xyz
  1  'x, y, z'
loop_
 _atom_site_type_symbol
 _atom_site_label
 _atom_site_symmetry_multiplicity
 _atom_site_fract_x
 _atom_site_fract_y
 _atom_site_fract_z
 _atom_site_occupancy
  Ba  Ba0  1  0.253051  0.252970  0.507824  1
  Ba  Ba1  1  0.745927  0.745785  0.489992  1
  Ba  Ba2  1  0.665308  0.163131  0.001108  1
  Ba  Ba3  1  0.337201  0.836072  0.001163  1
  Ba  Ba4  1  0.834946  0.668402  0.002096  1
  Ba  Ba5  1  0.165246  0.335196  0.000745  1
  Tl  Tl6  1  0.828803  0.046758  0.376959  1
  Bi  Bi7  1  0.001163  0.000659  0.999047  1
  Pb  Pb8  1  0.330927  0.831245  0.378573  1
  Pb  Pb9  1  0.669170  0.170792  0.624207  1
  Pb  Pb10  1  0.047057  0.547940  0.378956  1
  Pb  Pb11  1  0.549595  0.330440  0.379143  1
  Pb  Pb12  1  0.167223  0.951781  0.618952  1
  Pb  Pb13  1  0.953892  0.452282  0.622676  1
  Pb  Pb14  1  0.451281  0.668052  0.619481  1
  Au  Au15  1  0.499210  0.498494  0.999076  1
