# generated using pymatgen
data_Ba(SrPb4)3
_symmetry_space_group_name_H-M   'P 1'
_cell_length_a   12.34104414
_cell_length_b   12.34104456
_cell_length_c   12.34104435
_cell_angle_alpha   34.10693216
_cell_angle_beta   34.10693166
_cell_angle_gamma   34.10693606
_symmetry_Int_Tables_number   1
_chemical_formula_structural   Ba(SrPb4)3
_chemical_formula_sum   'Ba1 Sr3 Pb12'
_cell_volume   526.88515697
_cell_formula_units_Z   1
loop_
 _symmetry_equiv_pos_site_id
 _symmetry_equiv_pos_as_xyz
  1  'x, y, z'
loop_
 _atom_site_type_symbol
 _atom_site_label
 _atom_site_symmetry_multiplicity
 _atom_site_fract_x
 _atom_site_fract_y
 _atom_site_fract_z
 _atom_site_occupancy
  Ba  Ba0  1  0.871544  0.871544  0.871544  1
  Sr  Sr1  1  0.129390  0.129390  0.129390  1
  Sr  Sr2  1  0.710305  0.710305  0.710305  1
  Sr  Sr3  1  0.290698  0.290698  0.290698  1
  Pb  Pb4  1  0.300034  0.788084  0.788084  1
  Pb  Pb5  1  0.788084  0.788084  0.300034  1
  Pb  Pb6  1  0.847666  0.390115  0.390115  1
  Pb  Pb7  1  0.390115  0.390115  0.847666  1
  Pb  Pb8  1  0.390115  0.847666  0.390115  1
  Pb  Pb9  1  0.607825  0.152892  0.607825  1
  Pb  Pb10  1  0.152892  0.607825  0.607825  1
  Pb  Pb11  1  0.607825  0.607825  0.152892  1
  Pb  Pb12  1  0.788084  0.300034  0.788084  1
  Pb  Pb13  1  0.203683  0.718058  0.203683  1
  Pb  Pb14  1  0.203683  0.203683  0.718058  1
  Pb  Pb15  1  0.718058  0.203683  0.203683  1
