# generated using pymatgen
data_Sr5Si2SbH
_symmetry_space_group_name_H-M   'P 1'
_cell_length_a   9.70628279
_cell_length_b   9.70628276
_cell_length_c   9.70628097
_cell_angle_alpha   129.51501764
_cell_angle_beta   129.51501600
_cell_angle_gamma   74.18329036
_symmetry_Int_Tables_number   1
_chemical_formula_structural   Sr5Si2SbH
_chemical_formula_sum   'Sr10 Si4 Sb2 H2'
_cell_volume   530.61518929
_cell_formula_units_Z   2
loop_
 _symmetry_equiv_pos_site_id
 _symmetry_equiv_pos_as_xyz
  1  'x, y, z'
loop_
 _atom_site_type_symbol
 _atom_site_label
 _atom_site_symmetry_multiplicity
 _atom_site_fract_x
 _atom_site_fract_y
 _atom_site_fract_z
 _atom_site_occupancy
  Sr  Sr0  1  0.500000  0.500000  0.000000  1
  Sr  Sr1  1  0.000000  0.000000  0.000000  1
  Sr  Sr2  1  0.522911  0.022911  0.830328  1
  Sr  Sr3  1  0.192583  0.692583  0.169672  1
  Sr  Sr4  1  0.022911  0.192583  0.500000  1
  Sr  Sr5  1  0.692583  0.522911  0.500000  1
  Sr  Sr6  1  0.477089  0.977089  0.169672  1
  Sr  Sr7  1  0.807417  0.307417  0.830328  1
  Sr  Sr8  1  0.977089  0.807417  0.500000  1
  Sr  Sr9  1  0.307417  0.477089  0.500000  1
  Si  Si10  1  0.889980  0.389980  0.279960  1
  Si  Si11  1  0.110020  0.610020  0.720040  1
  Si  Si12  1  0.389980  0.110020  0.500000  1
  Si  Si13  1  0.610020  0.889980  0.500000  1
  Sb  Sb14  1  0.250000  0.250000  0.000000  1
  Sb  Sb15  1  0.750000  0.750000  0.000000  1
  H  H16  1  0.250000  0.750000  0.500000  1
  H  H17  1  0.750000  0.250000  0.500000  1
