# generated using pymatgen
data_Ta3Te6Mo
_symmetry_space_group_name_H-M   'P 1'
_cell_length_a   8.32182477
_cell_length_b   8.32182509
_cell_length_c   12.75699265
_cell_angle_alpha   54.26187556
_cell_angle_beta   54.26187419
_cell_angle_gamma   23.32287797
_symmetry_Int_Tables_number   1
_chemical_formula_structural   Ta3Te6Mo
_chemical_formula_sum   'Ta3 Te6 Mo1'
_cell_volume   280.75932405
_cell_formula_units_Z   1
loop_
 _symmetry_equiv_pos_site_id
 _symmetry_equiv_pos_as_xyz
  1  'x, y, z'
loop_
 _atom_site_type_symbol
 _atom_site_label
 _atom_site_symmetry_multiplicity
 _atom_site_fract_x
 _atom_site_fract_y
 _atom_site_fract_z
 _atom_site_occupancy
  Ta  Ta0  1  0.417784  0.417784  0.140496  1
  Ta  Ta1  1  0.773888  0.773888  0.393557  1
  Ta  Ta2  1  0.226243  0.226243  0.607154  1
  Te  Te3  1  0.572002  0.572002  0.644691  1
  Te  Te4  1  0.427134  0.427134  0.359298  1
  Te  Te5  1  0.795655  0.795655  0.715538  1
  Te  Te6  1  0.199285  0.199285  0.288868  1
  Te  Te7  1  0.910976  0.910976  0.963038  1
  Te  Te8  1  0.097019  0.097019  0.023892  1
  Mo  Mo9  1  0.580016  0.580016  0.863466  1
