# generated using pymatgen
data_Fe2P2RuW
_symmetry_space_group_name_H-M   'P 1'
_cell_length_a   3.74997200
_cell_length_b   5.83863000
_cell_length_c   6.60320900
_cell_angle_alpha   90.00000000
_cell_angle_beta   90.00000000
_cell_angle_gamma   90.00000000
_symmetry_Int_Tables_number   1
_chemical_formula_structural   Fe2P2RuW
_chemical_formula_sum   'Fe4 P4 Ru2 W2'
_cell_volume   144.57527361
_cell_formula_units_Z   2
loop_
 _symmetry_equiv_pos_site_id
 _symmetry_equiv_pos_as_xyz
  1  'x, y, z'
loop_
 _atom_site_type_symbol
 _atom_site_label
 _atom_site_symmetry_multiplicity
 _atom_site_fract_x
 _atom_site_fract_y
 _atom_site_fract_z
 _atom_site_occupancy
  Fe  Fe0  1  0.250000  0.859416  0.931066  1
  Fe  Fe1  1  0.250000  0.359416  0.568934  1
  Fe  Fe2  1  0.750000  0.142791  0.065510  1
  Fe  Fe3  1  0.750000  0.642791  0.434490  1
  P  P4  1  0.250000  0.230079  0.882598  1
  P  P5  1  0.250000  0.730079  0.617402  1
  P  P6  1  0.750000  0.770121  0.122012  1
  P  P7  1  0.750000  0.270121  0.377988  1
  Ru  Ru8  1  0.250000  0.969030  0.337556  1
  Ru  Ru9  1  0.250000  0.469030  0.162444  1
  W  W10  1  0.750000  0.028562  0.666121  1
  W  W11  1  0.750000  0.528562  0.833879  1
