# generated using pymatgen
data_Dy20Cd6TcRu
_symmetry_space_group_name_H-M   'P 1'
_cell_length_a   9.57202400
_cell_length_b   9.57202404
_cell_length_c   9.90929000
_cell_angle_alpha   90.00000000
_cell_angle_beta   90.00000000
_cell_angle_gamma   119.99999985
_symmetry_Int_Tables_number   1
_chemical_formula_structural   Dy20Cd6TcRu
_chemical_formula_sum   'Dy20 Cd6 Tc1 Ru1'
_cell_volume   786.28633936
_cell_formula_units_Z   1
loop_
 _symmetry_equiv_pos_site_id
 _symmetry_equiv_pos_as_xyz
  1  'x, y, z'
loop_
 _atom_site_type_symbol
 _atom_site_label
 _atom_site_symmetry_multiplicity
 _atom_site_fract_x
 _atom_site_fract_y
 _atom_site_fract_z
 _atom_site_occupancy
  Dy  Dy0  1  0.000000  0.000000  0.500207  1
  Dy  Dy1  1  0.000000  0.000000  0.999793  1
  Dy  Dy2  1  0.209971  0.790029  0.441057  1
  Dy  Dy3  1  0.209971  0.419942  0.441057  1
  Dy  Dy4  1  0.580058  0.790029  0.441057  1
  Dy  Dy5  1  0.789812  0.210188  0.559368  1
  Dy  Dy6  1  0.789812  0.579622  0.559368  1
  Dy  Dy7  1  0.420378  0.210188  0.559368  1
  Dy  Dy8  1  0.789812  0.210188  0.940632  1
  Dy  Dy9  1  0.789812  0.579622  0.940632  1
  Dy  Dy10  1  0.420378  0.210188  0.940632  1
  Dy  Dy11  1  0.209971  0.790029  0.058943  1
  Dy  Dy12  1  0.209971  0.419942  0.058943  1
  Dy  Dy13  1  0.580058  0.790029  0.058943  1
  Dy  Dy14  1  0.540181  0.459819  0.250000  1
  Dy  Dy15  1  0.540181  0.080363  0.250000  1
  Dy  Dy16  1  0.919637  0.459819  0.250000  1
  Dy  Dy17  1  0.458667  0.541333  0.750000  1
  Dy  Dy18  1  0.458667  0.917335  0.750000  1
  Dy  Dy19  1  0.082665  0.541333  0.750000  1
  Cd  Cd20  1  0.885351  0.114649  0.250000  1
  Cd  Cd21  1  0.885351  0.770703  0.250000  1
  Cd  Cd22  1  0.229297  0.114649  0.250000  1
  Cd  Cd23  1  0.114469  0.885531  0.750000  1
  Cd  Cd24  1  0.114469  0.228939  0.750000  1
  Cd  Cd25  1  0.771061  0.885531  0.750000  1
  Tc  Tc26  1  0.333333  0.666667  0.250000  1
  Ru  Ru27  1  0.666667  0.333333  0.750000  1
