# generated using pymatgen
data_HoTm3Pd4F28
_symmetry_space_group_name_H-M   'P 1'
_cell_length_a   5.47174002
_cell_length_b   8.74959391
_cell_length_c   11.83415306
_cell_angle_alpha   62.60776969
_cell_angle_beta   90.03229633
_cell_angle_gamma   90.00640999
_symmetry_Int_Tables_number   1
_chemical_formula_structural   HoTm3Pd4F28
_chemical_formula_sum   'Ho1 Tm3 Pd4 F28'
_cell_volume   503.04130546
_cell_formula_units_Z   1
loop_
 _symmetry_equiv_pos_site_id
 _symmetry_equiv_pos_as_xyz
  1  'x, y, z'
loop_
 _atom_site_type_symbol
 _atom_site_label
 _atom_site_symmetry_multiplicity
 _atom_site_fract_x
 _atom_site_fract_y
 _atom_site_fract_z
 _atom_site_occupancy
  Ho  Ho0  1  0.738492  0.814464  0.264523  1
  Tm  Tm1  1  0.761598  0.814590  0.764282  1
  Tm  Tm2  1  0.261671  0.185522  0.735751  1
  Tm  Tm3  1  0.238242  0.187099  0.235511  1
  Pd  Pd4  1  0.759400  0.273017  0.956385  1
  Pd  Pd5  1  0.258983  0.727355  0.544067  1
  Pd  Pd6  1  0.241130  0.727462  0.042210  1
  Pd  Pd7  1  0.740816  0.271356  0.457362  1
  F  F8  1  0.437044  0.701364  0.915005  1
  F  F9  1  0.937136  0.298166  0.584299  1
  F  F10  1  0.563389  0.298804  0.083794  1
  F  F11  1  0.064520  0.700938  0.416545  1
  F  F12  1  0.438127  0.277802  0.542720  1
  F  F13  1  0.937446  0.721883  0.957182  1
  F  F14  1  0.561487  0.720718  0.459339  1
  F  F15  1  0.062117  0.278675  0.042145  1
  F  F16  1  0.775887  0.522770  0.857589  1
  F  F17  1  0.275429  0.477367  0.642662  1
  F  F18  1  0.224239  0.477762  0.141830  1
  F  F19  1  0.724012  0.520633  0.358265  1
  F  F20  1  0.754200  0.023379  0.048693  1
  F  F21  1  0.254458  0.977199  0.450677  1
  F  F22  1  0.245974  0.977357  0.949833  1
  F  F23  1  0.745832  0.021579  0.550230  1
  F  F24  1  0.964273  0.724215  0.637189  1
  F  F25  1  0.465047  0.275932  0.862885  1
  F  F26  1  0.035084  0.275714  0.363455  1
  F  F27  1  0.535485  0.723313  0.135596  1
  F  F28  1  0.053693  0.744922  0.175791  1
  F  F29  1  0.551058  0.253869  0.323986  1
  F  F30  1  0.949272  0.254569  0.823503  1
  F  F31  1  0.448615  0.745727  0.676941  1
  F  F32  1  0.411788  0.971706  0.231897  1
  F  F33  1  0.915796  0.032610  0.267822  1
  F  F34  1  0.584122  0.029666  0.767579  1
  F  F35  1  0.084142  0.970497  0.732453  1
