# generated using pymatgen
data_Nb2Co9SnB6
_symmetry_space_group_name_H-M   'P 1'
_cell_length_a   5.66427381
_cell_length_b   5.66427375
_cell_length_c   5.66427327
_cell_angle_alpha   95.52849491
_cell_angle_beta   95.52851483
_cell_angle_gamma   95.52851246
_symmetry_Int_Tables_number   1
_chemical_formula_structural   Nb2Co9SnB6
_chemical_formula_sum   'Nb2 Co9 Sn1 B6'
_cell_volume   179.01962565
_cell_formula_units_Z   1
loop_
 _symmetry_equiv_pos_site_id
 _symmetry_equiv_pos_as_xyz
  1  'x, y, z'
loop_
 _atom_site_type_symbol
 _atom_site_label
 _atom_site_symmetry_multiplicity
 _atom_site_fract_x
 _atom_site_fract_y
 _atom_site_fract_z
 _atom_site_occupancy
  Nb  Nb0  1  0.661649  0.661649  0.661649  1
  Nb  Nb1  1  0.338351  0.338351  0.338351  1
  Co  Co2  1  0.000000  0.000000  0.500000  1
  Co  Co3  1  0.500000  0.000000  0.000000  1
  Co  Co4  1  0.000000  0.500000  0.000000  1
  Co  Co5  1  0.700965  0.204647  0.700965  1
  Co  Co6  1  0.700965  0.700965  0.204647  1
  Co  Co7  1  0.204647  0.700965  0.700965  1
  Co  Co8  1  0.299035  0.795353  0.299035  1
  Co  Co9  1  0.299035  0.299035  0.795353  1
  Co  Co10  1  0.795353  0.299035  0.299035  1
  Sn  Sn11  1  0.000000  0.000000  0.000000  1
  B  B12  1  0.612293  0.387707  0.000000  1
  B  B13  1  0.000000  0.612293  0.387707  1
  B  B14  1  0.387707  0.000000  0.612293  1
  B  B15  1  0.000000  0.387707  0.612293  1
  B  B16  1  0.612293  0.000000  0.387707  1
  B  B17  1  0.387707  0.612293  0.000000  1
