# generated using pymatgen
data_Na2PaBr6
_symmetry_space_group_name_H-M   'P 1'
_cell_length_a   12.83448944
_cell_length_b   12.83830424
_cell_length_c   6.70624709
_cell_angle_alpha   90.00270365
_cell_angle_beta   90.01492723
_cell_angle_gamma   120.01644552
_symmetry_Int_Tables_number   1
_chemical_formula_structural   Na2PaBr6
_chemical_formula_sum   'Na6 Pa3 Br18'
_cell_volume   956.80718112
_cell_formula_units_Z   3
loop_
 _symmetry_equiv_pos_site_id
 _symmetry_equiv_pos_as_xyz
  1  'x, y, z'
loop_
 _atom_site_type_symbol
 _atom_site_label
 _atom_site_symmetry_multiplicity
 _atom_site_fract_x
 _atom_site_fract_y
 _atom_site_fract_z
 _atom_site_occupancy
  Na  Na0  1  0.999990  0.338412  0.000001  1
  Na  Na1  1  0.661592  0.661584  0.000002  1
  Na  Na2  1  0.338418  0.000010  0.000008  1
  Na  Na3  1  0.999990  0.661579  0.000003  1
  Na  Na4  1  0.338416  0.338405  0.000010  1
  Na  Na5  1  0.661592  0.000009  0.000010  1
  Pa  Pa6  1  0.333334  0.666665  0.492754  1
  Pa  Pa7  1  0.666668  0.333333  0.507147  1
  Pa  Pa8  1  0.000001  0.000000  0.999998  1
  Br  Br9  1  0.437631  0.562369  0.248939  1
  Br  Br10  1  0.771276  0.228667  0.269533  1
  Br  Br11  1  0.228689  0.771310  0.730242  1
  Br  Br12  1  0.771311  0.542596  0.269556  1
  Br  Br13  1  0.210861  0.105431  0.765266  1
  Br  Br14  1  0.457385  0.228705  0.269543  1
  Br  Br15  1  0.542626  0.771315  0.730227  1
  Br  Br16  1  0.894569  0.789138  0.765268  1
  Br  Br17  1  0.562401  0.437654  0.751300  1
  Br  Br18  1  0.562369  0.124761  0.751272  1
  Br  Br19  1  0.875259  0.437620  0.751291  1
  Br  Br20  1  0.124740  0.562368  0.248942  1
  Br  Br21  1  0.437632  0.875260  0.248942  1
  Br  Br22  1  0.228685  0.457374  0.730228  1
  Br  Br23  1  0.105435  0.210871  0.234756  1
  Br  Br24  1  0.105431  0.894567  0.234741  1
  Br  Br25  1  0.789130  0.894565  0.234758  1
  Br  Br26  1  0.894569  0.105433  0.765263  1
