# generated using pymatgen
data_Nd5Tc5(P6Ir7)2
_symmetry_space_group_name_H-M   'P 1'
_cell_length_a   12.71736690
_cell_length_b   12.80338003
_cell_length_c   4.01956500
_cell_angle_alpha   90.00000000
_cell_angle_beta   90.00000000
_cell_angle_gamma   120.12961128
_symmetry_Int_Tables_number   1
_chemical_formula_structural   Nd5Tc5(P6Ir7)2
_chemical_formula_sum   'Nd5 Tc5 P12 Ir14'
_cell_volume   566.06047615
_cell_formula_units_Z   1
loop_
 _symmetry_equiv_pos_site_id
 _symmetry_equiv_pos_as_xyz
  1  'x, y, z'
loop_
 _atom_site_type_symbol
 _atom_site_label
 _atom_site_symmetry_multiplicity
 _atom_site_fract_x
 _atom_site_fract_y
 _atom_site_fract_z
 _atom_site_occupancy
  Nd  Nd0  1  0.334219  0.667892  0.500000  1
  Nd  Nd1  1  0.666691  0.333451  0.500000  1
  Nd  Nd2  1  0.999868  0.811052  0.000000  1
  Nd  Nd3  1  0.186786  0.185696  0.000000  1
  Nd  Nd4  1  0.810400  0.998230  0.000000  1
  Tc  Tc5  1  0.996746  0.449769  0.500000  1
  Tc  Tc6  1  0.548896  0.545190  0.500000  1
  Tc  Tc7  1  0.456322  0.009040  0.500000  1
  Tc  Tc8  1  0.619654  0.798021  0.500000  1
  Tc  Tc9  1  0.202502  0.822315  0.500000  1
  P  P10  1  0.006816  0.637392  0.500000  1
  P  P11  1  0.365757  0.367029  0.500000  1
  P  P12  1  0.630214  0.993189  0.500000  1
  P  P13  1  0.521415  0.694508  0.000000  1
  P  P14  1  0.307433  0.830241  0.000000  1
  P  P15  1  0.169364  0.482064  0.000000  1
  P  P16  1  0.482360  0.168823  0.000000  1
  P  P17  1  0.686645  0.517567  0.000000  1
  P  P18  1  0.832722  0.314162  0.000000  1
  P  P19  1  0.998761  0.177934  0.500000  1
  P  P20  1  0.815408  0.818065  0.500000  1
  P  P21  1  0.179566  0.994745  0.500000  1
  Ir  Ir22  1  0.509211  0.877009  0.000000  1
  Ir  Ir23  1  0.125383  0.634836  0.000000  1
  Ir  Ir24  1  0.362687  0.492522  0.000000  1
  Ir  Ir25  1  0.490012  0.360041  0.000000  1
  Ir  Ir26  1  0.868024  0.507536  0.000000  1
  Ir  Ir27  1  0.642483  0.134505  0.000000  1
  Ir  Ir28  1  0.000238  0.287021  0.000000  1
  Ir  Ir29  1  0.714167  0.709429  0.000000  1
  Ir  Ir30  1  0.288959  0.004897  0.000000  1
  Ir  Ir31  1  0.179432  0.377013  0.500000  1
  Ir  Ir32  1  0.376163  0.183464  0.500000  1
  Ir  Ir33  1  0.805236  0.621045  0.500000  1
  Ir  Ir34  1  0.819960  0.195249  0.500000  1
  Ir  Ir35  1  0.999498  0.999052  0.500000  1
