# generated using pymatgen
data_ErTmCo2(Ni4P3)2
_symmetry_space_group_name_H-M   'P 1'
_cell_length_a   3.68656000
_cell_length_b   10.29486500
_cell_length_c   11.81573200
_cell_angle_alpha   90.00000000
_cell_angle_beta   90.00000000
_cell_angle_gamma   90.00000000
_symmetry_Int_Tables_number   1
_chemical_formula_structural   ErTmCo2(Ni4P3)2
_chemical_formula_sum   'Er2 Tm2 Co4 Ni16 P12'
_cell_volume   448.43819356
_cell_formula_units_Z   2
loop_
 _symmetry_equiv_pos_site_id
 _symmetry_equiv_pos_as_xyz
  1  'x, y, z'
loop_
 _atom_site_type_symbol
 _atom_site_label
 _atom_site_symmetry_multiplicity
 _atom_site_fract_x
 _atom_site_fract_y
 _atom_site_fract_z
 _atom_site_occupancy
  Er  Er0  1  0.250000  0.581209  0.703235  1
  Er  Er1  1  0.250000  0.918791  0.203235  1
  Tm  Tm2  1  0.750000  0.418756  0.296911  1
  Tm  Tm3  1  0.750000  0.081244  0.796911  1
  Co  Co4  1  0.250000  0.467845  0.932080  1
  Co  Co5  1  0.250000  0.032155  0.432080  1
  Co  Co6  1  0.750000  0.531503  0.068420  1
  Co  Co7  1  0.750000  0.968497  0.568420  1
  Ni  Ni8  1  0.250000  0.713293  0.992302  1
  Ni  Ni9  1  0.250000  0.786707  0.492302  1
  Ni  Ni10  1  0.750000  0.286499  0.007798  1
  Ni  Ni11  1  0.750000  0.213501  0.507798  1
  Ni  Ni12  1  0.250000  0.404730  0.487222  1
  Ni  Ni13  1  0.250000  0.095270  0.987222  1
  Ni  Ni14  1  0.750000  0.595647  0.512023  1
  Ni  Ni15  1  0.750000  0.904353  0.012023  1
  Ni  Ni16  1  0.250000  0.223859  0.178629  1
  Ni  Ni17  1  0.250000  0.276141  0.678629  1
  Ni  Ni18  1  0.750000  0.775955  0.821504  1
  Ni  Ni19  1  0.750000  0.724045  0.321504  1
  Ni  Ni20  1  0.250000  0.882118  0.700286  1
  Ni  Ni21  1  0.250000  0.617882  0.200286  1
  Ni  Ni22  1  0.750000  0.118147  0.299607  1
  Ni  Ni23  1  0.750000  0.381853  0.799607  1
  P  P24  1  0.250000  0.421142  0.112857  1
  P  P25  1  0.250000  0.078858  0.612857  1
  P  P26  1  0.750000  0.578417  0.887739  1
  P  P27  1  0.750000  0.921583  0.387739  1
  P  P28  1  0.250000  0.269686  0.869622  1
  P  P29  1  0.250000  0.230314  0.369622  1
  P  P30  1  0.750000  0.729902  0.130148  1
  P  P31  1  0.750000  0.770098  0.630148  1
  P  P32  1  0.250000  0.601107  0.392536  1
  P  P33  1  0.250000  0.898893  0.892536  1
  P  P34  1  0.750000  0.398945  0.607083  1
  P  P35  1  0.750000  0.101055  0.107083  1
