# generated using pymatgen
data_RbZrAsSe4
_symmetry_space_group_name_H-M   'P 1'
_cell_length_a   6.79768600
_cell_length_b   7.78764200
_cell_length_c   16.83077600
_cell_angle_alpha   90.00000000
_cell_angle_beta   90.00000000
_cell_angle_gamma   90.00000000
_symmetry_Int_Tables_number   1
_chemical_formula_structural   RbZrAsSe4
_chemical_formula_sum   'Rb4 Zr4 As4 Se16'
_cell_volume   890.98669413
_cell_formula_units_Z   4
loop_
 _symmetry_equiv_pos_site_id
 _symmetry_equiv_pos_as_xyz
  1  'x, y, z'
loop_
 _atom_site_type_symbol
 _atom_site_label
 _atom_site_symmetry_multiplicity
 _atom_site_fract_x
 _atom_site_fract_y
 _atom_site_fract_z
 _atom_site_occupancy
  Rb  Rb0  1  0.351183  0.000000  0.000000  1
  Rb  Rb1  1  0.648817  0.500000  0.500000  1
  Rb  Rb2  1  0.029432  0.000000  0.500000  1
  Rb  Rb3  1  0.970568  0.500000  0.000000  1
  Zr  Zr4  1  0.002377  0.000000  0.247985  1
  Zr  Zr5  1  0.002377  0.000000  0.752015  1
  Zr  Zr6  1  0.997623  0.500000  0.252015  1
  Zr  Zr7  1  0.997623  0.500000  0.747985  1
  As  As8  1  0.500000  0.250000  0.250000  1
  As  As9  1  0.500000  0.750000  0.750000  1
  As  As10  1  0.500000  0.750000  0.250000  1
  As  As11  1  0.500000  0.250000  0.750000  1
  Se  Se12  1  0.830612  0.248181  0.340905  1
  Se  Se13  1  0.830612  0.751819  0.659095  1
  Se  Se14  1  0.169388  0.748181  0.159095  1
  Se  Se15  1  0.169388  0.251819  0.840905  1
  Se  Se16  1  0.169388  0.251819  0.159095  1
  Se  Se17  1  0.169388  0.748181  0.840905  1
  Se  Se18  1  0.830612  0.751819  0.340905  1
  Se  Se19  1  0.830612  0.248181  0.659095  1
  Se  Se20  1  0.672230  0.000000  0.160330  1
  Se  Se21  1  0.672230  0.000000  0.839670  1
  Se  Se22  1  0.327770  0.500000  0.339670  1
  Se  Se23  1  0.327770  0.500000  0.660330  1
  Se  Se24  1  0.331201  0.000000  0.338027  1
  Se  Se25  1  0.331201  0.000000  0.661973  1
  Se  Se26  1  0.668799  0.500000  0.161973  1
  Se  Se27  1  0.668799  0.500000  0.838027  1
