# generated using pymatgen
data_La8Sc11Si16Tc
_symmetry_space_group_name_H-M   'P 1'
_cell_length_a   7.25163800
_cell_length_b   7.62637515
_cell_length_c   14.21753200
_cell_angle_alpha   90.00000000
_cell_angle_beta   90.00000000
_cell_angle_gamma   90.10849005
_symmetry_Int_Tables_number   1
_chemical_formula_structural   La8Sc11Si16Tc
_chemical_formula_sum   'La8 Sc11 Si16 Tc1'
_cell_volume   786.28088407
_cell_formula_units_Z   1
loop_
 _symmetry_equiv_pos_site_id
 _symmetry_equiv_pos_as_xyz
  1  'x, y, z'
loop_
 _atom_site_type_symbol
 _atom_site_label
 _atom_site_symmetry_multiplicity
 _atom_site_fract_x
 _atom_site_fract_y
 _atom_site_fract_z
 _atom_site_occupancy
  La  La0  1  0.011729  0.172267  0.403529  1
  La  La1  1  0.512655  0.327709  0.404688  1
  La  La2  1  0.493467  0.676600  0.899351  1
  La  La3  1  0.493467  0.676600  0.600649  1
  La  La4  1  0.984799  0.830451  0.601148  1
  La  La5  1  0.984799  0.830451  0.898852  1
  La  La6  1  0.512655  0.327709  0.095312  1
  La  La7  1  0.011729  0.172267  0.096471  1
  Sc  Sc8  1  0.328911  0.169668  0.628040  1
  Sc  Sc9  1  0.672929  0.825630  0.376269  1
  Sc  Sc10  1  0.172717  0.675096  0.374995  1
  Sc  Sc11  1  0.825483  0.320784  0.872963  1
  Sc  Sc12  1  0.825483  0.320784  0.627037  1
  Sc  Sc13  1  0.842752  0.502594  0.250000  1
  Sc  Sc14  1  0.343473  0.997049  0.250000  1
  Sc  Sc15  1  0.328911  0.169668  0.871960  1
  Sc  Sc16  1  0.172717  0.675096  0.125005  1
  Sc  Sc17  1  0.672929  0.825630  0.123731  1
  Sc  Sc18  1  0.157898  0.494344  0.750000  1
  Si  Si19  1  0.298161  0.887690  0.750000  1
  Si  Si20  1  0.471531  0.628218  0.250000  1
  Si  Si21  1  0.022800  0.120979  0.750000  1
  Si  Si22  1  0.531982  0.364770  0.750000  1
  Si  Si23  1  0.150279  0.465097  0.540863  1
  Si  Si24  1  0.969987  0.872395  0.250000  1
  Si  Si25  1  0.709648  0.115204  0.250000  1
  Si  Si26  1  0.852623  0.536868  0.037884  1
  Si  Si27  1  0.350393  0.963090  0.037310  1
  Si  Si28  1  0.150279  0.465097  0.959137  1
  Si  Si29  1  0.647034  0.037990  0.549531  1
  Si  Si30  1  0.350393  0.963090  0.462690  1
  Si  Si31  1  0.852623  0.536868  0.462116  1
  Si  Si32  1  0.792506  0.605693  0.750000  1
  Si  Si33  1  0.210684  0.385018  0.250000  1
  Si  Si34  1  0.647034  0.037990  0.950469  1
  Tc  Tc35  1  0.642543  0.023546  0.750000  1
