# generated using pymatgen
data_RbAc(AgBi)2
_symmetry_space_group_name_H-M   'P 1'
_cell_length_a   5.00906500
_cell_length_b   5.00906478
_cell_length_c   9.41088000
_cell_angle_alpha   90.00000000
_cell_angle_beta   90.00000000
_cell_angle_gamma   120.00000804
_symmetry_Int_Tables_number   1
_chemical_formula_structural   RbAc(AgBi)2
_chemical_formula_sum   'Rb1 Ac1 Ag2 Bi2'
_cell_volume   204.49097615
_cell_formula_units_Z   1
loop_
 _symmetry_equiv_pos_site_id
 _symmetry_equiv_pos_as_xyz
  1  'x, y, z'
loop_
 _atom_site_type_symbol
 _atom_site_label
 _atom_site_symmetry_multiplicity
 _atom_site_fract_x
 _atom_site_fract_y
 _atom_site_fract_z
 _atom_site_occupancy
  Rb  Rb0  1  0.000000  0.000000  0.500000  1
  Ac  Ac1  1  0.000000  0.000000  0.000000  1
  Ag  Ag2  1  0.666667  0.333333  0.206438  1
  Ag  Ag3  1  0.333333  0.666667  0.793562  1
  Bi  Bi4  1  0.666667  0.333333  0.781282  1
  Bi  Bi5  1  0.333333  0.666667  0.218718  1
