# generated using pymatgen
data_Ca12Y8Si15Hg
_symmetry_space_group_name_H-M   'P 1'
_cell_length_a   7.49048038
_cell_length_b   7.81824049
_cell_length_c   15.28281100
_cell_angle_alpha   90.42567105
_cell_angle_beta   89.23115359
_cell_angle_gamma   90.28622910
_symmetry_Int_Tables_number   1
_chemical_formula_structural   Ca12Y8Si15Hg
_chemical_formula_sum   'Ca12 Y8 Si15 Hg1'
_cell_volume   894.88173540
_cell_formula_units_Z   1
loop_
 _symmetry_equiv_pos_site_id
 _symmetry_equiv_pos_as_xyz
  1  'x, y, z'
loop_
 _atom_site_type_symbol
 _atom_site_label
 _atom_site_symmetry_multiplicity
 _atom_site_fract_x
 _atom_site_fract_y
 _atom_site_fract_z
 _atom_site_occupancy
  Ca  Ca0  1  0.650027  0.979304  0.251074  1
  Ca  Ca1  1  0.152945  0.518177  0.250630  1
  Ca  Ca2  1  0.848448  0.484656  0.747054  1
  Ca  Ca3  1  0.347754  0.020069  0.747018  1
  Ca  Ca4  1  0.983930  0.821100  0.099752  1
  Ca  Ca5  1  0.472836  0.682887  0.404525  1
  Ca  Ca6  1  0.508389  0.317392  0.903172  1
  Ca  Ca7  1  0.026610  0.183207  0.594885  1
  Ca  Ca8  1  0.027643  0.175762  0.904165  1
  Ca  Ca9  1  0.527525  0.318067  0.595106  1
  Ca  Ca10  1  0.476305  0.677504  0.095748  1
  Ca  Ca11  1  0.972781  0.816398  0.404314  1
  Y  Y12  1  0.672932  0.831050  0.871621  1
  Y  Y13  1  0.183687  0.678290  0.619975  1
  Y  Y14  1  0.823393  0.318226  0.127213  1
  Y  Y15  1  0.317564  0.176087  0.379935  1
  Y  Y16  1  0.322873  0.178553  0.123124  1
  Y  Y17  1  0.816868  0.323070  0.380039  1
  Y  Y18  1  0.186753  0.676816  0.878910  1
  Y  Y19  1  0.684387  0.824651  0.619897  1
  Si  Si20  1  0.756011  0.604133  0.252205  1
  Si  Si21  1  0.256120  0.894090  0.251416  1
  Si  Si22  1  0.745966  0.108935  0.748171  1
  Si  Si23  1  0.242413  0.395275  0.748181  1
  Si  Si24  1  0.028751  0.114289  0.251064  1
  Si  Si25  1  0.528909  0.382228  0.253590  1
  Si  Si26  1  0.470461  0.617470  0.746478  1
  Si  Si27  1  0.972797  0.884564  0.748826  1
  Si  Si28  1  0.359622  0.965972  0.537471  1
  Si  Si29  1  0.649211  0.031440  0.034628  1
  Si  Si30  1  0.140740  0.465623  0.461671  1
  Si  Si31  1  0.152543  0.460892  0.039925  1
  Si  Si32  1  0.640862  0.034648  0.461985  1
  Si  Si33  1  0.358826  0.966278  0.964483  1
  Si  Si34  1  0.860100  0.534789  0.537858  1
  Hg  Hg35  1  0.833015  0.538103  0.963890  1
