# generated using pymatgen
data_BaBe(AlCu2)4
_symmetry_space_group_name_H-M   'P 1'
_cell_length_a   8.35593218
_cell_length_b   8.35593214
_cell_length_c   8.35593209
_cell_angle_alpha   120.07705728
_cell_angle_beta   120.07704732
_cell_angle_gamma   89.86659562
_symmetry_Int_Tables_number   1
_chemical_formula_structural   BaBe(AlCu2)4
_chemical_formula_sum   'Ba2 Be2 Al8 Cu16'
_cell_volume   412.06178206
_cell_formula_units_Z   2
loop_
 _symmetry_equiv_pos_site_id
 _symmetry_equiv_pos_as_xyz
  1  'x, y, z'
loop_
 _atom_site_type_symbol
 _atom_site_label
 _atom_site_symmetry_multiplicity
 _atom_site_fract_x
 _atom_site_fract_y
 _atom_site_fract_z
 _atom_site_occupancy
  Ba  Ba0  1  0.250000  0.250000  0.000000  1
  Ba  Ba1  1  0.750000  0.750000  0.000000  1
  Be  Be2  1  0.500000  0.000000  0.500000  1
  Be  Be3  1  0.000000  0.500000  0.500000  1
  Al  Al4  1  0.800130  0.300130  0.863442  1
  Al  Al5  1  0.563312  0.063312  0.863442  1
  Al  Al6  1  0.063312  0.199870  0.500000  1
  Al  Al7  1  0.300130  0.436688  0.500000  1
  Al  Al8  1  0.936688  0.800130  0.500000  1
  Al  Al9  1  0.436688  0.936688  0.136558  1
  Al  Al10  1  0.199870  0.699870  0.136558  1
  Al  Al11  1  0.699870  0.563312  0.500000  1
  Cu  Cu12  1  0.940749  0.213274  0.154021  1
  Cu  Cu13  1  0.213274  0.059251  0.272525  1
  Cu  Cu14  1  0.786726  0.940749  0.727475  1
  Cu  Cu15  1  0.440749  0.286726  0.727475  1
  Cu  Cu16  1  0.059251  0.786726  0.845979  1
  Cu  Cu17  1  0.785541  0.064632  0.500000  1
  Cu  Cu18  1  0.564632  0.285541  0.500000  1
  Cu  Cu19  1  0.214459  0.935368  0.500000  1
  Cu  Cu20  1  0.435368  0.714459  0.500000  1
  Cu  Cu21  1  0.935368  0.435368  0.720908  1
  Cu  Cu22  1  0.714459  0.214459  0.279092  1
  Cu  Cu23  1  0.064632  0.564632  0.279092  1
  Cu  Cu24  1  0.713274  0.440749  0.154021  1
  Cu  Cu25  1  0.559251  0.713274  0.272525  1
  Cu  Cu26  1  0.285541  0.785541  0.720908  1
  Cu  Cu27  1  0.286726  0.559251  0.845979  1
