# generated using pymatgen
data_Dy5Ge6P6Ir18Rh
_symmetry_space_group_name_H-M   'P 1'
_cell_length_a   12.97621705
_cell_length_b   12.97215970
_cell_length_c   3.98306100
_cell_angle_alpha   90.00000000
_cell_angle_beta   90.00000000
_cell_angle_gamma   120.02054935
_symmetry_Int_Tables_number   1
_chemical_formula_structural   Dy5Ge6P6Ir18Rh
_chemical_formula_sum   'Dy5 Ge6 P6 Ir18 Rh1'
_cell_volume   580.52110237
_cell_formula_units_Z   1
loop_
 _symmetry_equiv_pos_site_id
 _symmetry_equiv_pos_as_xyz
  1  'x, y, z'
loop_
 _atom_site_type_symbol
 _atom_site_label
 _atom_site_symmetry_multiplicity
 _atom_site_fract_x
 _atom_site_fract_y
 _atom_site_fract_z
 _atom_site_occupancy
  Dy  Dy0  1  0.333296  0.666499  0.500000  1
  Dy  Dy1  1  0.666896  0.333328  0.500000  1
  Dy  Dy2  1  0.001732  0.818859  0.000000  1
  Dy  Dy3  1  0.180717  0.182219  0.000000  1
  Dy  Dy4  1  0.817377  0.998083  0.000000  1
  Ge  Ge5  1  0.998636  0.637962  0.500000  1
  Ge  Ge6  1  0.360856  0.359629  0.500000  1
  Ge  Ge7  1  0.640483  0.001412  0.500000  1
  Ge  Ge8  1  0.518471  0.678159  0.000000  1
  Ge  Ge9  1  0.321841  0.840283  0.000000  1
  Ge  Ge10  1  0.159258  0.481294  0.000000  1
  P  P11  1  0.484095  0.178449  0.000000  1
  P  P12  1  0.694509  0.516041  0.000000  1
  P  P13  1  0.822697  0.306363  0.000000  1
  P  P14  1  0.994904  0.176154  0.500000  1
  P  P15  1  0.824631  0.819487  0.500000  1
  P  P16  1  0.180538  0.005146  0.500000  1
  Ir  Ir17  1  0.520962  0.870369  0.000000  1
  Ir  Ir18  1  0.129848  0.651040  0.000000  1
  Ir  Ir19  1  0.349744  0.478907  0.000000  1
  Ir  Ir20  1  0.500045  0.368590  0.000000  1
  Ir  Ir21  1  0.867969  0.500585  0.000000  1
  Ir  Ir22  1  0.631527  0.131426  0.000000  1
  Ir  Ir23  1  0.546320  0.554015  0.500000  1
  Ir  Ir24  1  0.445973  0.992346  0.500000  1
  Ir  Ir25  1  0.989711  0.269724  0.000000  1
  Ir  Ir26  1  0.729101  0.719110  0.000000  1
  Ir  Ir27  1  0.281421  0.010569  0.000000  1
  Ir  Ir28  1  0.638807  0.809006  0.500000  1
  Ir  Ir29  1  0.190813  0.830183  0.500000  1
  Ir  Ir30  1  0.170502  0.361678  0.500000  1
  Ir  Ir31  1  0.386290  0.179987  0.500000  1
  Ir  Ir32  1  0.793645  0.614419  0.500000  1
  Ir  Ir33  1  0.819470  0.205231  0.500000  1
  Ir  Ir34  1  0.000089  0.000382  0.500000  1
  Rh  Rh35  1  0.006825  0.453064  0.500000  1
