# generated using pymatgen
data_Nd20Ir7Ru2Rh3
_symmetry_space_group_name_H-M   'P 1'
_cell_length_a   11.24221842
_cell_length_b   11.24221844
_cell_length_c   6.60920379
_cell_angle_alpha   89.98562748
_cell_angle_beta   89.98562678
_cell_angle_gamma   90.00723283
_symmetry_Int_Tables_number   1
_chemical_formula_structural   Nd20Ir7Ru2Rh3
_chemical_formula_sum   'Nd20 Ir7 Ru2 Rh3'
_cell_volume   835.32052198
_cell_formula_units_Z   1
loop_
 _symmetry_equiv_pos_site_id
 _symmetry_equiv_pos_as_xyz
  1  'x, y, z'
loop_
 _atom_site_type_symbol
 _atom_site_label
 _atom_site_symmetry_multiplicity
 _atom_site_fract_x
 _atom_site_fract_y
 _atom_site_fract_z
 _atom_site_occupancy
  Nd  Nd0  1  0.089426  0.291837  0.112989  1
  Nd  Nd1  1  0.792088  0.410426  0.112778  1
  Nd  Nd2  1  0.208144  0.588332  0.112510  1
  Nd  Nd3  1  0.909315  0.707424  0.112610  1
  Nd  Nd4  1  0.411668  0.791856  0.387490  1
  Nd  Nd5  1  0.589574  0.207912  0.387222  1
  Nd  Nd6  1  0.292576  0.090685  0.387390  1
  Nd  Nd7  1  0.708163  0.910574  0.387011  1
  Nd  Nd8  1  0.410949  0.208130  0.882601  1
  Nd  Nd9  1  0.708531  0.089118  0.882449  1
  Nd  Nd10  1  0.292473  0.911168  0.881087  1
  Nd  Nd11  1  0.588997  0.791917  0.882303  1
  Nd  Nd12  1  0.088832  0.707527  0.618913  1
  Nd  Nd13  1  0.910882  0.291469  0.617551  1
  Nd  Nd14  1  0.208083  0.411003  0.617697  1
  Nd  Nd15  1  0.791870  0.589051  0.617399  1
  Nd  Nd16  1  0.999976  0.000107  0.000135  1
  Nd  Nd17  1  0.500102  0.500000  0.000484  1
  Nd  Nd18  1  0.500000  0.499898  0.499516  1
  Nd  Nd19  1  0.999893  0.000024  0.499865  1
  Ir  Ir20  1  0.346356  0.346658  0.249857  1
  Ir  Ir21  1  0.653342  0.653644  0.250143  1
  Ir  Ir22  1  0.846832  0.153168  0.250000  1
  Ir  Ir23  1  0.346234  0.653766  0.750000  1
  Ir  Ir24  1  0.153506  0.153364  0.749604  1
  Ir  Ir25  1  0.846636  0.846494  0.750396  1
  Ir  Ir26  1  0.653406  0.346594  0.750000  1
  Ru  Ru27  1  0.499499  0.999552  0.620970  1
  Ru  Ru28  1  0.000448  0.500501  0.879030  1
  Rh  Rh29  1  0.152613  0.847387  0.250000  1
  Rh  Rh30  1  0.000302  0.500717  0.379102  1
  Rh  Rh31  1  0.499283  0.999698  0.120898  1
