# generated using pymatgen
data_Er5P12PtRh18
_symmetry_space_group_name_H-M   'P 1'
_cell_length_a   12.69362500
_cell_length_b   12.69362326
_cell_length_c   3.91651900
_cell_angle_alpha   90.00000000
_cell_angle_beta   90.00000000
_cell_angle_gamma   120.00000192
_symmetry_Int_Tables_number   1
_chemical_formula_structural   Er5P12PtRh18
_chemical_formula_sum   'Er5 P12 Pt1 Rh18'
_cell_volume   546.51505464
_cell_formula_units_Z   1
loop_
 _symmetry_equiv_pos_site_id
 _symmetry_equiv_pos_as_xyz
  1  'x, y, z'
loop_
 _atom_site_type_symbol
 _atom_site_label
 _atom_site_symmetry_multiplicity
 _atom_site_fract_x
 _atom_site_fract_y
 _atom_site_fract_z
 _atom_site_occupancy
  Er  Er0  1  0.666667  0.333333  0.000000  1
  Er  Er1  1  0.333333  0.666667  0.000000  1
  Er  Er2  1  0.811642  0.811642  0.500000  1
  Er  Er3  1  0.188358  0.000000  0.500000  1
  Er  Er4  1  0.000000  0.188358  0.500000  1
  P  P5  1  0.684972  0.167822  0.500000  1
  P  P6  1  0.832178  0.517149  0.500000  1
  P  P7  1  0.482851  0.315028  0.500000  1
  P  P8  1  0.167822  0.684972  0.500000  1
  P  P9  1  0.517149  0.832178  0.500000  1
  P  P10  1  0.315028  0.482851  0.500000  1
  P  P11  1  0.637072  0.637072  0.000000  1
  P  P12  1  0.362928  0.000000  0.000000  1
  P  P13  1  0.000000  0.362928  0.000000  1
  P  P14  1  0.181035  0.181035  0.000000  1
  P  P15  1  0.818965  0.000000  0.000000  1
  P  P16  1  0.000000  0.818965  0.000000  1
  Pt  Pt17  1  0.000000  0.000000  0.000000  1
  Rh  Rh18  1  0.806184  0.180156  0.000000  1
  Rh  Rh19  1  0.819844  0.626028  0.000000  1
  Rh  Rh20  1  0.373972  0.193816  0.000000  1
  Rh  Rh21  1  0.180156  0.806184  0.000000  1
  Rh  Rh22  1  0.626028  0.819844  0.000000  1
  Rh  Rh23  1  0.193816  0.373972  0.000000  1
  Rh  Rh24  1  0.455230  0.455230  0.000000  1
  Rh  Rh25  1  0.544770  0.000000  0.000000  1
  Rh  Rh26  1  0.000000  0.544770  0.000000  1
  Rh  Rh27  1  0.283382  0.283382  0.500000  1
  Rh  Rh28  1  0.716618  0.000000  0.500000  1
  Rh  Rh29  1  0.000000  0.716618  0.500000  1
  Rh  Rh30  1  0.867574  0.357768  0.500000  1
  Rh  Rh31  1  0.642232  0.509806  0.500000  1
  Rh  Rh32  1  0.490194  0.132426  0.500000  1
  Rh  Rh33  1  0.357768  0.867574  0.500000  1
  Rh  Rh34  1  0.509806  0.642232  0.500000  1
  Rh  Rh35  1  0.132426  0.490194  0.500000  1
