# generated using pymatgen
data_Tb3Y3Ni19P13Ir
_symmetry_space_group_name_H-M   'P 1'
_cell_length_a   12.73257200
_cell_length_b   12.73257217
_cell_length_c   3.77754200
_cell_angle_alpha   90.00000000
_cell_angle_beta   90.00000000
_cell_angle_gamma   119.99999957
_symmetry_Int_Tables_number   1
_chemical_formula_structural   Tb3Y3Ni19P13Ir
_chemical_formula_sum   'Tb3 Y3 Ni19 P13 Ir1'
_cell_volume   530.36178345
_cell_formula_units_Z   1
loop_
 _symmetry_equiv_pos_site_id
 _symmetry_equiv_pos_as_xyz
  1  'x, y, z'
loop_
 _atom_site_type_symbol
 _atom_site_label
 _atom_site_symmetry_multiplicity
 _atom_site_fract_x
 _atom_site_fract_y
 _atom_site_fract_z
 _atom_site_occupancy
  Tb  Tb0  1  0.531112  0.812882  0.500000  1
  Tb  Tb1  1  0.281771  0.468888  0.500000  1
  Tb  Tb2  1  0.187118  0.718229  0.500000  1
  Y  Y3  1  0.466364  0.184955  0.000000  1
  Y  Y4  1  0.718590  0.533636  0.000000  1
  Y  Y5  1  0.815045  0.281410  0.000000  1
  Ni  Ni6  1  0.333333  0.666667  0.000000  1
  Ni  Ni7  1  0.194665  0.090384  0.000000  1
  Ni  Ni8  1  0.895719  0.805335  0.000000  1
  Ni  Ni9  1  0.909616  0.104281  0.000000  1
  Ni  Ni10  1  0.850573  0.927988  0.500000  1
  Ni  Ni11  1  0.077415  0.149427  0.500000  1
  Ni  Ni12  1  0.072012  0.922585  0.500000  1
  Ni  Ni13  1  0.437017  0.417270  0.000000  1
  Ni  Ni14  1  0.980254  0.562983  0.000000  1
  Ni  Ni15  1  0.582730  0.019746  0.000000  1
  Ni  Ni16  1  0.564525  0.589580  0.500000  1
  Ni  Ni17  1  0.025055  0.435475  0.500000  1
  Ni  Ni18  1  0.410420  0.974945  0.500000  1
  Ni  Ni19  1  0.078124  0.319767  0.000000  1
  Ni  Ni20  1  0.241642  0.921876  0.000000  1
  Ni  Ni21  1  0.680233  0.758358  0.000000  1
  Ni  Ni22  1  0.931913  0.686380  0.500000  1
  Ni  Ni23  1  0.754467  0.068087  0.500000  1
  Ni  Ni24  1  0.313620  0.245533  0.500000  1
  P  P25  1  0.233600  0.281781  0.000000  1
  P  P26  1  0.048181  0.766400  0.000000  1
  P  P27  1  0.718219  0.951819  0.000000  1
  P  P28  1  0.767882  0.722947  0.500000  1
  P  P29  1  0.955065  0.232118  0.500000  1
  P  P30  1  0.277053  0.044935  0.500000  1
  P  P31  1  0.476961  0.615539  0.000000  1
  P  P32  1  0.138578  0.523039  0.000000  1
  P  P33  1  0.384461  0.861422  0.000000  1
  P  P34  1  0.517309  0.388842  0.500000  1
  P  P35  1  0.871532  0.482691  0.500000  1
  P  P36  1  0.611158  0.128468  0.500000  1
  P  P37  1  0.000000  0.000000  0.000000  1
  Ir  Ir38  1  0.666667  0.333333  0.500000  1
