# generated using pymatgen
data_Tm2Fe3Re14C3
_symmetry_space_group_name_H-M   'P 1'
_cell_length_a   6.91820061
_cell_length_b   6.91820152
_cell_length_c   6.91820119
_cell_angle_alpha   82.36708174
_cell_angle_beta   82.36708422
_cell_angle_gamma   82.36708242
_symmetry_Int_Tables_number   1
_chemical_formula_structural   Tm2Fe3Re14C3
_chemical_formula_sum   'Tm2 Fe3 Re14 C3'
_cell_volume   323.03008808
_cell_formula_units_Z   1
loop_
 _symmetry_equiv_pos_site_id
 _symmetry_equiv_pos_as_xyz
  1  'x, y, z'
loop_
 _atom_site_type_symbol
 _atom_site_label
 _atom_site_symmetry_multiplicity
 _atom_site_fract_x
 _atom_site_fract_y
 _atom_site_fract_z
 _atom_site_occupancy
  Tm  Tm0  1  0.649556  0.649556  0.649556  1
  Tm  Tm1  1  0.350444  0.350444  0.350444  1
  Fe  Fe2  1  0.000000  0.000000  0.500000  1
  Fe  Fe3  1  0.500000  0.000000  0.000000  1
  Fe  Fe4  1  0.000000  0.500000  0.000000  1
  Re  Re5  1  0.722278  0.277722  0.000000  1
  Re  Re6  1  0.000000  0.722278  0.277722  1
  Re  Re7  1  0.277722  0.000000  0.722278  1
  Re  Re8  1  0.000000  0.277722  0.722278  1
  Re  Re9  1  0.722278  0.000000  0.277722  1
  Re  Re10  1  0.277722  0.722278  0.000000  1
  Re  Re11  1  0.347045  0.347045  0.859762  1
  Re  Re12  1  0.859762  0.347045  0.347045  1
  Re  Re13  1  0.347045  0.859762  0.347045  1
  Re  Re14  1  0.652955  0.652955  0.140238  1
  Re  Re15  1  0.140238  0.652955  0.652955  1
  Re  Re16  1  0.652955  0.140238  0.652955  1
  Re  Re17  1  0.897510  0.897510  0.897510  1
  Re  Re18  1  0.102490  0.102490  0.102490  1
  C  C19  1  0.500000  0.500000  0.000000  1
  C  C20  1  0.000000  0.500000  0.500000  1
  C  C21  1  0.500000  0.000000  0.500000  1
