# generated using pymatgen
data_Er5Fe(Co3P2)6
_symmetry_space_group_name_H-M   'P 1'
_cell_length_a   11.94162819
_cell_length_b   11.94162737
_cell_length_c   3.65443300
_cell_angle_alpha   90.00000000
_cell_angle_beta   90.00000000
_cell_angle_gamma   119.88327721
_symmetry_Int_Tables_number   1
_chemical_formula_structural   Er5Fe(Co3P2)6
_chemical_formula_sum   'Er5 Fe1 Co18 P12'
_cell_volume   451.84273308
_cell_formula_units_Z   1
loop_
 _symmetry_equiv_pos_site_id
 _symmetry_equiv_pos_as_xyz
  1  'x, y, z'
loop_
 _atom_site_type_symbol
 _atom_site_label
 _atom_site_symmetry_multiplicity
 _atom_site_fract_x
 _atom_site_fract_y
 _atom_site_fract_z
 _atom_site_occupancy
  Er  Er0  1  0.666074  0.334076  0.000000  1
  Er  Er1  1  0.334076  0.666074  0.000000  1
  Er  Er2  1  0.187960  0.187960  0.500000  1
  Er  Er3  1  0.812484  0.999653  0.500000  1
  Er  Er4  1  0.999653  0.812484  0.500000  1
  Fe  Fe5  1  0.554412  0.554412  0.000000  1
  Co  Co6  1  0.447035  0.999311  0.000000  1
  Co  Co7  1  0.999311  0.447035  0.000000  1
  Co  Co8  1  0.821419  0.199596  0.000000  1
  Co  Co9  1  0.801466  0.623000  0.000000  1
  Co  Co10  1  0.377293  0.177516  0.000000  1
  Co  Co11  1  0.199596  0.821419  0.000000  1
  Co  Co12  1  0.623000  0.801466  0.000000  1
  Co  Co13  1  0.177516  0.377293  0.000000  1
  Co  Co14  1  0.641197  0.124950  0.500000  1
  Co  Co15  1  0.873675  0.515624  0.500000  1
  Co  Co16  1  0.483512  0.357604  0.500000  1
  Co  Co17  1  0.124950  0.641197  0.500000  1
  Co  Co18  1  0.515624  0.873675  0.500000  1
  Co  Co19  1  0.357604  0.483512  0.500000  1
  Co  Co20  1  0.717048  0.717048  0.500000  1
  Co  Co21  1  0.284892  0.999454  0.500000  1
  Co  Co22  1  0.999454  0.284892  0.500000  1
  Co  Co23  1  0.000935  0.000935  0.000000  1
  P  P24  1  0.369053  0.369053  0.000000  1
  P  P25  1  0.632493  0.999728  0.000000  1
  P  P26  1  0.999728  0.632493  0.000000  1
  P  P27  1  0.832851  0.314037  0.500000  1
  P  P28  1  0.684561  0.520114  0.500000  1
  P  P29  1  0.480219  0.166087  0.500000  1
  P  P30  1  0.314037  0.832851  0.500000  1
  P  P31  1  0.520114  0.684561  0.500000  1
  P  P32  1  0.166087  0.480219  0.500000  1
  P  P33  1  0.820604  0.820604  0.000000  1
  P  P34  1  0.180308  0.999762  0.000000  1
  P  P35  1  0.999762  0.180308  0.000000  1
