# generated using pymatgen
data_TaTi4(NbAs2)3
_symmetry_space_group_name_H-M   'P 1'
_cell_length_a   7.43403718
_cell_length_b   7.43403732
_cell_length_c   19.07504300
_cell_angle_alpha   90.00000000
_cell_angle_beta   90.00000000
_cell_angle_gamma   152.69620576
_symmetry_Int_Tables_number   1
_chemical_formula_structural   TaTi4(NbAs2)3
_chemical_formula_sum   'Ta2 Ti8 Nb6 As12'
_cell_volume   483.56146476
_cell_formula_units_Z   2
loop_
 _symmetry_equiv_pos_site_id
 _symmetry_equiv_pos_as_xyz
  1  'x, y, z'
loop_
 _atom_site_type_symbol
 _atom_site_label
 _atom_site_symmetry_multiplicity
 _atom_site_fract_x
 _atom_site_fract_y
 _atom_site_fract_z
 _atom_site_occupancy
  Ta  Ta0  1  0.000000  0.000000  0.000000  1
  Ta  Ta1  1  0.000000  0.000000  0.500000  1
  Ti  Ti2  1  0.734818  0.265182  0.160014  1
  Ti  Ti3  1  0.265182  0.734818  0.839986  1
  Ti  Ti4  1  0.265182  0.734818  0.660014  1
  Ti  Ti5  1  0.734818  0.265182  0.339986  1
  Ti  Ti6  1  0.533289  0.466711  0.120416  1
  Ti  Ti7  1  0.466711  0.533289  0.879584  1
  Ti  Ti8  1  0.466711  0.533289  0.620416  1
  Ti  Ti9  1  0.533289  0.466711  0.379584  1
  Nb  Nb10  1  0.667871  0.332129  0.973797  1
  Nb  Nb11  1  0.332129  0.667871  0.026203  1
  Nb  Nb12  1  0.332129  0.667871  0.473797  1
  Nb  Nb13  1  0.667871  0.332129  0.526203  1
  Nb  Nb14  1  0.059065  0.940935  0.750000  1
  Nb  Nb15  1  0.940935  0.059065  0.250000  1
  As  As16  1  0.901169  0.098831  0.118145  1
  As  As17  1  0.098831  0.901169  0.881855  1
  As  As18  1  0.098831  0.901169  0.618145  1
  As  As19  1  0.901169  0.098831  0.381855  1
  As  As20  1  0.843419  0.156581  0.920025  1
  As  As21  1  0.156581  0.843419  0.079975  1
  As  As22  1  0.156581  0.843419  0.420025  1
  As  As23  1  0.843419  0.156581  0.579975  1
  As  As24  1  0.701813  0.298187  0.750000  1
  As  As25  1  0.298187  0.701813  0.250000  1
  As  As26  1  0.416074  0.583926  0.750000  1
  As  As27  1  0.583926  0.416074  0.250000  1
