# generated using pymatgen
data_HoSc7Ti12(Si3Ge)4
_symmetry_space_group_name_H-M   'P 1'
_cell_length_a   6.92941883
_cell_length_b   6.93405959
_cell_length_c   12.67819605
_cell_angle_alpha   89.90521487
_cell_angle_beta   90.02158822
_cell_angle_gamma   90.02672264
_symmetry_Int_Tables_number   1
_chemical_formula_structural   HoSc7Ti12(Si3Ge)4
_chemical_formula_sum   'Ho1 Sc7 Ti12 Si12 Ge4'
_cell_volume   609.17373813
_cell_formula_units_Z   1
loop_
 _symmetry_equiv_pos_site_id
 _symmetry_equiv_pos_as_xyz
  1  'x, y, z'
loop_
 _atom_site_type_symbol
 _atom_site_label
 _atom_site_symmetry_multiplicity
 _atom_site_fract_x
 _atom_site_fract_y
 _atom_site_fract_z
 _atom_site_occupancy
  Ho  Ho0  1  0.995732  0.660460  0.033079  1
  Sc  Sc1  1  0.341384  0.998215  0.466624  1
  Sc  Sc2  1  0.502109  0.841044  0.715475  1
  Sc  Sc3  1  0.495965  0.156338  0.219024  1
  Sc  Sc4  1  0.845661  0.504058  0.284047  1
  Sc  Sc5  1  0.156848  0.498947  0.781335  1
  Sc  Sc6  1  0.658419  0.000203  0.966010  1
  Sc  Sc7  1  0.999498  0.344729  0.531966  1
  Ti  Ti8  1  0.324483  0.322374  0.999972  1
  Ti  Ti9  1  0.173647  0.828002  0.251269  1
  Ti  Ti10  1  0.823552  0.173123  0.749399  1
  Ti  Ti11  1  0.673092  0.676330  0.500551  1
  Ti  Ti12  1  0.151371  0.006571  0.874691  1
  Ti  Ti13  1  0.491432  0.653150  0.128030  1
  Ti  Ti14  1  0.508948  0.351545  0.626034  1
  Ti  Ti15  1  0.654312  0.487393  0.871684  1
  Ti  Ti16  1  0.347314  0.510034  0.375271  1
  Ti  Ti17  1  0.851602  0.991999  0.377178  1
  Ti  Ti18  1  0.009726  0.150275  0.125285  1
  Ti  Ti19  1  0.990696  0.847593  0.623396  1
  Si  Si20  1  0.295547  0.635898  0.570732  1
  Si  Si21  1  0.791368  0.870062  0.183451  1
  Si  Si22  1  0.135514  0.204707  0.321675  1
  Si  Si23  1  0.863577  0.796835  0.817716  1
  Si  Si24  1  0.299236  0.957614  0.066541  1
  Si  Si25  1  0.546033  0.797163  0.316482  1
  Si  Si26  1  0.455832  0.201901  0.816024  1
  Si  Si27  1  0.797129  0.546171  0.684089  1
  Si  Si28  1  0.206793  0.451154  0.187252  1
  Si  Si29  1  0.703132  0.044920  0.566153  1
  Si  Si30  1  0.955787  0.290567  0.932384  1
  Si  Si31  1  0.047072  0.704358  0.435857  1
  Ge  Ge32  1  0.203267  0.134985  0.675684  1
  Ge  Ge33  1  0.369990  0.702645  0.925560  1
  Ge  Ge34  1  0.635327  0.297792  0.426639  1
  Ge  Ge35  1  0.698602  0.360840  0.073442  1
