# generated using pymatgen
data_Sc2SbIrO8
_symmetry_space_group_name_H-M   'P 1'
_cell_length_a   4.78381462
_cell_length_b   5.74329131
_cell_length_c   5.74329131
_cell_angle_alpha   66.95277290
_cell_angle_beta   91.68988531
_cell_angle_gamma   91.68988483
_symmetry_Int_Tables_number   1
_chemical_formula_structural   Sc2SbIrO8
_chemical_formula_sum   'Sc2 Sb1 Ir1 O8'
_cell_volume   145.11035201
_cell_formula_units_Z   1
loop_
 _symmetry_equiv_pos_site_id
 _symmetry_equiv_pos_as_xyz
  1  'x, y, z'
loop_
 _atom_site_type_symbol
 _atom_site_label
 _atom_site_symmetry_multiplicity
 _atom_site_fract_x
 _atom_site_fract_y
 _atom_site_fract_z
 _atom_site_occupancy
  Sc  Sc0  1  0.500000  0.499998  0.000000  1
  Sc  Sc1  1  0.500000  0.999998  0.500002  1
  Sb  Sb2  1  0.000000  0.500001  0.500000  1
  Ir  Ir3  1  0.000000  0.000001  0.000000  1
  O  O4  1  0.288470  0.146249  0.146252  1
  O  O5  1  0.302377  0.648755  0.648751  1
  O  O6  1  0.697622  0.351246  0.351248  1
  O  O7  1  0.711530  0.853752  0.853749  1
  O  O8  1  0.814980  0.845771  0.339481  1
  O  O9  1  0.814979  0.339482  0.845770  1
  O  O10  1  0.185020  0.154230  0.660518  1
  O  O11  1  0.185021  0.660519  0.154229  1
