# generated using pymatgen
data_Lu5Mg(Be2Rh5)2
_symmetry_space_group_name_H-M   'P 1'
_cell_length_a   9.65360900
_cell_length_b   9.65360900
_cell_length_c   3.29712400
_cell_angle_alpha   90.00000000
_cell_angle_beta   90.00000000
_cell_angle_gamma   90.00000000
_symmetry_Int_Tables_number   1
_chemical_formula_structural   Lu5Mg(Be2Rh5)2
_chemical_formula_sum   'Lu5 Mg1 Be4 Rh10'
_cell_volume   307.26612952
_cell_formula_units_Z   1
loop_
 _symmetry_equiv_pos_site_id
 _symmetry_equiv_pos_as_xyz
  1  'x, y, z'
loop_
 _atom_site_type_symbol
 _atom_site_label
 _atom_site_symmetry_multiplicity
 _atom_site_fract_x
 _atom_site_fract_y
 _atom_site_fract_z
 _atom_site_occupancy
  Lu  Lu0  1  0.672475  0.178709  0.000000  1
  Lu  Lu1  1  0.327525  0.821291  0.000000  1
  Lu  Lu2  1  0.178709  0.327525  0.000000  1
  Lu  Lu3  1  0.821291  0.672475  0.000000  1
  Lu  Lu4  1  0.000000  0.000000  0.000000  1
  Mg  Mg5  1  0.500000  0.500000  0.000000  1
  Be  Be6  1  0.123921  0.619182  0.000000  1
  Be  Be7  1  0.876079  0.380818  0.000000  1
  Be  Be8  1  0.619182  0.876079  0.000000  1
  Be  Be9  1  0.380818  0.123921  0.000000  1
  Rh  Rh10  1  0.500000  0.000000  0.500000  1
  Rh  Rh11  1  0.000000  0.500000  0.500000  1
  Rh  Rh12  1  0.220980  0.071053  0.500000  1
  Rh  Rh13  1  0.779020  0.928947  0.500000  1
  Rh  Rh14  1  0.071053  0.779020  0.500000  1
  Rh  Rh15  1  0.716123  0.431460  0.500000  1
  Rh  Rh16  1  0.928947  0.220980  0.500000  1
  Rh  Rh17  1  0.283877  0.568540  0.500000  1
  Rh  Rh18  1  0.568540  0.716123  0.500000  1
  Rh  Rh19  1  0.431460  0.283877  0.500000  1
