# generated using pymatgen
data_Th3As4Pd3
_symmetry_space_group_name_H-M   'P 1'
_cell_length_a   8.27986001
_cell_length_b   8.27986019
_cell_length_c   8.27986000
_cell_angle_alpha   109.47121772
_cell_angle_beta   109.47121816
_cell_angle_gamma   109.47121921
_symmetry_Int_Tables_number   1
_chemical_formula_structural   Th3As4Pd3
_chemical_formula_sum   'Th6 As8 Pd6'
_cell_volume   436.96548767
_cell_formula_units_Z   2
loop_
 _symmetry_equiv_pos_site_id
 _symmetry_equiv_pos_as_xyz
  1  'x, y, z'
loop_
 _atom_site_type_symbol
 _atom_site_label
 _atom_site_symmetry_multiplicity
 _atom_site_fract_x
 _atom_site_fract_y
 _atom_site_fract_z
 _atom_site_occupancy
  Th  Th0  1  0.875000  0.250000  0.125000  1
  Th  Th1  1  0.625000  0.750000  0.375000  1
  Th  Th2  1  0.250000  0.125000  0.875000  1
  Th  Th3  1  0.750000  0.375000  0.625000  1
  Th  Th4  1  0.125000  0.875000  0.250000  1
  Th  Th5  1  0.375000  0.625000  0.750000  1
  As  As6  1  0.667763  0.500000  0.000000  1
  As  As7  1  0.500000  0.000000  0.667763  1
  As  As8  1  0.000000  0.667763  0.500000  1
  As  As9  1  0.832237  0.832237  0.832237  1
  As  As10  1  0.500000  0.000000  0.167763  1
  As  As11  1  0.167763  0.500000  0.000000  1
  As  As12  1  0.000000  0.167763  0.500000  1
  As  As13  1  0.332237  0.332237  0.332237  1
  Pd  Pd14  1  0.375000  0.250000  0.625000  1
  Pd  Pd15  1  0.125000  0.750000  0.875000  1
  Pd  Pd16  1  0.250000  0.625000  0.375000  1
  Pd  Pd17  1  0.750000  0.875000  0.125000  1
  Pd  Pd18  1  0.625000  0.375000  0.250000  1
  Pd  Pd19  1  0.875000  0.125000  0.750000  1
