# generated using pymatgen
data_Li4Nd3Ho(Si2Pb)2
_symmetry_space_group_name_H-M   'P 1'
_cell_length_a   9.78610735
_cell_length_b   9.78610718
_cell_length_c   6.90765100
_cell_angle_alpha   90.00000000
_cell_angle_beta   90.00000000
_cell_angle_gamma   153.57227754
_symmetry_Int_Tables_number   1
_chemical_formula_structural   Li4Nd3Ho(Si2Pb)2
_chemical_formula_sum   'Li4 Nd3 Ho1 Si4 Pb2'
_cell_volume   294.42670840
_cell_formula_units_Z   1
loop_
 _symmetry_equiv_pos_site_id
 _symmetry_equiv_pos_as_xyz
  1  'x, y, z'
loop_
 _atom_site_type_symbol
 _atom_site_label
 _atom_site_symmetry_multiplicity
 _atom_site_fract_x
 _atom_site_fract_y
 _atom_site_fract_z
 _atom_site_occupancy
  Li  Li0  1  0.182956  0.817044  0.054533  1
  Li  Li1  1  0.182956  0.817044  0.445467  1
  Li  Li2  1  0.817585  0.182415  0.947148  1
  Li  Li3  1  0.817585  0.182415  0.552852  1
  Nd  Nd4  1  0.647988  0.352012  0.750000  1
  Nd  Nd5  1  0.547471  0.452529  0.250000  1
  Nd  Nd6  1  0.451266  0.548734  0.750000  1
  Ho  Ho7  1  0.353471  0.646529  0.250000  1
  Si  Si8  1  0.056060  0.943940  0.925071  1
  Si  Si9  1  0.942500  0.057500  0.076276  1
  Si  Si10  1  0.942500  0.057500  0.423724  1
  Si  Si11  1  0.056060  0.943940  0.574929  1
  Pb  Pb12  1  0.720850  0.279150  0.250000  1
  Pb  Pb13  1  0.280751  0.719249  0.750000  1
