# generated using pymatgen
data_TbYbIr3W
_symmetry_space_group_name_H-M   'P 1'
_cell_length_a   5.63076667
_cell_length_b   5.63076725
_cell_length_c   5.18782780
_cell_angle_alpha   57.13302138
_cell_angle_beta   57.13301321
_cell_angle_gamma   59.99998268
_symmetry_Int_Tables_number   1
_chemical_formula_structural   TbYbIr3W
_chemical_formula_sum   'Tb1 Yb1 Ir3 W1'
_cell_volume   111.00910482
_cell_formula_units_Z   1
loop_
 _symmetry_equiv_pos_site_id
 _symmetry_equiv_pos_as_xyz
  1  'x, y, z'
loop_
 _atom_site_type_symbol
 _atom_site_label
 _atom_site_symmetry_multiplicity
 _atom_site_fract_x
 _atom_site_fract_y
 _atom_site_fract_z
 _atom_site_occupancy
  Tb  Tb0  1  0.500520  0.500520  0.498441  1
  Yb  Yb1  1  0.750348  0.750348  0.748954  1
  Ir  Ir2  1  0.625697  0.124159  0.125986  1
  Ir  Ir3  1  0.124159  0.124159  0.125986  1
  Ir  Ir4  1  0.124159  0.625697  0.125986  1
  W  W5  1  0.125117  0.125117  0.624649  1
