# generated using pymatgen
data_Gd3Ho(MnC2)2
_symmetry_space_group_name_H-M   'P 1'
_cell_length_a   5.08823200
_cell_length_b   6.35605500
_cell_length_c   9.73329700
_cell_angle_alpha   90.00000000
_cell_angle_beta   90.00000000
_cell_angle_gamma   90.00000000
_symmetry_Int_Tables_number   1
_chemical_formula_structural   Gd3Ho(MnC2)2
_chemical_formula_sum   'Gd6 Ho2 Mn4 C8'
_cell_volume   314.78536074
_cell_formula_units_Z   2
loop_
 _symmetry_equiv_pos_site_id
 _symmetry_equiv_pos_as_xyz
  1  'x, y, z'
loop_
 _atom_site_type_symbol
 _atom_site_label
 _atom_site_symmetry_multiplicity
 _atom_site_fract_x
 _atom_site_fract_y
 _atom_site_fract_z
 _atom_site_occupancy
  Gd  Gd0  1  0.250000  0.476808  0.786995  1
  Gd  Gd1  1  0.750000  0.023192  0.286995  1
  Gd  Gd2  1  0.250000  0.977744  0.712642  1
  Gd  Gd3  1  0.750000  0.522256  0.212642  1
  Gd  Gd4  1  0.250000  0.815484  0.053780  1
  Gd  Gd5  1  0.750000  0.684516  0.553780  1
  Ho  Ho6  1  0.250000  0.317767  0.444160  1
  Ho  Ho7  1  0.750000  0.182233  0.944160  1
  Mn  Mn8  1  0.250000  0.271090  0.144243  1
  Mn  Mn9  1  0.750000  0.228910  0.644243  1
  Mn  Mn10  1  0.250000  0.770623  0.356254  1
  Mn  Mn11  1  0.750000  0.729377  0.856254  1
  C  C12  1  0.250000  0.192658  0.966786  1
  C  C13  1  0.750000  0.809862  0.033166  1
  C  C14  1  0.250000  0.690138  0.533166  1
  C  C15  1  0.750000  0.307342  0.466786  1
  C  C16  1  0.250000  0.036346  0.260357  1
  C  C17  1  0.750000  0.463654  0.760357  1
  C  C18  1  0.250000  0.535410  0.241617  1
  C  C19  1  0.750000  0.964590  0.741617  1
