# generated using pymatgen
data_Dy2Si2Tc
_symmetry_space_group_name_H-M   'P 1'
_cell_length_a   5.82382759
_cell_length_b   5.82382748
_cell_length_c   10.11445877
_cell_angle_alpha   63.38605731
_cell_angle_beta   63.38605812
_cell_angle_gamma   42.20702589
_symmetry_Int_Tables_number   1
_chemical_formula_structural   Dy2Si2Tc
_chemical_formula_sum   'Dy4 Si4 Tc2'
_cell_volume   202.15771957
_cell_formula_units_Z   2
loop_
 _symmetry_equiv_pos_site_id
 _symmetry_equiv_pos_as_xyz
  1  'x, y, z'
loop_
 _atom_site_type_symbol
 _atom_site_label
 _atom_site_symmetry_multiplicity
 _atom_site_fract_x
 _atom_site_fract_y
 _atom_site_fract_z
 _atom_site_occupancy
  Dy  Dy0  1  0.812558  0.812558  0.108576  1
  Dy  Dy1  1  0.187442  0.187442  0.891424  1
  Dy  Dy2  1  0.004791  0.004791  0.323141  1
  Dy  Dy3  1  0.995209  0.995209  0.676859  1
  Si  Si4  1  0.500874  0.500874  0.122300  1
  Si  Si5  1  0.499126  0.499126  0.877700  1
  Si  Si6  1  0.644114  0.644114  0.438684  1
  Si  Si7  1  0.355886  0.355886  0.561316  1
  Tc  Tc8  1  0.272975  0.272975  0.370598  1
  Tc  Tc9  1  0.727025  0.727025  0.629402  1
