# generated using pymatgen
data_Nd2Sc2Al17SiIr6
_symmetry_space_group_name_H-M   'P 1'
_cell_length_a   7.53788418
_cell_length_b   7.53787640
_cell_length_c   9.41962300
_cell_angle_alpha   90.00000000
_cell_angle_beta   90.00000000
_cell_angle_gamma   119.50219354
_symmetry_Int_Tables_number   1
_chemical_formula_structural   Nd2Sc2Al17SiIr6
_chemical_formula_sum   'Nd2 Sc2 Al17 Si1 Ir6'
_cell_volume   465.82132025
_cell_formula_units_Z   1
loop_
 _symmetry_equiv_pos_site_id
 _symmetry_equiv_pos_as_xyz
  1  'x, y, z'
loop_
 _atom_site_type_symbol
 _atom_site_label
 _atom_site_symmetry_multiplicity
 _atom_site_fract_x
 _atom_site_fract_y
 _atom_site_fract_z
 _atom_site_occupancy
  Nd  Nd0  1  0.004145  0.330629  0.750000  1
  Nd  Nd1  1  0.330629  0.004144  0.750000  1
  Sc  Sc2  1  0.994681  0.678521  0.250000  1
  Sc  Sc3  1  0.678521  0.994681  0.250000  1
  Al  Al4  1  0.870581  0.870581  0.750000  1
  Al  Al5  1  0.996861  0.337397  0.085517  1
  Al  Al6  1  0.995714  0.665514  0.934376  1
  Al  Al7  1  0.995714  0.665514  0.565624  1
  Al  Al8  1  0.337396  0.996861  0.414483  1
  Al  Al9  1  0.996861  0.337397  0.414483  1
  Al  Al10  1  0.665515  0.995715  0.565624  1
  Al  Al11  1  0.665515  0.995715  0.934376  1
  Al  Al12  1  0.337396  0.996861  0.085517  1
  Al  Al13  1  0.333722  0.333722  0.545948  1
  Al  Al14  1  0.666091  0.666091  0.436648  1
  Al  Al15  1  0.666091  0.666091  0.063352  1
  Al  Al16  1  0.333722  0.333722  0.954052  1
  Al  Al17  1  0.338077  0.556156  0.250000  1
  Al  Al18  1  0.662231  0.456333  0.750000  1
  Al  Al19  1  0.556157  0.338078  0.250000  1
  Al  Al20  1  0.456334  0.662231  0.750000  1
  Si  Si21  1  0.127856  0.127856  0.250000  1
  Ir  Ir22  1  0.669650  0.326763  0.002965  1
  Ir  Ir23  1  0.326763  0.669649  0.002964  1
  Ir  Ir24  1  0.326763  0.669649  0.497036  1
  Ir  Ir25  1  0.669650  0.326763  0.497035  1
  Ir  Ir26  1  0.998679  0.998679  0.011767  1
  Ir  Ir27  1  0.998679  0.998679  0.488233  1
