# generated using pymatgen
data_Er4AlMoRu6
_symmetry_space_group_name_H-M   'P 1'
_cell_length_a   5.43420520
_cell_length_b   5.29024801
_cell_length_c   8.92712900
_cell_angle_alpha   90.00000000
_cell_angle_beta   90.00000000
_cell_angle_gamma   122.37169898
_symmetry_Int_Tables_number   1
_chemical_formula_structural   Er4AlMoRu6
_chemical_formula_sum   'Er4 Al1 Mo1 Ru6'
_cell_volume   216.75598278
_cell_formula_units_Z   1
loop_
 _symmetry_equiv_pos_site_id
 _symmetry_equiv_pos_as_xyz
  1  'x, y, z'
loop_
 _atom_site_type_symbol
 _atom_site_label
 _atom_site_symmetry_multiplicity
 _atom_site_fract_x
 _atom_site_fract_y
 _atom_site_fract_z
 _atom_site_occupancy
  Er  Er0  1  0.335835  0.664621  0.436266  1
  Er  Er1  1  0.670405  0.343461  0.564469  1
  Er  Er2  1  0.670405  0.343461  0.935531  1
  Er  Er3  1  0.335835  0.664621  0.063734  1
  Al  Al4  1  0.332658  0.163550  0.250000  1
  Mo  Mo5  1  0.168690  0.331168  0.750000  1
  Ru  Ru6  1  0.171791  0.824012  0.750000  1
  Ru  Ru7  1  0.830732  0.650514  0.250000  1
  Ru  Ru8  1  0.655943  0.826179  0.750000  1
  Ru  Ru9  1  0.999527  0.009179  0.001405  1
  Ru  Ru10  1  0.828651  0.170056  0.250000  1
  Ru  Ru11  1  0.999527  0.009179  0.498595  1
