# generated using pymatgen
data_U4Ga6Tc5Pt2
_symmetry_space_group_name_H-M   'P 1'
_cell_length_a   7.26456789
_cell_length_b   7.26456838
_cell_length_c   7.26456833
_cell_angle_alpha   110.65454458
_cell_angle_beta   108.88281224
_cell_angle_gamma   108.88281886
_symmetry_Int_Tables_number   1
_chemical_formula_structural   U4Ga6Tc5Pt2
_chemical_formula_sum   'U4 Ga6 Tc5 Pt2'
_cell_volume   295.03142318
_cell_formula_units_Z   1
loop_
 _symmetry_equiv_pos_site_id
 _symmetry_equiv_pos_as_xyz
  1  'x, y, z'
loop_
 _atom_site_type_symbol
 _atom_site_label
 _atom_site_symmetry_multiplicity
 _atom_site_fract_x
 _atom_site_fract_y
 _atom_site_fract_z
 _atom_site_occupancy
  U  U0  1  0.500000  0.489242  0.510758  1
  U  U1  1  0.978483  0.489242  0.989242  1
  U  U2  1  0.500000  0.010758  0.989242  1
  U  U3  1  0.021517  0.010758  0.510758  1
  Ga  Ga4  1  0.693636  0.992269  0.685905  1
  Ga  Ga5  1  0.693636  0.701366  0.007731  1
  Ga  Ga6  1  0.306364  0.314095  0.007731  1
  Ga  Ga7  1  0.000000  0.689825  0.689825  1
  Ga  Ga8  1  0.000000  0.310175  0.310175  1
  Ga  Ga9  1  0.306364  0.992269  0.298634  1
  Tc  Tc10  1  0.748920  0.248333  0.499414  1
  Tc  Tc11  1  0.251080  0.750494  0.499414  1
  Tc  Tc12  1  0.251080  0.500586  0.751667  1
  Tc  Tc13  1  0.500000  0.250000  0.750000  1
  Tc  Tc14  1  0.748920  0.500586  0.249506  1
  Pt  Pt15  1  0.500000  0.750000  0.250000  1
  Pt  Pt16  1  0.000000  0.000000  0.000000  1
