# generated using pymatgen
data_YTm5CrCo17P12
_symmetry_space_group_name_H-M   'P 1'
_cell_length_a   3.66715400
_cell_length_b   10.48717700
_cell_length_c   12.13701600
_cell_angle_alpha   90.00000000
_cell_angle_beta   90.00000000
_cell_angle_gamma   90.00000000
_symmetry_Int_Tables_number   1
_chemical_formula_structural   YTm5CrCo17P12
_chemical_formula_sum   'Y1 Tm5 Cr1 Co17 P12'
_cell_volume   466.76649109
_cell_formula_units_Z   1
loop_
 _symmetry_equiv_pos_site_id
 _symmetry_equiv_pos_as_xyz
  1  'x, y, z'
loop_
 _atom_site_type_symbol
 _atom_site_label
 _atom_site_symmetry_multiplicity
 _atom_site_fract_x
 _atom_site_fract_y
 _atom_site_fract_z
 _atom_site_occupancy
  Y  Y0  1  0.500000  0.000000  0.477167  1
  Tm  Tm1  1  0.000000  0.500000  0.523356  1
  Tm  Tm2  1  0.500000  0.817891  0.206336  1
  Tm  Tm3  1  0.500000  0.182109  0.206336  1
  Tm  Tm4  1  0.000000  0.681856  0.795512  1
  Tm  Tm5  1  0.000000  0.318144  0.795512  1
  Cr  Cr6  1  0.500000  0.500000  0.156097  1
  Co  Co7  1  0.000000  0.000000  0.839609  1
  Co  Co8  1  0.500000  0.500000  0.702559  1
  Co  Co9  1  0.000000  0.000000  0.295858  1
  Co  Co10  1  0.000000  0.500000  0.987479  1
  Co  Co11  1  0.500000  0.000000  0.014604  1
  Co  Co12  1  0.500000  0.332579  0.992924  1
  Co  Co13  1  0.500000  0.667421  0.992924  1
  Co  Co14  1  0.000000  0.166808  0.006113  1
  Co  Co15  1  0.000000  0.833192  0.006113  1
  Co  Co16  1  0.500000  0.297205  0.430804  1
  Co  Co17  1  0.500000  0.702795  0.430804  1
  Co  Co18  1  0.000000  0.203776  0.569209  1
  Co  Co19  1  0.000000  0.796224  0.569209  1
  Co  Co20  1  0.500000  0.878272  0.708911  1
  Co  Co21  1  0.500000  0.121728  0.708911  1
  Co  Co22  1  0.000000  0.621016  0.291189  1
  Co  Co23  1  0.000000  0.378984  0.291189  1
  P  P24  1  0.500000  0.500000  0.881541  1
  P  P25  1  0.000000  0.000000  0.117718  1
  P  P26  1  0.500000  0.500000  0.347608  1
  P  P27  1  0.000000  0.000000  0.655768  1
  P  P28  1  0.500000  0.312092  0.616721  1
  P  P29  1  0.500000  0.687908  0.616721  1
  P  P30  1  0.000000  0.188606  0.383347  1
  P  P31  1  0.000000  0.811394  0.383347  1
  P  P32  1  0.500000  0.848471  0.891603  1
  P  P33  1  0.500000  0.151529  0.891603  1
  P  P34  1  0.000000  0.654434  0.107646  1
  P  P35  1  0.000000  0.345566  0.107646  1
