# generated using pymatgen
data_Ho8Ta2Ti9NbSi16
_symmetry_space_group_name_H-M   'P 1'
_cell_length_a   7.03544337
_cell_length_b   7.03546342
_cell_length_c   12.95215639
_cell_angle_alpha   90.02118161
_cell_angle_beta   90.03879014
_cell_angle_gamma   90.02572957
_symmetry_Int_Tables_number   1
_chemical_formula_structural   Ho8Ta2Ti9NbSi16
_chemical_formula_sum   'Ho8 Ta2 Ti9 Nb1 Si16'
_cell_volume   641.10045847
_cell_formula_units_Z   1
loop_
 _symmetry_equiv_pos_site_id
 _symmetry_equiv_pos_as_xyz
  1  'x, y, z'
loop_
 _atom_site_type_symbol
 _atom_site_label
 _atom_site_symmetry_multiplicity
 _atom_site_fract_x
 _atom_site_fract_y
 _atom_site_fract_z
 _atom_site_occupancy
  Ho  Ho0  1  0.341404  0.002367  0.467112  1
  Ho  Ho1  1  0.497788  0.840435  0.716270  1
  Ho  Ho2  1  0.501652  0.159129  0.216573  1
  Ho  Ho3  1  0.840847  0.498185  0.283602  1
  Ho  Ho4  1  0.159526  0.502004  0.783493  1
  Ho  Ho5  1  0.658963  0.997704  0.967215  1
  Ho  Ho6  1  0.002688  0.340759  0.532674  1
  Ho  Ho7  1  0.998022  0.658315  0.033028  1
  Ta  Ta8  1  0.173316  0.826554  0.250201  1
  Ta  Ta9  1  0.673391  0.673601  0.499993  1
  Ti  Ti10  1  0.826631  0.173377  0.749809  1
  Ti  Ti11  1  0.152767  0.008838  0.876268  1
  Ti  Ti12  1  0.491648  0.652418  0.125019  1
  Ti  Ti13  1  0.507699  0.348386  0.624518  1
  Ti  Ti14  1  0.651372  0.492452  0.875263  1
  Ti  Ti15  1  0.347228  0.508534  0.375243  1
  Ti  Ti16  1  0.847524  0.991317  0.375577  1
  Ti  Ti17  1  0.008913  0.152360  0.124411  1
  Ti  Ti18  1  0.991449  0.847148  0.623773  1
  Nb  Nb19  1  0.326340  0.326505  0.000013  1
  Si  Si20  1  0.202291  0.130519  0.684053  1
  Si  Si21  1  0.369471  0.703268  0.933859  1
  Si  Si22  1  0.630825  0.297479  0.434263  1
  Si  Si23  1  0.703491  0.369353  0.065937  1
  Si  Si24  1  0.297715  0.630694  0.565944  1
  Si  Si25  1  0.797615  0.869440  0.184002  1
  Si  Si26  1  0.130621  0.202568  0.316156  1
  Si  Si27  1  0.869527  0.797969  0.815805  1
  Si  Si28  1  0.292384  0.952193  0.064241  1
  Si  Si29  1  0.546242  0.792449  0.314007  1
  Si  Si30  1  0.453884  0.207550  0.813506  1
  Si  Si31  1  0.792492  0.546248  0.685923  1
  Si  Si32  1  0.207601  0.453922  0.186533  1
  Si  Si33  1  0.708258  0.047016  0.564766  1
  Si  Si34  1  0.951784  0.291480  0.935026  1
  Si  Si35  1  0.046631  0.707462  0.435924  1
