# generated using pymatgen
data_Zr4(Zn3Sn)3
_symmetry_space_group_name_H-M   'P 1'
_cell_length_a   5.99089905
_cell_length_b   5.99090026
_cell_length_c   9.44056300
_cell_angle_alpha   90.00000000
_cell_angle_beta   90.00000000
_cell_angle_gamma   120.66220432
_symmetry_Int_Tables_number   1
_chemical_formula_structural   Zr4(Zn3Sn)3
_chemical_formula_sum   'Zr4 Zn9 Sn3'
_cell_volume   291.45788151
_cell_formula_units_Z   1
loop_
 _symmetry_equiv_pos_site_id
 _symmetry_equiv_pos_as_xyz
  1  'x, y, z'
loop_
 _atom_site_type_symbol
 _atom_site_label
 _atom_site_symmetry_multiplicity
 _atom_site_fract_x
 _atom_site_fract_y
 _atom_site_fract_z
 _atom_site_occupancy
  Zr  Zr0  1  0.999947  0.000053  0.496982  1
  Zr  Zr1  1  0.999947  0.000053  0.003018  1
  Zr  Zr2  1  0.335266  0.664734  0.250000  1
  Zr  Zr3  1  0.664936  0.335064  0.750000  1
  Zn  Zn4  1  0.512824  0.014682  0.487708  1
  Zn  Zn5  1  0.985318  0.487176  0.487708  1
  Zn  Zn6  1  0.512824  0.014682  0.012292  1
  Zn  Zn7  1  0.985318  0.487176  0.012292  1
  Zn  Zn8  1  0.850906  0.662997  0.250000  1
  Zn  Zn9  1  0.337003  0.149094  0.250000  1
  Zn  Zn10  1  0.825065  0.174935  0.250000  1
  Zn  Zn11  1  0.145879  0.328479  0.750000  1
  Zn  Zn12  1  0.671521  0.854121  0.750000  1
  Sn  Sn13  1  0.495680  0.504320  0.501593  1
  Sn  Sn14  1  0.495680  0.504320  0.998407  1
  Sn  Sn15  1  0.181888  0.818112  0.750000  1
