# generated using pymatgen
data_La8Cd2NiOs
_symmetry_space_group_name_H-M   'P 1'
_cell_length_a   10.06717917
_cell_length_b   10.06717883
_cell_length_c   10.20124000
_cell_angle_alpha   59.55850210
_cell_angle_beta   59.55850323
_cell_angle_gamma   59.53821189
_symmetry_Int_Tables_number   1
_chemical_formula_structural   La8Cd2NiOs
_chemical_formula_sum   'La16 Cd4 Ni2 Os2'
_cell_volume   723.61025465
_cell_formula_units_Z   2
loop_
 _symmetry_equiv_pos_site_id
 _symmetry_equiv_pos_as_xyz
  1  'x, y, z'
loop_
 _atom_site_type_symbol
 _atom_site_label
 _atom_site_symmetry_multiplicity
 _atom_site_fract_x
 _atom_site_fract_y
 _atom_site_fract_z
 _atom_site_occupancy
  La  La0  1  0.597390  0.597390  0.595287  1
  La  La1  1  0.597390  0.597390  0.209934  1
  La  La2  1  0.597368  0.212325  0.595154  1
  La  La3  1  0.212325  0.597368  0.595154  1
  La  La4  1  0.060818  0.437489  0.442014  1
  La  La5  1  0.437489  0.060818  0.059679  1
  La  La6  1  0.437489  0.060818  0.442014  1
  La  La7  1  0.060818  0.437489  0.059679  1
  La  La8  1  0.438583  0.438583  0.061417  1
  La  La9  1  0.054475  0.054475  0.445525  1
  La  La10  1  0.190777  0.804409  0.814698  1
  La  La11  1  0.804409  0.190777  0.190117  1
  La  La12  1  0.804409  0.190777  0.814698  1
  La  La13  1  0.190777  0.804409  0.190117  1
  La  La14  1  0.814249  0.814249  0.185751  1
  La  La15  1  0.192624  0.192624  0.807376  1
  Cd  Cd16  1  0.828334  0.828334  0.829745  1
  Cd  Cd17  1  0.828334  0.828334  0.513588  1
  Cd  Cd18  1  0.829046  0.512165  0.829395  1
  Cd  Cd19  1  0.512165  0.829046  0.829395  1
  Ni  Ni20  1  0.395894  0.829505  0.387301  1
  Ni  Ni21  1  0.829505  0.395894  0.387301  1
  Os  Os22  1  0.392668  0.392668  0.385668  1
  Os  Os23  1  0.392668  0.392668  0.828996  1
