# generated using pymatgen
data_HfTa9Si5Ge
_symmetry_space_group_name_H-M   'P 1'
_cell_length_a   7.58736248
_cell_length_b   7.62974667
_cell_length_c   7.60405986
_cell_angle_alpha   128.59713186
_cell_angle_beta   128.47107764
_cell_angle_gamma   75.77228466
_symmetry_Int_Tables_number   1
_chemical_formula_structural   HfTa9Si5Ge
_chemical_formula_sum   'Hf1 Ta9 Si5 Ge1'
_cell_volume   261.96589718
_cell_formula_units_Z   1
loop_
 _symmetry_equiv_pos_site_id
 _symmetry_equiv_pos_as_xyz
  1  'x, y, z'
loop_
 _atom_site_type_symbol
 _atom_site_label
 _atom_site_symmetry_multiplicity
 _atom_site_fract_x
 _atom_site_fract_y
 _atom_site_fract_z
 _atom_site_occupancy
  Hf  Hf0  1  0.009520  0.183440  0.496287  1
  Ta  Ta1  1  0.517683  0.012642  0.828358  1
  Ta  Ta2  1  0.183766  0.689990  0.171717  1
  Ta  Ta3  1  0.487235  0.982131  0.170223  1
  Ta  Ta4  1  0.687680  0.521057  0.505522  1
  Ta  Ta5  1  0.982547  0.806789  0.494623  1
  Ta  Ta6  1  0.316431  0.486673  0.505076  1
  Ta  Ta7  1  0.811631  0.316925  0.829230  1
  Ta  Ta8  1  0.502881  0.502039  0.000927  1
  Ta  Ta9  1  0.000468  0.999882  0.998743  1
  Si  Si10  1  0.130940  0.631219  0.761464  1
  Si  Si11  1  0.630416  0.871079  0.499726  1
  Si  Si12  1  0.370734  0.130232  0.499924  1
  Si  Si13  1  0.869566  0.369566  0.238453  1
  Si  Si14  1  0.747789  0.746697  0.997185  1
  Ge  Ge15  1  0.250711  0.249637  0.002541  1
