# generated using pymatgen
data_Pr4Nd16Si15Tc
_symmetry_space_group_name_H-M   'P 1'
_cell_length_a   7.88841297
_cell_length_b   7.88173144
_cell_length_c   15.16164680
_cell_angle_alpha   90.21529344
_cell_angle_beta   89.99898086
_cell_angle_gamma   90.09081530
_symmetry_Int_Tables_number   1
_chemical_formula_structural   Pr4Nd16Si15Tc
_chemical_formula_sum   'Pr4 Nd16 Si15 Tc1'
_cell_volume   942.65773444
_cell_formula_units_Z   1
loop_
 _symmetry_equiv_pos_site_id
 _symmetry_equiv_pos_as_xyz
  1  'x, y, z'
loop_
 _atom_site_type_symbol
 _atom_site_label
 _atom_site_symmetry_multiplicity
 _atom_site_fract_x
 _atom_site_fract_y
 _atom_site_fract_z
 _atom_site_occupancy
  Pr  Pr0  1  0.374897  0.482808  0.373942  1
  Pr  Pr1  1  0.872527  0.021075  0.376312  1
  Pr  Pr2  1  0.981525  0.126613  0.124257  1
  Pr  Pr3  1  0.025752  0.881081  0.627983  1
  Nd  Nd4  1  0.306464  0.305773  0.997829  1
  Nd  Nd5  1  0.192493  0.809947  0.249712  1
  Nd  Nd6  1  0.822736  0.190694  0.748529  1
  Nd  Nd7  1  0.694809  0.691192  0.502517  1
  Nd  Nd8  1  0.371495  0.011353  0.451359  1
  Nd  Nd9  1  0.484413  0.883201  0.696091  1
  Nd  Nd10  1  0.510173  0.123186  0.198737  1
  Nd  Nd11  1  0.876762  0.488839  0.300858  1
  Nd  Nd12  1  0.128121  0.503013  0.798250  1
  Nd  Nd13  1  0.625633  0.988135  0.948762  1
  Nd  Nd14  1  0.008097  0.378387  0.551515  1
  Nd  Nd15  1  0.988575  0.624738  0.050514  1
  Nd  Nd16  1  0.132341  0.982632  0.872341  1
  Nd  Nd17  1  0.517033  0.629932  0.125918  1
  Nd  Nd18  1  0.472095  0.360614  0.628935  1
  Nd  Nd19  1  0.627890  0.515613  0.875142  1
  Si  Si20  1  0.333456  0.693629  0.950998  1
  Si  Si21  1  0.665213  0.303107  0.451495  1
  Si  Si22  1  0.695555  0.334793  0.050366  1
  Si  Si23  1  0.305085  0.668388  0.547612  1
  Si  Si24  1  0.805976  0.829808  0.202260  1
  Si  Si25  1  0.169197  0.196895  0.298264  1
  Si  Si26  1  0.830481  0.802216  0.801431  1
  Si  Si27  1  0.289330  0.922406  0.058603  1
  Si  Si28  1  0.578697  0.786890  0.310575  1
  Si  Si29  1  0.422544  0.211310  0.812489  1
  Si  Si30  1  0.777373  0.581836  0.691933  1
  Si  Si31  1  0.212340  0.423588  0.189436  1
  Si  Si32  1  0.704399  0.074881  0.559346  1
  Si  Si33  1  0.920639  0.288325  0.940575  1
  Si  Si34  1  0.078415  0.713886  0.440236  1
  Tc  Tc35  1  0.197468  0.169214  0.694877  1
