# generated using pymatgen
data_Tb4Er15LuBi12
_symmetry_space_group_name_H-M   'P 1'
_cell_length_a   8.20336461
_cell_length_b   9.45382000
_cell_length_c   11.97791987
_cell_angle_alpha   90.00000000
_cell_angle_beta   90.04388484
_cell_angle_gamma   90.00000000
_symmetry_Int_Tables_number   1
_chemical_formula_structural   Tb4Er15LuBi12
_chemical_formula_sum   'Tb4 Er15 Lu1 Bi12'
_cell_volume   928.92493298
_cell_formula_units_Z   1
loop_
 _symmetry_equiv_pos_site_id
 _symmetry_equiv_pos_as_xyz
  1  'x, y, z'
loop_
 _atom_site_type_symbol
 _atom_site_label
 _atom_site_symmetry_multiplicity
 _atom_site_fract_x
 _atom_site_fract_y
 _atom_site_fract_z
 _atom_site_occupancy
  Tb  Tb0  1  0.313649  0.250000  0.218075  1
  Tb  Tb1  1  0.813614  0.250000  0.281839  1
  Tb  Tb2  1  0.686519  0.750000  0.782123  1
  Tb  Tb3  1  0.186265  0.750000  0.718228  1
  Er  Er4  1  0.352658  0.750000  0.217303  1
  Er  Er5  1  0.852797  0.750000  0.282382  1
  Er  Er6  1  0.647220  0.250000  0.782763  1
  Er  Er7  1  0.147325  0.250000  0.717333  1
  Er  Er8  1  0.692490  0.565460  0.059546  1
  Er  Er9  1  0.191971  0.934696  0.440318  1
  Er  Er10  1  0.307857  0.065305  0.940424  1
  Er  Er11  1  0.808009  0.434678  0.559603  1
  Er  Er12  1  0.307857  0.434695  0.940424  1
  Er  Er13  1  0.808009  0.065322  0.559603  1
  Er  Er14  1  0.692490  0.934540  0.059546  1
  Er  Er15  1  0.191971  0.565304  0.440318  1
  Er  Er16  1  0.475825  0.250000  0.488432  1
  Er  Er17  1  0.975951  0.250000  0.011546  1
  Er  Er18  1  0.524120  0.750000  0.511485  1
  Lu  Lu19  1  0.023625  0.750000  0.988792  1
  Bi  Bi20  1  0.404009  0.750000  0.959250  1
  Bi  Bi21  1  0.904904  0.750000  0.540770  1
  Bi  Bi22  1  0.594969  0.250000  0.040715  1
  Bi  Bi23  1  0.095057  0.250000  0.459179  1
  Bi  Bi24  1  0.565921  0.994529  0.326150  1
  Bi  Bi25  1  0.065909  0.505825  0.173444  1
  Bi  Bi26  1  0.434143  0.494583  0.673860  1
  Bi  Bi27  1  0.934447  0.004909  0.826547  1
  Bi  Bi28  1  0.434143  0.005417  0.673860  1
  Bi  Bi29  1  0.934447  0.495091  0.826547  1
  Bi  Bi30  1  0.565921  0.505471  0.326150  1
  Bi  Bi31  1  0.065909  0.994175  0.173444  1
