# generated using pymatgen
data_Th2AlZnPt4
_symmetry_space_group_name_H-M   'P 1'
_cell_length_a   4.47171300
_cell_length_b   4.47171370
_cell_length_c   9.36033100
_cell_angle_alpha   90.00000000
_cell_angle_beta   90.00000000
_cell_angle_gamma   120.00001701
_symmetry_Int_Tables_number   1
_chemical_formula_structural   Th2AlZnPt4
_chemical_formula_sum   'Th2 Al1 Zn1 Pt4'
_cell_volume   162.09502149
_cell_formula_units_Z   1
loop_
 _symmetry_equiv_pos_site_id
 _symmetry_equiv_pos_as_xyz
  1  'x, y, z'
loop_
 _atom_site_type_symbol
 _atom_site_label
 _atom_site_symmetry_multiplicity
 _atom_site_fract_x
 _atom_site_fract_y
 _atom_site_fract_z
 _atom_site_occupancy
  Th  Th0  1  0.333333  0.666667  0.252563  1
  Th  Th1  1  0.666667  0.333333  0.747437  1
  Al  Al2  1  0.000000  0.000000  0.000000  1
  Zn  Zn3  1  0.000000  0.000000  0.500000  1
  Pt  Pt4  1  0.333333  0.666667  0.925147  1
  Pt  Pt5  1  0.666667  0.333333  0.074853  1
  Pt  Pt6  1  0.666667  0.333333  0.417701  1
  Pt  Pt7  1  0.333333  0.666667  0.582299  1
