# generated using pymatgen
data_Nb4H3Se8
_symmetry_space_group_name_H-M   'P 1'
_cell_length_a   3.45559900
_cell_length_b   3.45559917
_cell_length_c   28.57612700
_cell_angle_alpha   90.00000000
_cell_angle_beta   90.00000000
_cell_angle_gamma   119.99998884
_symmetry_Int_Tables_number   1
_chemical_formula_structural   Nb4H3Se8
_chemical_formula_sum   'Nb4 H3 Se8'
_cell_volume   295.51582881
_cell_formula_units_Z   1
loop_
 _symmetry_equiv_pos_site_id
 _symmetry_equiv_pos_as_xyz
  1  'x, y, z'
loop_
 _atom_site_type_symbol
 _atom_site_label
 _atom_site_symmetry_multiplicity
 _atom_site_fract_x
 _atom_site_fract_y
 _atom_site_fract_z
 _atom_site_occupancy
  Nb  Nb0  1  0.666667  0.333333  0.000000  1
  Nb  Nb1  1  0.666667  0.333333  0.500000  1
  Nb  Nb2  1  0.333333  0.666667  0.249664  1
  Nb  Nb3  1  0.333333  0.666667  0.750336  1
  H  H4  1  0.000000  0.000000  0.500000  1
  H  H5  1  0.000000  0.000000  0.249650  1
  H  H6  1  0.000000  0.000000  0.750350  1
  Se  Se7  1  0.666667  0.333333  0.311532  1
  Se  Se8  1  0.666667  0.333333  0.812233  1
  Se  Se9  1  0.333333  0.666667  0.940684  1
  Se  Se10  1  0.333333  0.666667  0.438151  1
  Se  Se11  1  0.333333  0.666667  0.059316  1
  Se  Se12  1  0.333333  0.666667  0.561849  1
  Se  Se13  1  0.666667  0.333333  0.187767  1
  Se  Se14  1  0.666667  0.333333  0.688468  1
