# generated using pymatgen
data_Dy3ScPa(FeB3)2
_symmetry_space_group_name_H-M   'P 1'
_cell_length_a   5.38576012
_cell_length_b   5.38575961
_cell_length_c   7.85250514
_cell_angle_alpha   69.94435067
_cell_angle_beta   69.94435694
_cell_angle_gamma   59.99997322
_symmetry_Int_Tables_number   1
_chemical_formula_structural   Dy3ScPa(FeB3)2
_chemical_formula_sum   'Dy3 Sc1 Pa1 Fe2 B6'
_cell_volume   181.13278693
_cell_formula_units_Z   1
loop_
 _symmetry_equiv_pos_site_id
 _symmetry_equiv_pos_as_xyz
  1  'x, y, z'
loop_
 _atom_site_type_symbol
 _atom_site_label
 _atom_site_symmetry_multiplicity
 _atom_site_fract_x
 _atom_site_fract_y
 _atom_site_fract_z
 _atom_site_occupancy
  Dy  Dy0  1  0.746162  0.746162  0.761511  1
  Dy  Dy1  1  0.410932  0.410932  0.767204  1
  Dy  Dy2  1  0.588822  0.588822  0.233536  1
  Sc  Sc3  1  0.249350  0.249350  0.251953  1
  Pa  Pa4  1  0.998218  0.998218  0.005347  1
  Fe  Fe5  1  0.108572  0.108572  0.674287  1
  Fe  Fe6  1  0.891971  0.891971  0.324085  1
  B  B7  1  0.169040  0.834494  0.497013  1
  B  B8  1  0.834494  0.499454  0.497013  1
  B  B9  1  0.499454  0.169040  0.497013  1
  B  B10  1  0.169040  0.499454  0.497013  1
  B  B11  1  0.499454  0.834494  0.497013  1
  B  B12  1  0.834494  0.169040  0.497013  1
