# generated using pymatgen
data_Ce2Fe2Si5Ir
_symmetry_space_group_name_H-M   'P 1'
_cell_length_a   8.09276011
_cell_length_b   8.11618136
_cell_length_c   8.11618105
_cell_angle_alpha   139.45971383
_cell_angle_beta   106.12157450
_cell_angle_gamma   87.88354200
_symmetry_Int_Tables_number   1
_chemical_formula_structural   Ce2Fe2Si5Ir
_chemical_formula_sum   'Ce4 Fe4 Si10 Ir2'
_cell_volume   319.67395902
_cell_formula_units_Z   2
loop_
 _symmetry_equiv_pos_site_id
 _symmetry_equiv_pos_as_xyz
  1  'x, y, z'
loop_
 _atom_site_type_symbol
 _atom_site_label
 _atom_site_symmetry_multiplicity
 _atom_site_fract_x
 _atom_site_fract_y
 _atom_site_fract_z
 _atom_site_occupancy
  Ce  Ce0  1  0.861952  0.633584  0.228367  1
  Ce  Ce1  1  0.138049  0.366416  0.771633  1
  Ce  Ce2  1  0.396399  0.131980  0.264419  1
  Ce  Ce3  1  0.603601  0.868020  0.735581  1
  Fe  Fe4  1  0.000000  0.751260  0.751260  1
  Fe  Fe5  1  0.000000  0.248740  0.248740  1
  Fe  Fe6  1  0.245316  0.857300  0.388014  1
  Fe  Fe7  1  0.754684  0.142700  0.611986  1
  Si  Si8  1  0.500000  0.774219  0.274219  1
  Si  Si9  1  0.500000  0.225781  0.725781  1
  Si  Si10  1  0.213024  0.956195  0.733983  1
  Si  Si11  1  0.786976  0.520959  0.743171  1
  Si  Si12  1  0.786976  0.043805  0.266017  1
  Si  Si13  1  0.213024  0.479041  0.256829  1
  Si  Si14  1  0.056627  0.901298  0.155329  1
  Si  Si15  1  0.943373  0.098702  0.844671  1
  Si  Si16  1  0.754554  0.404603  0.349951  1
  Si  Si17  1  0.245446  0.595397  0.650049  1
  Ir  Ir18  1  0.465921  0.358873  0.107047  1
  Ir  Ir19  1  0.534079  0.641127  0.892953  1
