# generated using pymatgen
data_Hf4Zr6Ga2Sn5Sb
_symmetry_space_group_name_H-M   'P 1'
_cell_length_a   8.70863192
_cell_length_b   8.70863172
_cell_length_c   5.86024900
_cell_angle_alpha   90.00000000
_cell_angle_beta   90.00000000
_cell_angle_gamma   120.01602965
_symmetry_Int_Tables_number   1
_chemical_formula_structural   Hf4Zr6Ga2Sn5Sb
_chemical_formula_sum   'Hf4 Zr6 Ga2 Sn5 Sb1'
_cell_volume   384.83661786
_cell_formula_units_Z   1
loop_
 _symmetry_equiv_pos_site_id
 _symmetry_equiv_pos_as_xyz
  1  'x, y, z'
loop_
 _atom_site_type_symbol
 _atom_site_label
 _atom_site_symmetry_multiplicity
 _atom_site_fract_x
 _atom_site_fract_y
 _atom_site_fract_z
 _atom_site_occupancy
  Hf  Hf0  1  0.665947  0.333294  0.000284  1
  Hf  Hf1  1  0.333294  0.665947  0.000284  1
  Hf  Hf2  1  0.333294  0.665947  0.499716  1
  Hf  Hf3  1  0.665947  0.333294  0.499716  1
  Zr  Zr4  1  0.732029  0.732029  0.750000  1
  Zr  Zr5  1  0.267681  0.001873  0.750000  1
  Zr  Zr6  1  0.001873  0.267681  0.750000  1
  Zr  Zr7  1  0.268356  0.268356  0.250000  1
  Zr  Zr8  1  0.731913  0.998838  0.250000  1
  Zr  Zr9  1  0.998838  0.731913  0.250000  1
  Ga  Ga10  1  0.999564  0.999564  0.001048  1
  Ga  Ga11  1  0.999564  0.999564  0.498952  1
  Sn  Sn12  1  0.611643  0.000157  0.750000  1
  Sn  Sn13  1  0.000157  0.611643  0.750000  1
  Sn  Sn14  1  0.611956  0.611956  0.250000  1
  Sn  Sn15  1  0.388142  0.999076  0.250000  1
  Sn  Sn16  1  0.999076  0.388142  0.250000  1
  Sb  Sb17  1  0.390729  0.390729  0.750000  1
