# generated using pymatgen
data_Hf8ZnIn4Cu3Pd4
_symmetry_space_group_name_H-M   'P 1'
_cell_length_a   7.35107784
_cell_length_b   7.35956695
_cell_length_c   6.86548082
_cell_angle_alpha   89.99224537
_cell_angle_beta   89.99816340
_cell_angle_gamma   90.08986898
_symmetry_Int_Tables_number   1
_chemical_formula_structural   Hf8ZnIn4Cu3Pd4
_chemical_formula_sum   'Hf8 Zn1 In4 Cu3 Pd4'
_cell_volume   371.42719764
_cell_formula_units_Z   1
loop_
 _symmetry_equiv_pos_site_id
 _symmetry_equiv_pos_as_xyz
  1  'x, y, z'
loop_
 _atom_site_type_symbol
 _atom_site_label
 _atom_site_symmetry_multiplicity
 _atom_site_fract_x
 _atom_site_fract_y
 _atom_site_fract_z
 _atom_site_occupancy
  Hf  Hf0  1  0.143349  0.146596  0.996149  1
  Hf  Hf1  1  0.849085  0.850838  0.001034  1
  Hf  Hf2  1  0.652930  0.351977  0.503710  1
  Hf  Hf3  1  0.354011  0.651410  0.504037  1
  Hf  Hf4  1  0.699641  0.305375  0.994494  1
  Hf  Hf5  1  0.310101  0.697807  0.996294  1
  Hf  Hf6  1  0.808553  0.807813  0.499011  1
  Hf  Hf7  1  0.187493  0.189978  0.503385  1
  Zn  Zn8  1  0.372829  0.370893  0.206551  1
  In  In9  1  0.502816  0.003213  0.251958  1
  In  In10  1  0.505132  0.001477  0.748110  1
  In  In11  1  0.998604  0.495041  0.250642  1
  In  In12  1  0.997501  0.498544  0.750156  1
  Cu  Cu13  1  0.629663  0.628175  0.794660  1
  Cu  Cu14  1  0.870602  0.125996  0.702009  1
  Cu  Cu15  1  0.870826  0.127068  0.296148  1
  Pd  Pd16  1  0.623303  0.622757  0.207007  1
  Pd  Pd17  1  0.375081  0.375956  0.795949  1
  Pd  Pd18  1  0.124728  0.874037  0.288511  1
  Pd  Pd19  1  0.123753  0.875052  0.710188  1
