# generated using pymatgen
data_Ca20Zn8In3Ga
_symmetry_space_group_name_H-M   'P 1'
_cell_length_a   8.01951900
_cell_length_b   8.01951900
_cell_length_c   14.95248000
_cell_angle_alpha   90.00000000
_cell_angle_beta   90.00000000
_cell_angle_gamma   90.00000000
_symmetry_Int_Tables_number   1
_chemical_formula_structural   Ca20Zn8In3Ga
_chemical_formula_sum   'Ca20 Zn8 In3 Ga1'
_cell_volume   961.63413608
_cell_formula_units_Z   1
loop_
 _symmetry_equiv_pos_site_id
 _symmetry_equiv_pos_as_xyz
  1  'x, y, z'
loop_
 _atom_site_type_symbol
 _atom_site_label
 _atom_site_symmetry_multiplicity
 _atom_site_fract_x
 _atom_site_fract_y
 _atom_site_fract_z
 _atom_site_occupancy
  Ca  Ca0  1  0.676779  0.165910  0.101703  1
  Ca  Ca1  1  0.171640  0.671543  0.604460  1
  Ca  Ca2  1  0.323221  0.834090  0.101703  1
  Ca  Ca3  1  0.828360  0.328457  0.604460  1
  Ca  Ca4  1  0.834090  0.676779  0.101703  1
  Ca  Ca5  1  0.328457  0.171640  0.604460  1
  Ca  Ca6  1  0.165910  0.323221  0.101703  1
  Ca  Ca7  1  0.671543  0.828360  0.604460  1
  Ca  Ca8  1  0.834090  0.323221  0.898297  1
  Ca  Ca9  1  0.328457  0.828360  0.395540  1
  Ca  Ca10  1  0.165910  0.676779  0.898297  1
  Ca  Ca11  1  0.671543  0.171640  0.395540  1
  Ca  Ca12  1  0.676779  0.834090  0.898297  1
  Ca  Ca13  1  0.171640  0.328457  0.395540  1
  Ca  Ca14  1  0.323221  0.165910  0.898297  1
  Ca  Ca15  1  0.828360  0.671543  0.395540  1
  Ca  Ca16  1  0.500000  0.500000  0.755197  1
  Ca  Ca17  1  0.000000  0.000000  0.249406  1
  Ca  Ca18  1  0.000000  0.000000  0.750594  1
  Ca  Ca19  1  0.500000  0.500000  0.244803  1
  Zn  Zn20  1  0.614767  0.115620  0.751611  1
  Zn  Zn21  1  0.115620  0.614767  0.248389  1
  Zn  Zn22  1  0.884380  0.385233  0.248389  1
  Zn  Zn23  1  0.385233  0.884380  0.751611  1
  Zn  Zn24  1  0.884380  0.614767  0.751611  1
  Zn  Zn25  1  0.385233  0.115620  0.248389  1
  Zn  Zn26  1  0.115620  0.385233  0.751611  1
  Zn  Zn27  1  0.614767  0.884380  0.248389  1
  In  In28  1  0.500000  0.500000  0.500000  1
  In  In29  1  0.500000  0.500000  0.000000  1
  In  In30  1  0.000000  0.000000  0.500000  1
  Ga  Ga31  1  0.000000  0.000000  0.000000  1
