# generated using pymatgen
data_Y2BeRu2
_symmetry_space_group_name_H-M   'P 1'
_cell_length_a   5.58212039
_cell_length_b   5.58211981
_cell_length_c   5.58212107
_cell_angle_alpha   144.32193268
_cell_angle_beta   111.20718735
_cell_angle_gamma   79.97671153
_symmetry_Int_Tables_number   1
_chemical_formula_structural   Y2BeRu2
_chemical_formula_sum   'Y2 Be1 Ru2'
_cell_volume   92.25249582
_cell_formula_units_Z   1
loop_
 _symmetry_equiv_pos_site_id
 _symmetry_equiv_pos_as_xyz
  1  'x, y, z'
loop_
 _atom_site_type_symbol
 _atom_site_label
 _atom_site_symmetry_multiplicity
 _atom_site_fract_x
 _atom_site_fract_y
 _atom_site_fract_z
 _atom_site_occupancy
  Y  Y0  1  0.704283  0.204283  0.500000  1
  Y  Y1  1  0.295717  0.795717  0.500000  1
  Be  Be2  1  0.000000  0.000000  0.000000  1
  Ru  Ru3  1  0.755924  0.500000  0.255924  1
  Ru  Ru4  1  0.244076  0.500000  0.744076  1
