# generated using pymatgen
data_Pr8HoLuIn6
_symmetry_space_group_name_H-M   'P 1'
_cell_length_a   6.31874484
_cell_length_b   9.40306953
_cell_length_c   9.40306956
_cell_angle_alpha   83.74586199
_cell_angle_beta   70.56985494
_cell_angle_gamma   70.56985168
_symmetry_Int_Tables_number   1
_chemical_formula_structural   Pr8HoLuIn6
_chemical_formula_sum   'Pr8 Ho1 Lu1 In6'
_cell_volume   496.86301911
_cell_formula_units_Z   1
loop_
 _symmetry_equiv_pos_site_id
 _symmetry_equiv_pos_as_xyz
  1  'x, y, z'
loop_
 _atom_site_type_symbol
 _atom_site_label
 _atom_site_symmetry_multiplicity
 _atom_site_fract_x
 _atom_site_fract_y
 _atom_site_fract_z
 _atom_site_occupancy
  Pr  Pr0  1  0.720344  0.865121  0.691799  1
  Pr  Pr1  1  0.278129  0.134864  0.308283  1
  Pr  Pr2  1  0.779656  0.308201  0.134879  1
  Pr  Pr3  1  0.221871  0.691717  0.865136  1
  Pr  Pr4  1  0.586690  0.692053  0.135483  1
  Pr  Pr5  1  0.415290  0.308076  0.864713  1
  Pr  Pr6  1  0.084710  0.135287  0.691924  1
  Pr  Pr7  1  0.913310  0.864517  0.307947  1
  Ho  Ho8  1  0.250000  0.499204  0.500796  1
  Lu  Lu9  1  0.750000  0.500718  0.499282  1
  In  In10  1  0.156039  0.500092  0.188176  1
  In  In11  1  0.841808  0.500052  0.811549  1
  In  In12  1  0.343961  0.811824  0.499908  1
  In  In13  1  0.658192  0.188451  0.499948  1
  In  In14  1  0.250000  0.000076  0.999924  1
  In  In15  1  0.750000  0.999747  0.000253  1
