# generated using pymatgen
data_Sm3Ho(Sc3Sn4)2
_symmetry_space_group_name_H-M   'P 1'
_cell_length_a   7.75912716
_cell_length_b   7.99244517
_cell_length_c   14.94273633
_cell_angle_alpha   90.06795761
_cell_angle_beta   89.85093100
_cell_angle_gamma   90.09493405
_symmetry_Int_Tables_number   1
_chemical_formula_structural   Sm3Ho(Sc3Sn4)2
_chemical_formula_sum   'Sm6 Ho2 Sc12 Sn16'
_cell_volume   926.65974863
_cell_formula_units_Z   2
loop_
 _symmetry_equiv_pos_site_id
 _symmetry_equiv_pos_as_xyz
  1  'x, y, z'
loop_
 _atom_site_type_symbol
 _atom_site_label
 _atom_site_symmetry_multiplicity
 _atom_site_fract_x
 _atom_site_fract_y
 _atom_site_fract_z
 _atom_site_occupancy
  Sm  Sm0  1  0.993159  0.175137  0.095857  1
  Sm  Sm1  1  0.006841  0.824863  0.904143  1
  Sm  Sm2  1  0.505705  0.675132  0.905702  1
  Sm  Sm3  1  0.005839  0.823597  0.593575  1
  Sm  Sm4  1  0.494295  0.324868  0.094298  1
  Sm  Sm5  1  0.994161  0.176403  0.406425  1
  Ho  Ho6  1  0.490670  0.324322  0.405588  1
  Ho  Ho7  1  0.509330  0.675678  0.594412  1
  Sc  Sc8  1  0.169512  0.496152  0.749007  1
  Sc  Sc9  1  0.830488  0.503848  0.250993  1
  Sc  Sc10  1  0.331070  0.995014  0.250623  1
  Sc  Sc11  1  0.668930  0.004986  0.749377  1
  Sc  Sc12  1  0.340119  0.162789  0.627330  1
  Sc  Sc13  1  0.659881  0.837211  0.372670  1
  Sc  Sc14  1  0.160082  0.660268  0.374092  1
  Sc  Sc15  1  0.660746  0.838916  0.128284  1
  Sc  Sc16  1  0.839918  0.339732  0.625908  1
  Sc  Sc17  1  0.339254  0.161084  0.871716  1
  Sc  Sc18  1  0.838539  0.338006  0.872376  1
  Sc  Sc19  1  0.161461  0.661994  0.127624  1
  Sn  Sn20  1  0.030896  0.127824  0.748920  1
  Sn  Sn21  1  0.969104  0.872176  0.251080  1
  Sn  Sn22  1  0.467708  0.625979  0.250119  1
  Sn  Sn23  1  0.532292  0.374021  0.749881  1
  Sn  Sn24  1  0.312027  0.851688  0.748353  1
  Sn  Sn25  1  0.687973  0.148312  0.251647  1
  Sn  Sn26  1  0.191173  0.353046  0.251000  1
  Sn  Sn27  1  0.808827  0.646954  0.749000  1
  Sn  Sn28  1  0.186181  0.457395  0.542821  1
  Sn  Sn29  1  0.813819  0.542605  0.457179  1
  Sn  Sn30  1  0.323457  0.956974  0.457111  1
  Sn  Sn31  1  0.822247  0.544771  0.043144  1
  Sn  Sn32  1  0.676543  0.043026  0.542889  1
  Sn  Sn33  1  0.177753  0.455229  0.956856  1
  Sn  Sn34  1  0.679147  0.043388  0.957105  1
  Sn  Sn35  1  0.320853  0.956612  0.042895  1
