# generated using pymatgen
data_Na6HfZrUCl18
_symmetry_space_group_name_H-M   'P 1'
_cell_length_a   11.87660000
_cell_length_b   11.87660010
_cell_length_c   6.20436200
_cell_angle_alpha   90.00000000
_cell_angle_beta   90.00000000
_cell_angle_gamma   119.99999416
_symmetry_Int_Tables_number   1
_chemical_formula_structural   Na6HfZrUCl18
_chemical_formula_sum   'Na6 Hf1 Zr1 U1 Cl18'
_cell_volume   757.90024891
_cell_formula_units_Z   1
loop_
 _symmetry_equiv_pos_site_id
 _symmetry_equiv_pos_as_xyz
  1  'x, y, z'
loop_
 _atom_site_type_symbol
 _atom_site_label
 _atom_site_symmetry_multiplicity
 _atom_site_fract_x
 _atom_site_fract_y
 _atom_site_fract_z
 _atom_site_occupancy
  Na  Na0  1  0.664476  0.003649  0.998916  1
  Na  Na1  1  0.339173  0.003649  0.998916  1
  Na  Na2  1  0.996351  0.660827  0.998916  1
  Na  Na3  1  0.664476  0.660827  0.998916  1
  Na  Na4  1  0.339173  0.335524  0.998916  1
  Na  Na5  1  0.996351  0.335524  0.998916  1
  Hf  Hf6  1  0.000000  0.000000  0.001029  1
  Zr  Zr7  1  0.666667  0.333333  0.503540  1
  U  U8  1  0.333333  0.666667  0.496618  1
  Cl  Cl9  1  0.566934  0.133871  0.738177  1
  Cl  Cl10  1  0.766890  0.233110  0.277235  1
  Cl  Cl11  1  0.802180  0.901090  0.225513  1
  Cl  Cl12  1  0.438331  0.561669  0.250632  1
  Cl  Cl13  1  0.766890  0.533780  0.277235  1
  Cl  Cl14  1  0.098910  0.197820  0.225513  1
  Cl  Cl15  1  0.227592  0.772408  0.735413  1
  Cl  Cl16  1  0.566934  0.433066  0.738177  1
  Cl  Cl17  1  0.227592  0.455183  0.735413  1
  Cl  Cl18  1  0.123339  0.561669  0.250632  1
  Cl  Cl19  1  0.197894  0.098947  0.774799  1
  Cl  Cl20  1  0.098910  0.901090  0.225513  1
  Cl  Cl21  1  0.544817  0.772408  0.735413  1
  Cl  Cl22  1  0.438331  0.876661  0.250632  1
  Cl  Cl23  1  0.901053  0.098947  0.774799  1
  Cl  Cl24  1  0.866129  0.433066  0.738177  1
  Cl  Cl25  1  0.466220  0.233110  0.277235  1
  Cl  Cl26  1  0.901053  0.802106  0.774799  1
