# generated using pymatgen
data_Mg7In5Ni6
_symmetry_space_group_name_H-M   'P 1'
_cell_length_a   5.24243534
_cell_length_b   5.22349688
_cell_length_c   13.30755124
_cell_angle_alpha   90.36371454
_cell_angle_beta   89.01590614
_cell_angle_gamma   119.83231863
_symmetry_Int_Tables_number   1
_chemical_formula_structural   Mg7In5Ni6
_chemical_formula_sum   'Mg7 In5 Ni6'
_cell_volume   316.07422639
_cell_formula_units_Z   1
loop_
 _symmetry_equiv_pos_site_id
 _symmetry_equiv_pos_as_xyz
  1  'x, y, z'
loop_
 _atom_site_type_symbol
 _atom_site_label
 _atom_site_symmetry_multiplicity
 _atom_site_fract_x
 _atom_site_fract_y
 _atom_site_fract_z
 _atom_site_occupancy
  Mg  Mg0  1  0.497815  0.998827  0.883532  1
  Mg  Mg1  1  0.504833  0.501788  0.221207  1
  Mg  Mg2  1  0.001437  0.505491  0.553795  1
  Mg  Mg3  1  0.324749  0.158740  0.665709  1
  Mg  Mg4  1  0.670166  0.842491  0.666232  1
  Mg  Mg5  1  0.163040  0.832999  0.332674  1
  Mg  Mg6  1  0.830409  0.668012  0.998552  1
  In  In7  1  0.495448  0.995236  0.118716  1
  In  In8  1  0.501918  0.500042  0.457722  1
  In  In9  1  0.998035  0.501993  0.781278  1
  In  In10  1  0.170622  0.326900  0.998247  1
  In  In11  1  0.846494  0.173771  0.332788  1
  Ni  Ni12  1  0.999066  0.995642  0.164917  1
  Ni  Ni13  1  0.000719  0.000507  0.498724  1
  Ni  Ni14  1  0.996174  0.998067  0.831609  1
  Ni  Ni15  1  0.999220  0.497952  0.164626  1
  Ni  Ni16  1  0.501234  0.001190  0.497676  1
  Ni  Ni17  1  0.498621  0.500351  0.831996  1
