# generated using pymatgen
data_CaDySi4Tc3
_symmetry_space_group_name_H-M   'P 1'
_cell_length_a   6.83298700
_cell_length_b   6.67549042
_cell_length_c   6.81326164
_cell_angle_alpha   70.49685578
_cell_angle_beta   90.00000000
_cell_angle_gamma   90.00000000
_symmetry_Int_Tables_number   1
_chemical_formula_structural   CaDySi4Tc3
_chemical_formula_sum   'Ca2 Dy2 Si8 Tc6'
_cell_volume   292.94557994
_cell_formula_units_Z   2
loop_
 _symmetry_equiv_pos_site_id
 _symmetry_equiv_pos_as_xyz
  1  'x, y, z'
loop_
 _atom_site_type_symbol
 _atom_site_label
 _atom_site_symmetry_multiplicity
 _atom_site_fract_x
 _atom_site_fract_y
 _atom_site_fract_z
 _atom_site_occupancy
  Ca  Ca0  1  0.666689  0.443292  0.185816  1
  Ca  Ca1  1  0.166689  0.056708  0.814184  1
  Dy  Dy2  1  0.332204  0.558229  0.807761  1
  Dy  Dy3  1  0.832204  0.941771  0.192239  1
  Si  Si4  1  0.451617  0.118395  0.104768  1
  Si  Si5  1  0.951617  0.381605  0.895232  1
  Si  Si6  1  0.546350  0.880573  0.896664  1
  Si  Si7  1  0.046350  0.619427  0.103336  1
  Si  Si8  1  0.861006  0.135501  0.510157  1
  Si  Si9  1  0.361006  0.364499  0.489843  1
  Si  Si10  1  0.139780  0.869918  0.490687  1
  Si  Si11  1  0.639780  0.630082  0.509313  1
  Tc  Tc12  1  0.502807  0.997964  0.498299  1
  Tc  Tc13  1  0.002807  0.502036  0.501701  1
  Tc  Tc14  1  0.157549  0.244913  0.237987  1
  Tc  Tc15  1  0.657549  0.255087  0.762013  1
  Tc  Tc16  1  0.841997  0.758308  0.760123  1
  Tc  Tc17  1  0.341997  0.741692  0.239877  1
