# generated using pymatgen
data_Tm9Re(SiB4)4
_symmetry_space_group_name_H-M   'P 1'
_cell_length_a   7.08745200
_cell_length_b   7.08745200
_cell_length_c   7.70354400
_cell_angle_alpha   90.00000000
_cell_angle_beta   90.00000000
_cell_angle_gamma   90.00000000
_symmetry_Int_Tables_number   1
_chemical_formula_structural   Tm9Re(SiB4)4
_chemical_formula_sum   'Tm9 Re1 Si4 B16'
_cell_volume   386.96423619
_cell_formula_units_Z   1
loop_
 _symmetry_equiv_pos_site_id
 _symmetry_equiv_pos_as_xyz
  1  'x, y, z'
loop_
 _atom_site_type_symbol
 _atom_site_label
 _atom_site_symmetry_multiplicity
 _atom_site_fract_x
 _atom_site_fract_y
 _atom_site_fract_z
 _atom_site_occupancy
  Tm  Tm0  1  0.681860  0.178632  0.231266  1
  Tm  Tm1  1  0.318140  0.821368  0.768734  1
  Tm  Tm2  1  0.318140  0.821368  0.231266  1
  Tm  Tm3  1  0.821368  0.681860  0.231266  1
  Tm  Tm4  1  0.821368  0.681860  0.768734  1
  Tm  Tm5  1  0.681860  0.178632  0.768734  1
  Tm  Tm6  1  0.178632  0.318140  0.768734  1
  Tm  Tm7  1  0.178632  0.318140  0.231266  1
  Tm  Tm8  1  0.500000  0.500000  0.500000  1
  Re  Re9  1  0.000000  0.000000  0.500000  1
  Si  Si10  1  0.107882  0.635027  0.500000  1
  Si  Si11  1  0.892118  0.364973  0.500000  1
  Si  Si12  1  0.364973  0.107882  0.500000  1
  Si  Si13  1  0.635027  0.892118  0.500000  1
  B  B14  1  0.172940  0.039466  0.000000  1
  B  B15  1  0.827060  0.960534  0.000000  1
  B  B16  1  0.960534  0.172940  0.000000  1
  B  B17  1  0.327773  0.539736  0.000000  1
  B  B18  1  0.039466  0.827060  0.000000  1
  B  B19  1  0.672227  0.460264  0.000000  1
  B  B20  1  0.539736  0.672227  0.000000  1
  B  B21  1  0.460264  0.327773  0.000000  1
  B  B22  1  0.090021  0.589107  0.000000  1
  B  B23  1  0.909979  0.410893  0.000000  1
  B  B24  1  0.410893  0.090021  0.000000  1
  B  B25  1  0.589107  0.909979  0.000000  1
  B  B26  1  0.000000  0.000000  0.175184  1
  B  B27  1  0.000000  0.000000  0.824816  1
  B  B28  1  0.500000  0.500000  0.831259  1
  B  B29  1  0.500000  0.500000  0.168741  1
