# generated using pymatgen
data_Tb4Lu4IrPt3
_symmetry_space_group_name_H-M   'P 1'
_cell_length_a   4.69137300
_cell_length_b   7.12605413
_cell_length_c   8.70067884
_cell_angle_alpha   89.59139563
_cell_angle_beta   90.00000000
_cell_angle_gamma   90.00000000
_symmetry_Int_Tables_number   1
_chemical_formula_structural   Tb4Lu4IrPt3
_chemical_formula_sum   'Tb4 Lu4 Ir1 Pt3'
_cell_volume   290.86480615
_cell_formula_units_Z   1
loop_
 _symmetry_equiv_pos_site_id
 _symmetry_equiv_pos_as_xyz
  1  'x, y, z'
loop_
 _atom_site_type_symbol
 _atom_site_label
 _atom_site_symmetry_multiplicity
 _atom_site_fract_x
 _atom_site_fract_y
 _atom_site_fract_z
 _atom_site_occupancy
  Tb  Tb0  1  0.250000  0.015167  0.667846  1
  Tb  Tb1  1  0.250000  0.511274  0.827440  1
  Tb  Tb2  1  0.750000  0.993467  0.331336  1
  Tb  Tb3  1  0.750000  0.483673  0.173277  1
  Lu  Lu4  1  0.250000  0.140974  0.078415  1
  Lu  Lu5  1  0.250000  0.643038  0.422194  1
  Lu  Lu6  1  0.750000  0.856733  0.924039  1
  Lu  Lu7  1  0.750000  0.357757  0.573298  1
  Ir  Ir8  1  0.250000  0.248767  0.406171  1
  Pt  Pt9  1  0.250000  0.745665  0.093899  1
  Pt  Pt10  1  0.750000  0.751777  0.597431  1
  Pt  Pt11  1  0.750000  0.251710  0.904656  1
