# generated using pymatgen
data_TmSc3(AlRh)4
_symmetry_space_group_name_H-M   'P 1'
_cell_length_a   4.17563000
_cell_length_b   6.56229399
_cell_length_c   7.72359511
_cell_angle_alpha   89.64627944
_cell_angle_beta   90.00000000
_cell_angle_gamma   90.00000000
_symmetry_Int_Tables_number   1
_chemical_formula_structural   TmSc3(AlRh)4
_chemical_formula_sum   'Tm1 Sc3 Al4 Rh4'
_cell_volume   211.63569328
_cell_formula_units_Z   1
loop_
 _symmetry_equiv_pos_site_id
 _symmetry_equiv_pos_as_xyz
  1  'x, y, z'
loop_
 _atom_site_type_symbol
 _atom_site_label
 _atom_site_symmetry_multiplicity
 _atom_site_fract_x
 _atom_site_fract_y
 _atom_site_fract_z
 _atom_site_occupancy
  Tm  Tm0  1  0.750000  0.031915  0.679558  1
  Sc  Sc1  1  0.250000  0.965060  0.318624  1
  Sc  Sc2  1  0.750000  0.534527  0.823482  1
  Sc  Sc3  1  0.250000  0.467570  0.179413  1
  Al  Al4  1  0.750000  0.638567  0.438098  1
  Al  Al5  1  0.750000  0.142376  0.062874  1
  Al  Al6  1  0.250000  0.360662  0.556659  1
  Al  Al7  1  0.250000  0.856599  0.942778  1
  Rh  Rh8  1  0.750000  0.758082  0.119485  1
  Rh  Rh9  1  0.750000  0.259360  0.375304  1
  Rh  Rh10  1  0.250000  0.248808  0.883445  1
  Rh  Rh11  1  0.250000  0.736473  0.620279  1
