# generated using pymatgen
data_Lu10Al3Os
_symmetry_space_group_name_H-M   'P 1'
_cell_length_a   9.30969700
_cell_length_b   9.30969716
_cell_length_c   9.48063800
_cell_angle_alpha   90.00000000
_cell_angle_beta   90.00000000
_cell_angle_gamma   120.00000298
_symmetry_Int_Tables_number   1
_chemical_formula_structural   Lu10Al3Os
_chemical_formula_sum   'Lu20 Al6 Os2'
_cell_volume   711.60547859
_cell_formula_units_Z   2
loop_
 _symmetry_equiv_pos_site_id
 _symmetry_equiv_pos_as_xyz
  1  'x, y, z'
loop_
 _atom_site_type_symbol
 _atom_site_label
 _atom_site_symmetry_multiplicity
 _atom_site_fract_x
 _atom_site_fract_y
 _atom_site_fract_z
 _atom_site_occupancy
  Lu  Lu0  1  0.000000  0.000000  0.500000  1
  Lu  Lu1  1  0.000000  0.000000  0.000000  1
  Lu  Lu2  1  0.206874  0.793126  0.440690  1
  Lu  Lu3  1  0.206874  0.413749  0.440690  1
  Lu  Lu4  1  0.586251  0.793126  0.440690  1
  Lu  Lu5  1  0.793126  0.206874  0.559310  1
  Lu  Lu6  1  0.793126  0.586251  0.559310  1
  Lu  Lu7  1  0.413749  0.206874  0.559310  1
  Lu  Lu8  1  0.793126  0.206874  0.940690  1
  Lu  Lu9  1  0.793126  0.586251  0.940690  1
  Lu  Lu10  1  0.413749  0.206874  0.940690  1
  Lu  Lu11  1  0.206874  0.793126  0.059310  1
  Lu  Lu12  1  0.206874  0.413749  0.059310  1
  Lu  Lu13  1  0.586251  0.793126  0.059310  1
  Lu  Lu14  1  0.538625  0.461375  0.250000  1
  Lu  Lu15  1  0.538625  0.077249  0.250000  1
  Lu  Lu16  1  0.922751  0.461375  0.250000  1
  Lu  Lu17  1  0.461375  0.538625  0.750000  1
  Lu  Lu18  1  0.461375  0.922751  0.750000  1
  Lu  Lu19  1  0.077249  0.538625  0.750000  1
  Al  Al20  1  0.889073  0.110927  0.250000  1
  Al  Al21  1  0.889073  0.778146  0.250000  1
  Al  Al22  1  0.221854  0.110927  0.250000  1
  Al  Al23  1  0.110927  0.889073  0.750000  1
  Al  Al24  1  0.110927  0.221854  0.750000  1
  Al  Al25  1  0.778146  0.889073  0.750000  1
  Os  Os26  1  0.333333  0.666667  0.250000  1
  Os  Os27  1  0.666667  0.333333  0.750000  1
