# generated using pymatgen
data_YEr7Tc3OsC8
_symmetry_space_group_name_H-M   'P 1'
_cell_length_a   5.05473700
_cell_length_b   6.52162879
_cell_length_c   9.78951266
_cell_angle_alpha   89.75019385
_cell_angle_beta   90.00000000
_cell_angle_gamma   90.00000000
_symmetry_Int_Tables_number   1
_chemical_formula_structural   YEr7Tc3OsC8
_chemical_formula_sum   'Y1 Er7 Tc3 Os1 C8'
_cell_volume   322.70937613
_cell_formula_units_Z   1
loop_
 _symmetry_equiv_pos_site_id
 _symmetry_equiv_pos_as_xyz
  1  'x, y, z'
loop_
 _atom_site_type_symbol
 _atom_site_label
 _atom_site_symmetry_multiplicity
 _atom_site_fract_x
 _atom_site_fract_y
 _atom_site_fract_z
 _atom_site_occupancy
  Y  Y0  1  0.250000  0.031248  0.284657  1
  Er  Er1  1  0.250000  0.676236  0.557154  1
  Er  Er2  1  0.750000  0.322497  0.442932  1
  Er  Er3  1  0.750000  0.823194  0.057256  1
  Er  Er4  1  0.250000  0.176252  0.942678  1
  Er  Er5  1  0.250000  0.531455  0.216183  1
  Er  Er6  1  0.750000  0.466586  0.784098  1
  Er  Er7  1  0.750000  0.968559  0.713741  1
  Tc  Tc8  1  0.250000  0.719458  0.865903  1
  Tc  Tc9  1  0.750000  0.281171  0.132841  1
  Tc  Tc10  1  0.750000  0.779333  0.367075  1
  Os  Os11  1  0.250000  0.220109  0.634232  1
  C  C12  1  0.250000  0.452766  0.758686  1
  C  C13  1  0.750000  0.547455  0.241194  1
  C  C14  1  0.750000  0.047615  0.259156  1
  C  C15  1  0.250000  0.953967  0.741132  1
  C  C16  1  0.250000  0.822373  0.050160  1
  C  C17  1  0.750000  0.177318  0.948187  1
  C  C18  1  0.750000  0.676581  0.552579  1
  C  C19  1  0.250000  0.325827  0.450154  1
