# generated using pymatgen
data_Ta7Ti5Al8(CoN)4
_symmetry_space_group_name_H-M   'P 1'
_cell_length_a   8.10610990
_cell_length_b   8.10901821
_cell_length_c   8.11284308
_cell_angle_alpha   59.97234296
_cell_angle_beta   59.95785914
_cell_angle_gamma   60.10589328
_symmetry_Int_Tables_number   1
_chemical_formula_structural   Ta7Ti5Al8(CoN)4
_chemical_formula_sum   'Ta7 Ti5 Al8 Co4 N4'
_cell_volume   377.18596506
_cell_formula_units_Z   1
loop_
 _symmetry_equiv_pos_site_id
 _symmetry_equiv_pos_as_xyz
  1  'x, y, z'
loop_
 _atom_site_type_symbol
 _atom_site_label
 _atom_site_symmetry_multiplicity
 _atom_site_fract_x
 _atom_site_fract_y
 _atom_site_fract_z
 _atom_site_occupancy
  Ta  Ta0  1  0.311870  0.311259  0.689116  1
  Ta  Ta1  1  0.561979  0.560623  0.938880  1
  Ta  Ta2  1  0.938414  0.560280  0.560632  1
  Ta  Ta3  1  0.561502  0.938165  0.941020  1
  Ta  Ta4  1  0.939696  0.939476  0.561171  1
  Ta  Ta5  1  0.687738  0.312192  0.689712  1
  Ta  Ta6  1  0.936984  0.562194  0.939261  1
  Ti  Ti7  1  0.562997  0.936117  0.562174  1
  Ti  Ti8  1  0.314567  0.684542  0.688613  1
  Ti  Ti9  1  0.686360  0.313912  0.312564  1
  Ti  Ti10  1  0.313871  0.686116  0.311722  1
  Ti  Ti11  1  0.687789  0.686564  0.313112  1
  Al  Al12  1  0.919350  0.917484  0.919024  1
  Al  Al13  1  0.002273  0.333514  0.330626  1
  Al  Al14  1  0.333286  0.001546  0.333524  1
  Al  Al15  1  0.330449  0.334118  0.004457  1
  Al  Al16  1  0.917940  0.245077  0.919390  1
  Al  Al17  1  0.916028  0.919283  0.245523  1
  Al  Al18  1  0.246401  0.918027  0.916264  1
  Al  Al19  1  0.333853  0.331936  0.331004  1
  Co  Co20  1  0.125558  0.124288  0.125186  1
  Co  Co21  1  0.624299  0.125793  0.122919  1
  Co  Co22  1  0.124731  0.625507  0.125831  1
  Co  Co23  1  0.123912  0.126692  0.623849  1
  N  N24  1  0.621405  0.630755  0.620890  1
  N  N25  1  0.129768  0.627257  0.620366  1
  N  N26  1  0.625173  0.124038  0.620665  1
  N  N27  1  0.621806  0.623245  0.132503  1
