# generated using pymatgen
data_ErSc9In8(PtAu)2
_symmetry_space_group_name_H-M   'P 1'
_cell_length_a   3.49207000
_cell_length_b   7.80573831
_cell_length_c   17.65709825
_cell_angle_alpha   89.90858672
_cell_angle_beta   90.00000000
_cell_angle_gamma   90.00000000
_symmetry_Int_Tables_number   1
_chemical_formula_structural   ErSc9In8(PtAu)2
_chemical_formula_sum   'Er1 Sc9 In8 Pt2 Au2'
_cell_volume   481.29983057
_cell_formula_units_Z   1
loop_
 _symmetry_equiv_pos_site_id
 _symmetry_equiv_pos_as_xyz
  1  'x, y, z'
loop_
 _atom_site_type_symbol
 _atom_site_label
 _atom_site_symmetry_multiplicity
 _atom_site_fract_x
 _atom_site_fract_y
 _atom_site_fract_z
 _atom_site_occupancy
  Er  Er0  1  0.000000  0.732385  0.279897  1
  Sc  Sc1  1  0.000000  0.121831  0.422151  1
  Sc  Sc2  1  0.000000  0.878908  0.580731  1
  Sc  Sc3  1  0.000000  0.382009  0.915894  1
  Sc  Sc4  1  0.000000  0.617547  0.082261  1
  Sc  Sc5  1  0.000000  0.254980  0.215798  1
  Sc  Sc6  1  0.000000  0.742599  0.782355  1
  Sc  Sc7  1  0.000000  0.269319  0.722292  1
  Sc  Sc8  1  0.000000  0.999848  0.998931  1
  Sc  Sc9  1  0.000000  0.499817  0.500399  1
  In  In10  1  0.500000  0.415704  0.354184  1
  In  In11  1  0.500000  0.578616  0.646893  1
  In  In12  1  0.500000  0.080114  0.853518  1
  In  In13  1  0.500000  0.923002  0.144193  1
  In  In14  1  0.500000  0.291528  0.062526  1
  In  In15  1  0.500000  0.707521  0.935405  1
  In  In16  1  0.500000  0.209034  0.565924  1
  In  In17  1  0.500000  0.793442  0.438248  1
  Pt  Pt18  1  0.500000  0.469563  0.805033  1
  Pt  Pt19  1  0.500000  0.523704  0.192162  1
  Au  Au20  1  0.500000  0.038389  0.303956  1
  Au  Au21  1  0.500000  0.970140  0.697249  1
