# generated using pymatgen
data_Ho4AlV(ReB8)2
_symmetry_space_group_name_H-M   'P 1'
_cell_length_a   3.57508200
_cell_length_b   5.95791968
_cell_length_c   11.50159816
_cell_angle_alpha   90.05234366
_cell_angle_beta   90.00000000
_cell_angle_gamma   90.00000000
_symmetry_Int_Tables_number   1
_chemical_formula_structural   Ho4AlV(ReB8)2
_chemical_formula_sum   'Ho4 Al1 V1 Re2 B16'
_cell_volume   244.98452989
_cell_formula_units_Z   1
loop_
 _symmetry_equiv_pos_site_id
 _symmetry_equiv_pos_as_xyz
  1  'x, y, z'
loop_
 _atom_site_type_symbol
 _atom_site_label
 _atom_site_symmetry_multiplicity
 _atom_site_fract_x
 _atom_site_fract_y
 _atom_site_fract_z
 _atom_site_occupancy
  Ho  Ho0  1  0.500000  0.370542  0.147184  1
  Ho  Ho1  1  0.500000  0.626008  0.850479  1
  Ho  Ho2  1  0.500000  0.127719  0.652143  1
  Ho  Ho3  1  0.500000  0.876779  0.351593  1
  Al  Al4  1  0.500000  0.862864  0.087538  1
  V  V5  1  0.500000  0.372716  0.416542  1
  Re  Re6  1  0.500000  0.627813  0.583664  1
  Re  Re7  1  0.500000  0.128112  0.915214  1
  B  B8  1  0.000000  0.117707  0.046377  1
  B  B9  1  0.000000  0.886404  0.950594  1
  B  B10  1  0.000000  0.385887  0.546927  1
  B  B11  1  0.000000  0.614019  0.452124  1
  B  B12  1  0.000000  0.135202  0.467578  1
  B  B13  1  0.000000  0.865393  0.531849  1
  B  B14  1  0.000000  0.365303  0.968923  1
  B  B15  1  0.000000  0.635756  0.032290  1
  B  B16  1  0.000000  0.023137  0.193376  1
  B  B17  1  0.000000  0.976824  0.807799  1
  B  B18  1  0.000000  0.477283  0.692598  1
  B  B19  1  0.000000  0.524730  0.305879  1
  B  B20  1  0.000000  0.212395  0.313271  1
  B  B21  1  0.000000  0.785831  0.685172  1
  B  B22  1  0.000000  0.286452  0.815250  1
  B  B23  1  0.000000  0.715122  0.185632  1
