# generated using pymatgen
data_Sc4CrB12Ir
_symmetry_space_group_name_H-M   'P 1'
_cell_length_a   3.42890100
_cell_length_b   8.88074012
_cell_length_c   11.20124089
_cell_angle_alpha   89.90420454
_cell_angle_beta   90.00000000
_cell_angle_gamma   90.00000000
_symmetry_Int_Tables_number   1
_chemical_formula_structural   Sc4CrB12Ir
_chemical_formula_sum   'Sc8 Cr2 B24 Ir2'
_cell_volume   341.09051110
_cell_formula_units_Z   2
loop_
 _symmetry_equiv_pos_site_id
 _symmetry_equiv_pos_as_xyz
  1  'x, y, z'
loop_
 _atom_site_type_symbol
 _atom_site_label
 _atom_site_symmetry_multiplicity
 _atom_site_fract_x
 _atom_site_fract_y
 _atom_site_fract_z
 _atom_site_occupancy
  Sc  Sc0  1  0.000000  0.811440  0.090478  1
  Sc  Sc1  1  0.000000  0.188560  0.909522  1
  Sc  Sc2  1  0.000000  0.326042  0.418746  1
  Sc  Sc3  1  0.000000  0.673958  0.581254  1
  Sc  Sc4  1  0.000000  0.447479  0.128531  1
  Sc  Sc5  1  0.000000  0.552521  0.871469  1
  Sc  Sc6  1  0.000000  0.940691  0.373872  1
  Sc  Sc7  1  0.000000  0.059309  0.626128  1
  Cr  Cr8  1  0.000000  0.639822  0.318957  1
  Cr  Cr9  1  0.000000  0.360178  0.681043  1
  B  B10  1  0.500000  0.053588  0.064180  1
  B  B11  1  0.500000  0.946412  0.935820  1
  B  B12  1  0.500000  0.552914  0.434301  1
  B  B13  1  0.500000  0.447086  0.565699  1
  B  B14  1  0.500000  0.253652  0.077764  1
  B  B15  1  0.500000  0.746348  0.922236  1
  B  B16  1  0.500000  0.750388  0.420725  1
  B  B17  1  0.500000  0.249612  0.579275  1
  B  B18  1  0.500000  0.295387  0.237091  1
  B  B19  1  0.500000  0.704613  0.762909  1
  B  B20  1  0.500000  0.794174  0.264259  1
  B  B21  1  0.500000  0.205826  0.735741  1
  B  B22  1  0.500000  0.130753  0.319030  1
  B  B23  1  0.500000  0.869247  0.680970  1
  B  B24  1  0.500000  0.630562  0.183068  1
  B  B25  1  0.500000  0.369438  0.816932  1
  B  B26  1  0.500000  0.480491  0.287896  1
  B  B27  1  0.500000  0.519509  0.712104  1
  B  B28  1  0.500000  0.978405  0.213119  1
  B  B29  1  0.500000  0.021595  0.786881  1
  B  B30  1  0.500000  0.102062  0.472191  1
  B  B31  1  0.500000  0.897938  0.527809  1
  B  B32  1  0.500000  0.602022  0.027629  1
  B  B33  1  0.500000  0.397978  0.972371  1
  Ir  Ir34  1  0.000000  0.138944  0.179187  1
  Ir  Ir35  1  0.000000  0.861056  0.820813  1
