# generated using pymatgen
data_Ba3LiZnCoO6
_symmetry_space_group_name_H-M   'P 1'
_cell_length_a   5.98180881
_cell_length_b   5.92535042
_cell_length_c   6.78856147
_cell_angle_alpha   90.40915801
_cell_angle_beta   90.09336547
_cell_angle_gamma   121.33282928
_symmetry_Int_Tables_number   1
_chemical_formula_structural   Ba3LiZnCoO6
_chemical_formula_sum   'Ba3 Li1 Zn1 Co1 O6'
_cell_volume   205.51546023
_cell_formula_units_Z   1
loop_
 _symmetry_equiv_pos_site_id
 _symmetry_equiv_pos_as_xyz
  1  'x, y, z'
loop_
 _atom_site_type_symbol
 _atom_site_label
 _atom_site_symmetry_multiplicity
 _atom_site_fract_x
 _atom_site_fract_y
 _atom_site_fract_z
 _atom_site_occupancy
  Ba  Ba0  1  0.647770  0.989998  0.839260  1
  Ba  Ba1  1  0.985768  0.644017  0.154328  1
  Ba  Ba2  1  0.344145  0.347643  0.507871  1
  Li  Li3  1  0.416530  0.415203  0.997139  1
  Zn  Zn4  1  0.999008  0.582212  0.671498  1
  Co  Co5  1  0.579682  0.997473  0.331227  1
  O  O6  1  0.132585  0.428449  0.868228  1
  O  O7  1  0.576734  0.720058  0.216774  1
  O  O8  1  0.302407  0.867635  0.529986  1
  O  O9  1  0.709033  0.583688  0.791001  1
  O  O10  1  0.445818  0.137926  0.140237  1
  O  O11  1  0.860522  0.285698  0.452451  1
