# generated using pymatgen
data_Ta8NiS20
_symmetry_space_group_name_H-M   'P 1'
_cell_length_a   10.05310031
_cell_length_b   10.05310057
_cell_length_c   18.61460791
_cell_angle_alpha   75.89386859
_cell_angle_beta   75.89386780
_cell_angle_gamma   19.29987125
_symmetry_Int_Tables_number   1
_chemical_formula_structural   Ta8NiS20
_chemical_formula_sum   'Ta8 Ni1 S20'
_cell_volume   602.48668730
_cell_formula_units_Z   1
loop_
 _symmetry_equiv_pos_site_id
 _symmetry_equiv_pos_as_xyz
  1  'x, y, z'
loop_
 _atom_site_type_symbol
 _atom_site_label
 _atom_site_symmetry_multiplicity
 _atom_site_fract_x
 _atom_site_fract_y
 _atom_site_fract_z
 _atom_site_occupancy
  Ta  Ta0  1  0.076568  0.076568  0.090250  1
  Ta  Ta1  1  0.923432  0.923432  0.909750  1
  Ta  Ta2  1  0.331437  0.331437  0.811439  1
  Ta  Ta3  1  0.668563  0.668563  0.188561  1
  Ta  Ta4  1  0.267785  0.267785  0.279159  1
  Ta  Ta5  1  0.732215  0.732215  0.720841  1
  Ta  Ta6  1  0.157708  0.157708  0.555319  1
  Ta  Ta7  1  0.842292  0.842292  0.444681  1
  Ni  Ni8  1  0.500000  0.500000  0.000000  1
  S  S9  1  0.438449  0.438449  0.398997  1
  S  S10  1  0.561551  0.561551  0.601003  1
  S  S11  1  0.399739  0.399739  0.512888  1
  S  S12  1  0.600261  0.600261  0.487112  1
  S  S13  1  0.147932  0.147932  0.694304  1
  S  S14  1  0.852068  0.852068  0.305696  1
  S  S15  1  0.387385  0.387385  0.008268  1
  S  S16  1  0.612615  0.612615  0.991732  1
  S  S17  1  0.204249  0.204249  0.822582  1
  S  S18  1  0.795751  0.795751  0.177418  1
  S  S19  1  0.253615  0.253615  0.429112  1
  S  S20  1  0.746385  0.746385  0.570888  1
  S  S21  1  0.327589  0.327589  0.678907  1
  S  S22  1  0.672411  0.672411  0.321093  1
  S  S23  1  0.483222  0.483222  0.122331  1
  S  S24  1  0.516778  0.516778  0.877669  1
  S  S25  1  0.201576  0.201576  0.088751  1
  S  S26  1  0.798424  0.798424  0.911249  1
  S  S27  1  0.074136  0.074136  0.225269  1
  S  S28  1  0.925864  0.925864  0.774731  1
