# generated using pymatgen
data_Zr10CuSn5Sb2
_symmetry_space_group_name_H-M   'P 1'
_cell_length_a   5.94166030
_cell_length_b   8.76336625
_cell_length_c   8.75587973
_cell_angle_alpha   120.02828744
_cell_angle_beta   90.02107126
_cell_angle_gamma   89.95788212
_symmetry_Int_Tables_number   1
_chemical_formula_structural   Zr10CuSn5Sb2
_chemical_formula_sum   'Zr10 Cu1 Sn5 Sb2'
_cell_volume   394.71644436
_cell_formula_units_Z   1
loop_
 _symmetry_equiv_pos_site_id
 _symmetry_equiv_pos_as_xyz
  1  'x, y, z'
loop_
 _atom_site_type_symbol
 _atom_site_label
 _atom_site_symmetry_multiplicity
 _atom_site_fract_x
 _atom_site_fract_y
 _atom_site_fract_z
 _atom_site_occupancy
  Zr  Zr0  1  0.499355  0.334009  0.667458  1
  Zr  Zr1  1  0.499355  0.666551  0.332542  1
  Zr  Zr2  1  0.000262  0.666533  0.332403  1
  Zr  Zr3  1  0.000262  0.334129  0.667597  1
  Zr  Zr4  1  0.736817  0.271293  0.000000  1
  Zr  Zr5  1  0.736732  0.729413  0.730253  1
  Zr  Zr6  1  0.736732  0.999160  0.269747  1
  Zr  Zr7  1  0.263412  0.728057  0.000000  1
  Zr  Zr8  1  0.263583  0.271498  0.271583  1
  Zr  Zr9  1  0.263583  0.999915  0.728417  1
  Cu  Cu10  1  0.499483  0.000827  0.000000  1
  Sn  Sn11  1  0.753298  0.387434  0.387543  1
  Sn  Sn12  1  0.753298  0.999891  0.612457  1
  Sn  Sn13  1  0.246689  0.385706  0.000000  1
  Sn  Sn14  1  0.247042  0.613135  0.612311  1
  Sn  Sn15  1  0.247042  0.000824  0.387689  1
  Sb  Sb16  1  0.751551  0.611068  0.000000  1
  Sb  Sb17  1  0.001501  0.000558  0.000000  1
