# generated using pymatgen
data_Lu3As2S
_symmetry_space_group_name_H-M   'P 1'
_cell_length_a   6.85882550
_cell_length_b   6.85882588
_cell_length_c   6.85882689
_cell_angle_alpha   146.36479765
_cell_angle_beta   131.86384502
_cell_angle_gamma   60.00371777
_symmetry_Int_Tables_number   1
_chemical_formula_structural   Lu3As2S
_chemical_formula_sum   'Lu3 As2 S1'
_cell_volume   131.88323033
_cell_formula_units_Z   1
loop_
 _symmetry_equiv_pos_site_id
 _symmetry_equiv_pos_as_xyz
  1  'x, y, z'
loop_
 _atom_site_type_symbol
 _atom_site_label
 _atom_site_symmetry_multiplicity
 _atom_site_fract_x
 _atom_site_fract_y
 _atom_site_fract_z
 _atom_site_occupancy
  Lu  Lu0  1  0.500000  0.000000  0.500000  1
  Lu  Lu1  1  0.167325  0.667325  0.500000  1
  Lu  Lu2  1  0.832675  0.332675  0.500000  1
  As  As3  1  0.666140  0.666140  0.000000  1
  As  As4  1  0.333860  0.333860  0.000000  1
  S  S5  1  0.000000  0.000000  0.000000  1
