# generated using pymatgen
data_K2GdAgCl6
_symmetry_space_group_name_H-M   'P 1'
_cell_length_a   7.48091415
_cell_length_b   7.48073654
_cell_length_c   7.47907245
_cell_angle_alpha   60.89706350
_cell_angle_beta   60.88019303
_cell_angle_gamma   60.88340637
_symmetry_Int_Tables_number   1
_chemical_formula_structural   K2GdAgCl6
_chemical_formula_sum   'K2 Gd1 Ag1 Cl6'
_cell_volume   301.87603245
_cell_formula_units_Z   1
loop_
 _symmetry_equiv_pos_site_id
 _symmetry_equiv_pos_as_xyz
  1  'x, y, z'
loop_
 _atom_site_type_symbol
 _atom_site_label
 _atom_site_symmetry_multiplicity
 _atom_site_fract_x
 _atom_site_fract_y
 _atom_site_fract_z
 _atom_site_occupancy
  K  K0  1  0.242926  0.242924  0.242878  1
  K  K1  1  0.757074  0.757076  0.757122  1
  Gd  Gd2  1  0.000000  0.000000  0.000000  1
  Ag  Ag3  1  0.500000  0.500000  0.500000  1
  Cl  Cl4  1  0.327403  0.762329  0.161210  1
  Cl  Cl5  1  0.838803  0.672611  0.237678  1
  Cl  Cl6  1  0.762275  0.161221  0.327499  1
  Cl  Cl7  1  0.237725  0.838779  0.672501  1
  Cl  Cl8  1  0.161197  0.327389  0.762322  1
  Cl  Cl9  1  0.672597  0.237671  0.838790  1
