# generated using pymatgen
data_BaLiMgH8Rh
_symmetry_space_group_name_H-M   'P 1'
_cell_length_a   4.65059100
_cell_length_b   4.65059079
_cell_length_c   7.09906600
_cell_angle_alpha   90.00000000
_cell_angle_beta   90.00000000
_cell_angle_gamma   119.99999435
_symmetry_Int_Tables_number   1
_chemical_formula_structural   BaLiMgH8Rh
_chemical_formula_sum   'Ba1 Li1 Mg1 H8 Rh1'
_cell_volume   132.96830868
_cell_formula_units_Z   1
loop_
 _symmetry_equiv_pos_site_id
 _symmetry_equiv_pos_as_xyz
  1  'x, y, z'
loop_
 _atom_site_type_symbol
 _atom_site_label
 _atom_site_symmetry_multiplicity
 _atom_site_fract_x
 _atom_site_fract_y
 _atom_site_fract_z
 _atom_site_occupancy
  Ba  Ba0  1  0.000000  0.000000  0.494228  1
  Li  Li1  1  0.333333  0.666667  0.128317  1
  Mg  Mg2  1  0.666667  0.333333  0.887769  1
  H  H3  1  0.329133  0.164567  0.133604  1
  H  H4  1  0.835434  0.164567  0.133604  1
  H  H5  1  0.835434  0.670866  0.133604  1
  H  H6  1  0.333333  0.666667  0.398335  1
  H  H7  1  0.666667  0.333333  0.619886  1
  H  H8  1  0.168228  0.336455  0.859118  1
  H  H9  1  0.168227  0.831772  0.859118  1
  H  H10  1  0.663545  0.831772  0.859118  1
  Rh  Rh11  1  0.000000  0.000000  0.993300  1
