# generated using pymatgen
data_Li4B4Ir3Os
_symmetry_space_group_name_H-M   'P 1'
_cell_length_a   6.93630503
_cell_length_b   6.08506698
_cell_length_c   5.55936129
_cell_angle_alpha   72.96379298
_cell_angle_beta   57.01180980
_cell_angle_gamma   49.95124844
_symmetry_Int_Tables_number   1
_chemical_formula_structural   Li4B4Ir3Os
_chemical_formula_sum   'Li4 B4 Ir3 Os1'
_cell_volume   150.06243893
_cell_formula_units_Z   1
loop_
 _symmetry_equiv_pos_site_id
 _symmetry_equiv_pos_as_xyz
  1  'x, y, z'
loop_
 _atom_site_type_symbol
 _atom_site_label
 _atom_site_symmetry_multiplicity
 _atom_site_fract_x
 _atom_site_fract_y
 _atom_site_fract_z
 _atom_site_occupancy
  Li  Li0  1  0.126067  0.625095  0.627652  1
  Li  Li1  1  0.625089  0.625966  0.623675  1
  Li  Li2  1  0.625966  0.625089  0.125270  1
  Li  Li3  1  0.625095  0.126067  0.621187  1
  B  B4  1  0.423573  0.081077  0.428044  1
  B  B5  1  0.177972  0.818320  0.183562  1
  B  B6  1  0.081077  0.423573  0.067305  1
  B  B7  1  0.818320  0.177972  0.820146  1
  Ir  Ir8  1  0.864842  0.864842  0.135158  1
  Ir  Ir9  1  0.132503  0.132503  0.867497  1
  Ir  Ir10  1  0.115583  0.115583  0.384417  1
  Os  Os11  1  0.383913  0.383913  0.116087  1
