# generated using pymatgen
data_Ho6Tm2MoOs3C8
_symmetry_space_group_name_H-M   'P 1'
_cell_length_a   5.07484000
_cell_length_b   6.51645544
_cell_length_c   9.75658702
_cell_angle_alpha   89.65393417
_cell_angle_beta   90.00000000
_cell_angle_gamma   90.00000000
_symmetry_Int_Tables_number   1
_chemical_formula_structural   Ho6Tm2MoOs3C8
_chemical_formula_sum   'Ho6 Tm2 Mo1 Os3 C8'
_cell_volume   322.64414204
_cell_formula_units_Z   1
loop_
 _symmetry_equiv_pos_site_id
 _symmetry_equiv_pos_as_xyz
  1  'x, y, z'
loop_
 _atom_site_type_symbol
 _atom_site_label
 _atom_site_symmetry_multiplicity
 _atom_site_fract_x
 _atom_site_fract_y
 _atom_site_fract_z
 _atom_site_occupancy
  Ho  Ho0  1  0.250000  0.678177  0.554494  1
  Ho  Ho1  1  0.250000  0.179286  0.944564  1
  Ho  Ho2  1  0.250000  0.532359  0.213431  1
  Ho  Ho3  1  0.750000  0.466444  0.781217  1
  Ho  Ho4  1  0.750000  0.969840  0.715865  1
  Ho  Ho5  1  0.250000  0.030264  0.286186  1
  Tm  Tm6  1  0.750000  0.324723  0.443591  1
  Tm  Tm7  1  0.750000  0.826696  0.056771  1
  Mo  Mo8  1  0.250000  0.719606  0.868608  1
  Os  Os9  1  0.750000  0.280423  0.135109  1
  Os  Os10  1  0.750000  0.778627  0.364667  1
  Os  Os11  1  0.250000  0.221635  0.631371  1
  C  C12  1  0.250000  0.450711  0.758568  1
  C  C13  1  0.750000  0.544649  0.241749  1
  C  C14  1  0.750000  0.045817  0.259679  1
  C  C15  1  0.250000  0.956254  0.739573  1
  C  C16  1  0.250000  0.826342  0.057687  1
  C  C17  1  0.750000  0.172367  0.949552  1
  C  C18  1  0.750000  0.670674  0.551364  1
  C  C19  1  0.250000  0.325107  0.445953  1
