# generated using pymatgen
data_Cd4Os3RuO14
_symmetry_space_group_name_H-M   'P 1'
_cell_length_a   7.26595821
_cell_length_b   7.26595818
_cell_length_c   7.26595878
_cell_angle_alpha   60.21265690
_cell_angle_beta   60.21266044
_cell_angle_gamma   60.21265762
_symmetry_Int_Tables_number   1
_chemical_formula_structural   Cd4Os3RuO14
_chemical_formula_sum   'Cd4 Os3 Ru1 O14'
_cell_volume   272.55228499
_cell_formula_units_Z   1
loop_
 _symmetry_equiv_pos_site_id
 _symmetry_equiv_pos_as_xyz
  1  'x, y, z'
loop_
 _atom_site_type_symbol
 _atom_site_label
 _atom_site_symmetry_multiplicity
 _atom_site_fract_x
 _atom_site_fract_y
 _atom_site_fract_z
 _atom_site_occupancy
  Cd  Cd0  1  0.125000  0.125000  0.125000  1
  Cd  Cd1  1  0.625000  0.125000  0.125000  1
  Cd  Cd2  1  0.125000  0.625000  0.125000  1
  Cd  Cd3  1  0.125000  0.125000  0.625000  1
  Os  Os4  1  0.125000  0.625000  0.625000  1
  Os  Os5  1  0.625000  0.125000  0.625000  1
  Os  Os6  1  0.625000  0.625000  0.125000  1
  Ru  Ru7  1  0.625000  0.625000  0.625000  1
  O  O8  1  0.249968  0.249968  0.249968  1
  O  O9  1  0.000032  0.000032  0.000032  1
  O  O10  1  0.557048  0.946825  0.557048  1
  O  O11  1  0.307801  0.692626  0.307801  1
  O  O12  1  0.557048  0.557048  0.946825  1
  O  O13  1  0.946825  0.557048  0.557048  1
  O  O14  1  0.557374  0.942199  0.942199  1
  O  O15  1  0.942199  0.942199  0.557374  1
  O  O16  1  0.942199  0.557374  0.942199  1
  O  O17  1  0.692626  0.307801  0.307801  1
  O  O18  1  0.303175  0.692952  0.692952  1
  O  O19  1  0.692952  0.303175  0.692952  1
  O  O20  1  0.307801  0.307801  0.692626  1
  O  O21  1  0.692952  0.692952  0.303175  1
