# generated using pymatgen
data_Ho3In4NiPd
_symmetry_space_group_name_H-M   'P 1'
_cell_length_a   7.85071900
_cell_length_b   7.85071880
_cell_length_c   3.76936200
_cell_angle_alpha   90.00000000
_cell_angle_beta   90.00000000
_cell_angle_gamma   120.00000617
_symmetry_Int_Tables_number   1
_chemical_formula_structural   Ho3In4NiPd
_chemical_formula_sum   'Ho3 In4 Ni1 Pd1'
_cell_volume   201.19505753
_cell_formula_units_Z   1
loop_
 _symmetry_equiv_pos_site_id
 _symmetry_equiv_pos_as_xyz
  1  'x, y, z'
loop_
 _atom_site_type_symbol
 _atom_site_label
 _atom_site_symmetry_multiplicity
 _atom_site_fract_x
 _atom_site_fract_y
 _atom_site_fract_z
 _atom_site_occupancy
  Ho  Ho0  1  0.049134  0.306817  0.500000  1
  Ho  Ho1  1  0.693183  0.742317  0.500000  1
  Ho  Ho2  1  0.257683  0.950866  0.500000  1
  In  In3  1  0.665661  0.083869  0.000000  1
  In  In4  1  0.916131  0.581794  0.000000  1
  In  In5  1  0.418206  0.334339  0.000000  1
  In  In6  1  0.333333  0.666667  0.000000  1
  Ni  Ni7  1  0.666667  0.333333  0.500000  1
  Pd  Pd8  1  0.000000  0.000000  0.000000  1
