# generated using pymatgen
data_Hf6Ga6FeIr5
_symmetry_space_group_name_H-M   'P 1'
_cell_length_a   7.18661700
_cell_length_b   7.18661698
_cell_length_c   6.82469400
_cell_angle_alpha   90.00000000
_cell_angle_beta   90.00000000
_cell_angle_gamma   120.00001390
_symmetry_Int_Tables_number   1
_chemical_formula_structural   Hf6Ga6FeIr5
_chemical_formula_sum   'Hf6 Ga6 Fe1 Ir5'
_cell_volume   305.25497733
_cell_formula_units_Z   1
loop_
 _symmetry_equiv_pos_site_id
 _symmetry_equiv_pos_as_xyz
  1  'x, y, z'
loop_
 _atom_site_type_symbol
 _atom_site_label
 _atom_site_symmetry_multiplicity
 _atom_site_fract_x
 _atom_site_fract_y
 _atom_site_fract_z
 _atom_site_occupancy
  Hf  Hf0  1  0.398995  0.391866  0.250000  1
  Hf  Hf1  1  0.599710  0.992126  0.750000  1
  Hf  Hf2  1  0.392416  0.400290  0.750000  1
  Hf  Hf3  1  0.007874  0.607584  0.750000  1
  Hf  Hf4  1  0.992871  0.601005  0.250000  1
  Hf  Hf5  1  0.608134  0.007129  0.250000  1
  Ga  Ga6  1  0.264805  0.000282  0.991511  1
  Ga  Ga7  1  0.264805  0.000282  0.508489  1
  Ga  Ga8  1  0.999718  0.264523  0.508489  1
  Ga  Ga9  1  0.999718  0.264523  0.991511  1
  Ga  Ga10  1  0.735477  0.735195  0.991511  1
  Ga  Ga11  1  0.735477  0.735195  0.508489  1
  Fe  Fe12  1  0.000000  0.000000  0.750000  1
  Ir  Ir13  1  0.666667  0.333333  0.508551  1
  Ir  Ir14  1  0.666667  0.333333  0.991449  1
  Ir  Ir15  1  0.333333  0.666667  0.010174  1
  Ir  Ir16  1  0.333333  0.666667  0.489826  1
  Ir  Ir17  1  0.000000  0.000000  0.250000  1
