# generated using pymatgen
data_EuPH
_symmetry_space_group_name_H-M   'P 1'
_cell_length_a   4.47922600
_cell_length_b   4.19000556
_cell_length_c   6.10940565
_cell_angle_alpha   84.09641081
_cell_angle_beta   90.00000000
_cell_angle_gamma   90.00000000
_symmetry_Int_Tables_number   1
_chemical_formula_structural   EuPH
_chemical_formula_sum   'Eu2 P2 H2'
_cell_volume   114.05309419
_cell_formula_units_Z   2
loop_
 _symmetry_equiv_pos_site_id
 _symmetry_equiv_pos_as_xyz
  1  'x, y, z'
loop_
 _atom_site_type_symbol
 _atom_site_label
 _atom_site_symmetry_multiplicity
 _atom_site_fract_x
 _atom_site_fract_y
 _atom_site_fract_z
 _atom_site_occupancy
  Eu  Eu0  1  0.750000  0.748421  0.748933  1
  Eu  Eu1  1  0.250000  0.251579  0.251067  1
  P  P2  1  0.750000  0.764507  0.240812  1
  P  P3  1  0.250000  0.235493  0.759188  1
  H  H4  1  0.750000  0.464658  0.390602  1
  H  H5  1  0.250000  0.535342  0.609398  1
