# generated using pymatgen
data_Y2Tm18Zn3Cd2InRu2
_symmetry_space_group_name_H-M   'P 1'
_cell_length_a   9.40546200
_cell_length_b   9.40546293
_cell_length_c   9.56256600
_cell_angle_alpha   90.00000000
_cell_angle_beta   90.00000000
_cell_angle_gamma   119.97925516
_symmetry_Int_Tables_number   1
_chemical_formula_structural   Y2Tm18Zn3Cd2InRu2
_chemical_formula_sum   'Y2 Tm18 Zn3 Cd2 In1 Ru2'
_cell_volume   732.75051641
_cell_formula_units_Z   1
loop_
 _symmetry_equiv_pos_site_id
 _symmetry_equiv_pos_as_xyz
  1  'x, y, z'
loop_
 _atom_site_type_symbol
 _atom_site_label
 _atom_site_symmetry_multiplicity
 _atom_site_fract_x
 _atom_site_fract_y
 _atom_site_fract_z
 _atom_site_occupancy
  Y  Y0  1  0.462853  0.919602  0.750000  1
  Y  Y1  1  0.080398  0.537147  0.750000  1
  Tm  Tm2  1  0.998799  0.001201  0.472937  1
  Tm  Tm3  1  0.998799  0.001201  0.027063  1
  Tm  Tm4  1  0.207645  0.792355  0.438498  1
  Tm  Tm5  1  0.209211  0.416449  0.437813  1
  Tm  Tm6  1  0.583551  0.790789  0.437813  1
  Tm  Tm7  1  0.790751  0.209249  0.555531  1
  Tm  Tm8  1  0.790571  0.581981  0.556365  1
  Tm  Tm9  1  0.418019  0.209429  0.556365  1
  Tm  Tm10  1  0.790751  0.209249  0.944469  1
  Tm  Tm11  1  0.790571  0.581981  0.943635  1
  Tm  Tm12  1  0.418019  0.209429  0.943635  1
  Tm  Tm13  1  0.207645  0.792355  0.061502  1
  Tm  Tm14  1  0.209211  0.416449  0.062187  1
  Tm  Tm15  1  0.583551  0.790789  0.062187  1
  Tm  Tm16  1  0.541901  0.458099  0.250000  1
  Tm  Tm17  1  0.540826  0.081817  0.250000  1
  Tm  Tm18  1  0.918183  0.459174  0.250000  1
  Tm  Tm19  1  0.461886  0.538114  0.750000  1
  Zn  Zn20  1  0.878185  0.121815  0.250000  1
  Zn  Zn21  1  0.878068  0.756860  0.250000  1
  Zn  Zn22  1  0.243140  0.121932  0.250000  1
  Cd  Cd23  1  0.110032  0.219975  0.750000  1
  Cd  Cd24  1  0.780025  0.889968  0.750000  1
  In  In25  1  0.109156  0.890844  0.750000  1
  Ru  Ru26  1  0.332532  0.667468  0.250000  1
  Ru  Ru27  1  0.665723  0.334277  0.750000  1
