# generated using pymatgen
data_TmLu19Bi11Pt
_symmetry_space_group_name_H-M   'P 1'
_cell_length_a   8.04044608
_cell_length_b   9.35077900
_cell_length_c   11.82393605
_cell_angle_alpha   90.00000000
_cell_angle_beta   89.60302239
_cell_angle_gamma   90.00000000
_symmetry_Int_Tables_number   1
_chemical_formula_structural   TmLu19Bi11Pt
_chemical_formula_sum   'Tm1 Lu19 Bi11 Pt1'
_cell_volume   888.95460588
_cell_formula_units_Z   1
loop_
 _symmetry_equiv_pos_site_id
 _symmetry_equiv_pos_as_xyz
  1  'x, y, z'
loop_
 _atom_site_type_symbol
 _atom_site_label
 _atom_site_symmetry_multiplicity
 _atom_site_fract_x
 _atom_site_fract_y
 _atom_site_fract_z
 _atom_site_occupancy
  Tm  Tm0  1  0.313942  0.750000  0.280976  1
  Lu  Lu1  1  0.047237  0.250000  0.506700  1
  Lu  Lu2  1  0.984147  0.750000  0.492467  1
  Lu  Lu3  1  0.477187  0.750000  0.011600  1
  Lu  Lu4  1  0.526215  0.250000  0.990297  1
  Lu  Lu5  1  0.357041  0.250000  0.299870  1
  Lu  Lu6  1  0.654514  0.750000  0.718148  1
  Lu  Lu7  1  0.145790  0.750000  0.780152  1
  Lu  Lu8  1  0.848959  0.250000  0.215586  1
  Lu  Lu9  1  0.204060  0.250000  0.776108  1
  Lu  Lu10  1  0.808040  0.750000  0.216200  1
  Lu  Lu11  1  0.653558  0.250000  0.703658  1
  Lu  Lu12  1  0.193201  0.067309  0.063950  1
  Lu  Lu13  1  0.806794  0.932941  0.940281  1
  Lu  Lu14  1  0.312754  0.962210  0.559855  1
  Lu  Lu15  1  0.806794  0.567059  0.940281  1
  Lu  Lu16  1  0.680493  0.074314  0.446702  1
  Lu  Lu17  1  0.193201  0.432691  0.063950  1
  Lu  Lu18  1  0.680493  0.425686  0.446702  1
  Lu  Lu19  1  0.312754  0.537790  0.559855  1
  Bi  Bi20  1  0.595919  0.750000  0.459057  1
  Bi  Bi21  1  0.097232  0.750000  0.042429  1
  Bi  Bi22  1  0.908018  0.250000  0.951336  1
  Bi  Bi23  1  0.057096  0.000465  0.322760  1
  Bi  Bi24  1  0.933495  0.001247  0.675329  1
  Bi  Bi25  1  0.434945  0.992855  0.828398  1
  Bi  Bi26  1  0.933495  0.498753  0.675329  1
  Bi  Bi27  1  0.564624  0.005211  0.175120  1
  Bi  Bi28  1  0.057096  0.499535  0.322760  1
  Bi  Bi29  1  0.564624  0.494789  0.175120  1
  Bi  Bi30  1  0.434945  0.507145  0.828398  1
  Pt  Pt31  1  0.411338  0.250000  0.530626  1
