# generated using pymatgen
data_LuU2Ga3IrRu2
_symmetry_space_group_name_H-M   'P 1'
_cell_length_a   6.80192900
_cell_length_b   7.11854178
_cell_length_c   3.91068000
_cell_angle_alpha   90.00000000
_cell_angle_beta   90.00000000
_cell_angle_gamma   118.53928370
_symmetry_Int_Tables_number   1
_chemical_formula_structural   LuU2Ga3IrRu2
_chemical_formula_sum   'Lu1 U2 Ga3 Ir1 Ru2'
_cell_volume   166.34590433
_cell_formula_units_Z   1
loop_
 _symmetry_equiv_pos_site_id
 _symmetry_equiv_pos_as_xyz
  1  'x, y, z'
loop_
 _atom_site_type_symbol
 _atom_site_label
 _atom_site_symmetry_multiplicity
 _atom_site_fract_x
 _atom_site_fract_y
 _atom_site_fract_z
 _atom_site_occupancy
  Lu  Lu0  1  0.410680  0.000000  0.500000  1
  U  U1  1  0.998740  0.419137  0.500000  1
  U  U2  1  0.579603  0.580863  0.500000  1
  Ga  Ga3  1  0.734829  0.000000  0.000000  1
  Ga  Ga4  1  0.016731  0.770549  0.000000  1
  Ga  Ga5  1  0.246182  0.229451  0.000000  1
  Ir  Ir6  1  0.982227  0.000000  0.500000  1
  Ru  Ru7  1  0.329587  0.628166  0.000000  1
  Ru  Ru8  1  0.701421  0.371834  0.000000  1
