# generated using pymatgen
data_Sm4Ni4As12Ru5Rh11
_symmetry_space_group_name_H-M   'P 1'
_cell_length_a   3.97166100
_cell_length_b   11.12174635
_cell_length_c   12.66683900
_cell_angle_alpha   90.13162577
_cell_angle_beta   90.00000000
_cell_angle_gamma   90.00000000
_symmetry_Int_Tables_number   1
_chemical_formula_structural   Sm4Ni4As12Ru5Rh11
_chemical_formula_sum   'Sm4 Ni4 As12 Ru5 Rh11'
_cell_volume   559.51568131
_cell_formula_units_Z   1
loop_
 _symmetry_equiv_pos_site_id
 _symmetry_equiv_pos_as_xyz
  1  'x, y, z'
loop_
 _atom_site_type_symbol
 _atom_site_label
 _atom_site_symmetry_multiplicity
 _atom_site_fract_x
 _atom_site_fract_y
 _atom_site_fract_z
 _atom_site_occupancy
  Sm  Sm0  1  0.250000  0.590576  0.706137  1
  Sm  Sm1  1  0.250000  0.909270  0.206854  1
  Sm  Sm2  1  0.750000  0.409366  0.294867  1
  Sm  Sm3  1  0.750000  0.091098  0.793693  1
  Ni  Ni4  1  0.250000  0.469963  0.931328  1
  Ni  Ni5  1  0.250000  0.031113  0.431131  1
  Ni  Ni6  1  0.750000  0.528592  0.068164  1
  Ni  Ni7  1  0.750000  0.970126  0.568679  1
  As  As8  1  0.250000  0.413304  0.106368  1
  As  As9  1  0.250000  0.085640  0.606504  1
  As  As10  1  0.750000  0.587102  0.893779  1
  As  As11  1  0.750000  0.913811  0.393410  1
  As  As12  1  0.250000  0.274279  0.877632  1
  As  As13  1  0.250000  0.228424  0.379089  1
  As  As14  1  0.750000  0.724745  0.122222  1
  As  As15  1  0.750000  0.774435  0.622264  1
  As  As16  1  0.250000  0.594582  0.388545  1
  As  As17  1  0.250000  0.902415  0.887622  1
  As  As18  1  0.750000  0.403578  0.609677  1
  As  As19  1  0.750000  0.097458  0.112642  1
  Ru  Ru20  1  0.250000  0.713297  0.983365  1
  Ru  Ru21  1  0.250000  0.786469  0.484026  1
  Ru  Ru22  1  0.750000  0.285445  0.014931  1
  Ru  Ru23  1  0.750000  0.212988  0.515042  1
  Ru  Ru24  1  0.250000  0.406609  0.489780  1
  Rh  Rh25  1  0.250000  0.092638  0.986962  1
  Rh  Rh26  1  0.750000  0.594951  0.512995  1
  Rh  Rh27  1  0.750000  0.906523  0.013782  1
  Rh  Rh28  1  0.250000  0.218866  0.182486  1
  Rh  Rh29  1  0.250000  0.279598  0.682245  1
  Rh  Rh30  1  0.750000  0.781652  0.817546  1
  Rh  Rh31  1  0.750000  0.719182  0.317843  1
  Rh  Rh32  1  0.250000  0.891804  0.696257  1
  Rh  Rh33  1  0.250000  0.608497  0.196733  1
  Rh  Rh34  1  0.750000  0.108447  0.303638  1
  Rh  Rh35  1  0.750000  0.393158  0.801764  1
