# generated using pymatgen
data_NdY4(In2Pd)2
_symmetry_space_group_name_H-M   'P 1'
_cell_length_a   3.64993600
_cell_length_b   8.20780000
_cell_length_c   18.47258500
_cell_angle_alpha   90.00000000
_cell_angle_beta   90.00000000
_cell_angle_gamma   90.00000000
_symmetry_Int_Tables_number   1
_chemical_formula_structural   NdY4(In2Pd)2
_chemical_formula_sum   'Nd2 Y8 In8 Pd4'
_cell_volume   553.40067991
_cell_formula_units_Z   2
loop_
 _symmetry_equiv_pos_site_id
 _symmetry_equiv_pos_as_xyz
  1  'x, y, z'
loop_
 _atom_site_type_symbol
 _atom_site_label
 _atom_site_symmetry_multiplicity
 _atom_site_fract_x
 _atom_site_fract_y
 _atom_site_fract_z
 _atom_site_occupancy
  Nd  Nd0  1  0.500000  0.000000  0.000000  1
  Nd  Nd1  1  0.500000  0.500000  0.500000  1
  Y  Y2  1  0.500000  0.240251  0.781411  1
  Y  Y3  1  0.500000  0.759749  0.218589  1
  Y  Y4  1  0.500000  0.259749  0.281411  1
  Y  Y5  1  0.500000  0.740251  0.718589  1
  Y  Y6  1  0.500000  0.121081  0.583555  1
  Y  Y7  1  0.500000  0.878919  0.416445  1
  Y  Y8  1  0.500000  0.378919  0.083555  1
  Y  Y9  1  0.500000  0.621081  0.916445  1
  In  In10  1  0.000000  0.080985  0.153096  1
  In  In11  1  0.000000  0.919015  0.846904  1
  In  In12  1  0.000000  0.419015  0.653096  1
  In  In13  1  0.000000  0.580985  0.346904  1
  In  In14  1  0.000000  0.201471  0.431015  1
  In  In15  1  0.000000  0.798529  0.568985  1
  In  In16  1  0.000000  0.298529  0.931015  1
  In  In17  1  0.000000  0.701471  0.068985  1
  Pd  Pd18  1  0.000000  0.024835  0.695863  1
  Pd  Pd19  1  0.000000  0.975165  0.304137  1
  Pd  Pd20  1  0.000000  0.475165  0.195863  1
  Pd  Pd21  1  0.000000  0.524835  0.804137  1
