# generated using pymatgen
data_Y2Ho4TcOs
_symmetry_space_group_name_H-M   'P 1'
_cell_length_a   6.26056200
_cell_length_b   7.46307200
_cell_length_c   9.04534100
_cell_angle_alpha   90.00000000
_cell_angle_beta   90.00000000
_cell_angle_gamma   90.00000000
_symmetry_Int_Tables_number   1
_chemical_formula_structural   Y2Ho4TcOs
_chemical_formula_sum   'Y4 Ho8 Tc2 Os2'
_cell_volume   422.62569337
_cell_formula_units_Z   2
loop_
 _symmetry_equiv_pos_site_id
 _symmetry_equiv_pos_as_xyz
  1  'x, y, z'
loop_
 _atom_site_type_symbol
 _atom_site_label
 _atom_site_symmetry_multiplicity
 _atom_site_fract_x
 _atom_site_fract_y
 _atom_site_fract_z
 _atom_site_occupancy
  Y  Y0  1  0.878527  0.539475  0.250000  1
  Y  Y1  1  0.621473  0.039475  0.250000  1
  Y  Y2  1  0.129335  0.459656  0.750000  1
  Y  Y3  1  0.370665  0.959656  0.750000  1
  Ho  Ho4  1  0.339644  0.675097  0.062389  1
  Ho  Ho5  1  0.160356  0.175097  0.437611  1
  Ho  Ho6  1  0.663680  0.324561  0.562507  1
  Ho  Ho7  1  0.836320  0.824561  0.937493  1
  Ho  Ho8  1  0.663680  0.324561  0.937493  1
  Ho  Ho9  1  0.836320  0.824561  0.562507  1
  Ho  Ho10  1  0.339644  0.675097  0.437611  1
  Ho  Ho11  1  0.160356  0.175097  0.062389  1
  Tc  Tc12  1  0.044740  0.885019  0.250000  1
  Tc  Tc13  1  0.455260  0.385019  0.250000  1
  Os  Os14  1  0.954931  0.116533  0.750000  1
  Os  Os15  1  0.545069  0.616533  0.750000  1
