# generated using pymatgen
data_Eu6P13IrRh19
_symmetry_space_group_name_H-M   'P 1'
_cell_length_a   13.49079000
_cell_length_b   13.49078876
_cell_length_c   3.99648500
_cell_angle_alpha   90.00000000
_cell_angle_beta   90.00000000
_cell_angle_gamma   119.99999814
_symmetry_Int_Tables_number   1
_chemical_formula_structural   Eu6P13IrRh19
_chemical_formula_sum   'Eu6 P13 Ir1 Rh19'
_cell_volume   629.91732210
_cell_formula_units_Z   1
loop_
 _symmetry_equiv_pos_site_id
 _symmetry_equiv_pos_as_xyz
  1  'x, y, z'
loop_
 _atom_site_type_symbol
 _atom_site_label
 _atom_site_symmetry_multiplicity
 _atom_site_fract_x
 _atom_site_fract_y
 _atom_site_fract_z
 _atom_site_occupancy
  Eu  Eu0  1  0.528363  0.716693  0.247271  1
  Eu  Eu1  1  0.283307  0.811670  0.247271  1
  Eu  Eu2  1  0.188330  0.471637  0.247271  1
  Eu  Eu3  1  0.471869  0.283209  0.752796  1
  Eu  Eu4  1  0.716791  0.188660  0.752796  1
  Eu  Eu5  1  0.811340  0.528131  0.752796  1
  P  P6  1  0.521310  0.134276  0.251537  1
  P  P7  1  0.865724  0.387035  0.251537  1
  P  P8  1  0.612965  0.478690  0.251537  1
  P  P9  1  0.949020  0.719484  0.254722  1
  P  P10  1  0.280516  0.229537  0.254722  1
  P  P11  1  0.770463  0.050980  0.254722  1
  P  P12  1  0.386297  0.521834  0.748341  1
  P  P13  1  0.478166  0.864462  0.748341  1
  P  P14  1  0.135538  0.613703  0.748341  1
  P  P15  1  0.719728  0.770645  0.745283  1
  P  P16  1  0.229355  0.949083  0.745283  1
  P  P17  1  0.050917  0.280272  0.745283  1
  P  P18  1  0.000000  0.000000  0.000300  1
  Ir  Ir19  1  0.333333  0.666667  0.751021  1
  Rh  Rh20  1  0.924749  0.249285  0.254885  1
  Rh  Rh21  1  0.750715  0.675464  0.254885  1
  Rh  Rh22  1  0.324536  0.075251  0.254885  1
  Rh  Rh23  1  0.440967  0.025947  0.751262  1
  Rh  Rh24  1  0.974053  0.415021  0.751262  1
  Rh  Rh25  1  0.584979  0.559033  0.751262  1
  Rh  Rh26  1  0.666667  0.333333  0.248776  1
  Rh  Rh27  1  0.092128  0.183150  0.246740  1
  Rh  Rh28  1  0.816850  0.908976  0.246740  1
  Rh  Rh29  1  0.091024  0.907872  0.246740  1
  Rh  Rh30  1  0.026560  0.585052  0.248588  1
  Rh  Rh31  1  0.414948  0.441506  0.248588  1
  Rh  Rh32  1  0.558494  0.973440  0.248588  1
  Rh  Rh33  1  0.675416  0.924868  0.745212  1
  Rh  Rh34  1  0.075132  0.750548  0.745212  1
  Rh  Rh35  1  0.249452  0.324584  0.745212  1
  Rh  Rh36  1  0.908026  0.816922  0.753334  1
  Rh  Rh37  1  0.183078  0.091107  0.753334  1
  Rh  Rh38  1  0.908893  0.091974  0.753334  1
