# generated using pymatgen
data_Dy5Nb2P12Ir16Ru
_symmetry_space_group_name_H-M   'P 1'
_cell_length_a   12.61530900
_cell_length_b   12.77392215
_cell_length_c   3.99939500
_cell_angle_alpha   90.00000000
_cell_angle_beta   90.00000000
_cell_angle_gamma   119.59009625
_symmetry_Int_Tables_number   1
_chemical_formula_structural   Dy5Nb2P12Ir16Ru
_chemical_formula_sum   'Dy5 Nb2 P12 Ir16 Ru1'
_cell_volume   560.43615810
_cell_formula_units_Z   1
loop_
 _symmetry_equiv_pos_site_id
 _symmetry_equiv_pos_as_xyz
  1  'x, y, z'
loop_
 _atom_site_type_symbol
 _atom_site_label
 _atom_site_symmetry_multiplicity
 _atom_site_fract_x
 _atom_site_fract_y
 _atom_site_fract_z
 _atom_site_occupancy
  Dy  Dy0  1  0.331029  0.662607  0.500000  1
  Dy  Dy1  1  0.668423  0.337393  0.500000  1
  Dy  Dy2  1  0.999949  0.813937  0.000000  1
  Dy  Dy3  1  0.186013  0.186063  0.000000  1
  Dy  Dy4  1  0.813854  0.000000  0.000000  1
  Nb  Nb5  1  0.997997  0.450649  0.500000  1
  Nb  Nb6  1  0.547348  0.549351  0.500000  1
  P  P7  1  0.002739  0.642116  0.500000  1
  P  P8  1  0.360623  0.357884  0.500000  1
  P  P9  1  0.641242  0.000000  0.500000  1
  P  P10  1  0.514796  0.683984  0.000000  1
  P  P11  1  0.312199  0.826886  0.000000  1
  P  P12  1  0.163499  0.481265  0.000000  1
  P  P13  1  0.485312  0.173114  0.000000  1
  P  P14  1  0.682234  0.518735  0.000000  1
  P  P15  1  0.830812  0.316016  0.000000  1
  P  P16  1  0.999468  0.174997  0.500000  1
  P  P17  1  0.824470  0.825003  0.500000  1
  P  P18  1  0.181012  0.000000  0.500000  1
  Ir  Ir19  1  0.507667  0.866036  0.000000  1
  Ir  Ir20  1  0.129723  0.642881  0.000000  1
  Ir  Ir21  1  0.354389  0.493016  0.000000  1
  Ir  Ir22  1  0.486843  0.357119  0.000000  1
  Ir  Ir23  1  0.861375  0.506984  0.000000  1
  Ir  Ir24  1  0.641632  0.133964  0.000000  1
  Ir  Ir25  1  0.997593  0.282040  0.000000  1
  Ir  Ir26  1  0.715551  0.717960  0.000000  1
  Ir  Ir27  1  0.291870  0.000000  0.000000  1
  Ir  Ir28  1  0.625334  0.807708  0.500000  1
  Ir  Ir29  1  0.200778  0.823863  0.500000  1
  Ir  Ir30  1  0.177628  0.368245  0.500000  1
  Ir  Ir31  1  0.376914  0.176137  0.500000  1
  Ir  Ir32  1  0.809381  0.631755  0.500000  1
  Ir  Ir33  1  0.817625  0.192292  0.500000  1
  Ir  Ir34  1  0.003150  0.000000  0.500000  1
  Ru  Ru35  1  0.459528  0.000000  0.500000  1
