# generated using pymatgen
data_Ce3Tm7(Al2Os3)2
_symmetry_space_group_name_H-M   'P 1'
_cell_length_a   8.37581137
_cell_length_b   8.37581121
_cell_length_c   8.37581208
_cell_angle_alpha   110.03663052
_cell_angle_beta   110.03663328
_cell_angle_gamma   110.03662714
_symmetry_Int_Tables_number   1
_chemical_formula_structural   Ce3Tm7(Al2Os3)2
_chemical_formula_sum   'Ce3 Tm7 Al4 Os6'
_cell_volume   442.61149510
_cell_formula_units_Z   1
loop_
 _symmetry_equiv_pos_site_id
 _symmetry_equiv_pos_as_xyz
  1  'x, y, z'
loop_
 _atom_site_type_symbol
 _atom_site_label
 _atom_site_symmetry_multiplicity
 _atom_site_fract_x
 _atom_site_fract_y
 _atom_site_fract_z
 _atom_site_occupancy
  Ce  Ce0  1  0.252958  0.195277  0.938739  1
  Ce  Ce1  1  0.938739  0.252958  0.195277  1
  Ce  Ce2  1  0.195277  0.938739  0.252958  1
  Tm  Tm3  1  0.780313  0.780313  0.780313  1
  Tm  Tm4  1  0.318928  0.572378  0.749957  1
  Tm  Tm5  1  0.749957  0.318928  0.572378  1
  Tm  Tm6  1  0.572378  0.749957  0.318928  1
  Tm  Tm7  1  0.718179  0.507114  0.996822  1
  Tm  Tm8  1  0.996822  0.718179  0.507114  1
  Tm  Tm9  1  0.507114  0.996822  0.718179  1
  Al  Al10  1  0.411982  0.411982  0.411982  1
  Al  Al11  1  0.091107  0.496898  0.000057  1
  Al  Al12  1  0.000057  0.091107  0.496898  1
  Al  Al13  1  0.496898  0.000057  0.091107  1
  Os  Os14  1  0.889575  0.119318  0.748161  1
  Os  Os15  1  0.748161  0.889575  0.119318  1
  Os  Os16  1  0.119318  0.748161  0.889575  1
  Os  Os17  1  0.235400  0.607380  0.369457  1
  Os  Os18  1  0.369457  0.235400  0.607380  1
  Os  Os19  1  0.607380  0.369457  0.235400  1
