# generated using pymatgen
data_PrThU(GaIr)3
_symmetry_space_group_name_H-M   'P 1'
_cell_length_a   7.34991846
_cell_length_b   7.25869064
_cell_length_c   3.99543300
_cell_angle_alpha   90.00000000
_cell_angle_beta   90.00000000
_cell_angle_gamma   120.87338397
_symmetry_Int_Tables_number   1
_chemical_formula_structural   PrThU(GaIr)3
_chemical_formula_sum   'Pr1 Th1 U1 Ga3 Ir3'
_cell_volume   182.95550431
_cell_formula_units_Z   1
loop_
 _symmetry_equiv_pos_site_id
 _symmetry_equiv_pos_as_xyz
  1  'x, y, z'
loop_
 _atom_site_type_symbol
 _atom_site_label
 _atom_site_symmetry_multiplicity
 _atom_site_fract_x
 _atom_site_fract_y
 _atom_site_fract_z
 _atom_site_occupancy
  Pr  Pr0  1  0.412819  0.412562  0.500000  1
  Th  Th1  1  0.001195  0.586318  0.500000  1
  U  U2  1  0.585998  0.001644  0.500000  1
  Ga  Ga3  1  0.748286  0.753265  0.000000  1
  Ga  Ga4  1  0.239484  0.007197  0.000000  1
  Ga  Ga5  1  0.004150  0.238319  0.000000  1
  Ir  Ir6  1  0.677505  0.300733  0.000000  1
  Ir  Ir7  1  0.356441  0.712830  0.000000  1
  Ir  Ir8  1  0.974123  0.987132  0.500000  1
