# generated using pymatgen
data_Nd2GaPd14
_symmetry_space_group_name_H-M   'P 1'
_cell_length_a   8.97652800
_cell_length_b   8.97652800
_cell_length_c   7.26273200
_cell_angle_alpha   90.00000000
_cell_angle_beta   90.00000000
_cell_angle_gamma   90.00000000
_symmetry_Int_Tables_number   1
_chemical_formula_structural   Nd2GaPd14
_chemical_formula_sum   'Nd4 Ga2 Pd28'
_cell_volume   585.21681807
_cell_formula_units_Z   2
loop_
 _symmetry_equiv_pos_site_id
 _symmetry_equiv_pos_as_xyz
  1  'x, y, z'
loop_
 _atom_site_type_symbol
 _atom_site_label
 _atom_site_symmetry_multiplicity
 _atom_site_fract_x
 _atom_site_fract_y
 _atom_site_fract_z
 _atom_site_occupancy
  Nd  Nd0  1  0.500000  0.000000  0.936908  1
  Nd  Nd1  1  0.000000  0.500000  0.063092  1
  Nd  Nd2  1  0.000000  0.000000  0.500000  1
  Nd  Nd3  1  0.500000  0.500000  0.500000  1
  Ga  Ga4  1  0.500000  0.000000  0.451074  1
  Ga  Ga5  1  0.000000  0.500000  0.548926  1
  Pd  Pd6  1  0.328596  0.828596  0.623449  1
  Pd  Pd7  1  0.328596  0.171404  0.623449  1
  Pd  Pd8  1  0.671404  0.828596  0.623449  1
  Pd  Pd9  1  0.671404  0.171404  0.623449  1
  Pd  Pd10  1  0.171404  0.671404  0.376551  1
  Pd  Pd11  1  0.171404  0.328596  0.376551  1
  Pd  Pd12  1  0.828596  0.671404  0.376551  1
  Pd  Pd13  1  0.828596  0.328596  0.376551  1
  Pd  Pd14  1  0.500000  0.765623  0.252474  1
  Pd  Pd15  1  0.500000  0.234377  0.252474  1
  Pd  Pd16  1  0.265623  0.000000  0.252474  1
  Pd  Pd17  1  0.734377  0.000000  0.252474  1
  Pd  Pd18  1  0.000000  0.734377  0.747526  1
  Pd  Pd19  1  0.000000  0.265623  0.747526  1
  Pd  Pd20  1  0.234377  0.500000  0.747526  1
  Pd  Pd21  1  0.765623  0.500000  0.747526  1
  Pd  Pd22  1  0.500000  0.348438  0.856966  1
  Pd  Pd23  1  0.500000  0.651562  0.856966  1
  Pd  Pd24  1  0.848438  0.000000  0.856966  1
  Pd  Pd25  1  0.151562  0.000000  0.856966  1
  Pd  Pd26  1  0.000000  0.151562  0.143034  1
  Pd  Pd27  1  0.000000  0.848438  0.143034  1
  Pd  Pd28  1  0.651562  0.500000  0.143034  1
  Pd  Pd29  1  0.348438  0.500000  0.143034  1
  Pd  Pd30  1  0.250000  0.750000  0.000000  1
  Pd  Pd31  1  0.250000  0.250000  0.000000  1
  Pd  Pd32  1  0.750000  0.750000  0.000000  1
  Pd  Pd33  1  0.750000  0.250000  0.000000  1
