# generated using pymatgen
data_SmGe(AsRh2)3
_symmetry_space_group_name_H-M   'P 1'
_cell_length_a   7.24173900
_cell_length_b   7.24173843
_cell_length_c   3.88698000
_cell_angle_alpha   90.00000000
_cell_angle_beta   90.00000000
_cell_angle_gamma   120.00000715
_symmetry_Int_Tables_number   1
_chemical_formula_structural   SmGe(AsRh2)3
_chemical_formula_sum   'Sm1 Ge1 As3 Rh6'
_cell_volume   176.53410056
_cell_formula_units_Z   1
loop_
 _symmetry_equiv_pos_site_id
 _symmetry_equiv_pos_as_xyz
  1  'x, y, z'
loop_
 _atom_site_type_symbol
 _atom_site_label
 _atom_site_symmetry_multiplicity
 _atom_site_fract_x
 _atom_site_fract_y
 _atom_site_fract_z
 _atom_site_occupancy
  Sm  Sm0  1  0.000000  0.000000  0.000000  1
  Ge  Ge1  1  0.333333  0.666667  0.000000  1
  As  As2  1  0.808477  0.616956  0.500000  1
  As  As3  1  0.383044  0.191523  0.500000  1
  As  As4  1  0.808477  0.191523  0.500000  1
  Rh  Rh5  1  0.534518  0.069034  0.000000  1
  Rh  Rh6  1  0.930966  0.465482  0.000000  1
  Rh  Rh7  1  0.534518  0.465482  0.000000  1
  Rh  Rh8  1  0.198686  0.397372  0.500000  1
  Rh  Rh9  1  0.602628  0.801314  0.500000  1
  Rh  Rh10  1  0.198686  0.801314  0.500000  1
