# generated using pymatgen
data_Pu3Ga3Ge2Pt
_symmetry_space_group_name_H-M   'P 1'
_cell_length_a   7.03616700
_cell_length_b   7.03616780
_cell_length_c   4.29782100
_cell_angle_alpha   90.00000000
_cell_angle_beta   90.00000000
_cell_angle_gamma   120.00000095
_symmetry_Int_Tables_number   1
_chemical_formula_structural   Pu3Ga3Ge2Pt
_chemical_formula_sum   'Pu3 Ga3 Ge2 Pt1'
_cell_volume   184.26857517
_cell_formula_units_Z   1
loop_
 _symmetry_equiv_pos_site_id
 _symmetry_equiv_pos_as_xyz
  1  'x, y, z'
loop_
 _atom_site_type_symbol
 _atom_site_label
 _atom_site_symmetry_multiplicity
 _atom_site_fract_x
 _atom_site_fract_y
 _atom_site_fract_z
 _atom_site_occupancy
  Pu  Pu0  1  0.421075  0.000000  0.000000  1
  Pu  Pu1  1  0.000000  0.421076  0.000000  1
  Pu  Pu2  1  0.578925  0.578925  0.000000  1
  Ga  Ga3  1  0.764678  0.000000  0.499999  1
  Ga  Ga4  1  0.235322  0.235321  0.499999  1
  Ga  Ga5  1  0.000000  0.764678  0.499999  1
  Ge  Ge6  1  0.666667  0.333333  0.499999  1
  Ge  Ge7  1  0.333333  0.666667  0.499999  1
  Pt  Pt8  1  0.000000  0.000000  0.000000  1
