# generated using pymatgen
data_Zr6Ti4Al12Pd2Rh5
_symmetry_space_group_name_H-M   'P 1'
_cell_length_a   8.81203630
_cell_length_b   8.82002517
_cell_length_c   8.81250822
_cell_angle_alpha   59.97693159
_cell_angle_beta   60.05709605
_cell_angle_gamma   59.97497452
_symmetry_Int_Tables_number   1
_chemical_formula_structural   Zr6Ti4Al12Pd2Rh5
_chemical_formula_sum   'Zr6 Ti4 Al12 Pd2 Rh5'
_cell_volume   484.35033350
_cell_formula_units_Z   1
loop_
 _symmetry_equiv_pos_site_id
 _symmetry_equiv_pos_as_xyz
  1  'x, y, z'
loop_
 _atom_site_type_symbol
 _atom_site_label
 _atom_site_symmetry_multiplicity
 _atom_site_fract_x
 _atom_site_fract_y
 _atom_site_fract_z
 _atom_site_occupancy
  Zr  Zr0  1  0.695311  0.695305  0.304656  1
  Zr  Zr1  1  0.320902  0.679131  0.320842  1
  Zr  Zr2  1  0.695295  0.304704  0.304716  1
  Zr  Zr3  1  0.304680  0.304606  0.695347  1
  Zr  Zr4  1  0.679174  0.320812  0.679136  1
  Zr  Zr5  1  0.304601  0.695406  0.695383  1
  Ti  Ti6  1  0.888357  0.876814  0.358050  1
  Ti  Ti7  1  0.876821  0.358071  0.876823  1
  Ti  Ti8  1  0.357998  0.876931  0.888168  1
  Ti  Ti9  1  0.876869  0.888175  0.876873  1
  Al  Al10  1  0.116920  0.121305  0.640395  1
  Al  Al11  1  0.121408  0.640390  0.121278  1
  Al  Al12  1  0.640372  0.121344  0.116857  1
  Al  Al13  1  0.121441  0.116894  0.121306  1
  Al  Al14  1  0.667097  0.663959  0.005125  1
  Al  Al15  1  0.663831  0.005153  0.663953  1
  Al  Al16  1  0.005195  0.663892  0.667174  1
  Al  Al17  1  0.663771  0.667143  0.663902  1
  Al  Al18  1  0.337054  0.333892  0.995167  1
  Al  Al19  1  0.333881  0.995169  0.333903  1
  Al  Al20  1  0.995202  0.333880  0.337047  1
  Al  Al21  1  0.333879  0.337037  0.333901  1
  Pd  Pd22  1  0.500140  0.999829  0.500183  1
  Pd  Pd23  1  0.999795  0.500232  0.999838  1
  Rh  Rh24  1  0.000145  0.999938  0.999799  1
  Rh  Rh25  1  0.997988  0.998023  0.502065  1
  Rh  Rh26  1  0.998001  0.501977  0.501998  1
  Rh  Rh27  1  0.501899  0.501971  0.998074  1
  Rh  Rh28  1  0.501972  0.998012  0.998039  1
