# generated using pymatgen
data_Fe2SiMo2P
_symmetry_space_group_name_H-M   'P 1'
_cell_length_a   3.62978300
_cell_length_b   6.01154600
_cell_length_c   6.85083900
_cell_angle_alpha   90.00000000
_cell_angle_beta   90.00000000
_cell_angle_gamma   90.00000000
_symmetry_Int_Tables_number   1
_chemical_formula_structural   Fe2SiMo2P
_chemical_formula_sum   'Fe4 Si2 Mo4 P2'
_cell_volume   149.48946869
_cell_formula_units_Z   2
loop_
 _symmetry_equiv_pos_site_id
 _symmetry_equiv_pos_as_xyz
  1  'x, y, z'
loop_
 _atom_site_type_symbol
 _atom_site_label
 _atom_site_symmetry_multiplicity
 _atom_site_fract_x
 _atom_site_fract_y
 _atom_site_fract_z
 _atom_site_occupancy
  Fe  Fe0  1  0.250000  0.855048  0.947447  1
  Fe  Fe1  1  0.250000  0.355048  0.552553  1
  Fe  Fe2  1  0.750000  0.140332  0.068213  1
  Fe  Fe3  1  0.750000  0.640332  0.431787  1
  Si  Si4  1  0.250000  0.228219  0.878118  1
  Si  Si5  1  0.250000  0.728219  0.621882  1
  Mo  Mo6  1  0.250000  0.977136  0.322773  1
  Mo  Mo7  1  0.250000  0.477136  0.177227  1
  Mo  Mo8  1  0.750000  0.026801  0.674705  1
  Mo  Mo9  1  0.750000  0.526801  0.825295  1
  P  P10  1  0.750000  0.772465  0.120145  1
  P  P11  1  0.750000  0.272465  0.379855  1
