# generated using pymatgen
data_Sc2Be2AlIrRh4
_symmetry_space_group_name_H-M   'P 1'
_cell_length_a   9.48543500
_cell_length_b   9.48543500
_cell_length_c   3.10600900
_cell_angle_alpha   90.00000000
_cell_angle_beta   90.00000000
_cell_angle_gamma   90.00000000
_symmetry_Int_Tables_number   1
_chemical_formula_structural   Sc2Be2AlIrRh4
_chemical_formula_sum   'Sc4 Be4 Al2 Ir2 Rh8'
_cell_volume   279.45842976
_cell_formula_units_Z   2
loop_
 _symmetry_equiv_pos_site_id
 _symmetry_equiv_pos_as_xyz
  1  'x, y, z'
loop_
 _atom_site_type_symbol
 _atom_site_label
 _atom_site_symmetry_multiplicity
 _atom_site_fract_x
 _atom_site_fract_y
 _atom_site_fract_z
 _atom_site_occupancy
  Sc  Sc0  1  0.675061  0.175061  0.000000  1
  Sc  Sc1  1  0.324939  0.824939  0.000000  1
  Sc  Sc2  1  0.175061  0.324939  0.000000  1
  Sc  Sc3  1  0.824939  0.675061  0.000000  1
  Be  Be4  1  0.124224  0.624224  0.000000  1
  Be  Be5  1  0.875776  0.375776  0.000000  1
  Be  Be6  1  0.624224  0.875776  0.000000  1
  Be  Be7  1  0.375776  0.124224  0.000000  1
  Al  Al8  1  0.000000  0.000000  0.000000  1
  Al  Al9  1  0.500000  0.500000  0.000000  1
  Ir  Ir10  1  0.500000  0.000000  0.500000  1
  Ir  Ir11  1  0.000000  0.500000  0.500000  1
  Rh  Rh12  1  0.208424  0.068082  0.500000  1
  Rh  Rh13  1  0.791576  0.931918  0.500000  1
  Rh  Rh14  1  0.068082  0.791576  0.500000  1
  Rh  Rh15  1  0.708424  0.431918  0.500000  1
  Rh  Rh16  1  0.931918  0.208424  0.500000  1
  Rh  Rh17  1  0.291576  0.568082  0.500000  1
  Rh  Rh18  1  0.568082  0.708424  0.500000  1
  Rh  Rh19  1  0.431918  0.291576  0.500000  1
