# generated using pymatgen
data_Ho2Tm10TlCo4Ir
_symmetry_space_group_name_H-M   'P 1'
_cell_length_a   8.19341995
_cell_length_b   8.18973205
_cell_length_c   8.19133144
_cell_angle_alpha   111.15605527
_cell_angle_beta   110.87049274
_cell_angle_gamma   106.40354214
_symmetry_Int_Tables_number   1
_chemical_formula_structural   Ho2Tm10TlCo4Ir
_chemical_formula_sum   'Ho2 Tm10 Tl1 Co4 Ir1'
_cell_volume   422.36006931
_cell_formula_units_Z   1
loop_
 _symmetry_equiv_pos_site_id
 _symmetry_equiv_pos_as_xyz
  1  'x, y, z'
loop_
 _atom_site_type_symbol
 _atom_site_label
 _atom_site_symmetry_multiplicity
 _atom_site_fract_x
 _atom_site_fract_y
 _atom_site_fract_z
 _atom_site_occupancy
  Ho  Ho0  1  0.586926  0.280725  0.305621  1
  Ho  Ho1  1  0.182973  0.215902  0.399337  1
  Tm  Tm2  1  0.182183  0.782162  0.964803  1
  Tm  Tm3  1  0.686043  0.491922  0.807964  1
  Tm  Tm4  1  0.684928  0.877876  0.193800  1
  Tm  Tm5  1  0.975900  0.280697  0.695760  1
  Tm  Tm6  1  0.024842  0.718559  0.305706  1
  Tm  Tm7  1  0.314856  0.121193  0.806220  1
  Tm  Tm8  1  0.314687  0.509396  0.193299  1
  Tm  Tm9  1  0.816579  0.216446  0.032544  1
  Tm  Tm10  1  0.817351  0.783755  0.600582  1
  Tm  Tm11  1  0.415173  0.720001  0.695748  1
  Tl  Tl12  1  0.499902  0.999626  0.500231  1
  Co  Co13  1  0.886316  0.887179  0.998347  1
  Co  Co14  1  0.375623  0.500550  0.876713  1
  Co  Co15  1  0.623676  0.500090  0.123186  1
  Co  Co16  1  0.109821  0.111672  0.997385  1
  Ir  Ir17  1  0.002223  0.502252  0.502755  1
