# generated using pymatgen
data_Nd5Ho3(Si3Ir)4
_symmetry_space_group_name_H-M   'P 1'
_cell_length_a   8.22703300
_cell_length_b   8.22703139
_cell_length_c   8.19685100
_cell_angle_alpha   90.00000000
_cell_angle_beta   90.00000000
_cell_angle_gamma   120.00000247
_symmetry_Int_Tables_number   1
_chemical_formula_structural   Nd5Ho3(Si3Ir)4
_chemical_formula_sum   'Nd5 Ho3 Si12 Ir4'
_cell_volume   480.46754286
_cell_formula_units_Z   1
loop_
 _symmetry_equiv_pos_site_id
 _symmetry_equiv_pos_as_xyz
  1  'x, y, z'
loop_
 _atom_site_type_symbol
 _atom_site_label
 _atom_site_symmetry_multiplicity
 _atom_site_fract_x
 _atom_site_fract_y
 _atom_site_fract_z
 _atom_site_occupancy
  Nd  Nd0  1  0.000000  0.000000  0.250000  1
  Nd  Nd1  1  0.000000  0.000000  0.750000  1
  Nd  Nd2  1  0.505655  0.494345  0.250000  1
  Nd  Nd3  1  0.505655  0.011309  0.250000  1
  Nd  Nd4  1  0.988691  0.494345  0.250000  1
  Ho  Ho5  1  0.491785  0.508215  0.750000  1
  Ho  Ho6  1  0.491785  0.983570  0.750000  1
  Ho  Ho7  1  0.016430  0.508215  0.750000  1
  Si  Si8  1  0.166940  0.833060  0.506995  1
  Si  Si9  1  0.166940  0.333880  0.506995  1
  Si  Si10  1  0.666120  0.833060  0.506995  1
  Si  Si11  1  0.831589  0.168411  0.504349  1
  Si  Si12  1  0.831589  0.663179  0.504349  1
  Si  Si13  1  0.336821  0.168411  0.504349  1
  Si  Si14  1  0.831589  0.168411  0.995651  1
  Si  Si15  1  0.831589  0.663179  0.995651  1
  Si  Si16  1  0.336821  0.168411  0.995651  1
  Si  Si17  1  0.166940  0.833060  0.993005  1
  Si  Si18  1  0.166940  0.333880  0.993005  1
  Si  Si19  1  0.666120  0.833060  0.993005  1
  Ir  Ir20  1  0.333333  0.666667  0.488960  1
  Ir  Ir21  1  0.666667  0.333333  0.545372  1
  Ir  Ir22  1  0.666667  0.333333  0.954628  1
  Ir  Ir23  1  0.333333  0.666667  0.011040  1
