# generated using pymatgen
data_LaH11Ru2
_symmetry_space_group_name_H-M   'P 1'
_cell_length_a   4.74330858
_cell_length_b   4.74654350
_cell_length_c   6.28296845
_cell_angle_alpha   112.45546894
_cell_angle_beta   90.36644677
_cell_angle_gamma   119.73714480
_symmetry_Int_Tables_number   1
_chemical_formula_structural   LaH11Ru2
_chemical_formula_sum   'La1 H11 Ru2'
_cell_volume   110.08214425
_cell_formula_units_Z   1
loop_
 _symmetry_equiv_pos_site_id
 _symmetry_equiv_pos_as_xyz
  1  'x, y, z'
loop_
 _atom_site_type_symbol
 _atom_site_label
 _atom_site_symmetry_multiplicity
 _atom_site_fract_x
 _atom_site_fract_y
 _atom_site_fract_z
 _atom_site_occupancy
  La  La0  1  0.590601  0.114456  0.804606  1
  H  H1  1  0.416796  0.556782  0.395579  1
  H  H2  1  0.651110  0.766814  0.001229  1
  H  H3  1  0.403745  0.098384  0.234832  1
  H  H4  1  0.987470  0.445106  0.226602  1
  H  H5  1  0.736353  0.676694  0.225325  1
  H  H6  1  0.022183  0.536710  0.629686  1
  H  H7  1  0.539979  0.499420  0.642151  1
  H  H8  1  0.156675  0.687429  0.962014  1
  H  H9  1  0.177421  0.244874  0.983644  1
  H  H10  1  0.015619  0.969935  0.592333  1
  H  H11  1  0.709285  0.109120  0.395985  1
  Ru  Ru12  1  0.377476  0.683396  0.164082  1
  Ru  Ru13  1  0.766390  0.524540  0.442178  1
