# generated using pymatgen
data_Hf4CoNi3Te8
_symmetry_space_group_name_H-M   'P 1'
_cell_length_a   6.70124260
_cell_length_b   8.03339437
_cell_length_c   8.59252762
_cell_angle_alpha   63.39988715
_cell_angle_beta   90.12315304
_cell_angle_gamma   90.06274456
_symmetry_Int_Tables_number   1
_chemical_formula_structural   Hf4CoNi3Te8
_chemical_formula_sum   'Hf4 Co1 Ni3 Te8'
_cell_volume   413.60555880
_cell_formula_units_Z   1
loop_
 _symmetry_equiv_pos_site_id
 _symmetry_equiv_pos_as_xyz
  1  'x, y, z'
loop_
 _atom_site_type_symbol
 _atom_site_label
 _atom_site_symmetry_multiplicity
 _atom_site_fract_x
 _atom_site_fract_y
 _atom_site_fract_z
 _atom_site_occupancy
  Hf  Hf0  1  0.483071  0.202662  0.505733  1
  Hf  Hf1  1  0.510888  0.797151  0.491739  1
  Hf  Hf2  1  0.988348  0.295277  0.490895  1
  Hf  Hf3  1  0.013598  0.707157  0.507023  1
  Co  Co4  1  0.146257  0.058740  0.395909  1
  Ni  Ni5  1  0.850746  0.938977  0.614276  1
  Ni  Ni6  1  0.350347  0.561336  0.386938  1
  Ni  Ni7  1  0.643651  0.441552  0.609081  1
  Te  Te8  1  0.261637  0.374325  0.711630  1
  Te  Te9  1  0.747443  0.596997  0.805127  1
  Te  Te10  1  0.247007  0.907071  0.194446  1
  Te  Te11  1  0.764934  0.122256  0.288937  1
  Te  Te12  1  0.754815  0.101333  0.803903  1
  Te  Te13  1  0.256223  0.399216  0.192861  1
  Te  Te14  1  0.241725  0.870168  0.715754  1
  Te  Te15  1  0.739310  0.625783  0.285749  1
