# generated using pymatgen
data_LiLa6Nd10Cd3Ir4
_symmetry_space_group_name_H-M   'P 1'
_cell_length_a   10.01851659
_cell_length_b   10.05331709
_cell_length_c   10.05331711
_cell_angle_alpha   59.73647503
_cell_angle_beta   60.14132217
_cell_angle_gamma   60.14132913
_symmetry_Int_Tables_number   1
_chemical_formula_structural   LiLa6Nd10Cd3Ir4
_chemical_formula_sum   'Li1 La6 Nd10 Cd3 Ir4'
_cell_volume   716.07010205
_cell_formula_units_Z   1
loop_
 _symmetry_equiv_pos_site_id
 _symmetry_equiv_pos_as_xyz
  1  'x, y, z'
loop_
 _atom_site_type_symbol
 _atom_site_label
 _atom_site_symmetry_multiplicity
 _atom_site_fract_x
 _atom_site_fract_y
 _atom_site_fract_z
 _atom_site_occupancy
  Li  Li0  1  0.571720  0.570530  0.570530  1
  La  La1  1  0.347214  0.348719  0.348719  1
  La  La2  1  0.348478  0.346232  0.957543  1
  La  La3  1  0.348478  0.957543  0.346232  1
  La  La4  1  0.957614  0.348334  0.348334  1
  La  La5  1  0.811593  0.189576  0.189576  1
  La  La6  1  0.185836  0.813244  0.813244  1
  Nd  Nd7  1  0.191602  0.809751  0.191536  1
  Nd  Nd8  1  0.810816  0.187825  0.811333  1
  Nd  Nd9  1  0.191602  0.191536  0.809751  1
  Nd  Nd10  1  0.810816  0.811333  0.187825  1
  Nd  Nd11  1  0.937733  0.563072  0.563072  1
  Nd  Nd12  1  0.562274  0.937196  0.937196  1
  Nd  Nd13  1  0.562799  0.937801  0.562954  1
  Nd  Nd14  1  0.937329  0.562467  0.937415  1
  Nd  Nd15  1  0.562799  0.562954  0.937801  1
  Nd  Nd16  1  0.937329  0.937415  0.562467  1
  Cd  Cd17  1  0.581047  0.582389  0.257542  1
  Cd  Cd18  1  0.581047  0.257542  0.582389  1
  Cd  Cd19  1  0.257375  0.581097  0.581097  1
  Ir  Ir20  1  0.139994  0.143053  0.143053  1
  Ir  Ir21  1  0.144003  0.140049  0.576615  1
  Ir  Ir22  1  0.144003  0.576615  0.140049  1
  Ir  Ir23  1  0.576501  0.143728  0.143728  1
