# generated using pymatgen
data_Nb6ReSi6W5
_symmetry_space_group_name_H-M   'P 1'
_cell_length_a   7.71747302
_cell_length_b   7.72105338
_cell_length_c   7.71757930
_cell_angle_alpha   126.45236551
_cell_angle_beta   128.55684346
_cell_angle_gamma   77.43124222
_symmetry_Int_Tables_number   1
_chemical_formula_structural   Nb6ReSi6W5
_chemical_formula_sum   'Nb6 Re1 Si6 W5'
_cell_volume   280.59871347
_cell_formula_units_Z   1
loop_
 _symmetry_equiv_pos_site_id
 _symmetry_equiv_pos_as_xyz
  1  'x, y, z'
loop_
 _atom_site_type_symbol
 _atom_site_label
 _atom_site_symmetry_multiplicity
 _atom_site_fract_x
 _atom_site_fract_y
 _atom_site_fract_z
 _atom_site_occupancy
  Nb  Nb0  1  0.549891  0.091365  0.041890  1
  Nb  Nb1  1  0.449649  0.496661  0.548669  1
  Nb  Nb2  1  0.948161  0.496550  0.046709  1
  Nb  Nb3  1  0.049259  0.091146  0.541374  1
  Nb  Nb4  1  0.753172  0.902645  0.650917  1
  Nb  Nb5  1  0.251360  0.902303  0.149488  1
  Re  Re6  1  0.371229  0.496636  0.125935  1
  Si  Si7  1  0.746591  0.497221  0.247982  1
  Si  Si8  1  0.249004  0.497069  0.750695  1
  Si  Si9  1  0.334027  0.825856  0.492065  1
  Si  Si10  1  0.667169  0.164301  0.496787  1
  Si  Si11  1  0.833691  0.829200  0.995362  1
  Si  Si12  1  0.169585  0.167391  0.998159  1
  W  W13  1  0.499361  0.238511  0.739055  1
  W  W14  1  0.000660  0.240456  0.239799  1
  W  W15  1  0.128879  0.754287  0.625640  1
  W  W16  1  0.869722  0.496434  0.626236  1
  W  W17  1  0.628589  0.754165  0.125437  1
