# generated using pymatgen
data_Tb4Tm4Sc12Si15Sn
_symmetry_space_group_name_H-M   'P 1'
_cell_length_a   7.11120851
_cell_length_b   7.40448698
_cell_length_c   14.03605712
_cell_angle_alpha   90.06876308
_cell_angle_beta   89.61929436
_cell_angle_gamma   90.16254532
_symmetry_Int_Tables_number   1
_chemical_formula_structural   Tb4Tm4Sc12Si15Sn
_chemical_formula_sum   'Tb4 Tm4 Sc12 Si15 Sn1'
_cell_volume   739.04668870
_cell_formula_units_Z   1
loop_
 _symmetry_equiv_pos_site_id
 _symmetry_equiv_pos_as_xyz
  1  'x, y, z'
loop_
 _atom_site_type_symbol
 _atom_site_label
 _atom_site_symmetry_multiplicity
 _atom_site_fract_x
 _atom_site_fract_y
 _atom_site_fract_z
 _atom_site_occupancy
  Tb  Tb0  1  0.011240  0.176166  0.096459  1
  Tb  Tb1  1  0.988336  0.825146  0.904582  1
  Tb  Tb2  1  0.489485  0.675318  0.905360  1
  Tb  Tb3  1  0.989310  0.829882  0.597356  1
  Tm  Tm4  1  0.510901  0.323213  0.097428  1
  Tm  Tm5  1  0.005711  0.170513  0.398325  1
  Tm  Tm6  1  0.512884  0.319209  0.399672  1
  Tm  Tm7  1  0.501582  0.685130  0.599636  1
  Sc  Sc8  1  0.162373  0.501811  0.754675  1
  Sc  Sc9  1  0.836964  0.497183  0.249606  1
  Sc  Sc10  1  0.337705  0.003387  0.249714  1
  Sc  Sc11  1  0.663845  0.997491  0.751417  1
  Sc  Sc12  1  0.343639  0.162764  0.630615  1
  Sc  Sc13  1  0.663764  0.825126  0.372449  1
  Sc  Sc14  1  0.163620  0.683225  0.368963  1
  Sc  Sc15  1  0.667498  0.822832  0.124966  1
  Sc  Sc16  1  0.823346  0.323878  0.626208  1
  Sc  Sc17  1  0.331291  0.176263  0.875357  1
  Sc  Sc18  1  0.830586  0.323628  0.875490  1
  Sc  Sc19  1  0.169358  0.675911  0.125736  1
  Si  Si20  1  0.035109  0.119379  0.751151  1
  Si  Si21  1  0.963393  0.885563  0.247446  1
  Si  Si22  1  0.466008  0.613349  0.248850  1
  Si  Si23  1  0.532899  0.386144  0.751530  1
  Si  Si24  1  0.287968  0.870279  0.751456  1
  Si  Si25  1  0.711175  0.128316  0.248428  1
  Si  Si26  1  0.213352  0.371786  0.250006  1
  Si  Si27  1  0.788172  0.627071  0.750565  1
  Si  Si28  1  0.828833  0.537318  0.458131  1
  Si  Si29  1  0.337884  0.965022  0.459770  1
  Si  Si30  1  0.840625  0.534152  0.039837  1
  Si  Si31  1  0.660897  0.037591  0.537391  1
  Si  Si32  1  0.156678  0.464173  0.961948  1
  Si  Si33  1  0.655941  0.037271  0.961588  1
  Si  Si34  1  0.343440  0.966514  0.040346  1
  Sn  Sn35  1  0.174188  0.457994  0.537544  1
