# generated using pymatgen
data_Er16In6IrOs
_symmetry_space_group_name_H-M   'P 1'
_cell_length_a   10.32445500
_cell_length_b   10.32445398
_cell_length_c   7.01305200
_cell_angle_alpha   90.00000000
_cell_angle_beta   90.00000000
_cell_angle_gamma   119.99999365
_symmetry_Int_Tables_number   1
_chemical_formula_structural   Er16In6IrOs
_chemical_formula_sum   'Er16 In6 Ir1 Os1'
_cell_volume   647.39888506
_cell_formula_units_Z   1
loop_
 _symmetry_equiv_pos_site_id
 _symmetry_equiv_pos_as_xyz
  1  'x, y, z'
loop_
 _atom_site_type_symbol
 _atom_site_label
 _atom_site_symmetry_multiplicity
 _atom_site_fract_x
 _atom_site_fract_y
 _atom_site_fract_z
 _atom_site_occupancy
  Er  Er0  1  0.532743  0.065487  0.793879  1
  Er  Er1  1  0.934513  0.467257  0.793879  1
  Er  Er2  1  0.532743  0.467257  0.793879  1
  Er  Er3  1  0.466860  0.933719  0.293256  1
  Er  Er4  1  0.066281  0.533140  0.293256  1
  Er  Er5  1  0.466860  0.533140  0.293256  1
  Er  Er6  1  0.823115  0.646229  0.499129  1
  Er  Er7  1  0.353771  0.176885  0.499129  1
  Er  Er8  1  0.823115  0.176885  0.499129  1
  Er  Er9  1  0.177208  0.354417  0.999349  1
  Er  Er10  1  0.645583  0.822792  0.999349  1
  Er  Er11  1  0.177208  0.822792  0.999349  1
  Er  Er12  1  0.666667  0.333333  0.172577  1
  Er  Er13  1  0.333333  0.666667  0.672051  1
  Er  Er14  1  0.000000  0.000000  0.778103  1
  Er  Er15  1  0.000000  0.000000  0.278404  1
  In  In16  1  0.837013  0.674028  0.039473  1
  In  In17  1  0.325972  0.162987  0.039473  1
  In  In18  1  0.837013  0.162987  0.039473  1
  In  In19  1  0.162860  0.325719  0.539382  1
  In  In20  1  0.674281  0.837140  0.539382  1
  In  In21  1  0.162860  0.837140  0.539382  1
  Ir  Ir22  1  0.666667  0.333333  0.570326  1
  Os  Os23  1  0.333333  0.666667  0.071041  1
