# generated using pymatgen
data_Ca8Fe2AgN8
_symmetry_space_group_name_H-M   'P 1'
_cell_length_a   9.37928820
_cell_length_b   4.99176496
_cell_length_c   7.22608991
_cell_angle_alpha   90.00000298
_cell_angle_beta   73.32149195
_cell_angle_gamma   74.56731914
_symmetry_Int_Tables_number   1
_chemical_formula_structural   Ca8Fe2AgN8
_chemical_formula_sum   'Ca8 Fe2 Ag1 N8'
_cell_volume   311.33101262
_cell_formula_units_Z   1
loop_
 _symmetry_equiv_pos_site_id
 _symmetry_equiv_pos_as_xyz
  1  'x, y, z'
loop_
 _atom_site_type_symbol
 _atom_site_label
 _atom_site_symmetry_multiplicity
 _atom_site_fract_x
 _atom_site_fract_y
 _atom_site_fract_z
 _atom_site_occupancy
  Ca  Ca0  1  0.066893  0.966553  0.750049  1
  Ca  Ca1  1  0.933107  0.033447  0.249951  1
  Ca  Ca2  1  0.663674  0.668163  0.461903  1
  Ca  Ca3  1  0.336326  0.331837  0.538097  1
  Ca  Ca4  1  0.820856  0.589572  0.973180  1
  Ca  Ca5  1  0.179144  0.410428  0.026820  1
  Ca  Ca6  1  0.604210  0.197894  0.807903  1
  Ca  Ca7  1  0.395790  0.802106  0.192097  1
  Fe  Fe8  1  0.379980  0.810011  0.794414  1
  Fe  Fe9  1  0.620020  0.189989  0.205586  1
  Ag  Ag10  1  0.000000  0.500000  0.500000  1
  N  N11  1  0.214708  0.892646  0.997938  1
  N  N12  1  0.785292  0.107354  0.002062  1
  N  N13  1  0.358964  0.820518  0.563084  1
  N  N14  1  0.641036  0.179482  0.436916  1
  N  N15  1  0.563865  0.718068  0.824639  1
  N  N16  1  0.436135  0.281932  0.175361  1
  N  N17  1  0.072091  0.463954  0.752542  1
  N  N18  1  0.927909  0.536046  0.247458  1
