# generated using pymatgen
data_Tb17Er3(Bi2Ir)4
_symmetry_space_group_name_H-M   'P 1'
_cell_length_a   8.03139259
_cell_length_b   9.01079472
_cell_length_c   12.55458991
_cell_angle_alpha   89.93220877
_cell_angle_beta   90.03936692
_cell_angle_gamma   89.98067305
_symmetry_Int_Tables_number   1
_chemical_formula_structural   Tb17Er3(Bi2Ir)4
_chemical_formula_sum   'Tb17 Er3 Bi8 Ir4'
_cell_volume   908.56510208
_cell_formula_units_Z   1
loop_
 _symmetry_equiv_pos_site_id
 _symmetry_equiv_pos_as_xyz
  1  'x, y, z'
loop_
 _atom_site_type_symbol
 _atom_site_label
 _atom_site_symmetry_multiplicity
 _atom_site_fract_x
 _atom_site_fract_y
 _atom_site_fract_z
 _atom_site_occupancy
  Tb  Tb0  1  0.841324  0.750419  0.793905  1
  Tb  Tb1  1  0.158946  0.249719  0.206035  1
  Tb  Tb2  1  0.341420  0.249389  0.705996  1
  Tb  Tb3  1  0.658390  0.750511  0.294271  1
  Tb  Tb4  1  0.376767  0.750892  0.693444  1
  Tb  Tb5  1  0.623134  0.249118  0.306752  1
  Tb  Tb6  1  0.877363  0.249719  0.806199  1
  Tb  Tb7  1  0.123766  0.750432  0.193837  1
  Tb  Tb8  1  0.947417  0.751297  0.501578  1
  Tb  Tb9  1  0.052475  0.248793  0.498495  1
  Tb  Tb10  1  0.446866  0.249252  0.998450  1
  Tb  Tb11  1  0.551241  0.750598  0.001442  1
  Tb  Tb12  1  0.322289  0.540725  0.434681  1
  Tb  Tb13  1  0.822745  0.040750  0.065385  1
  Tb  Tb14  1  0.677714  0.459272  0.565405  1
  Tb  Tb15  1  0.822552  0.459365  0.065135  1
  Tb  Tb16  1  0.178018  0.541166  0.934280  1
  Er  Er17  1  0.674328  0.040870  0.565188  1
  Er  Er18  1  0.325527  0.959306  0.434852  1
  Er  Er19  1  0.174851  0.958983  0.934667  1
  Bi  Bi20  1  0.569659  0.490908  0.826970  1
  Bi  Bi21  1  0.430711  0.509034  0.173074  1
  Bi  Bi22  1  0.069624  0.509196  0.672739  1
  Bi  Bi23  1  0.430592  0.990857  0.173455  1
  Bi  Bi24  1  0.930482  0.490945  0.327034  1
  Bi  Bi25  1  0.568649  0.008890  0.827040  1
  Bi  Bi26  1  0.932060  0.008795  0.327107  1
  Bi  Bi27  1  0.068141  0.991080  0.673168  1
  Ir  Ir28  1  0.567895  0.751854  0.508632  1
  Ir  Ir29  1  0.432009  0.248155  0.491453  1
  Ir  Ir30  1  0.069952  0.248975  0.990786  1
  Ir  Ir31  1  0.933095  0.750734  0.008546  1
