# generated using pymatgen
data_La5Pr3(Si3Rh)4
_symmetry_space_group_name_H-M   'P 1'
_cell_length_a   8.23810300
_cell_length_b   8.23767712
_cell_length_c   8.61644800
_cell_angle_alpha   90.00000000
_cell_angle_beta   90.00000000
_cell_angle_gamma   120.00170618
_symmetry_Int_Tables_number   1
_chemical_formula_structural   La5Pr3(Si3Rh)4
_chemical_formula_sum   'La5 Pr3 Si12 Rh4'
_cell_volume   506.38801620
_cell_formula_units_Z   1
loop_
 _symmetry_equiv_pos_site_id
 _symmetry_equiv_pos_as_xyz
  1  'x, y, z'
loop_
 _atom_site_type_symbol
 _atom_site_label
 _atom_site_symmetry_multiplicity
 _atom_site_fract_x
 _atom_site_fract_y
 _atom_site_fract_z
 _atom_site_occupancy
  La  La0  1  0.499756  0.500261  0.750000  1
  La  La1  1  0.500383  0.499661  0.250000  1
  La  La2  1  0.000542  0.500236  0.750000  1
  La  La3  1  0.999249  0.499642  0.250000  1
  La  La4  1  0.500371  0.000786  0.250000  1
  Pr  Pr5  1  0.499830  0.999655  0.750000  1
  Pr  Pr6  1  0.999983  0.000004  0.750000  1
  Pr  Pr7  1  0.999994  0.999985  0.250000  1
  Si  Si8  1  0.834007  0.165589  0.998784  1
  Si  Si9  1  0.166014  0.834380  0.000347  1
  Si  Si10  1  0.331583  0.165591  0.998782  1
  Si  Si11  1  0.166014  0.834380  0.499653  1
  Si  Si12  1  0.668366  0.834382  0.000350  1
  Si  Si13  1  0.834007  0.165589  0.501216  1
  Si  Si14  1  0.834361  0.668719  0.999188  1
  Si  Si15  1  0.668366  0.834382  0.499650  1
  Si  Si16  1  0.165651  0.331300  0.000750  1
  Si  Si17  1  0.331583  0.165591  0.501218  1
  Si  Si18  1  0.165651  0.331300  0.499250  1
  Si  Si19  1  0.834361  0.668719  0.500812  1
  Rh  Rh20  1  0.666717  0.333437  0.999450  1
  Rh  Rh21  1  0.333249  0.666488  0.999505  1
  Rh  Rh22  1  0.333249  0.666488  0.500495  1
  Rh  Rh23  1  0.666717  0.333437  0.500550  1
