# generated using pymatgen
data_Sc4Al3FeB16
_symmetry_space_group_name_H-M   'P 1'
_cell_length_a   3.36130200
_cell_length_b   5.82594152
_cell_length_c   11.26490205
_cell_angle_alpha   90.23450856
_cell_angle_beta   90.00000000
_cell_angle_gamma   90.00000000
_symmetry_Int_Tables_number   1
_chemical_formula_structural   Sc4Al3FeB16
_chemical_formula_sum   'Sc4 Al3 Fe1 B16'
_cell_volume   220.59590037
_cell_formula_units_Z   1
loop_
 _symmetry_equiv_pos_site_id
 _symmetry_equiv_pos_as_xyz
  1  'x, y, z'
loop_
 _atom_site_type_symbol
 _atom_site_label
 _atom_site_symmetry_multiplicity
 _atom_site_fract_x
 _atom_site_fract_y
 _atom_site_fract_z
 _atom_site_occupancy
  Sc  Sc0  1  0.000000  0.368606  0.657251  1
  Sc  Sc1  1  0.000000  0.629345  0.346144  1
  Sc  Sc2  1  0.000000  0.876340  0.850475  1
  Sc  Sc3  1  0.000000  0.126772  0.144799  1
  Al  Al4  1  0.000000  0.634349  0.084153  1
  Al  Al5  1  0.000000  0.859963  0.594233  1
  Al  Al6  1  0.000000  0.138718  0.410037  1
  Fe  Fe7  1  0.000000  0.370501  0.916531  1
  B  B8  1  0.500000  0.027195  0.696121  1
  B  B9  1  0.500000  0.975231  0.304385  1
  B  B10  1  0.500000  0.517813  0.807474  1
  B  B11  1  0.500000  0.476440  0.193702  1
  B  B12  1  0.500000  0.117095  0.548897  1
  B  B13  1  0.500000  0.882985  0.451528  1
  B  B14  1  0.500000  0.612582  0.949017  1
  B  B15  1  0.500000  0.381042  0.045603  1
  B  B16  1  0.500000  0.293186  0.311598  1
  B  B17  1  0.500000  0.703734  0.688804  1
  B  B18  1  0.500000  0.792777  0.186822  1
  B  B19  1  0.500000  0.213059  0.816158  1
  B  B20  1  0.500000  0.368870  0.468937  1
  B  B21  1  0.500000  0.630254  0.530787  1
  B  B22  1  0.500000  0.868480  0.029829  1
  B  B23  1  0.500000  0.134660  0.966713  1
