# generated using pymatgen
data_CaYb2YBi3
_symmetry_space_group_name_H-M   'P 1'
_cell_length_a   8.19550546
_cell_length_b   8.36968740
_cell_length_c   8.37164066
_cell_angle_alpha   109.89816061
_cell_angle_beta   109.05984869
_cell_angle_gamma   109.02163892
_symmetry_Int_Tables_number   1
_chemical_formula_structural   CaYb2YBi3
_chemical_formula_sum   'Ca2 Yb4 Y2 Bi6'
_cell_volume   444.37929351
_cell_formula_units_Z   2
loop_
 _symmetry_equiv_pos_site_id
 _symmetry_equiv_pos_as_xyz
  1  'x, y, z'
loop_
 _atom_site_type_symbol
 _atom_site_label
 _atom_site_symmetry_multiplicity
 _atom_site_fract_x
 _atom_site_fract_y
 _atom_site_fract_z
 _atom_site_occupancy
  Ca  Ca0  1  0.501043  0.998937  0.645925  1
  Ca  Ca1  1  0.355118  0.353012  0.354075  1
  Yb  Yb2  1  0.502196  0.000764  0.147003  1
  Yb  Yb3  1  0.001564  0.646776  0.501072  1
  Yb  Yb4  1  0.855193  0.853761  0.852997  1
  Yb  Yb5  1  0.000492  0.145704  0.498928  1
  Y  Y6  1  0.141497  0.500244  0.999668  1
  Y  Y7  1  0.641829  0.500577  0.000332  1
  Bi  Bi8  1  0.376423  0.623313  0.756351  1
  Bi  Bi9  1  0.876464  0.255873  0.123644  1
  Bi  Bi10  1  0.621305  0.744585  0.367322  1
  Bi  Bi11  1  0.120072  0.866963  0.243649  1
  Bi  Bi12  1  0.252821  0.132229  0.876356  1
  Bi  Bi13  1  0.753984  0.377263  0.632678  1
