# generated using pymatgen
data_Dy2Y4Al24CuOs7
_symmetry_space_group_name_H-M   'P 1'
_cell_length_a   8.84199627
_cell_length_b   8.84199665
_cell_length_c   9.54827061
_cell_angle_alpha   89.65602848
_cell_angle_beta   90.34397072
_cell_angle_gamma   119.79184938
_symmetry_Int_Tables_number   1
_chemical_formula_structural   Dy2Y4Al24CuOs7
_chemical_formula_sum   'Dy2 Y4 Al24 Cu1 Os7'
_cell_volume   647.81748890
_cell_formula_units_Z   1
loop_
 _symmetry_equiv_pos_site_id
 _symmetry_equiv_pos_as_xyz
  1  'x, y, z'
loop_
 _atom_site_type_symbol
 _atom_site_label
 _atom_site_symmetry_multiplicity
 _atom_site_fract_x
 _atom_site_fract_y
 _atom_site_fract_z
 _atom_site_occupancy
  Dy  Dy0  1  0.194358  0.805642  0.251306  1
  Dy  Dy1  1  0.805642  0.194358  0.748694  1
  Y  Y2  1  0.190086  0.386026  0.249824  1
  Y  Y3  1  0.809914  0.613974  0.750176  1
  Y  Y4  1  0.613974  0.809914  0.249824  1
  Y  Y5  1  0.386026  0.190086  0.750176  1
  Al  Al6  1  0.332268  0.667732  0.018906  1
  Al  Al7  1  0.667732  0.332268  0.981094  1
  Al  Al8  1  0.666385  0.333615  0.516052  1
  Al  Al9  1  0.333615  0.666385  0.483948  1
  Al  Al10  1  0.163346  0.325845  0.575559  1
  Al  Al11  1  0.836654  0.674155  0.424441  1
  Al  Al12  1  0.674155  0.836654  0.575559  1
  Al  Al13  1  0.842846  0.675657  0.078508  1
  Al  Al14  1  0.325845  0.163346  0.424441  1
  Al  Al15  1  0.157154  0.324343  0.921492  1
  Al  Al16  1  0.163222  0.836778  0.574714  1
  Al  Al17  1  0.324343  0.157154  0.078508  1
  Al  Al18  1  0.836778  0.163222  0.425286  1
  Al  Al19  1  0.675657  0.842846  0.921492  1
  Al  Al20  1  0.836221  0.163779  0.074832  1
  Al  Al21  1  0.163779  0.836221  0.925168  1
  Al  Al22  1  0.560851  0.122033  0.249029  1
  Al  Al23  1  0.439149  0.877967  0.750971  1
  Al  Al24  1  0.877967  0.439149  0.249029  1
  Al  Al25  1  0.122033  0.560851  0.750971  1
  Al  Al26  1  0.561062  0.438938  0.249958  1
  Al  Al27  1  0.438938  0.561062  0.750042  1
  Al  Al28  1  0.999485  0.000515  0.250367  1
  Al  Al29  1  0.000515  0.999485  0.749633  1
  Cu  Cu30  1  0.500000  0.500000  0.000000  1
  Os  Os31  1  0.500000  0.000000  0.000000  1
  Os  Os32  1  0.000000  0.500000  0.000000  1
  Os  Os33  1  0.500000  0.000000  0.500000  1
  Os  Os34  1  0.000000  0.500000  0.500000  1
  Os  Os35  1  0.500000  0.500000  0.500000  1
  Os  Os36  1  0.000000  0.000000  0.000000  1
  Os  Os37  1  0.000000  0.000000  0.500000  1
