# generated using pymatgen
data_Tb2YbTm3(Si3Ru)8
_symmetry_space_group_name_H-M   'P 1'
_cell_length_a   10.11726954
_cell_length_b   10.11727047
_cell_length_c   8.12706261
_cell_angle_alpha   89.95138171
_cell_angle_beta   90.04862028
_cell_angle_gamma   132.62805210
_symmetry_Int_Tables_number   1
_chemical_formula_structural   Tb2YbTm3(Si3Ru)8
_chemical_formula_sum   'Tb2 Yb1 Tm3 Si24 Ru8'
_cell_volume   612.06786468
_cell_formula_units_Z   1
loop_
 _symmetry_equiv_pos_site_id
 _symmetry_equiv_pos_as_xyz
  1  'x, y, z'
loop_
 _atom_site_type_symbol
 _atom_site_label
 _atom_site_symmetry_multiplicity
 _atom_site_fract_x
 _atom_site_fract_y
 _atom_site_fract_z
 _atom_site_occupancy
  Tb  Tb0  1  0.497283  0.997283  0.250000  1
  Tb  Tb1  1  0.002498  0.502498  0.750000  1
  Yb  Yb2  1  0.502219  0.002219  0.750000  1
  Tm  Tm3  1  0.500247  0.500386  0.500387  1
  Tm  Tm4  1  0.000386  0.000247  0.999613  1
  Tm  Tm5  1  0.998525  0.498525  0.250000  1
  Si  Si6  1  0.794708  0.205207  0.499471  1
  Si  Si7  1  0.294761  0.705599  0.999331  1
  Si  Si8  1  0.205599  0.794761  0.500669  1
  Si  Si9  1  0.705207  0.294708  0.000529  1
  Si  Si10  1  0.332187  0.333859  0.832819  1
  Si  Si11  1  0.667052  0.668599  0.167071  1
  Si  Si12  1  0.168599  0.167052  0.332929  1
  Si  Si13  1  0.833859  0.832187  0.667181  1
  Si  Si14  1  0.120958  0.886904  0.728795  1
  Si  Si15  1  0.110339  0.877041  0.271958  1
  Si  Si16  1  0.612270  0.379273  0.228562  1
  Si  Si17  1  0.622648  0.389068  0.771510  1
  Si  Si18  1  0.879273  0.112270  0.271438  1
  Si  Si19  1  0.889068  0.122648  0.728490  1
  Si  Si20  1  0.386904  0.620958  0.771205  1
  Si  Si21  1  0.377041  0.610339  0.228042  1
  Si  Si22  1  0.345120  0.112103  0.503439  1
  Si  Si23  1  0.887936  0.655011  0.494115  1
  Si  Si24  1  0.387826  0.154601  0.005124  1
  Si  Si25  1  0.844445  0.612134  0.995743  1
  Si  Si26  1  0.654601  0.887826  0.494876  1
  Si  Si27  1  0.112134  0.344445  0.504257  1
  Si  Si28  1  0.612103  0.845120  0.996561  1
  Si  Si29  1  0.155011  0.387936  0.005885  1
  Ru  Ru30  1  0.670327  0.331723  0.498683  1
  Ru  Ru31  1  0.167242  0.829270  0.002103  1
  Ru  Ru32  1  0.329270  0.667242  0.497897  1
  Ru  Ru33  1  0.831723  0.170327  0.001317  1
  Ru  Ru34  1  0.126777  0.126548  0.627246  1
  Ru  Ru35  1  0.873332  0.873971  0.373129  1
  Ru  Ru36  1  0.373971  0.373332  0.126871  1
  Ru  Ru37  1  0.626548  0.626777  0.872754  1
