# generated using pymatgen
data_Tb3Dy3Ho10(InIr)4
_symmetry_space_group_name_H-M   'P 1'
_cell_length_a   9.65429247
_cell_length_b   9.65045339
_cell_length_c   9.65605744
_cell_angle_alpha   60.00710649
_cell_angle_beta   60.01974634
_cell_angle_gamma   60.02524600
_symmetry_Int_Tables_number   1
_chemical_formula_structural   Tb3Dy3Ho10(InIr)4
_chemical_formula_sum   'Tb3 Dy3 Ho10 In4 Ir4'
_cell_volume   636.39086110
_cell_formula_units_Z   1
loop_
 _symmetry_equiv_pos_site_id
 _symmetry_equiv_pos_as_xyz
  1  'x, y, z'
loop_
 _atom_site_type_symbol
 _atom_site_label
 _atom_site_symmetry_multiplicity
 _atom_site_fract_x
 _atom_site_fract_y
 _atom_site_fract_z
 _atom_site_occupancy
  Tb  Tb0  1  0.190030  0.809748  0.811163  1
  Tb  Tb1  1  0.811163  0.189058  0.190030  1
  Tb  Tb2  1  0.811082  0.188918  0.811082  1
  Dy  Dy3  1  0.190629  0.809371  0.190629  1
  Dy  Dy4  1  0.810603  0.809068  0.190637  1
  Dy  Dy5  1  0.190637  0.189692  0.810603  1
  Ho  Ho6  1  0.598736  0.597329  0.598906  1
  Ho  Ho7  1  0.600067  0.598723  0.202460  1
  Ho  Ho8  1  0.598906  0.205029  0.598736  1
  Ho  Ho9  1  0.202460  0.598750  0.600067  1
  Ho  Ho10  1  0.058971  0.441569  0.439621  1
  Ho  Ho11  1  0.439621  0.059839  0.058971  1
  Ho  Ho12  1  0.440305  0.059695  0.440305  1
  Ho  Ho13  1  0.059224  0.440776  0.059224  1
  Ho  Ho14  1  0.439480  0.441441  0.059071  1
  Ho  Ho15  1  0.059071  0.060009  0.439480  1
  In  In16  1  0.832774  0.833167  0.832957  1
  In  In17  1  0.832765  0.832890  0.501212  1
  In  In18  1  0.832957  0.501103  0.832774  1
  In  In19  1  0.501212  0.833133  0.832765  1
  Ir  Ir20  1  0.390780  0.391682  0.391277  1
  Ir  Ir21  1  0.390678  0.391106  0.826573  1
  Ir  Ir22  1  0.391277  0.826262  0.390780  1
  Ir  Ir23  1  0.826573  0.391645  0.390678  1
