# generated using pymatgen
data_Hf3Fe3CoSi4W
_symmetry_space_group_name_H-M   'P 1'
_cell_length_a   3.80233800
_cell_length_b   6.26101530
_cell_length_c   7.05828488
_cell_angle_alpha   89.74398917
_cell_angle_beta   90.00000000
_cell_angle_gamma   90.00000000
_symmetry_Int_Tables_number   1
_chemical_formula_structural   Hf3Fe3CoSi4W
_chemical_formula_sum   'Hf3 Fe3 Co1 Si4 W1'
_cell_volume   168.03135616
_cell_formula_units_Z   1
loop_
 _symmetry_equiv_pos_site_id
 _symmetry_equiv_pos_as_xyz
  1  'x, y, z'
loop_
 _atom_site_type_symbol
 _atom_site_label
 _atom_site_symmetry_multiplicity
 _atom_site_fract_x
 _atom_site_fract_y
 _atom_site_fract_z
 _atom_site_occupancy
  Hf  Hf0  1  0.250000  0.509407  0.196450  1
  Hf  Hf1  1  0.750000  0.990708  0.686542  1
  Hf  Hf2  1  0.750000  0.483040  0.808306  1
  Fe  Fe3  1  0.250000  0.152129  0.939274  1
  Fe  Fe4  1  0.750000  0.845038  0.062551  1
  Fe  Fe5  1  0.750000  0.353858  0.429682  1
  Co  Co6  1  0.250000  0.653607  0.565441  1
  Si  Si7  1  0.250000  0.279623  0.600869  1
  Si  Si8  1  0.250000  0.784403  0.890671  1
  Si  Si9  1  0.750000  0.729791  0.383441  1
  Si  Si10  1  0.750000  0.204229  0.119983  1
  W  W11  1  0.250000  0.014164  0.316790  1
