# generated using pymatgen
data_LaGePRu2
_symmetry_space_group_name_H-M   'P 1'
_cell_length_a   5.90467459
_cell_length_b   5.90467463
_cell_length_c   5.90467427
_cell_angle_alpha   138.28241456
_cell_angle_beta   138.28241005
_cell_angle_gamma   60.47074062
_symmetry_Int_Tables_number   1
_chemical_formula_structural   LaGePRu2
_chemical_formula_sum   'La1 Ge1 P1 Ru2'
_cell_volume   90.19961704
_cell_formula_units_Z   1
loop_
 _symmetry_equiv_pos_site_id
 _symmetry_equiv_pos_as_xyz
  1  'x, y, z'
loop_
 _atom_site_type_symbol
 _atom_site_label
 _atom_site_symmetry_multiplicity
 _atom_site_fract_x
 _atom_site_fract_y
 _atom_site_fract_z
 _atom_site_occupancy
  La  La0  1  0.002697  0.002697  0.000000  1
  Ge  Ge1  1  0.371042  0.371042  0.000000  1
  P  P2  1  0.640743  0.640743  0.000000  1
  Ru  Ru3  1  0.242759  0.742759  0.500000  1
  Ru  Ru4  1  0.742759  0.242759  0.500000  1
