# generated using pymatgen
data_Mn2GeRh3
_symmetry_space_group_name_H-M   'P 1'
_cell_length_a   4.31614500
_cell_length_b   4.31614643
_cell_length_c   10.57189700
_cell_angle_alpha   90.00000000
_cell_angle_beta   90.00000000
_cell_angle_gamma   120.00001204
_symmetry_Int_Tables_number   1
_chemical_formula_structural   Mn2GeRh3
_chemical_formula_sum   'Mn4 Ge2 Rh6'
_cell_volume   170.55941531
_cell_formula_units_Z   2
loop_
 _symmetry_equiv_pos_site_id
 _symmetry_equiv_pos_as_xyz
  1  'x, y, z'
loop_
 _atom_site_type_symbol
 _atom_site_label
 _atom_site_symmetry_multiplicity
 _atom_site_fract_x
 _atom_site_fract_y
 _atom_site_fract_z
 _atom_site_occupancy
  Mn  Mn0  1  0.000000  0.000000  0.500000  1
  Mn  Mn1  1  0.333333  0.666667  0.163327  1
  Mn  Mn2  1  0.666667  0.333333  0.836673  1
  Mn  Mn3  1  0.000000  0.000000  0.000000  1
  Ge  Ge4  1  0.333333  0.666667  0.668696  1
  Ge  Ge5  1  0.666667  0.333333  0.331304  1
  Rh  Rh6  1  0.333333  0.666667  0.417830  1
  Rh  Rh7  1  0.666667  0.333333  0.086186  1
  Rh  Rh8  1  0.000000  0.000000  0.746112  1
  Rh  Rh9  1  0.000000  0.000000  0.253888  1
  Rh  Rh10  1  0.333333  0.666667  0.913814  1
  Rh  Rh11  1  0.666667  0.333333  0.582170  1
