# generated using pymatgen
data_Na2LiAlBi2
_symmetry_space_group_name_H-M   'P 1'
_cell_length_a   10.22741290
_cell_length_b   10.22741295
_cell_length_c   6.41242800
_cell_angle_alpha   90.00000000
_cell_angle_beta   90.00000000
_cell_angle_gamma   98.75375598
_symmetry_Int_Tables_number   1
_chemical_formula_structural   Na2LiAlBi2
_chemical_formula_sum   'Na8 Li4 Al4 Bi8'
_cell_volume   662.92672091
_cell_formula_units_Z   4
loop_
 _symmetry_equiv_pos_site_id
 _symmetry_equiv_pos_as_xyz
  1  'x, y, z'
loop_
 _atom_site_type_symbol
 _atom_site_label
 _atom_site_symmetry_multiplicity
 _atom_site_fract_x
 _atom_site_fract_y
 _atom_site_fract_z
 _atom_site_occupancy
  Na  Na0  1  0.573577  0.926423  0.250000  1
  Na  Na1  1  0.674035  0.325965  0.218293  1
  Na  Na2  1  0.325965  0.674035  0.781707  1
  Na  Na3  1  0.073577  0.426423  0.250000  1
  Na  Na4  1  0.926423  0.573577  0.750000  1
  Na  Na5  1  0.426423  0.073577  0.750000  1
  Na  Na6  1  0.825965  0.174035  0.718293  1
  Na  Na7  1  0.174035  0.825965  0.281707  1
  Li  Li8  1  0.880302  0.880302  0.500000  1
  Li  Li9  1  0.119698  0.119698  0.500000  1
  Li  Li10  1  0.619698  0.619698  0.000000  1
  Li  Li11  1  0.380302  0.380302  0.000000  1
  Al  Al12  1  0.870781  0.870781  0.000000  1
  Al  Al13  1  0.129219  0.129219  0.000000  1
  Al  Al14  1  0.370781  0.370781  0.500000  1
  Al  Al15  1  0.629219  0.629219  0.500000  1
  Bi  Bi16  1  0.112588  0.887412  0.778642  1
  Bi  Bi17  1  0.612588  0.387412  0.721358  1
  Bi  Bi18  1  0.887412  0.112588  0.221358  1
  Bi  Bi19  1  0.387412  0.612588  0.278642  1
  Bi  Bi20  1  0.361222  0.138778  0.250000  1
  Bi  Bi21  1  0.138778  0.361222  0.750000  1
  Bi  Bi22  1  0.638778  0.861222  0.750000  1
  Bi  Bi23  1  0.861222  0.638778  0.250000  1
