# generated using pymatgen
data_Tm4Ga7Ir5Pt
_symmetry_space_group_name_H-M   'P 1'
_cell_length_a   7.28282501
_cell_length_b   7.28282055
_cell_length_c   7.28282082
_cell_angle_alpha   110.35341112
_cell_angle_beta   109.03201520
_cell_angle_gamma   109.03202082
_symmetry_Int_Tables_number   1
_chemical_formula_structural   Tm4Ga7Ir5Pt
_chemical_formula_sum   'Tm4 Ga7 Ir5 Pt1'
_cell_volume   297.30277766
_cell_formula_units_Z   1
loop_
 _symmetry_equiv_pos_site_id
 _symmetry_equiv_pos_as_xyz
  1  'x, y, z'
loop_
 _atom_site_type_symbol
 _atom_site_label
 _atom_site_symmetry_multiplicity
 _atom_site_fract_x
 _atom_site_fract_y
 _atom_site_fract_z
 _atom_site_occupancy
  Tm  Tm0  1  0.009923  0.004962  0.504961  1
  Tm  Tm1  1  0.990077  0.495039  0.995038  1
  Tm  Tm2  1  0.500000  0.004961  0.995039  1
  Tm  Tm3  1  0.500000  0.495038  0.504962  1
  Ga  Ga4  1  0.500000  0.750000  0.250000  1
  Ga  Ga5  1  0.688334  0.682863  0.994528  1
  Ga  Ga6  1  0.311666  0.005472  0.317137  1
  Ga  Ga7  1  0.000000  0.320322  0.320323  1
  Ga  Ga8  1  0.311666  0.306194  0.994529  1
  Ga  Ga9  1  0.688334  0.005471  0.693806  1
  Ga  Ga10  1  0.000000  0.679677  0.679678  1
  Ir  Ir11  1  0.745632  0.237498  0.491863  1
  Ir  Ir12  1  0.745634  0.508134  0.253767  1
  Ir  Ir13  1  0.500000  0.249998  0.750002  1
  Ir  Ir14  1  0.254368  0.508137  0.762502  1
  Ir  Ir15  1  0.254366  0.746233  0.491866  1
  Pt  Pt16  1  0.000000  0.000000  0.000000  1
