# generated using pymatgen
data_CeAl8(CuPd)2
_symmetry_space_group_name_H-M   'P 1'
_cell_length_a   6.82184058
_cell_length_b   6.82603581
_cell_length_c   6.82184059
_cell_angle_alpha   98.83506897
_cell_angle_beta   98.50861866
_cell_angle_gamma   134.26096984
_symmetry_Int_Tables_number   1
_chemical_formula_structural   CeAl8(CuPd)2
_chemical_formula_sum   'Ce1 Al8 Cu2 Pd2'
_cell_volume   209.68277865
_cell_formula_units_Z   1
loop_
 _symmetry_equiv_pos_site_id
 _symmetry_equiv_pos_as_xyz
  1  'x, y, z'
loop_
 _atom_site_type_symbol
 _atom_site_label
 _atom_site_symmetry_multiplicity
 _atom_site_fract_x
 _atom_site_fract_y
 _atom_site_fract_z
 _atom_site_occupancy
  Ce  Ce0  1  0.000000  0.000000  0.000000  1
  Al  Al1  1  0.348614  0.000000  0.348614  1
  Al  Al2  1  0.001745  0.350255  0.348510  1
  Al  Al3  1  0.998255  0.649745  0.651490  1
  Al  Al4  1  0.651386  0.000000  0.651386  1
  Al  Al5  1  0.278998  0.500000  0.778998  1
  Al  Al6  1  0.504468  0.283340  0.778872  1
  Al  Al7  1  0.495532  0.716660  0.221128  1
  Al  Al8  1  0.721002  0.500000  0.221002  1
  Cu  Cu9  1  0.500000  0.500000  0.500000  1
  Cu  Cu10  1  0.000000  0.500000  0.000000  1
  Pd  Pd11  1  0.500000  0.000000  0.000000  1
  Pd  Pd12  1  0.000000  0.000000  0.500000  1
