# generated using pymatgen
data_Ca3Tb5Ho4(SiPd)12
_symmetry_space_group_name_H-M   'P 1'
_cell_length_a   4.33404600
_cell_length_b   7.44602006
_cell_length_c   21.20925901
_cell_angle_alpha   89.95936420
_cell_angle_beta   90.00000000
_cell_angle_gamma   90.00000000
_symmetry_Int_Tables_number   1
_chemical_formula_structural   Ca3Tb5Ho4(SiPd)12
_chemical_formula_sum   'Ca3 Tb5 Ho4 Si12 Pd12'
_cell_volume   684.45216998
_cell_formula_units_Z   1
loop_
 _symmetry_equiv_pos_site_id
 _symmetry_equiv_pos_as_xyz
  1  'x, y, z'
loop_
 _atom_site_type_symbol
 _atom_site_label
 _atom_site_symmetry_multiplicity
 _atom_site_fract_x
 _atom_site_fract_y
 _atom_site_fract_z
 _atom_site_occupancy
  Ca  Ca0  1  0.250000  0.703244  0.332672  1
  Ca  Ca1  1  0.750000  0.295340  0.667381  1
  Ca  Ca2  1  0.750000  0.203258  0.167088  1
  Tb  Tb3  1  0.250000  0.797288  0.832798  1
  Tb  Tb4  1  0.250000  0.797081  0.166004  1
  Tb  Tb5  1  0.250000  0.704443  0.665898  1
  Tb  Tb6  1  0.250000  0.708832  0.000958  1
  Tb  Tb7  1  0.250000  0.793698  0.500402  1
  Ho  Ho8  1  0.750000  0.205131  0.833755  1
  Ho  Ho9  1  0.750000  0.295172  0.333867  1
  Ho  Ho10  1  0.750000  0.290255  0.999506  1
  Ho  Ho11  1  0.750000  0.208092  0.499055  1
  Si  Si12  1  0.250000  0.089199  0.065954  1
  Si  Si13  1  0.750000  0.910809  0.928730  1
  Si  Si14  1  0.750000  0.586726  0.433941  1
  Si  Si15  1  0.250000  0.412011  0.566310  1
  Si  Si16  1  0.250000  0.086757  0.274405  1
  Si  Si17  1  0.750000  0.911641  0.728128  1
  Si  Si18  1  0.750000  0.586649  0.225856  1
  Si  Si19  1  0.250000  0.414141  0.774230  1
  Si  Si20  1  0.250000  0.090184  0.395164  1
  Si  Si21  1  0.750000  0.910556  0.605581  1
  Si  Si22  1  0.750000  0.588920  0.104527  1
  Si  Si23  1  0.250000  0.410762  0.895505  1
  Pd  Pd24  1  0.250000  0.415256  0.236851  1
  Pd  Pd25  1  0.750000  0.584593  0.764740  1
  Pd  Pd26  1  0.750000  0.915715  0.263280  1
  Pd  Pd27  1  0.250000  0.083498  0.737911  1
  Pd  Pd28  1  0.250000  0.415492  0.437391  1
  Pd  Pd29  1  0.750000  0.583630  0.562515  1
  Pd  Pd30  1  0.750000  0.916367  0.062698  1
  Pd  Pd31  1  0.250000  0.084244  0.937722  1
  Pd  Pd32  1  0.250000  0.419811  0.092910  1
  Pd  Pd33  1  0.750000  0.579991  0.906134  1
  Pd  Pd34  1  0.750000  0.919684  0.407311  1
  Pd  Pd35  1  0.250000  0.081531  0.592818  1
