# generated using pymatgen
data_Mg2Al3GaPt10
_symmetry_space_group_name_H-M   'P 1'
_cell_length_a   4.04745100
_cell_length_b   5.51379204
_cell_length_c   10.86699517
_cell_angle_alpha   89.64876610
_cell_angle_beta   90.00000000
_cell_angle_gamma   90.00000000
_symmetry_Int_Tables_number   1
_chemical_formula_structural   Mg2Al3GaPt10
_chemical_formula_sum   'Mg2 Al3 Ga1 Pt10'
_cell_volume   242.51203490
_cell_formula_units_Z   1
loop_
 _symmetry_equiv_pos_site_id
 _symmetry_equiv_pos_as_xyz
  1  'x, y, z'
loop_
 _atom_site_type_symbol
 _atom_site_label
 _atom_site_symmetry_multiplicity
 _atom_site_fract_x
 _atom_site_fract_y
 _atom_site_fract_z
 _atom_site_occupancy
  Mg  Mg0  1  0.500000  0.184759  0.638398  1
  Mg  Mg1  1  0.500000  0.815241  0.361602  1
  Al  Al2  1  0.500000  0.679420  0.856892  1
  Al  Al3  1  0.500000  0.320580  0.143108  1
  Al  Al4  1  0.000000  0.000000  0.000000  1
  Ga  Ga5  1  0.000000  0.500000  0.500000  1
  Pt  Pt6  1  0.500000  0.301644  0.385929  1
  Pt  Pt7  1  0.500000  0.698356  0.614071  1
  Pt  Pt8  1  0.500000  0.798510  0.101628  1
  Pt  Pt9  1  0.500000  0.201490  0.898372  1
  Pt  Pt10  1  0.000000  0.437154  0.744475  1
  Pt  Pt11  1  0.000000  0.562846  0.255525  1
  Pt  Pt12  1  0.000000  0.934214  0.767333  1
  Pt  Pt13  1  0.000000  0.065786  0.232667  1
  Pt  Pt14  1  0.000000  0.500000  0.000000  1
  Pt  Pt15  1  0.000000  0.000000  0.500000  1
