# generated using pymatgen
data_HfScCoIr
_symmetry_space_group_name_H-M   'P 1'
_cell_length_a   4.54521195
_cell_length_b   4.54521204
_cell_length_c   4.54521300
_cell_angle_alpha   60.00000032
_cell_angle_beta   59.99999964
_cell_angle_gamma   59.99999624
_symmetry_Int_Tables_number   1
_chemical_formula_structural   HfScCoIr
_chemical_formula_sum   'Hf1 Sc1 Co1 Ir1'
_cell_volume   66.39685648
_cell_formula_units_Z   1
loop_
 _symmetry_equiv_pos_site_id
 _symmetry_equiv_pos_as_xyz
  1  'x, y, z'
loop_
 _atom_site_type_symbol
 _atom_site_label
 _atom_site_symmetry_multiplicity
 _atom_site_fract_x
 _atom_site_fract_y
 _atom_site_fract_z
 _atom_site_occupancy
  Hf  Hf0  1  0.500000  0.500000  0.500000  1
  Sc  Sc1  1  0.000000  0.000000  0.000000  1
  Co  Co2  1  0.250000  0.250000  0.250000  1
  Ir  Ir3  1  0.750000  0.750000  0.750000  1
