# generated using pymatgen
data_Tc3Os(Br3O)4
_symmetry_space_group_name_H-M   'P 1'
_cell_length_a   3.72731421
_cell_length_b   11.95606968
_cell_length_c   11.95525273
_cell_angle_alpha   90.33367321
_cell_angle_beta   89.47835187
_cell_angle_gamma   90.00322734
_symmetry_Int_Tables_number   1
_chemical_formula_structural   Tc3Os(Br3O)4
_chemical_formula_sum   'Tc3 Os1 Br12 O4'
_cell_volume   532.74310781
_cell_formula_units_Z   1
loop_
 _symmetry_equiv_pos_site_id
 _symmetry_equiv_pos_as_xyz
  1  'x, y, z'
loop_
 _atom_site_type_symbol
 _atom_site_label
 _atom_site_symmetry_multiplicity
 _atom_site_fract_x
 _atom_site_fract_y
 _atom_site_fract_z
 _atom_site_occupancy
  Tc  Tc0  1  0.994558  0.117550  0.117038  1
  Tc  Tc1  1  0.505331  0.617273  0.382745  1
  Tc  Tc2  1  0.005458  0.882969  0.882460  1
  Os  Os3  1  0.495033  0.386534  0.613449  1
  Br  Br4  1  0.488448  0.388589  0.820277  1
  Br  Br5  1  0.510762  0.603231  0.178203  1
  Br  Br6  1  0.989097  0.103655  0.321666  1
  Br  Br7  1  0.010926  0.895830  0.677765  1
  Br  Br8  1  0.505923  0.821777  0.396815  1
  Br  Br9  1  0.494077  0.179714  0.611349  1
  Br  Br10  1  0.994280  0.322204  0.104186  1
  Br  Br11  1  0.005903  0.678367  0.896307  1
  Br  Br12  1  0.496463  0.602223  0.603768  1
  Br  Br13  1  0.503028  0.396262  0.397766  1
  Br  Br14  1  0.996797  0.897524  0.102491  1
  Br  Br15  1  0.003613  0.101984  0.898001  1
  O  O16  1  0.995144  0.389106  0.610883  1
  O  O17  1  0.005106  0.614640  0.385378  1
  O  O18  1  0.494819  0.115473  0.114904  1
  O  O19  1  0.505231  0.885096  0.884547  1
