# generated using pymatgen
data_Dy5MgSc2(P3Ir4)4
_symmetry_space_group_name_H-M   'P 1'
_cell_length_a   12.79754500
_cell_length_b   12.86656839
_cell_length_c   3.97060500
_cell_angle_alpha   90.00000000
_cell_angle_beta   90.00000000
_cell_angle_gamma   119.82270268
_symmetry_Int_Tables_number   1
_chemical_formula_structural   Dy5MgSc2(P3Ir4)4
_chemical_formula_sum   'Dy5 Mg1 Sc2 P12 Ir16'
_cell_volume   567.21778719
_cell_formula_units_Z   1
loop_
 _symmetry_equiv_pos_site_id
 _symmetry_equiv_pos_as_xyz
  1  'x, y, z'
loop_
 _atom_site_type_symbol
 _atom_site_label
 _atom_site_symmetry_multiplicity
 _atom_site_fract_x
 _atom_site_fract_y
 _atom_site_fract_z
 _atom_site_occupancy
  Dy  Dy0  1  0.332523  0.664694  0.500000  1
  Dy  Dy1  1  0.667831  0.335306  0.500000  1
  Dy  Dy2  1  0.998277  0.810497  0.000000  1
  Dy  Dy3  1  0.187779  0.189503  0.000000  1
  Dy  Dy4  1  0.809927  0.000000  0.000000  1
  Mg  Mg5  1  0.445337  0.000000  0.500000  1
  Sc  Sc6  1  0.999596  0.442683  0.500000  1
  Sc  Sc7  1  0.556914  0.557317  0.500000  1
  P  P8  1  0.002867  0.645265  0.500000  1
  P  P9  1  0.357602  0.354735  0.500000  1
  P  P10  1  0.642067  0.000000  0.500000  1
  P  P11  1  0.517518  0.687550  0.000000  1
  P  P12  1  0.311391  0.827370  0.000000  1
  P  P13  1  0.168458  0.482285  0.000000  1
  P  P14  1  0.484022  0.172630  0.000000  1
  P  P15  1  0.686173  0.517715  0.000000  1
  P  P16  1  0.829968  0.312450  0.000000  1
  P  P17  1  0.000506  0.176505  0.500000  1
  P  P18  1  0.824001  0.823495  0.500000  1
  P  P19  1  0.178129  0.000000  0.500000  1
  Ir  Ir20  1  0.507871  0.867164  0.000000  1
  Ir  Ir21  1  0.129081  0.641910  0.000000  1
  Ir  Ir22  1  0.357970  0.492983  0.000000  1
  Ir  Ir23  1  0.487172  0.358090  0.000000  1
  Ir  Ir24  1  0.864989  0.507017  0.000000  1
  Ir  Ir25  1  0.640709  0.132836  0.000000  1
  Ir  Ir26  1  0.999919  0.277564  0.000000  1
  Ir  Ir27  1  0.722355  0.722436  0.000000  1
  Ir  Ir28  1  0.277413  0.000000  0.000000  1
  Ir  Ir29  1  0.628011  0.808466  0.500000  1
  Ir  Ir30  1  0.197902  0.823016  0.500000  1
  Ir  Ir31  1  0.180235  0.371056  0.500000  1
  Ir  Ir32  1  0.374887  0.176984  0.500000  1
  Ir  Ir33  1  0.809179  0.628944  0.500000  1
  Ir  Ir34  1  0.819545  0.191534  0.500000  1
  Ir  Ir35  1  0.001877  0.000000  0.500000  1
