# generated using pymatgen
data_Nb12Al8CrFe3C4
_symmetry_space_group_name_H-M   'P 1'
_cell_length_a   8.25893067
_cell_length_b   8.25893113
_cell_length_c   8.25892942
_cell_angle_alpha   59.92566506
_cell_angle_beta   59.92567088
_cell_angle_gamma   59.92566393
_symmetry_Int_Tables_number   1
_chemical_formula_structural   Nb12Al8CrFe3C4
_chemical_formula_sum   'Nb12 Al8 Cr1 Fe3 C4'
_cell_volume   397.67064680
_cell_formula_units_Z   1
loop_
 _symmetry_equiv_pos_site_id
 _symmetry_equiv_pos_as_xyz
  1  'x, y, z'
loop_
 _atom_site_type_symbol
 _atom_site_label
 _atom_site_symmetry_multiplicity
 _atom_site_fract_x
 _atom_site_fract_y
 _atom_site_fract_z
 _atom_site_occupancy
  Nb  Nb0  1  0.556830  0.943588  0.556830  1
  Nb  Nb1  1  0.306412  0.693170  0.693170  1
  Nb  Nb2  1  0.700516  0.303473  0.303473  1
  Nb  Nb3  1  0.303473  0.700516  0.303473  1
  Nb  Nb4  1  0.693170  0.693170  0.306412  1
  Nb  Nb5  1  0.303473  0.303473  0.700516  1
  Nb  Nb6  1  0.556830  0.556830  0.943588  1
  Nb  Nb7  1  0.943588  0.556830  0.556830  1
  Nb  Nb8  1  0.549484  0.946527  0.946527  1
  Nb  Nb9  1  0.946527  0.946527  0.549484  1
  Nb  Nb10  1  0.693170  0.306412  0.693170  1
  Nb  Nb11  1  0.946527  0.549484  0.946527  1
  Al  Al12  1  0.916374  0.916374  0.916374  1
  Al  Al13  1  0.003873  0.334907  0.334907  1
  Al  Al14  1  0.334907  0.003873  0.334907  1
  Al  Al15  1  0.334907  0.334907  0.003873  1
  Al  Al16  1  0.915093  0.246127  0.915093  1
  Al  Al17  1  0.915093  0.915093  0.246127  1
  Al  Al18  1  0.246127  0.915093  0.915093  1
  Al  Al19  1  0.333626  0.333626  0.333626  1
  Cr  Cr20  1  0.125000  0.125000  0.125000  1
  Fe  Fe21  1  0.625000  0.125000  0.125000  1
  Fe  Fe22  1  0.125000  0.625000  0.125000  1
  Fe  Fe23  1  0.125000  0.125000  0.625000  1
  C  C24  1  0.625000  0.625000  0.625000  1
  C  C25  1  0.125000  0.625000  0.625000  1
  C  C26  1  0.625000  0.125000  0.625000  1
  C  C27  1  0.625000  0.625000  0.125000  1
