# generated using pymatgen
data_Hf9CrRe3Pd
_symmetry_space_group_name_H-M   'P 1'
_cell_length_a   8.67274905
_cell_length_b   8.67274838
_cell_length_c   8.42337300
_cell_angle_alpha   90.00000000
_cell_angle_beta   90.00000000
_cell_angle_gamma   120.01525845
_symmetry_Int_Tables_number   1
_chemical_formula_structural   Hf9CrRe3Pd
_chemical_formula_sum   'Hf18 Cr2 Re6 Pd2'
_cell_volume   548.60959039
_cell_formula_units_Z   2
loop_
 _symmetry_equiv_pos_site_id
 _symmetry_equiv_pos_as_xyz
  1  'x, y, z'
loop_
 _atom_site_type_symbol
 _atom_site_label
 _atom_site_symmetry_multiplicity
 _atom_site_fract_x
 _atom_site_fract_y
 _atom_site_fract_z
 _atom_site_occupancy
  Hf  Hf0  1  0.806879  0.613751  0.552150  1
  Hf  Hf1  1  0.806848  0.193152  0.552144  1
  Hf  Hf2  1  0.386249  0.193121  0.552150  1
  Hf  Hf3  1  0.193121  0.386249  0.447850  1
  Hf  Hf4  1  0.193152  0.806848  0.447856  1
  Hf  Hf5  1  0.613751  0.806879  0.447850  1
  Hf  Hf6  1  0.193121  0.386249  0.052150  1
  Hf  Hf7  1  0.193152  0.806848  0.052144  1
  Hf  Hf8  1  0.613751  0.806879  0.052150  1
  Hf  Hf9  1  0.806879  0.613751  0.947850  1
  Hf  Hf10  1  0.806848  0.193152  0.947856  1
  Hf  Hf11  1  0.386249  0.193121  0.947850  1
  Hf  Hf12  1  0.457826  0.915609  0.750000  1
  Hf  Hf13  1  0.457843  0.542157  0.750000  1
  Hf  Hf14  1  0.084391  0.542174  0.750000  1
  Hf  Hf15  1  0.542174  0.084391  0.250000  1
  Hf  Hf16  1  0.542157  0.457843  0.250000  1
  Hf  Hf17  1  0.915609  0.457826  0.250000  1
  Cr  Cr18  1  0.000000  0.000000  0.500000  1
  Cr  Cr19  1  0.000000  0.000000  0.000000  1
  Re  Re20  1  0.107836  0.215509  0.750000  1
  Re  Re21  1  0.107921  0.892079  0.750000  1
  Re  Re22  1  0.784491  0.892164  0.750000  1
  Re  Re23  1  0.892164  0.784491  0.250000  1
  Re  Re24  1  0.892079  0.107921  0.250000  1
  Re  Re25  1  0.215509  0.107836  0.250000  1
  Pd  Pd26  1  0.666673  0.333327  0.750000  1
  Pd  Pd27  1  0.333327  0.666673  0.250000  1
