# generated using pymatgen
data_Ce3Sm(SnRh2)2
_symmetry_space_group_name_H-M   'P 1'
_cell_length_a   7.61950037
_cell_length_b   7.61950021
_cell_length_c   3.77730500
_cell_angle_alpha   90.00000000
_cell_angle_beta   90.00000000
_cell_angle_gamma   88.32830725
_symmetry_Int_Tables_number   1
_chemical_formula_structural   Ce3Sm(SnRh2)2
_chemical_formula_sum   'Ce3 Sm1 Sn2 Rh4'
_cell_volume   219.20484858
_cell_formula_units_Z   1
loop_
 _symmetry_equiv_pos_site_id
 _symmetry_equiv_pos_as_xyz
  1  'x, y, z'
loop_
 _atom_site_type_symbol
 _atom_site_label
 _atom_site_symmetry_multiplicity
 _atom_site_fract_x
 _atom_site_fract_y
 _atom_site_fract_z
 _atom_site_occupancy
  Ce  Ce0  1  0.328298  0.828298  0.500000  1
  Ce  Ce1  1  0.169147  0.325894  0.500000  1
  Ce  Ce2  1  0.825894  0.669147  0.500000  1
  Sm  Sm3  1  0.671845  0.171845  0.500000  1
  Sn  Sn4  1  0.995008  0.997600  0.000000  1
  Sn  Sn5  1  0.497600  0.495008  0.000000  1
  Rh  Rh6  1  0.144708  0.644708  0.000000  1
  Rh  Rh7  1  0.881787  0.381787  0.000000  1
  Rh  Rh8  1  0.631870  0.853843  0.000000  1
  Rh  Rh9  1  0.353843  0.131870  0.000000  1
