# generated using pymatgen
data_Er3TmAl18Ir5Pt
_symmetry_space_group_name_H-M   'P 1'
_cell_length_a   7.55395094
_cell_length_b   7.55251002
_cell_length_c   9.42547202
_cell_angle_alpha   89.97052618
_cell_angle_beta   89.96839358
_cell_angle_gamma   119.58483487
_symmetry_Int_Tables_number   1
_chemical_formula_structural   Er3TmAl18Ir5Pt
_chemical_formula_sum   'Er3 Tm1 Al18 Ir5 Pt1'
_cell_volume   467.62817414
_cell_formula_units_Z   1
loop_
 _symmetry_equiv_pos_site_id
 _symmetry_equiv_pos_as_xyz
  1  'x, y, z'
loop_
 _atom_site_type_symbol
 _atom_site_label
 _atom_site_symmetry_multiplicity
 _atom_site_fract_x
 _atom_site_fract_y
 _atom_site_fract_z
 _atom_site_occupancy
  Er  Er0  1  0.004585  0.328825  0.749323  1
  Er  Er1  1  0.671234  0.995319  0.250685  1
  Er  Er2  1  0.328940  0.005156  0.749178  1
  Tm  Tm3  1  0.995361  0.671420  0.250956  1
  Al  Al4  1  0.128322  0.127350  0.250317  1
  Al  Al5  1  0.872511  0.871794  0.749686  1
  Al  Al6  1  0.003921  0.335671  0.076505  1
  Al  Al7  1  0.002295  0.668064  0.923529  1
  Al  Al8  1  0.999990  0.664595  0.574877  1
  Al  Al9  1  0.335025  0.999760  0.425070  1
  Al  Al10  1  0.000638  0.334999  0.424548  1
  Al  Al11  1  0.665257  0.999446  0.575612  1
  Al  Al12  1  0.664560  0.996222  0.923307  1
  Al  Al13  1  0.331616  0.997513  0.076440  1
  Al  Al14  1  0.332992  0.332747  0.552885  1
  Al  Al15  1  0.667410  0.667047  0.447216  1
  Al  Al16  1  0.666582  0.669636  0.056241  1
  Al  Al17  1  0.330401  0.333570  0.943628  1
  Al  Al18  1  0.340016  0.549429  0.250352  1
  Al  Al19  1  0.660095  0.452785  0.747533  1
  Al  Al20  1  0.547115  0.340033  0.252501  1
  Al  Al21  1  0.450399  0.659824  0.749638  1
  Ir  Ir22  1  0.328215  0.672027  0.000114  1
  Ir  Ir23  1  0.328551  0.671739  0.499872  1
  Ir  Ir24  1  0.672117  0.327943  0.499774  1
  Ir  Ir25  1  0.999631  0.999840  0.000177  1
  Ir  Ir26  1  0.000172  0.999326  0.499833  1
  Pt  Pt27  1  0.672050  0.327920  0.000203  1
