# generated using pymatgen
data_Pr3Nd7(Sn3O)2
_symmetry_space_group_name_H-M   'P 1'
_cell_length_a   9.40010866
_cell_length_b   9.39480945
_cell_length_c   9.39677622
_cell_angle_alpha   126.21047742
_cell_angle_beta   126.22693869
_cell_angle_gamma   79.53401297
_symmetry_Int_Tables_number   1
_chemical_formula_structural   Pr3Nd7(Sn3O)2
_chemical_formula_sum   'Pr3 Nd7 Sn6 O2'
_cell_volume   521.94138532
_cell_formula_units_Z   1
loop_
 _symmetry_equiv_pos_site_id
 _symmetry_equiv_pos_as_xyz
  1  'x, y, z'
loop_
 _atom_site_type_symbol
 _atom_site_label
 _atom_site_symmetry_multiplicity
 _atom_site_fract_x
 _atom_site_fract_y
 _atom_site_fract_z
 _atom_site_occupancy
  Pr  Pr0  1  0.497347  0.304959  0.500003  1
  Pr  Pr1  1  0.502907  0.502982  0.000219  1
  Pr  Pr2  1  0.002694  0.002767  0.999785  1
  Nd  Nd3  1  0.803731  0.998543  0.500001  1
  Nd  Nd4  1  0.998531  0.498701  0.195033  1
  Nd  Nd5  1  0.303498  0.803667  0.804968  1
  Nd  Nd6  1  0.503246  0.698625  0.500001  1
  Nd  Nd7  1  0.198475  0.003321  0.499998  1
  Nd  Nd8  1  0.003463  0.503253  0.804970  1
  Nd  Nd9  1  0.698494  0.198283  0.195029  1
  Sn  Sn10  1  0.140003  0.360940  0.499991  1
  Sn  Sn11  1  0.860836  0.640958  0.500001  1
  Sn  Sn12  1  0.641229  0.140674  0.780678  1
  Sn  Sn13  1  0.360554  0.859997  0.219324  1
  Sn  Sn14  1  0.752312  0.752501  0.000792  1
  Sn  Sn15  1  0.251520  0.251710  0.999210  1
  O  O16  1  0.753096  0.250222  0.499999  1
  O  O17  1  0.250908  0.750739  0.499999  1
