# generated using pymatgen
data_ErLu3CoCu3
_symmetry_space_group_name_H-M   'P 1'
_cell_length_a   4.27785400
_cell_length_b   5.32894416
_cell_length_c   6.93288495
_cell_angle_alpha   90.27091433
_cell_angle_beta   90.00000000
_cell_angle_gamma   90.00000000
_symmetry_Int_Tables_number   1
_chemical_formula_structural   ErLu3CoCu3
_chemical_formula_sum   'Er1 Lu3 Co1 Cu3'
_cell_volume   158.04336437
_cell_formula_units_Z   1
loop_
 _symmetry_equiv_pos_site_id
 _symmetry_equiv_pos_as_xyz
  1  'x, y, z'
loop_
 _atom_site_type_symbol
 _atom_site_label
 _atom_site_symmetry_multiplicity
 _atom_site_fract_x
 _atom_site_fract_y
 _atom_site_fract_z
 _atom_site_occupancy
  Er  Er0  1  0.500000  0.136817  0.194016  1
  Lu  Lu1  1  0.000000  0.631051  0.325709  1
  Lu  Lu2  1  0.000000  0.872073  0.811972  1
  Lu  Lu3  1  0.500000  0.357813  0.669681  1
  Co  Co4  1  0.000000  0.133029  0.468564  1
  Cu  Cu5  1  0.000000  0.376218  0.963656  1
  Cu  Cu6  1  0.500000  0.866774  0.537679  1
  Cu  Cu7  1  0.500000  0.626225  0.028722  1
