# generated using pymatgen
data_TbDy15(AlRh)4
_symmetry_space_group_name_H-M   'P 1'
_cell_length_a   9.53136506
_cell_length_b   9.53218307
_cell_length_c   9.53218552
_cell_angle_alpha   60.03708199
_cell_angle_beta   60.00283557
_cell_angle_gamma   60.00283980
_symmetry_Int_Tables_number   1
_chemical_formula_structural   TbDy15(AlRh)4
_chemical_formula_sum   'Tb1 Dy15 Al4 Rh4'
_cell_volume   612.58331662
_cell_formula_units_Z   1
loop_
 _symmetry_equiv_pos_site_id
 _symmetry_equiv_pos_as_xyz
  1  'x, y, z'
loop_
 _atom_site_type_symbol
 _atom_site_label
 _atom_site_symmetry_multiplicity
 _atom_site_fract_x
 _atom_site_fract_y
 _atom_site_fract_z
 _atom_site_occupancy
  Tb  Tb0  1  0.692780  0.307220  0.307220  1
  Dy  Dy1  1  0.692269  0.693176  0.307923  1
  Dy  Dy2  1  0.306632  0.693176  0.307923  1
  Dy  Dy3  1  0.937480  0.936048  0.563055  1
  Dy  Dy4  1  0.147594  0.145183  0.559630  1
  Dy  Dy5  1  0.563417  0.936048  0.563055  1
  Dy  Dy6  1  0.149999  0.147512  0.147512  1
  Dy  Dy7  1  0.306632  0.307923  0.693176  1
  Dy  Dy8  1  0.937471  0.562529  0.562529  1
  Dy  Dy9  1  0.563417  0.563055  0.936048  1
  Dy  Dy10  1  0.563857  0.936143  0.936143  1
  Dy  Dy11  1  0.937480  0.563055  0.936048  1
  Dy  Dy12  1  0.147594  0.559630  0.145183  1
  Dy  Dy13  1  0.307706  0.692294  0.692294  1
  Dy  Dy14  1  0.692269  0.307923  0.693176  1
  Dy  Dy15  1  0.554977  0.147512  0.147512  1
  Al  Al16  1  0.922664  0.923331  0.231340  1
  Al  Al17  1  0.232268  0.922856  0.922856  1
  Al  Al18  1  0.922664  0.231340  0.923331  1
  Al  Al19  1  0.922018  0.922856  0.922856  1
  Rh  Rh20  1  0.355471  0.357659  0.357659  1
  Rh  Rh21  1  0.929213  0.357659  0.357659  1
  Rh  Rh22  1  0.357064  0.358108  0.927765  1
  Rh  Rh23  1  0.357064  0.927765  0.358108  1
