# generated using pymatgen
data_Dy4Sc4PdPt3
_symmetry_space_group_name_H-M   'P 1'
_cell_length_a   4.64297100
_cell_length_b   6.92483091
_cell_length_c   8.40237600
_cell_angle_alpha   89.42566167
_cell_angle_beta   90.00000000
_cell_angle_gamma   90.00000000
_symmetry_Int_Tables_number   1
_chemical_formula_structural   Dy4Sc4PdPt3
_chemical_formula_sum   'Dy4 Sc4 Pd1 Pt3'
_cell_volume   270.13784839
_cell_formula_units_Z   1
loop_
 _symmetry_equiv_pos_site_id
 _symmetry_equiv_pos_as_xyz
  1  'x, y, z'
loop_
 _atom_site_type_symbol
 _atom_site_label
 _atom_site_symmetry_multiplicity
 _atom_site_fract_x
 _atom_site_fract_y
 _atom_site_fract_z
 _atom_site_occupancy
  Dy  Dy0  1  0.250000  0.481682  0.176929  1
  Dy  Dy1  1  0.750000  0.516588  0.822678  1
  Dy  Dy2  1  0.750000  0.022020  0.679020  1
  Dy  Dy3  1  0.250000  0.982899  0.323363  1
  Sc  Sc4  1  0.250000  0.859305  0.928684  1
  Sc  Sc5  1  0.750000  0.140124  0.074282  1
  Sc  Sc6  1  0.750000  0.641769  0.423200  1
  Sc  Sc7  1  0.250000  0.357430  0.571526  1
  Pd  Pd8  1  0.250000  0.744547  0.600389  1
  Pt  Pt9  1  0.750000  0.255145  0.402466  1
  Pt  Pt10  1  0.750000  0.753515  0.096151  1
  Pt  Pt11  1  0.250000  0.244974  0.901312  1
