# generated using pymatgen
data_Ir3RhPb3AuO14
_symmetry_space_group_name_H-M   'P 1'
_cell_length_a   7.26968924
_cell_length_b   7.36936957
_cell_length_c   7.36936900
_cell_angle_alpha   60.00000705
_cell_angle_beta   59.54537924
_cell_angle_gamma   59.54537661
_symmetry_Int_Tables_number   1
_chemical_formula_structural   Ir3RhPb3AuO14
_chemical_formula_sum   'Ir3 Rh1 Pb3 Au1 O14'
_cell_volume   277.23162901
_cell_formula_units_Z   1
loop_
 _symmetry_equiv_pos_site_id
 _symmetry_equiv_pos_as_xyz
  1  'x, y, z'
loop_
 _atom_site_type_symbol
 _atom_site_label
 _atom_site_symmetry_multiplicity
 _atom_site_fract_x
 _atom_site_fract_y
 _atom_site_fract_z
 _atom_site_occupancy
  Ir  Ir0  1  0.625000  0.125000  0.625000  1
  Ir  Ir1  1  0.625000  0.625000  0.125000  1
  Ir  Ir2  1  0.625000  0.625000  0.625000  1
  Rh  Rh3  1  0.125000  0.625000  0.625000  1
  Pb  Pb4  1  0.125000  0.625000  0.125000  1
  Pb  Pb5  1  0.125000  0.125000  0.625000  1
  Pb  Pb6  1  0.125000  0.125000  0.125000  1
  Au  Au7  1  0.625000  0.125000  0.125000  1
  O  O8  1  0.704033  0.690788  0.302590  1
  O  O9  1  0.294003  0.291832  0.707083  1
  O  O10  1  0.704033  0.302590  0.690788  1
  O  O11  1  0.294003  0.707083  0.291832  1
  O  O12  1  0.294003  0.707083  0.707083  1
  O  O13  1  0.704033  0.302590  0.302590  1
  O  O14  1  0.545967  0.559212  0.947410  1
  O  O15  1  0.955997  0.958168  0.542917  1
  O  O16  1  0.545967  0.947410  0.559212  1
  O  O17  1  0.955997  0.542917  0.958168  1
  O  O18  1  0.955997  0.542917  0.542917  1
  O  O19  1  0.545967  0.947410  0.947410  1
  O  O20  1  0.282764  0.239079  0.239079  1
  O  O21  1  0.967236  0.010921  0.010921  1
