# generated using pymatgen
data_Tb2Y3HoAl18
_symmetry_space_group_name_H-M   'P 1'
_cell_length_a   14.41607342
_cell_length_b   14.41607342
_cell_length_c   14.41607400
_cell_angle_alpha   24.94543310
_cell_angle_beta   24.94543307
_cell_angle_gamma   24.94543245
_symmetry_Int_Tables_number   1
_chemical_formula_structural   Tb2Y3HoAl18
_chemical_formula_sum   'Tb2 Y3 Ho1 Al18'
_cell_volume   468.80685014
_cell_formula_units_Z   1
loop_
 _symmetry_equiv_pos_site_id
 _symmetry_equiv_pos_as_xyz
  1  'x, y, z'
loop_
 _atom_site_type_symbol
 _atom_site_label
 _atom_site_symmetry_multiplicity
 _atom_site_fract_x
 _atom_site_fract_y
 _atom_site_fract_z
 _atom_site_occupancy
  Tb  Tb0  1  0.999945  0.999945  0.999945  1
  Tb  Tb1  1  0.500023  0.500023  0.500023  1
  Y  Y2  1  0.108447  0.108447  0.108447  1
  Y  Y3  1  0.891596  0.891596  0.891596  1
  Y  Y4  1  0.391381  0.391381  0.391381  1
  Ho  Ho5  1  0.608521  0.608521  0.608521  1
  Al  Al6  1  0.927004  0.369187  0.369187  1
  Al  Al7  1  0.427558  0.868526  0.868526  1
  Al  Al8  1  0.369187  0.369187  0.927004  1
  Al  Al9  1  0.868526  0.868526  0.427558  1
  Al  Al10  1  0.369187  0.927004  0.369187  1
  Al  Al11  1  0.868526  0.427558  0.868526  1
  Al  Al12  1  0.572146  0.131521  0.131521  1
  Al  Al13  1  0.072362  0.631427  0.631427  1
  Al  Al14  1  0.131521  0.131521  0.572146  1
  Al  Al15  1  0.631427  0.631427  0.072362  1
  Al  Al16  1  0.131521  0.572146  0.131521  1
  Al  Al17  1  0.631427  0.072362  0.631427  1
  Al  Al18  1  0.500790  0.500790  0.997776  1
  Al  Al19  1  0.000287  0.000287  0.499764  1
  Al  Al20  1  0.500790  0.997776  0.500790  1
  Al  Al21  1  0.000287  0.499764  0.000287  1
  Al  Al22  1  0.997776  0.500790  0.500790  1
  Al  Al23  1  0.499764  0.000287  0.000287  1
