# generated using pymatgen
data_Ti9Ge6MoN2
_symmetry_space_group_name_H-M   'P 1'
_cell_length_a   7.53198400
_cell_length_b   7.53198495
_cell_length_c   5.23698400
_cell_angle_alpha   90.00000000
_cell_angle_beta   90.00000000
_cell_angle_gamma   120.00000463
_symmetry_Int_Tables_number   1
_chemical_formula_structural   Ti9Ge6MoN2
_chemical_formula_sum   'Ti9 Ge6 Mo1 N2'
_cell_volume   257.29461132
_cell_formula_units_Z   1
loop_
 _symmetry_equiv_pos_site_id
 _symmetry_equiv_pos_as_xyz
  1  'x, y, z'
loop_
 _atom_site_type_symbol
 _atom_site_label
 _atom_site_symmetry_multiplicity
 _atom_site_fract_x
 _atom_site_fract_y
 _atom_site_fract_z
 _atom_site_occupancy
  Ti  Ti0  1  0.666667  0.333333  0.000000  1
  Ti  Ti1  1  0.333333  0.666667  0.500000  1
  Ti  Ti2  1  0.666667  0.333333  0.500000  1
  Ti  Ti3  1  0.774069  0.999845  0.750170  1
  Ti  Ti4  1  0.774069  0.774225  0.249830  1
  Ti  Ti5  1  0.000155  0.225931  0.249830  1
  Ti  Ti6  1  0.000155  0.774225  0.750170  1
  Ti  Ti7  1  0.225775  0.225931  0.750170  1
  Ti  Ti8  1  0.225775  0.999845  0.249830  1
  Ge  Ge9  1  0.406735  0.000803  0.750305  1
  Ge  Ge10  1  0.406735  0.405932  0.249695  1
  Ge  Ge11  1  0.999197  0.593265  0.249695  1
  Ge  Ge12  1  0.999197  0.405932  0.750305  1
  Ge  Ge13  1  0.594068  0.593265  0.750305  1
  Ge  Ge14  1  0.594068  0.000803  0.249695  1
  Mo  Mo15  1  0.333333  0.666667  0.000000  1
  N  N16  1  0.000000  0.000000  0.500000  1
  N  N17  1  0.000000  0.000000  0.000000  1
