# generated using pymatgen
data_DyHo7Tl3Co
_symmetry_space_group_name_H-M   'P 1'
_cell_length_a   10.30052565
_cell_length_b   10.29921660
_cell_length_c   7.08063453
_cell_angle_alpha   90.00717431
_cell_angle_beta   89.99522926
_cell_angle_gamma   120.00716689
_symmetry_Int_Tables_number   1
_chemical_formula_structural   DyHo7Tl3Co
_chemical_formula_sum   'Dy2 Ho14 Tl6 Co2'
_cell_volume   650.48160241
_cell_formula_units_Z   2
loop_
 _symmetry_equiv_pos_site_id
 _symmetry_equiv_pos_as_xyz
  1  'x, y, z'
loop_
 _atom_site_type_symbol
 _atom_site_label
 _atom_site_symmetry_multiplicity
 _atom_site_fract_x
 _atom_site_fract_y
 _atom_site_fract_z
 _atom_site_occupancy
  Dy  Dy0  1  0.537012  0.074324  0.505883  1
  Dy  Dy1  1  0.925396  0.462944  0.505894  1
  Ho  Ho2  1  0.537465  0.462740  0.505898  1
  Ho  Ho3  1  0.462513  0.924775  0.005970  1
  Ho  Ho4  1  0.075127  0.537415  0.006243  1
  Ho  Ho5  1  0.462673  0.537449  0.006090  1
  Ho  Ho6  1  0.178328  0.356524  0.708978  1
  Ho  Ho7  1  0.643579  0.821491  0.709195  1
  Ho  Ho8  1  0.177792  0.821572  0.709852  1
  Ho  Ho9  1  0.821782  0.643561  0.208376  1
  Ho  Ho10  1  0.356586  0.178367  0.208489  1
  Ho  Ho11  1  0.821718  0.178323  0.208524  1
  Ho  Ho12  1  0.666512  0.333369  0.898111  1
  Ho  Ho13  1  0.333646  0.666879  0.398064  1
  Ho  Ho14  1  0.000078  0.999869  0.491363  1
  Ho  Ho15  1  0.999989  0.000506  0.990749  1
  Tl  Tl16  1  0.836753  0.673740  0.755081  1
  Tl  Tl17  1  0.326226  0.163301  0.755451  1
  Tl  Tl18  1  0.837196  0.162993  0.755986  1
  Tl  Tl19  1  0.162897  0.326159  0.256378  1
  Tl  Tl20  1  0.673886  0.837031  0.255610  1
  Tl  Tl21  1  0.163090  0.836679  0.255663  1
  Co  Co22  1  0.666446  0.333404  0.277662  1
  Co  Co23  1  0.333311  0.666584  0.778535  1
