# generated using pymatgen
data_ThBe(InIr4)2
_symmetry_space_group_name_H-M   'P 1'
_cell_length_a   8.72197700
_cell_length_b   8.72197700
_cell_length_c   5.26964000
_cell_angle_alpha   90.00000000
_cell_angle_beta   90.00000000
_cell_angle_gamma   90.00000000
_symmetry_Int_Tables_number   1
_chemical_formula_structural   ThBe(InIr4)2
_chemical_formula_sum   'Th2 Be2 In4 Ir16'
_cell_volume   400.87670606
_cell_formula_units_Z   2
loop_
 _symmetry_equiv_pos_site_id
 _symmetry_equiv_pos_as_xyz
  1  'x, y, z'
loop_
 _atom_site_type_symbol
 _atom_site_label
 _atom_site_symmetry_multiplicity
 _atom_site_fract_x
 _atom_site_fract_y
 _atom_site_fract_z
 _atom_site_occupancy
  Th  Th0  1  0.000000  0.000000  0.000000  1
  Th  Th1  1  0.500000  0.500000  0.000000  1
  Be  Be2  1  0.500000  0.000000  0.500000  1
  Be  Be3  1  0.000000  0.500000  0.500000  1
  In  In4  1  0.126332  0.626332  0.000000  1
  In  In5  1  0.873668  0.373668  0.000000  1
  In  In6  1  0.626332  0.873668  0.000000  1
  In  In7  1  0.373668  0.126332  0.000000  1
  Ir  Ir8  1  0.205973  0.070874  0.500000  1
  Ir  Ir9  1  0.794027  0.929126  0.500000  1
  Ir  Ir10  1  0.070874  0.794027  0.500000  1
  Ir  Ir11  1  0.705973  0.429126  0.500000  1
  Ir  Ir12  1  0.929126  0.205973  0.500000  1
  Ir  Ir13  1  0.294027  0.570874  0.500000  1
  Ir  Ir14  1  0.570874  0.705973  0.500000  1
  Ir  Ir15  1  0.429126  0.294027  0.500000  1
  Ir  Ir16  1  0.667958  0.167958  0.241984  1
  Ir  Ir17  1  0.332042  0.832042  0.758016  1
  Ir  Ir18  1  0.332042  0.832042  0.241984  1
  Ir  Ir19  1  0.167958  0.332042  0.241984  1
  Ir  Ir20  1  0.167958  0.332042  0.758016  1
  Ir  Ir21  1  0.667958  0.167958  0.758016  1
  Ir  Ir22  1  0.832042  0.667958  0.758016  1
  Ir  Ir23  1  0.832042  0.667958  0.241984  1
