# generated using pymatgen
data_Pa4Al24Ir2Pt7
_symmetry_space_group_name_H-M   'P 1'
_cell_length_a   7.57295222
_cell_length_b   7.57108172
_cell_length_c   13.09116105
_cell_angle_alpha   84.47366454
_cell_angle_beta   101.11035321
_cell_angle_gamma   119.87452880
_symmetry_Int_Tables_number   1
_chemical_formula_structural   Pa4Al24Ir2Pt7
_chemical_formula_sum   'Pa4 Al24 Ir2 Pt7'
_cell_volume   638.64978595
_cell_formula_units_Z   1
loop_
 _symmetry_equiv_pos_site_id
 _symmetry_equiv_pos_as_xyz
  1  'x, y, z'
loop_
 _atom_site_type_symbol
 _atom_site_label
 _atom_site_symmetry_multiplicity
 _atom_site_fract_x
 _atom_site_fract_y
 _atom_site_fract_z
 _atom_site_occupancy
  Pa  Pa0  1  0.733161  0.998779  0.192692  1
  Pa  Pa1  1  0.267091  0.001286  0.807264  1
  Pa  Pa2  1  0.062992  0.668626  0.192681  1
  Pa  Pa3  1  0.937227  0.331054  0.807212  1
  Al  Al4  1  0.808299  0.867835  0.818232  1
  Al  Al5  1  0.192433  0.131250  0.181774  1
  Al  Al6  1  0.984778  0.669334  0.946963  1
  Al  Al7  1  0.019914  0.334222  0.053094  1
  Al  Al8  1  0.399055  0.662388  0.819688  1
  Al  Al9  1  0.600118  0.336568  0.181904  1
  Al  Al10  1  0.880783  0.665504  0.670961  1
  Al  Al11  1  0.119768  0.334482  0.328674  1
  Al  Al12  1  0.602899  0.459487  0.817917  1
  Al  Al13  1  0.397526  0.541514  0.180575  1
  Al  Al14  1  0.233107  0.343095  0.669251  1
  Al  Al15  1  0.767006  0.656856  0.330958  1
  Al  Al16  1  0.851797  0.333039  0.558374  1
  Al  Al17  1  0.186718  0.999745  0.558317  1
  Al  Al18  1  0.814077  0.000210  0.441766  1
  Al  Al19  1  0.348341  0.997825  0.052675  1
  Al  Al20  1  0.648031  0.998064  0.946591  1
  Al  Al21  1  0.556037  0.990596  0.671746  1
  Al  Al22  1  0.444119  0.008775  0.328950  1
  Al  Al23  1  0.521096  0.666976  0.560853  1
  Al  Al24  1  0.478960  0.332940  0.439085  1
  Al  Al25  1  0.681389  0.670294  0.043314  1
  Al  Al26  1  0.315266  0.332820  0.956450  1
  Al  Al27  1  0.148178  0.666130  0.441821  1
  Ir  Ir28  1  0.328132  0.672195  0.999998  1
  Ir  Ir29  1  0.999213  0.000598  0.000000  1
  Pt  Pt30  1  0.546477  0.324537  0.638825  1
  Pt  Pt31  1  0.453618  0.675024  0.360850  1
  Pt  Pt32  1  0.889169  0.008827  0.640331  1
  Pt  Pt33  1  0.111071  0.990726  0.359718  1
  Pt  Pt34  1  0.671496  0.328620  0.000070  1
  Pt  Pt35  1  0.204562  0.666888  0.640090  1
  Pt  Pt36  1  0.796094  0.332889  0.360338  1
