# generated using pymatgen
data_Cs5V(PS3)4
_symmetry_space_group_name_H-M   'P 1'
_cell_length_a   13.17513300
_cell_length_b   13.17513300
_cell_length_c   7.18401600
_cell_angle_alpha   90.00000000
_cell_angle_beta   90.00000000
_cell_angle_gamma   90.00000000
_symmetry_Int_Tables_number   1
_chemical_formula_structural   Cs5V(PS3)4
_chemical_formula_sum   'Cs10 V2 P8 S24'
_cell_volume   1247.03116416
_cell_formula_units_Z   2
loop_
 _symmetry_equiv_pos_site_id
 _symmetry_equiv_pos_as_xyz
  1  'x, y, z'
loop_
 _atom_site_type_symbol
 _atom_site_label
 _atom_site_symmetry_multiplicity
 _atom_site_fract_x
 _atom_site_fract_y
 _atom_site_fract_z
 _atom_site_occupancy
  Cs  Cs0  1  0.000000  0.000000  0.500000  1
  Cs  Cs1  1  0.000000  0.000000  0.000000  1
  Cs  Cs2  1  0.328707  0.336081  0.500000  1
  Cs  Cs3  1  0.671293  0.663919  0.500000  1
  Cs  Cs4  1  0.663919  0.328707  0.000000  1
  Cs  Cs5  1  0.336081  0.671293  0.000000  1
  Cs  Cs6  1  0.327668  0.961636  0.500000  1
  Cs  Cs7  1  0.672332  0.038364  0.500000  1
  Cs  Cs8  1  0.038364  0.327668  0.000000  1
  Cs  Cs9  1  0.961636  0.672332  0.000000  1
  V  V10  1  0.000000  0.500000  0.500000  1
  V  V11  1  0.500000  0.000000  0.000000  1
  P  P12  1  0.204506  0.597597  0.500000  1
  P  P13  1  0.795494  0.402403  0.500000  1
  P  P14  1  0.402403  0.204506  0.000000  1
  P  P15  1  0.597597  0.795494  0.000000  1
  P  P16  1  0.112925  0.741099  0.500000  1
  P  P17  1  0.887075  0.258901  0.500000  1
  P  P18  1  0.258901  0.112925  0.000000  1
  P  P19  1  0.741099  0.887075  0.000000  1
  S  S20  1  0.143687  0.815810  0.263239  1
  S  S21  1  0.856313  0.184190  0.263239  1
  S  S22  1  0.184190  0.143687  0.763239  1
  S  S23  1  0.815810  0.856313  0.763239  1
  S  S24  1  0.856313  0.184190  0.736761  1
  S  S25  1  0.143687  0.815810  0.736761  1
  S  S26  1  0.815810  0.856313  0.236761  1
  S  S27  1  0.184190  0.143687  0.236761  1
  S  S28  1  0.032258  0.321726  0.500000  1
  S  S29  1  0.967742  0.678274  0.500000  1
  S  S30  1  0.678274  0.032258  0.000000  1
  S  S31  1  0.321726  0.967742  0.000000  1
  S  S32  1  0.352449  0.624602  0.500000  1
  S  S33  1  0.647551  0.375398  0.500000  1
  S  S34  1  0.375398  0.352449  0.000000  1
  S  S35  1  0.624602  0.647551  0.000000  1
  S  S36  1  0.144577  0.521595  0.275836  1
  S  S37  1  0.855423  0.478405  0.275836  1
  S  S38  1  0.478405  0.144577  0.775836  1
  S  S39  1  0.521595  0.855423  0.775836  1
  S  S40  1  0.855423  0.478405  0.724164  1
  S  S41  1  0.144577  0.521595  0.724164  1
  S  S42  1  0.521595  0.855423  0.224164  1
  S  S43  1  0.478405  0.144577  0.224164  1
