# generated using pymatgen
data_YbSc3(Ga2Ag)4
_symmetry_space_group_name_H-M   'P 1'
_cell_length_a   4.23015200
_cell_length_b   6.87670370
_cell_length_c   10.14981231
_cell_angle_alpha   90.80651818
_cell_angle_beta   90.00000000
_cell_angle_gamma   90.00000000
_symmetry_Int_Tables_number   1
_chemical_formula_structural   YbSc3(Ga2Ag)4
_chemical_formula_sum   'Yb1 Sc3 Ga8 Ag4'
_cell_volume   295.22373364
_cell_formula_units_Z   1
loop_
 _symmetry_equiv_pos_site_id
 _symmetry_equiv_pos_as_xyz
  1  'x, y, z'
loop_
 _atom_site_type_symbol
 _atom_site_label
 _atom_site_symmetry_multiplicity
 _atom_site_fract_x
 _atom_site_fract_y
 _atom_site_fract_z
 _atom_site_occupancy
  Yb  Yb0  1  0.250000  0.274253  0.676858  1
  Sc  Sc1  1  0.250000  0.778645  0.824624  1
  Sc  Sc2  1  0.750000  0.223932  0.176352  1
  Sc  Sc3  1  0.750000  0.721355  0.323534  1
  Ga  Ga4  1  0.250000  0.707170  0.533780  1
  Ga  Ga5  1  0.750000  0.302287  0.461647  1
  Ga  Ga6  1  0.750000  0.794682  0.036629  1
  Ga  Ga7  1  0.250000  0.195547  0.970518  1
  Ga  Ga8  1  0.250000  0.930848  0.159427  1
  Ga  Ga9  1  0.750000  0.060437  0.848460  1
  Ga  Ga10  1  0.750000  0.574781  0.654271  1
  Ga  Ga11  1  0.250000  0.433821  0.339266  1
  Ag  Ag12  1  0.250000  0.546116  0.095073  1
  Ag  Ag13  1  0.750000  0.452683  0.902296  1
  Ag  Ag14  1  0.750000  0.956741  0.595271  1
  Ag  Ag15  1  0.250000  0.046701  0.401995  1
