# generated using pymatgen
data_Sr10P7Au
_symmetry_space_group_name_H-M   'P 1'
_cell_length_a   8.01087236
_cell_length_b   8.16360001
_cell_length_c   15.71333200
_cell_angle_alpha   90.00000000
_cell_angle_beta   90.00000000
_cell_angle_gamma   86.72606724
_symmetry_Int_Tables_number   1
_chemical_formula_structural   Sr10P7Au
_chemical_formula_sum   'Sr20 P14 Au2'
_cell_volume   1025.93637104
_cell_formula_units_Z   2
loop_
 _symmetry_equiv_pos_site_id
 _symmetry_equiv_pos_as_xyz
  1  'x, y, z'
loop_
 _atom_site_type_symbol
 _atom_site_label
 _atom_site_symmetry_multiplicity
 _atom_site_fract_x
 _atom_site_fract_y
 _atom_site_fract_z
 _atom_site_occupancy
  Sr  Sr0  1  0.026819  0.193677  0.412022  1
  Sr  Sr1  1  0.872091  0.647169  0.387472  1
  Sr  Sr2  1  0.534819  0.329393  0.101564  1
  Sr  Sr3  1  0.127909  0.352831  0.612528  1
  Sr  Sr4  1  0.386548  0.852016  0.394011  1
  Sr  Sr5  1  0.127909  0.352831  0.887472  1
  Sr  Sr6  1  0.386548  0.852016  0.105989  1
  Sr  Sr7  1  0.218805  0.493652  0.250000  1
  Sr  Sr8  1  0.534819  0.329393  0.398436  1
  Sr  Sr9  1  0.781195  0.506348  0.750000  1
  Sr  Sr10  1  0.973181  0.806323  0.912022  1
  Sr  Sr11  1  0.973181  0.806323  0.587978  1
  Sr  Sr12  1  0.465181  0.670607  0.601564  1
  Sr  Sr13  1  0.613452  0.147984  0.605989  1
  Sr  Sr14  1  0.290096  0.996350  0.750000  1
  Sr  Sr15  1  0.613452  0.147984  0.894011  1
  Sr  Sr16  1  0.709904  0.003650  0.250000  1
  Sr  Sr17  1  0.872091  0.647169  0.112528  1
  Sr  Sr18  1  0.465181  0.670607  0.898436  1
  Sr  Sr19  1  0.026819  0.193677  0.087978  1
  P  P20  1  0.814375  0.381703  0.250000  1
  P  P21  1  0.397873  0.413122  0.750000  1
  P  P22  1  0.675916  0.873858  0.750000  1
  P  P23  1  0.774825  0.460323  0.548538  1
  P  P24  1  0.734081  0.976250  0.055230  1
  P  P25  1  0.774825  0.460323  0.951462  1
  P  P26  1  0.225175  0.539677  0.451462  1
  P  P27  1  0.225175  0.539677  0.048538  1
  P  P28  1  0.185625  0.618297  0.750000  1
  P  P29  1  0.324084  0.126142  0.250000  1
  P  P30  1  0.602127  0.586878  0.250000  1
  P  P31  1  0.265919  0.023750  0.944770  1
  P  P32  1  0.734081  0.976250  0.444770  1
  P  P33  1  0.265919  0.023750  0.555230  1
  Au  Au34  1  0.092353  0.884881  0.250000  1
  Au  Au35  1  0.907647  0.115119  0.750000  1
