# generated using pymatgen
data_La4Y5HoSi8
_symmetry_space_group_name_H-M   'P 1'
_cell_length_a   7.58301300
_cell_length_b   7.87143600
_cell_length_c   14.97355900
_cell_angle_alpha   90.00000000
_cell_angle_beta   90.00000000
_cell_angle_gamma   90.00000000
_symmetry_Int_Tables_number   1
_chemical_formula_structural   La4Y5HoSi8
_chemical_formula_sum   'La8 Y10 Ho2 Si16'
_cell_volume   893.75978057
_cell_formula_units_Z   2
loop_
 _symmetry_equiv_pos_site_id
 _symmetry_equiv_pos_as_xyz
  1  'x, y, z'
loop_
 _atom_site_type_symbol
 _atom_site_label
 _atom_site_symmetry_multiplicity
 _atom_site_fract_x
 _atom_site_fract_y
 _atom_site_fract_z
 _atom_site_occupancy
  La  La0  1  0.976654  0.821557  0.097969  1
  La  La1  1  0.476654  0.678443  0.402031  1
  La  La2  1  0.523448  0.321491  0.901745  1
  La  La3  1  0.023448  0.178509  0.598255  1
  La  La4  1  0.023448  0.178509  0.901745  1
  La  La5  1  0.523448  0.321491  0.598255  1
  La  La6  1  0.476654  0.678443  0.097969  1
  La  La7  1  0.976654  0.821557  0.402031  1
  Y  Y8  1  0.650000  0.990004  0.250000  1
  Y  Y9  1  0.150000  0.509996  0.250000  1
  Y  Y10  1  0.681119  0.822414  0.876568  1
  Y  Y11  1  0.181119  0.677586  0.623432  1
  Y  Y12  1  0.818824  0.322526  0.123238  1
  Y  Y13  1  0.318824  0.177474  0.376762  1
  Y  Y14  1  0.318824  0.177474  0.123238  1
  Y  Y15  1  0.818824  0.322526  0.376762  1
  Y  Y16  1  0.181119  0.677586  0.876568  1
  Y  Y17  1  0.681119  0.822414  0.623432  1
  Ho  Ho18  1  0.849977  0.489995  0.750000  1
  Ho  Ho19  1  0.349977  0.010005  0.750000  1
  Si  Si20  1  0.769515  0.619481  0.250000  1
  Si  Si21  1  0.269515  0.880519  0.250000  1
  Si  Si22  1  0.730032  0.119865  0.750000  1
  Si  Si23  1  0.230032  0.380135  0.750000  1
  Si  Si24  1  0.024206  0.114034  0.250000  1
  Si  Si25  1  0.524206  0.385966  0.250000  1
  Si  Si26  1  0.476261  0.614115  0.750000  1
  Si  Si27  1  0.976261  0.885885  0.750000  1
  Si  Si28  1  0.857499  0.530494  0.960039  1
  Si  Si29  1  0.357499  0.969506  0.539961  1
  Si  Si30  1  0.642461  0.030551  0.039766  1
  Si  Si31  1  0.142461  0.469449  0.460234  1
  Si  Si32  1  0.142461  0.469449  0.039766  1
  Si  Si33  1  0.642461  0.030551  0.460234  1
  Si  Si34  1  0.357499  0.969506  0.960039  1
  Si  Si35  1  0.857499  0.530494  0.539961  1
