# generated using pymatgen
data_Ti7Cu5S16
_symmetry_space_group_name_H-M   'P 1'
_cell_length_a   12.31277198
_cell_length_b   12.31277240
_cell_length_c   12.31277252
_cell_angle_alpha   33.12122612
_cell_angle_beta   33.12122199
_cell_angle_gamma   33.12122202
_symmetry_Int_Tables_number   1
_chemical_formula_structural   Ti7Cu5S16
_chemical_formula_sum   'Ti7 Cu5 S16'
_cell_volume   496.06855627
_cell_formula_units_Z   1
loop_
 _symmetry_equiv_pos_site_id
 _symmetry_equiv_pos_as_xyz
  1  'x, y, z'
loop_
 _atom_site_type_symbol
 _atom_site_label
 _atom_site_symmetry_multiplicity
 _atom_site_fract_x
 _atom_site_fract_y
 _atom_site_fract_z
 _atom_site_occupancy
  Ti  Ti0  1  0.426485  0.915113  0.915113  1
  Ti  Ti1  1  0.084887  0.084887  0.573515  1
  Ti  Ti2  1  0.915113  0.915113  0.426485  1
  Ti  Ti3  1  0.084887  0.573515  0.084887  1
  Ti  Ti4  1  0.573515  0.084887  0.084887  1
  Ti  Ti5  1  0.915113  0.426485  0.915113  1
  Ti  Ti6  1  0.000000  0.000000  0.000000  1
  Cu  Cu7  1  0.188391  0.188391  0.188391  1
  Cu  Cu8  1  0.353967  0.353967  0.353967  1
  Cu  Cu9  1  0.646033  0.646033  0.646033  1
  Cu  Cu10  1  0.811609  0.811609  0.811609  1
  Cu  Cu11  1  0.500000  0.500000  0.500000  1
  S  S12  1  0.385860  0.385860  0.863912  1
  S  S13  1  0.200166  0.200166  0.725835  1
  S  S14  1  0.799834  0.799834  0.274165  1
  S  S15  1  0.876273  0.876273  0.876273  1
  S  S16  1  0.614140  0.136088  0.614140  1
  S  S17  1  0.136088  0.614140  0.614140  1
  S  S18  1  0.274165  0.799834  0.799834  1
  S  S19  1  0.799834  0.274165  0.799834  1
  S  S20  1  0.863912  0.385860  0.385860  1
  S  S21  1  0.200166  0.725835  0.200166  1
  S  S22  1  0.725835  0.200166  0.200166  1
  S  S23  1  0.614140  0.614140  0.136088  1
  S  S24  1  0.288828  0.288828  0.288828  1
  S  S25  1  0.711172  0.711172  0.711172  1
  S  S26  1  0.385860  0.863912  0.385860  1
  S  S27  1  0.123727  0.123727  0.123727  1
