# generated using pymatgen
data_Th4(Al8Pt3)3
_symmetry_space_group_name_H-M   'P 1'
_cell_length_a   7.64431153
_cell_length_b   7.65772482
_cell_length_c   13.24592988
_cell_angle_alpha   84.46877010
_cell_angle_beta   78.89096308
_cell_angle_gamma   59.90585823
_symmetry_Int_Tables_number   1
_chemical_formula_structural   Th4(Al8Pt3)3
_chemical_formula_sum   'Th4 Al24 Pt9'
_cell_volume   658.29952329
_cell_formula_units_Z   1
loop_
 _symmetry_equiv_pos_site_id
 _symmetry_equiv_pos_as_xyz
  1  'x, y, z'
loop_
 _atom_site_type_symbol
 _atom_site_label
 _atom_site_symmetry_multiplicity
 _atom_site_fract_x
 _atom_site_fract_y
 _atom_site_fract_z
 _atom_site_occupancy
  Th  Th0  1  0.394568  0.167565  0.807104  1
  Th  Th1  1  0.605432  0.832435  0.192896  1
  Th  Th2  1  0.733982  0.498655  0.806896  1
  Th  Th3  1  0.266018  0.501345  0.193104  1
  Al  Al4  1  0.687536  0.833741  0.945481  1
  Al  Al5  1  0.312464  0.166259  0.054519  1
  Al  Al6  1  0.146258  0.833204  0.560395  1
  Al  Al7  1  0.853742  0.166796  0.439605  1
  Al  Al8  1  0.481439  0.166686  0.557220  1
  Al  Al9  1  0.518561  0.833314  0.442780  1
  Al  Al10  1  0.211440  0.165244  0.336060  1
  Al  Al11  1  0.788560  0.834756  0.663940  1
  Al  Al12  1  0.435462  0.510442  0.664164  1
  Al  Al13  1  0.564538  0.489558  0.335836  1
  Al  Al14  1  0.111776  0.155613  0.662931  1
  Al  Al15  1  0.888224  0.844387  0.337069  1
  Al  Al16  1  0.348679  0.503268  0.945350  1
  Al  Al17  1  0.651321  0.496732  0.054650  1
  Al  Al18  1  0.015020  0.164583  0.955351  1
  Al  Al19  1  0.984980  0.835417  0.044649  1
  Al  Al20  1  0.185942  0.499636  0.442876  1
  Al  Al21  1  0.814058  0.500364  0.557124  1
  Al  Al22  1  0.738231  0.163601  0.183511  1
  Al  Al23  1  0.261769  0.836399  0.816489  1
  Al  Al24  1  0.061566  0.634533  0.815033  1
  Al  Al25  1  0.938434  0.365467  0.184967  1
  Al  Al26  1  0.859394  0.037742  0.815841  1
  Al  Al27  1  0.140606  0.962258  0.184160  1
  Pt  Pt28  1  0.119994  0.491171  0.639120  1
  Pt  Pt29  1  0.880006  0.508829  0.360880  1
  Pt  Pt30  1  0.656513  0.171934  0.999796  1
  Pt  Pt31  1  0.343487  0.828066  0.000204  1
  Pt  Pt32  1  0.536759  0.166913  0.360855  1
  Pt  Pt33  1  0.463241  0.833087  0.639145  1
  Pt  Pt34  1  0.777711  0.175960  0.637717  1
  Pt  Pt35  1  0.222289  0.824040  0.362283  1
  Pt  Pt36  1  0.000000  0.500000  0.000000  1
