# generated using pymatgen
data_K4DyIn3I16
_symmetry_space_group_name_H-M   'P 1'
_cell_length_a   8.44765404
_cell_length_b   8.69450998
_cell_length_c   17.19372300
_cell_angle_alpha   84.29585127
_cell_angle_beta   90.32991369
_cell_angle_gamma   90.28105469
_symmetry_Int_Tables_number   1
_chemical_formula_structural   K4DyIn3I16
_chemical_formula_sum   'K4 Dy1 In3 I16'
_cell_volume   1256.56232232
_cell_formula_units_Z   1
loop_
 _symmetry_equiv_pos_site_id
 _symmetry_equiv_pos_as_xyz
  1  'x, y, z'
loop_
 _atom_site_type_symbol
 _atom_site_label
 _atom_site_symmetry_multiplicity
 _atom_site_fract_x
 _atom_site_fract_y
 _atom_site_fract_z
 _atom_site_occupancy
  K  K0  1  0.501062  0.256293  0.637094  1
  K  K1  1  0.997007  0.744012  0.862067  1
  K  K2  1  0.500080  0.744037  0.361597  1
  K  K3  1  0.000113  0.257100  0.139785  1
  Dy  Dy4  1  0.143386  0.241448  0.861940  1
  In  In5  1  0.358502  0.242778  0.361808  1
  In  In6  1  0.858533  0.757777  0.137921  1
  In  In7  1  0.641305  0.756745  0.638632  1
  I  I8  1  0.839218  0.120796  0.912497  1
  I  I9  1  0.350802  0.874374  0.589422  1
  I  I10  1  0.149588  0.877581  0.089461  1
  I  I11  1  0.650159  0.126902  0.410603  1
  I  I12  1  0.385445  0.425506  0.221386  1
  I  I13  1  0.886650  0.574732  0.278353  1
  I  I14  1  0.616402  0.569592  0.778081  1
  I  I15  1  0.113742  0.434538  0.716950  1
  I  I16  1  0.652700  0.993595  0.162335  1
  I  I17  1  0.151906  0.004577  0.338297  1
  I  I18  1  0.354075  0.993198  0.835301  1
  I  I19  1  0.848602  0.994617  0.662349  1
  I  I20  1  0.249164  0.428801  0.471418  1
  I  I21  1  0.750222  0.569329  0.028252  1
  I  I22  1  0.749478  0.571609  0.528211  1
  I  I23  1  0.251862  0.440065  0.976240  1
