# generated using pymatgen
data_Nd3Pa(CdRh2)2
_symmetry_space_group_name_H-M   'P 1'
_cell_length_a   7.82173943
_cell_length_b   7.82173943
_cell_length_c   3.71878700
_cell_angle_alpha   90.00000000
_cell_angle_beta   90.00000000
_cell_angle_gamma   92.15370531
_symmetry_Int_Tables_number   1
_chemical_formula_structural   Nd3Pa(CdRh2)2
_chemical_formula_sum   'Nd3 Pa1 Cd2 Rh4'
_cell_volume   227.35321547
_cell_formula_units_Z   1
loop_
 _symmetry_equiv_pos_site_id
 _symmetry_equiv_pos_as_xyz
  1  'x, y, z'
loop_
 _atom_site_type_symbol
 _atom_site_label
 _atom_site_symmetry_multiplicity
 _atom_site_fract_x
 _atom_site_fract_y
 _atom_site_fract_z
 _atom_site_occupancy
  Nd  Nd0  1  0.328172  0.828172  0.500000  1
  Nd  Nd1  1  0.165866  0.334574  0.500000  1
  Nd  Nd2  1  0.834574  0.665866  0.500000  1
  Pa  Pa3  1  0.661375  0.161375  0.500000  1
  Cd  Cd4  1  0.006333  0.999878  0.000000  1
  Cd  Cd5  1  0.499878  0.506333  0.000000  1
  Rh  Rh6  1  0.123308  0.623308  0.000000  1
  Rh  Rh7  1  0.838621  0.338621  0.000000  1
  Rh  Rh8  1  0.647888  0.893985  0.000000  1
  Rh  Rh9  1  0.393985  0.147888  0.000000  1
