# generated using pymatgen
data_DyY3(GaRu)4
_symmetry_space_group_name_H-M   'P 1'
_cell_length_a   4.50643500
_cell_length_b   7.16739887
_cell_length_c   7.17901031
_cell_angle_alpha   89.87526713
_cell_angle_beta   90.00000000
_cell_angle_gamma   90.00000000
_symmetry_Int_Tables_number   1
_chemical_formula_structural   DyY3(GaRu)4
_chemical_formula_sum   'Dy1 Y3 Ga4 Ru4'
_cell_volume   231.87729896
_cell_formula_units_Z   1
loop_
 _symmetry_equiv_pos_site_id
 _symmetry_equiv_pos_as_xyz
  1  'x, y, z'
loop_
 _atom_site_type_symbol
 _atom_site_label
 _atom_site_symmetry_multiplicity
 _atom_site_fract_x
 _atom_site_fract_y
 _atom_site_fract_z
 _atom_site_occupancy
  Dy  Dy0  1  0.750000  0.802190  0.484179  1
  Y  Y1  1  0.250000  0.195430  0.515020  1
  Y  Y2  1  0.250000  0.303940  0.014953  1
  Y  Y3  1  0.750000  0.696476  0.984897  1
  Ga  Ga4  1  0.250000  0.896441  0.196541  1
  Ga  Ga5  1  0.750000  0.396050  0.302999  1
  Ga  Ga6  1  0.250000  0.603769  0.697174  1
  Ga  Ga7  1  0.750000  0.104117  0.803449  1
  Ru  Ru8  1  0.250000  0.934702  0.838167  1
  Ru  Ru9  1  0.250000  0.566430  0.339095  1
  Ru  Ru10  1  0.750000  0.064978  0.162768  1
  Ru  Ru11  1  0.750000  0.435478  0.660758  1
