# generated using pymatgen
data_Er3Tm7RuRh3
_symmetry_space_group_name_H-M   'P 1'
_cell_length_a   6.36772782
_cell_length_b   7.14905499
_cell_length_c   8.42820526
_cell_angle_alpha   96.64332991
_cell_angle_beta   111.97538709
_cell_angle_gamma   90.03116252
_symmetry_Int_Tables_number   1
_chemical_formula_structural   Er3Tm7RuRh3
_chemical_formula_sum   'Er3 Tm7 Ru1 Rh3'
_cell_volume   353.01341077
_cell_formula_units_Z   1
loop_
 _symmetry_equiv_pos_site_id
 _symmetry_equiv_pos_as_xyz
  1  'x, y, z'
loop_
 _atom_site_type_symbol
 _atom_site_label
 _atom_site_symmetry_multiplicity
 _atom_site_fract_x
 _atom_site_fract_y
 _atom_site_fract_z
 _atom_site_occupancy
  Er  Er0  1  0.791275  0.082610  0.811933  1
  Er  Er1  1  0.977959  0.417663  0.187083  1
  Er  Er2  1  0.208435  0.917271  0.182494  1
  Tm  Tm3  1  0.023326  0.583330  0.811624  1
  Tm  Tm4  1  0.210490  0.183275  0.562923  1
  Tm  Tm5  1  0.648236  0.314550  0.437489  1
  Tm  Tm6  1  0.791607  0.814520  0.440890  1
  Tm  Tm7  1  0.348561  0.687668  0.563519  1
  Tm  Tm8  1  0.423765  0.248507  0.998808  1
  Tm  Tm9  1  0.575160  0.750484  0.999647  1
  Ru  Ru10  1  0.176019  0.926048  0.782279  1
  Rh  Rh11  1  0.603281  0.427165  0.778801  1
  Rh  Rh12  1  0.823090  0.074113  0.220910  1
  Rh  Rh13  1  0.398795  0.572796  0.221600  1
