# generated using pymatgen
data_Ca3CuSb2H
_symmetry_space_group_name_H-M   'P 1'
_cell_length_a   4.47772400
_cell_length_b   12.04271600
_cell_length_c   12.34771100
_cell_angle_alpha   90.00000000
_cell_angle_beta   90.00000000
_cell_angle_gamma   90.00000000
_symmetry_Int_Tables_number   1
_chemical_formula_structural   Ca3CuSb2H
_chemical_formula_sum   'Ca12 Cu4 Sb8 H4'
_cell_volume   665.83745502
_cell_formula_units_Z   4
loop_
 _symmetry_equiv_pos_site_id
 _symmetry_equiv_pos_as_xyz
  1  'x, y, z'
loop_
 _atom_site_type_symbol
 _atom_site_label
 _atom_site_symmetry_multiplicity
 _atom_site_fract_x
 _atom_site_fract_y
 _atom_site_fract_z
 _atom_site_occupancy
  Ca  Ca0  1  0.250000  0.062689  0.622292  1
  Ca  Ca1  1  0.250000  0.562689  0.877708  1
  Ca  Ca2  1  0.750000  0.937311  0.377708  1
  Ca  Ca3  1  0.750000  0.437311  0.122292  1
  Ca  Ca4  1  0.250000  0.371386  0.553942  1
  Ca  Ca5  1  0.250000  0.871386  0.946058  1
  Ca  Ca6  1  0.750000  0.628614  0.446058  1
  Ca  Ca7  1  0.750000  0.128614  0.053942  1
  Ca  Ca8  1  0.250000  0.217022  0.289801  1
  Ca  Ca9  1  0.250000  0.717022  0.210199  1
  Ca  Ca10  1  0.750000  0.782978  0.710199  1
  Ca  Ca11  1  0.750000  0.282978  0.789801  1
  Cu  Cu12  1  0.250000  0.140248  0.850143  1
  Cu  Cu13  1  0.250000  0.640248  0.649857  1
  Cu  Cu14  1  0.750000  0.859752  0.149857  1
  Cu  Cu15  1  0.750000  0.359752  0.350143  1
  Sb  Sb16  1  0.250000  0.481043  0.318480  1
  Sb  Sb17  1  0.250000  0.981043  0.181520  1
  Sb  Sb18  1  0.750000  0.518957  0.681520  1
  Sb  Sb19  1  0.750000  0.018957  0.818480  1
  Sb  Sb20  1  0.250000  0.310940  0.989181  1
  Sb  Sb21  1  0.250000  0.810940  0.510819  1
  Sb  Sb22  1  0.750000  0.689060  0.010819  1
  Sb  Sb23  1  0.750000  0.189060  0.489181  1
  H  H24  1  0.250000  0.227317  0.730772  1
  H  H25  1  0.250000  0.727317  0.769228  1
  H  H26  1  0.750000  0.772683  0.269228  1
  H  H27  1  0.750000  0.272683  0.230772  1
