# generated using pymatgen
data_Tc7Ru
_symmetry_space_group_name_H-M   'P 1'
_cell_length_a   4.78635345
_cell_length_b   5.19004449
_cell_length_c   5.51106052
_cell_angle_alpha   74.57347894
_cell_angle_beta   89.98182296
_cell_angle_gamma   62.53566353
_symmetry_Int_Tables_number   1
_chemical_formula_structural   Tc7Ru
_chemical_formula_sum   'Tc7 Ru1'
_cell_volume   115.89240998
_cell_formula_units_Z   1
loop_
 _symmetry_equiv_pos_site_id
 _symmetry_equiv_pos_as_xyz
  1  'x, y, z'
loop_
 _atom_site_type_symbol
 _atom_site_label
 _atom_site_symmetry_multiplicity
 _atom_site_fract_x
 _atom_site_fract_y
 _atom_site_fract_z
 _atom_site_occupancy
  Tc  Tc0  1  0.261133  0.788094  0.119740  1
  Tc  Tc1  1  0.757877  0.790816  0.369594  1
  Tc  Tc2  1  0.173975  0.296478  0.243886  1
  Tc  Tc3  1  0.672423  0.290839  0.993915  1
  Tc  Tc4  1  0.179426  0.285169  0.743945  1
  Tc  Tc5  1  0.758539  0.793525  0.868464  1
  Tc  Tc6  1  0.258097  0.790510  0.618311  1
  Ru  Ru7  1  0.675689  0.290590  0.493856  1
