# generated using pymatgen
data_Lu3Pu(WN2)4
_symmetry_space_group_name_H-M   'P 1'
_cell_length_a   3.15364000
_cell_length_b   5.61318480
_cell_length_c   10.58966606
_cell_angle_alpha   90.48741745
_cell_angle_beta   90.00000000
_cell_angle_gamma   90.00000000
_symmetry_Int_Tables_number   1
_chemical_formula_structural   Lu3Pu(WN2)4
_chemical_formula_sum   'Lu3 Pu1 W4 N8'
_cell_volume   187.45110539
_cell_formula_units_Z   1
loop_
 _symmetry_equiv_pos_site_id
 _symmetry_equiv_pos_as_xyz
  1  'x, y, z'
loop_
 _atom_site_type_symbol
 _atom_site_label
 _atom_site_symmetry_multiplicity
 _atom_site_fract_x
 _atom_site_fract_y
 _atom_site_fract_z
 _atom_site_occupancy
  Lu  Lu0  1  0.250000  0.077783  0.853582  1
  Lu  Lu1  1  0.250000  0.575221  0.650369  1
  Lu  Lu2  1  0.750000  0.927549  0.142141  1
  Pu  Pu3  1  0.750000  0.430578  0.358971  1
  W  W4  1  0.250000  0.431895  0.093506  1
  W  W5  1  0.250000  0.929978  0.395334  1
  W  W6  1  0.750000  0.568669  0.904764  1
  W  W7  1  0.750000  0.062989  0.599369  1
  N  N8  1  0.250000  0.169481  0.244170  1
  N  N9  1  0.250000  0.661260  0.251359  1
  N  N10  1  0.750000  0.833962  0.755599  1
  N  N11  1  0.750000  0.334908  0.746499  1
  N  N12  1  0.250000  0.770775  0.996302  1
  N  N13  1  0.250000  0.257201  0.506446  1
  N  N14  1  0.750000  0.232928  0.003160  1
  N  N15  1  0.750000  0.734823  0.498428  1
