# generated using pymatgen
data_Y5Hf3Fe15NiP12
_symmetry_space_group_name_H-M   'P 1'
_cell_length_a   12.34826900
_cell_length_b   12.34826869
_cell_length_c   3.75406200
_cell_angle_alpha   90.00000000
_cell_angle_beta   90.00000000
_cell_angle_gamma   120.00000351
_symmetry_Int_Tables_number   1
_chemical_formula_structural   Y5Hf3Fe15NiP12
_chemical_formula_sum   'Y5 Hf3 Fe15 Ni1 P12'
_cell_volume   495.72886774
_cell_formula_units_Z   1
loop_
 _symmetry_equiv_pos_site_id
 _symmetry_equiv_pos_as_xyz
  1  'x, y, z'
loop_
 _atom_site_type_symbol
 _atom_site_label
 _atom_site_symmetry_multiplicity
 _atom_site_fract_x
 _atom_site_fract_y
 _atom_site_fract_z
 _atom_site_occupancy
  Y  Y0  1  0.179499  0.179499  0.500000  1
  Y  Y1  1  0.820501  0.000000  0.500000  1
  Y  Y2  1  0.000000  0.820501  0.500000  1
  Y  Y3  1  0.333333  0.666667  0.000000  1
  Y  Y4  1  0.666667  0.333333  0.000000  1
  Hf  Hf5  1  0.559927  0.559927  0.000000  1
  Hf  Hf6  1  0.440073  0.000000  0.000000  1
  Hf  Hf7  1  0.000000  0.440073  0.000000  1
  Fe  Fe8  1  0.720589  0.720589  0.500000  1
  Fe  Fe9  1  0.279411  0.000000  0.500000  1
  Fe  Fe10  1  0.000000  0.279411  0.500000  1
  Fe  Fe11  1  0.182414  0.378097  0.000000  1
  Fe  Fe12  1  0.621903  0.804318  0.000000  1
  Fe  Fe13  1  0.195682  0.817586  0.000000  1
  Fe  Fe14  1  0.804318  0.621903  0.000000  1
  Fe  Fe15  1  0.817586  0.195682  0.000000  1
  Fe  Fe16  1  0.378097  0.182414  0.000000  1
  Fe  Fe17  1  0.354462  0.473181  0.500000  1
  Fe  Fe18  1  0.526819  0.881281  0.500000  1
  Fe  Fe19  1  0.118719  0.645538  0.500000  1
  Fe  Fe20  1  0.881281  0.526819  0.500000  1
  Fe  Fe21  1  0.645538  0.118719  0.500000  1
  Fe  Fe22  1  0.473181  0.354462  0.500000  1
  Ni  Ni23  1  0.000000  0.000000  0.000000  1
  P  P24  1  0.815409  0.815409  0.000000  1
  P  P25  1  0.184591  0.000000  0.000000  1
  P  P26  1  0.000000  0.184591  0.000000  1
  P  P27  1  0.169361  0.475856  0.500000  1
  P  P28  1  0.524144  0.693505  0.500000  1
  P  P29  1  0.306495  0.830639  0.500000  1
  P  P30  1  0.693505  0.524144  0.500000  1
  P  P31  1  0.830639  0.306495  0.500000  1
  P  P32  1  0.475856  0.169361  0.500000  1
  P  P33  1  0.349461  0.349461  0.000000  1
  P  P34  1  0.650539  0.000000  0.000000  1
  P  P35  1  0.000000  0.650539  0.000000  1
