# generated using pymatgen
data_Li5Nb(Ru2W)6
_symmetry_space_group_name_H-M   'P 1'
_cell_length_a   4.30982900
_cell_length_b   6.13042200
_cell_length_c   12.91974000
_cell_angle_alpha   90.00000000
_cell_angle_beta   89.99776130
_cell_angle_gamma   90.00000000
_symmetry_Int_Tables_number   1
_chemical_formula_structural   Li5Nb(Ru2W)6
_chemical_formula_sum   'Li5 Nb1 Ru12 W6'
_cell_volume   341.35336148
_cell_formula_units_Z   1
loop_
 _symmetry_equiv_pos_site_id
 _symmetry_equiv_pos_as_xyz
  1  'x, y, z'
loop_
 _atom_site_type_symbol
 _atom_site_label
 _atom_site_symmetry_multiplicity
 _atom_site_fract_x
 _atom_site_fract_y
 _atom_site_fract_z
 _atom_site_occupancy
  Li  Li0  1  0.499763  0.500000  0.168210  1
  Li  Li1  1  0.999765  0.000000  0.334864  1
  Li  Li2  1  0.500000  0.500000  0.500000  1
  Li  Li3  1  0.000234  0.000000  0.665135  1
  Li  Li4  1  0.500236  0.500000  0.831790  1
  Nb  Nb5  1  0.000000  0.000000  0.000000  1
  Ru  Ru6  1  0.500000  0.253837  0.000000  1
  Ru  Ru7  1  0.500000  0.746162  0.000000  1
  Ru  Ru8  1  0.999844  0.253095  0.167965  1
  Ru  Ru9  1  0.999844  0.746906  0.167965  1
  Ru  Ru10  1  0.499843  0.251439  0.334066  1
  Ru  Ru11  1  0.499843  0.748560  0.334066  1
  Ru  Ru12  1  0.000000  0.250351  0.500000  1
  Ru  Ru13  1  0.000000  0.749648  0.500000  1
  Ru  Ru14  1  0.500156  0.251440  0.665934  1
  Ru  Ru15  1  0.500156  0.748561  0.665934  1
  Ru  Ru16  1  0.000158  0.253095  0.832034  1
  Ru  Ru17  1  0.000158  0.746906  0.832034  1
  W  W18  1  0.000000  0.500000  0.000000  1
  W  W19  1  0.499885  0.000000  0.178488  1
  W  W20  1  0.999850  0.500000  0.338463  1
  W  W21  1  0.500000  0.000000  0.500000  1
  W  W22  1  0.000151  0.500000  0.661538  1
  W  W23  1  0.500117  0.000000  0.821512  1
