# generated using pymatgen
data_TbY4Zr3(Co4As3)4
_symmetry_space_group_name_H-M   'P 1'
_cell_length_a   12.75351000
_cell_length_b   12.75350857
_cell_length_c   3.84414700
_cell_angle_alpha   90.00000000
_cell_angle_beta   90.00000000
_cell_angle_gamma   120.00000370
_symmetry_Int_Tables_number   1
_chemical_formula_structural   TbY4Zr3(Co4As3)4
_chemical_formula_sum   'Tb1 Y4 Zr3 Co16 As12'
_cell_volume   541.48946015
_cell_formula_units_Z   1
loop_
 _symmetry_equiv_pos_site_id
 _symmetry_equiv_pos_as_xyz
  1  'x, y, z'
loop_
 _atom_site_type_symbol
 _atom_site_label
 _atom_site_symmetry_multiplicity
 _atom_site_fract_x
 _atom_site_fract_y
 _atom_site_fract_z
 _atom_site_occupancy
  Tb  Tb0  1  0.666667  0.333333  0.000000  1
  Y  Y1  1  0.183326  0.183321  0.500000  1
  Y  Y2  1  0.816679  0.000005  0.500000  1
  Y  Y3  1  0.999995  0.816674  0.500000  1
  Y  Y4  1  0.333333  0.666667  0.000000  1
  Zr  Zr5  1  0.562012  0.562014  0.000000  1
  Zr  Zr6  1  0.437986  0.999999  0.000000  1
  Zr  Zr7  1  0.000001  0.437988  0.000000  1
  Co  Co8  1  0.720225  0.720231  0.500000  1
  Co  Co9  1  0.279769  0.999994  0.500000  1
  Co  Co10  1  0.000006  0.279775  0.500000  1
  Co  Co11  1  0.178122  0.373782  0.000000  1
  Co  Co12  1  0.626218  0.804340  0.000000  1
  Co  Co13  1  0.195660  0.821878  0.000000  1
  Co  Co14  1  0.804331  0.626216  0.000000  1
  Co  Co15  1  0.821885  0.195669  0.000000  1
  Co  Co16  1  0.373784  0.178115  0.000000  1
  Co  Co17  1  0.357803  0.480083  0.500000  1
  Co  Co18  1  0.519917  0.877721  0.500000  1
  Co  Co19  1  0.122279  0.642197  0.500000  1
  Co  Co20  1  0.877766  0.519962  0.500000  1
  Co  Co21  1  0.642197  0.122234  0.500000  1
  Co  Co22  1  0.480038  0.357803  0.500000  1
  Co  Co23  1  0.000000  0.000000  0.000000  1
  As  As24  1  0.822745  0.822745  0.000000  1
  As  As25  1  0.177255  0.000000  0.000000  1
  As  As26  1  0.000000  0.177255  0.000000  1
  As  As27  1  0.173554  0.481195  0.500000  1
  As  As28  1  0.518805  0.692360  0.500000  1
  As  As29  1  0.307640  0.826446  0.500000  1
  As  As30  1  0.692383  0.518927  0.500000  1
  As  As31  1  0.826546  0.307617  0.500000  1
  As  As32  1  0.481073  0.173454  0.500000  1
  As  As33  1  0.352982  0.352964  0.000000  1
  As  As34  1  0.647036  0.000019  0.000000  1
  As  As35  1  0.999981  0.647018  0.000000  1
