# generated using pymatgen
data_YEr3Hf3PtF28
_symmetry_space_group_name_H-M   'P 1'
_cell_length_a   5.65519544
_cell_length_b   8.98074672
_cell_length_c   12.06638151
_cell_angle_alpha   62.43794516
_cell_angle_beta   90.10444659
_cell_angle_gamma   90.02223890
_symmetry_Int_Tables_number   1
_chemical_formula_structural   YEr3Hf3PtF28
_chemical_formula_sum   'Y1 Er3 Hf3 Pt1 F28'
_cell_volume   543.27545338
_cell_formula_units_Z   1
loop_
 _symmetry_equiv_pos_site_id
 _symmetry_equiv_pos_as_xyz
  1  'x, y, z'
loop_
 _atom_site_type_symbol
 _atom_site_label
 _atom_site_symmetry_multiplicity
 _atom_site_fract_x
 _atom_site_fract_y
 _atom_site_fract_z
 _atom_site_occupancy
  Y  Y0  1  0.241075  0.816553  0.761398  1
  Er  Er1  1  0.257891  0.816257  0.267740  1
  Er  Er2  1  0.743268  0.186916  0.732718  1
  Er  Er3  1  0.757696  0.184057  0.234611  1
  Hf  Hf4  1  0.756224  0.726546  0.045017  1
  Hf  Hf5  1  0.244529  0.273677  0.955057  1
  Hf  Hf6  1  0.256873  0.276130  0.454817  1
  Pt  Pt7  1  0.740780  0.727457  0.543073  1
  F  F8  1  0.935736  0.704410  0.416938  1
  F  F9  1  0.038941  0.288622  0.580292  1
  F  F10  1  0.463744  0.289631  0.079626  1
  F  F11  1  0.535972  0.710354  0.921262  1
  F  F12  1  0.486399  0.733813  0.150414  1
  F  F13  1  0.517729  0.266982  0.851972  1
  F  F14  1  0.983391  0.266899  0.351922  1
  F  F15  1  0.027931  0.726945  0.635350  1
  F  F16  1  0.969117  0.747906  0.171971  1
  F  F17  1  0.036320  0.250556  0.827878  1
  F  F18  1  0.467700  0.255225  0.327165  1
  F  F19  1  0.552276  0.742193  0.675781  1
  F  F20  1  0.772198  0.475443  0.140898  1
  F  F21  1  0.224450  0.524033  0.857658  1
  F  F22  1  0.267476  0.527461  0.360060  1
  F  F23  1  0.730678  0.480302  0.641989  1
  F  F24  1  0.952074  0.276182  0.050580  1
  F  F25  1  0.047411  0.722741  0.950062  1
  F  F26  1  0.444891  0.720047  0.457562  1
  F  F27  1  0.550495  0.281266  0.548042  1
  F  F28  1  0.742603  0.974408  0.450066  1
  F  F29  1  0.261633  0.025740  0.554449  1
  F  F30  1  0.242990  0.023590  0.059764  1
  F  F31  1  0.758688  0.976668  0.941471  1
  F  F32  1  0.573120  0.971977  0.237386  1
  F  F33  1  0.424842  0.030210  0.764559  1
  F  F34  1  0.073209  0.025304  0.269427  1
  F  F35  1  0.919653  0.973500  0.731026  1
