# generated using pymatgen
data_La12Co6Ag
_symmetry_space_group_name_H-M   'P 1'
_cell_length_a   8.79938292
_cell_length_b   8.79938352
_cell_length_c   8.79938400
_cell_angle_alpha   109.47121483
_cell_angle_beta   109.47121622
_cell_angle_gamma   109.47122366
_symmetry_Int_Tables_number   1
_chemical_formula_structural   La12Co6Ag
_chemical_formula_sum   'La12 Co6 Ag1'
_cell_volume   524.48718579
_cell_formula_units_Z   1
loop_
 _symmetry_equiv_pos_site_id
 _symmetry_equiv_pos_as_xyz
  1  'x, y, z'
loop_
 _atom_site_type_symbol
 _atom_site_label
 _atom_site_symmetry_multiplicity
 _atom_site_fract_x
 _atom_site_fract_y
 _atom_site_fract_z
 _atom_site_occupancy
  La  La0  1  0.809966  0.687502  0.497468  1
  La  La1  1  0.190034  0.312498  0.502532  1
  La  La2  1  0.190034  0.687502  0.877537  1
  La  La3  1  0.809966  0.312498  0.122463  1
  La  La4  1  0.687502  0.497468  0.809966  1
  La  La5  1  0.312498  0.502532  0.190034  1
  La  La6  1  0.687502  0.877537  0.190034  1
  La  La7  1  0.312498  0.122463  0.809966  1
  La  La8  1  0.497468  0.809966  0.687502  1
  La  La9  1  0.502532  0.190034  0.312498  1
  La  La10  1  0.122463  0.809966  0.312498  1
  La  La11  1  0.877537  0.190034  0.687502  1
  Co  Co12  1  0.878357  0.378357  0.500000  1
  Co  Co13  1  0.121643  0.621643  0.500000  1
  Co  Co14  1  0.378357  0.500000  0.878357  1
  Co  Co15  1  0.621643  0.500000  0.121643  1
  Co  Co16  1  0.500000  0.878357  0.378357  1
  Co  Co17  1  0.500000  0.121643  0.621643  1
  Ag  Ag18  1  0.000000  0.000000  0.000000  1
