# generated using pymatgen
data_Ba10Al3Si14Au
_symmetry_space_group_name_H-M   'P 1'
_cell_length_a   6.72427007
_cell_length_b   6.72427081
_cell_length_c   18.35860770
_cell_angle_alpha   81.63863882
_cell_angle_beta   81.63864637
_cell_angle_gamma   100.65211316
_symmetry_Int_Tables_number   1
_chemical_formula_structural   Ba10Al3Si14Au
_chemical_formula_sum   'Ba10 Al3 Si14 Au1'
_cell_volume   794.35059192
_cell_formula_units_Z   1
loop_
 _symmetry_equiv_pos_site_id
 _symmetry_equiv_pos_as_xyz
  1  'x, y, z'
loop_
 _atom_site_type_symbol
 _atom_site_label
 _atom_site_symmetry_multiplicity
 _atom_site_fract_x
 _atom_site_fract_y
 _atom_site_fract_z
 _atom_site_occupancy
  Ba  Ba0  1  0.750380  0.251122  0.000335  1
  Ba  Ba1  1  0.123383  0.572160  0.789378  1
  Ba  Ba2  1  0.289326  0.710565  0.499904  1
  Ba  Ba3  1  0.761930  0.761930  0.643507  1
  Ba  Ba4  1  0.239722  0.239722  0.354368  1
  Ba  Ba5  1  0.572160  0.123383  0.789378  1
  Ba  Ba6  1  0.251122  0.750380  0.000335  1
  Ba  Ba7  1  0.710565  0.289326  0.499904  1
  Ba  Ba8  1  0.426704  0.877583  0.209869  1
  Ba  Ba9  1  0.877583  0.426704  0.209869  1
  Al  Al10  1  0.910380  0.910380  0.261093  1
  Al  Al11  1  0.078236  0.078236  0.736444  1
  Al  Al12  1  0.776946  0.776946  0.930658  1
  Si  Si13  1  0.350337  0.350337  0.642414  1
  Si  Si14  1  0.294721  0.294721  0.932260  1
  Si  Si15  1  0.934075  0.934075  0.127715  1
  Si  Si16  1  0.646770  0.646770  0.359317  1
  Si  Si17  1  0.431671  0.431671  0.147611  1
  Si  Si18  1  0.067824  0.067824  0.870356  1
  Si  Si19  1  0.818823  0.818823  0.450155  1
  Si  Si20  1  0.327430  0.973012  0.640851  1
  Si  Si21  1  0.675844  0.025322  0.358536  1
  Si  Si22  1  0.180119  0.180119  0.550625  1
  Si  Si23  1  0.973012  0.327430  0.640851  1
  Si  Si24  1  0.025322  0.675844  0.358536  1
  Si  Si25  1  0.705587  0.705587  0.070847  1
  Si  Si26  1  0.574459  0.574459  0.851681  1
  Au  Au27  1  0.225569  0.225569  0.073202  1
