# generated using pymatgen
data_Er2MnCrF14
_symmetry_space_group_name_H-M   'P 1'
_cell_length_a   5.43237800
_cell_length_b   8.65714652
_cell_length_c   11.63572036
_cell_angle_alpha   62.91058647
_cell_angle_beta   90.00000000
_cell_angle_gamma   90.00000000
_symmetry_Int_Tables_number   1
_chemical_formula_structural   Er2MnCrF14
_chemical_formula_sum   'Er4 Mn2 Cr2 F28'
_cell_volume   487.18388638
_cell_formula_units_Z   2
loop_
 _symmetry_equiv_pos_site_id
 _symmetry_equiv_pos_as_xyz
  1  'x, y, z'
loop_
 _atom_site_type_symbol
 _atom_site_label
 _atom_site_symmetry_multiplicity
 _atom_site_fract_x
 _atom_site_fract_y
 _atom_site_fract_z
 _atom_site_occupancy
  Er  Er0  1  0.763804  0.811436  0.764505  1
  Er  Er1  1  0.263804  0.188564  0.735495  1
  Er  Er2  1  0.237252  0.191334  0.233700  1
  Er  Er3  1  0.737252  0.808666  0.266300  1
  Mn  Mn4  1  0.240814  0.727063  0.043743  1
  Mn  Mn5  1  0.740814  0.272937  0.456257  1
  Cr  Cr6  1  0.758651  0.273288  0.956523  1
  Cr  Cr7  1  0.258651  0.726712  0.543477  1
  F  F8  1  0.431394  0.704426  0.922255  1
  F  F9  1  0.931394  0.295574  0.577745  1
  F  F10  1  0.567213  0.294037  0.079377  1
  F  F11  1  0.067213  0.705963  0.420623  1
  F  F12  1  0.453705  0.278469  0.540530  1
  F  F13  1  0.953705  0.721531  0.959470  1
  F  F14  1  0.551348  0.723054  0.456831  1
  F  F15  1  0.051348  0.276946  0.043169  1
  F  F16  1  0.774468  0.512043  0.862957  1
  F  F17  1  0.274468  0.487957  0.637043  1
  F  F18  1  0.225021  0.488319  0.138439  1
  F  F19  1  0.725021  0.511681  0.361561  1
  F  F20  1  0.754023  0.036548  0.046284  1
  F  F21  1  0.254023  0.963452  0.453716  1
  F  F22  1  0.243784  0.964054  0.953550  1
  F  F23  1  0.743784  0.035946  0.546450  1
  F  F24  1  0.974541  0.726792  0.636474  1
  F  F25  1  0.474541  0.273208  0.863526  1
  F  F26  1  0.019855  0.272652  0.365832  1
  F  F27  1  0.519855  0.727348  0.134168  1
  F  F28  1  0.052364  0.745730  0.170236  1
  F  F29  1  0.552364  0.254270  0.329764  1
  F  F30  1  0.948037  0.254676  0.829081  1
  F  F31  1  0.448037  0.745324  0.670919  1
  F  F32  1  0.413952  0.972816  0.228459  1
  F  F33  1  0.913952  0.027184  0.271541  1
  F  F34  1  0.589775  0.029576  0.770439  1
  F  F35  1  0.089775  0.970424  0.729561  1
