# generated using pymatgen
data_Th3GaGe2Ru3
_symmetry_space_group_name_H-M   'P 1'
_cell_length_a   7.17657012
_cell_length_b   7.22710418
_cell_length_c   4.07567000
_cell_angle_alpha   90.00000000
_cell_angle_beta   90.00000000
_cell_angle_gamma   120.23321659
_symmetry_Int_Tables_number   1
_chemical_formula_structural   Th3GaGe2Ru3
_chemical_formula_sum   'Th3 Ga1 Ge2 Ru3'
_cell_volume   182.63561710
_cell_formula_units_Z   1
loop_
 _symmetry_equiv_pos_site_id
 _symmetry_equiv_pos_as_xyz
  1  'x, y, z'
loop_
 _atom_site_type_symbol
 _atom_site_label
 _atom_site_symmetry_multiplicity
 _atom_site_fract_x
 _atom_site_fract_y
 _atom_site_fract_z
 _atom_site_occupancy
  Th  Th0  1  0.416356  0.416071  0.500000  1
  Th  Th1  1  0.583644  0.999715  0.500000  1
  Th  Th2  1  0.000000  0.583988  0.500000  1
  Ga  Ga3  1  0.000000  0.237028  0.000000  1
  Ge  Ge4  1  0.758580  0.762554  0.000000  1
  Ge  Ge5  1  0.241420  0.003974  0.000000  1
  Ru  Ru6  1  0.666599  0.337338  0.000000  1
  Ru  Ru7  1  0.333401  0.670740  0.000000  1
  Ru  Ru8  1  0.000000  0.988593  0.500000  1
