# generated using pymatgen
data_Hf3Zn2GaCu2Ni
_symmetry_space_group_name_H-M   'P 1'
_cell_length_a   6.92666812
_cell_length_b   6.94500397
_cell_length_c   3.41158200
_cell_angle_alpha   90.00000000
_cell_angle_beta   90.00000000
_cell_angle_gamma   120.04955971
_symmetry_Int_Tables_number   1
_chemical_formula_structural   Hf3Zn2GaCu2Ni
_chemical_formula_sum   'Hf3 Zn2 Ga1 Cu2 Ni1'
_cell_volume   142.05817209
_cell_formula_units_Z   1
loop_
 _symmetry_equiv_pos_site_id
 _symmetry_equiv_pos_as_xyz
  1  'x, y, z'
loop_
 _atom_site_type_symbol
 _atom_site_label
 _atom_site_symmetry_multiplicity
 _atom_site_fract_x
 _atom_site_fract_y
 _atom_site_fract_z
 _atom_site_occupancy
  Hf  Hf0  1  0.405514  0.410904  0.500000  1
  Hf  Hf1  1  0.585174  0.986402  0.500000  1
  Hf  Hf2  1  0.009720  0.604076  0.500000  1
  Zn  Zn3  1  0.738037  0.735791  0.000000  1
  Zn  Zn4  1  0.264693  0.002781  0.000000  1
  Ga  Ga5  1  0.997401  0.260446  0.000000  1
  Cu  Cu6  1  0.668823  0.333542  0.000000  1
  Cu  Cu7  1  0.000438  0.002065  0.500000  1
  Ni  Ni8  1  0.330199  0.663991  0.000000  1
