# generated using pymatgen
data_Ho6Ti4Al12CoIr6
_symmetry_space_group_name_H-M   'P 1'
_cell_length_a   8.94373190
_cell_length_b   8.94373313
_cell_length_c   8.94373400
_cell_angle_alpha   60.00000419
_cell_angle_beta   59.99999963
_cell_angle_gamma   60.00000431
_symmetry_Int_Tables_number   1
_chemical_formula_structural   Ho6Ti4Al12CoIr6
_chemical_formula_sum   'Ho6 Ti4 Al12 Co1 Ir6'
_cell_volume   505.87300797
_cell_formula_units_Z   1
loop_
 _symmetry_equiv_pos_site_id
 _symmetry_equiv_pos_as_xyz
  1  'x, y, z'
loop_
 _atom_site_type_symbol
 _atom_site_label
 _atom_site_symmetry_multiplicity
 _atom_site_fract_x
 _atom_site_fract_y
 _atom_site_fract_z
 _atom_site_occupancy
  Ho  Ho0  1  0.703317  0.703317  0.296683  1
  Ho  Ho1  1  0.296683  0.703317  0.296683  1
  Ho  Ho2  1  0.703317  0.296683  0.296683  1
  Ho  Ho3  1  0.296683  0.296683  0.703317  1
  Ho  Ho4  1  0.703317  0.296683  0.703317  1
  Ho  Ho5  1  0.296683  0.703317  0.703317  1
  Ti  Ti6  1  0.882708  0.882708  0.351877  1
  Ti  Ti7  1  0.882708  0.351877  0.882708  1
  Ti  Ti8  1  0.351877  0.882708  0.882708  1
  Ti  Ti9  1  0.882708  0.882708  0.882708  1
  Al  Al10  1  0.117476  0.117476  0.647574  1
  Al  Al11  1  0.117476  0.647574  0.117476  1
  Al  Al12  1  0.647574  0.117476  0.117476  1
  Al  Al13  1  0.117476  0.117476  0.117476  1
  Al  Al14  1  0.669511  0.669511  0.991465  1
  Al  Al15  1  0.669511  0.991465  0.669511  1
  Al  Al16  1  0.991465  0.669511  0.669511  1
  Al  Al17  1  0.669511  0.669511  0.669511  1
  Al  Al18  1  0.329074  0.329074  0.012778  1
  Al  Al19  1  0.329074  0.012778  0.329074  1
  Al  Al20  1  0.012778  0.329074  0.329074  1
  Al  Al21  1  0.329074  0.329074  0.329074  1
  Co  Co22  1  0.000000  0.000000  0.000000  1
  Ir  Ir23  1  0.999197  0.999197  0.500803  1
  Ir  Ir24  1  0.500803  0.999197  0.500803  1
  Ir  Ir25  1  0.999197  0.500803  0.500803  1
  Ir  Ir26  1  0.500803  0.500803  0.999197  1
  Ir  Ir27  1  0.999197  0.500803  0.999197  1
  Ir  Ir28  1  0.500803  0.999197  0.999197  1
