# generated using pymatgen
data_Ho2Al20Os3Rh
_symmetry_space_group_name_H-M   'P 1'
_cell_length_a   6.85680403
_cell_length_b   6.84618324
_cell_length_c   9.14104775
_cell_angle_alpha   90.11857693
_cell_angle_beta   90.23802243
_cell_angle_gamma   96.62251594
_symmetry_Int_Tables_number   1
_chemical_formula_structural   Ho2Al20Os3Rh
_chemical_formula_sum   'Ho2 Al20 Os3 Rh1'
_cell_volume   426.23933499
_cell_formula_units_Z   1
loop_
 _symmetry_equiv_pos_site_id
 _symmetry_equiv_pos_as_xyz
  1  'x, y, z'
loop_
 _atom_site_type_symbol
 _atom_site_label
 _atom_site_symmetry_multiplicity
 _atom_site_fract_x
 _atom_site_fract_y
 _atom_site_fract_z
 _atom_site_occupancy
  Ho  Ho0  1  0.870948  0.131811  0.749339  1
  Ho  Ho1  1  0.129052  0.868189  0.250661  1
  Al  Al2  1  0.517553  0.780655  0.748014  1
  Al  Al3  1  0.782790  0.517419  0.249371  1
  Al  Al4  1  0.482447  0.219345  0.251986  1
  Al  Al5  1  0.217210  0.482581  0.750629  1
  Al  Al6  1  0.624289  0.378500  0.952214  1
  Al  Al7  1  0.375711  0.621500  0.047786  1
  Al  Al8  1  0.623817  0.376780  0.545982  1
  Al  Al9  1  0.376183  0.623220  0.454018  1
  Al  Al10  1  0.416691  0.148347  0.749906  1
  Al  Al11  1  0.147217  0.415318  0.250384  1
  Al  Al12  1  0.583309  0.851653  0.250094  1
  Al  Al13  1  0.852783  0.584682  0.749616  1
  Al  Al14  1  0.844794  0.154436  0.398639  1
  Al  Al15  1  0.155206  0.845564  0.601361  1
  Al  Al16  1  0.845723  0.155839  0.103021  1
  Al  Al17  1  0.154277  0.844161  0.896979  1
  Al  Al18  1  0.775439  0.775306  0.000421  1
  Al  Al19  1  0.777124  0.776774  0.499383  1
  Al  Al20  1  0.224561  0.224694  0.999579  1
  Al  Al21  1  0.222876  0.223226  0.500617  1
  Os  Os22  1  0.000000  0.500000  0.000000  1
  Os  Os23  1  0.500000  0.000000  0.500000  1
  Os  Os24  1  0.000000  0.500000  0.500000  1
  Rh  Rh25  1  0.500000  0.000000  0.000000  1
