# generated using pymatgen
data_Li3Pr4Tl2Si4Ag
_symmetry_space_group_name_H-M   'P 1'
_cell_length_a   9.90980599
_cell_length_b   9.90980561
_cell_length_c   6.96820481
_cell_angle_alpha   90.16548453
_cell_angle_beta   89.83451676
_cell_angle_gamma   153.22923655
_symmetry_Int_Tables_number   1
_chemical_formula_structural   Li3Pr4Tl2Si4Ag
_chemical_formula_sum   'Li3 Pr4 Tl2 Si4 Ag1'
_cell_volume   308.22573237
_cell_formula_units_Z   1
loop_
 _symmetry_equiv_pos_site_id
 _symmetry_equiv_pos_as_xyz
  1  'x, y, z'
loop_
 _atom_site_type_symbol
 _atom_site_label
 _atom_site_symmetry_multiplicity
 _atom_site_fract_x
 _atom_site_fract_y
 _atom_site_fract_z
 _atom_site_occupancy
  Li  Li0  1  0.182948  0.817052  0.445367  1
  Li  Li1  1  0.177575  0.822425  0.062205  1
  Li  Li2  1  0.822016  0.177984  0.936228  1
  Pr  Pr3  1  0.545185  0.454815  0.249486  1
  Pr  Pr4  1  0.453376  0.546624  0.748589  1
  Pr  Pr5  1  0.351153  0.648847  0.246150  1
  Pr  Pr6  1  0.649653  0.350347  0.750085  1
  Tl  Tl7  1  0.718928  0.281072  0.238853  1
  Tl  Tl8  1  0.277146  0.722854  0.769654  1
  Si  Si9  1  0.943654  0.056346  0.074965  1
  Si  Si10  1  0.056067  0.943933  0.923858  1
  Si  Si11  1  0.056656  0.943344  0.575941  1
  Si  Si12  1  0.944687  0.055313  0.422355  1
  Ag  Ag13  1  0.820958  0.179042  0.556267  1
