# generated using pymatgen
data_Ba3PrLuSe6
_symmetry_space_group_name_H-M   'P 1'
_cell_length_a   8.82576606
_cell_length_b   8.82576496
_cell_length_c   8.82576600
_cell_angle_alpha   92.04171837
_cell_angle_beta   92.04172461
_cell_angle_gamma   92.04170929
_symmetry_Int_Tables_number   1
_chemical_formula_structural   Ba3PrLuSe6
_chemical_formula_sum   'Ba6 Pr2 Lu2 Se12'
_cell_volume   686.13411536
_cell_formula_units_Z   2
loop_
 _symmetry_equiv_pos_site_id
 _symmetry_equiv_pos_as_xyz
  1  'x, y, z'
loop_
 _atom_site_type_symbol
 _atom_site_label
 _atom_site_symmetry_multiplicity
 _atom_site_fract_x
 _atom_site_fract_y
 _atom_site_fract_z
 _atom_site_occupancy
  Ba  Ba0  1  0.369983  0.750000  0.130017  1
  Ba  Ba1  1  0.130017  0.369983  0.750000  1
  Ba  Ba2  1  0.750000  0.130017  0.369983  1
  Ba  Ba3  1  0.630017  0.250000  0.869983  1
  Ba  Ba4  1  0.869983  0.630017  0.250000  1
  Ba  Ba5  1  0.250000  0.869983  0.630017  1
  Pr  Pr6  1  0.250000  0.250000  0.250000  1
  Pr  Pr7  1  0.750000  0.750000  0.750000  1
  Lu  Lu8  1  0.500000  0.500000  0.500000  1
  Lu  Lu9  1  0.000000  0.000000  0.000000  1
  Se  Se10  1  0.546187  0.413063  0.197979  1
  Se  Se11  1  0.197979  0.546187  0.413063  1
  Se  Se12  1  0.413063  0.197979  0.546187  1
  Se  Se13  1  0.953813  0.302021  0.086937  1
  Se  Se14  1  0.086937  0.953813  0.302021  1
  Se  Se15  1  0.302021  0.086937  0.953813  1
  Se  Se16  1  0.453813  0.586937  0.802021  1
  Se  Se17  1  0.802021  0.453813  0.586937  1
  Se  Se18  1  0.586937  0.802021  0.453813  1
  Se  Se19  1  0.046187  0.697979  0.913063  1
  Se  Se20  1  0.697979  0.913063  0.046187  1
  Se  Se21  1  0.913063  0.046187  0.697979  1
