# generated using pymatgen
data_Ho8TiRe8Si16Mo3
_symmetry_space_group_name_H-M   'P 1'
_cell_length_a   6.76757260
_cell_length_b   6.76757283
_cell_length_c   12.96446994
_cell_angle_alpha   89.89276785
_cell_angle_beta   90.10723235
_cell_angle_gamma   90.59400589
_symmetry_Int_Tables_number   1
_chemical_formula_structural   Ho8TiRe8Si16Mo3
_chemical_formula_sum   'Ho8 Ti1 Re8 Si16 Mo3'
_cell_volume   593.73927972
_cell_formula_units_Z   1
loop_
 _symmetry_equiv_pos_site_id
 _symmetry_equiv_pos_as_xyz
  1  'x, y, z'
loop_
 _atom_site_type_symbol
 _atom_site_label
 _atom_site_symmetry_multiplicity
 _atom_site_fract_x
 _atom_site_fract_y
 _atom_site_fract_z
 _atom_site_occupancy
  Ho  Ho0  1  0.321521  0.987183  0.466747  1
  Ho  Ho1  1  0.501744  0.836029  0.724137  1
  Ho  Ho2  1  0.495614  0.163988  0.222485  1
  Ho  Ho3  1  0.836029  0.501744  0.275863  1
  Ho  Ho4  1  0.163988  0.495614  0.777515  1
  Ho  Ho5  1  0.675099  0.014784  0.967035  1
  Ho  Ho6  1  0.987183  0.321521  0.533253  1
  Ho  Ho7  1  0.014784  0.675099  0.032965  1
  Ti  Ti8  1  0.657250  0.657250  0.500000  1
  Re  Re9  1  0.192614  0.012782  0.877614  1
  Re  Re10  1  0.520503  0.691283  0.117107  1
  Re  Re11  1  0.480883  0.316557  0.615745  1
  Re  Re12  1  0.691283  0.520503  0.882893  1
  Re  Re13  1  0.316557  0.480883  0.384255  1
  Re  Re14  1  0.805413  0.979489  0.382252  1
  Re  Re15  1  0.012782  0.192614  0.122386  1
  Re  Re16  1  0.979489  0.805413  0.617748  1
  Si  Si17  1  0.188815  0.102807  0.685747  1
  Si  Si18  1  0.386782  0.706709  0.932173  1
  Si  Si19  1  0.617102  0.289018  0.432095  1
  Si  Si20  1  0.706709  0.386782  0.067827  1
  Si  Si21  1  0.289018  0.617102  0.567905  1
  Si  Si22  1  0.810606  0.897906  0.187244  1
  Si  Si23  1  0.102807  0.188815  0.314253  1
  Si  Si24  1  0.897906  0.810606  0.812756  1
  Si  Si25  1  0.297561  0.979707  0.063143  1
  Si  Si26  1  0.515767  0.766256  0.307792  1
  Si  Si27  1  0.484003  0.234593  0.808328  1
  Si  Si28  1  0.766256  0.515767  0.692208  1
  Si  Si29  1  0.234593  0.484003  0.191672  1
  Si  Si30  1  0.696907  0.025949  0.566289  1
  Si  Si31  1  0.979707  0.297561  0.936857  1
  Si  Si32  1  0.025949  0.696907  0.433711  1
  Mo  Mo33  1  0.345651  0.345651  0.000000  1
  Mo  Mo34  1  0.163271  0.837853  0.249369  1
  Mo  Mo35  1  0.837853  0.163271  0.750631  1
