# generated using pymatgen
data_Ca3YBi6Rh7
_symmetry_space_group_name_H-M   'P 1'
_cell_length_a   7.81144757
_cell_length_b   7.84981007
_cell_length_c   7.81144700
_cell_angle_alpha   109.57073010
_cell_angle_beta   109.37152336
_cell_angle_gamma   109.57073394
_symmetry_Int_Tables_number   1
_chemical_formula_structural   Ca3YBi6Rh7
_chemical_formula_sum   'Ca3 Y1 Bi6 Rh7'
_cell_volume   368.26924596
_cell_formula_units_Z   1
loop_
 _symmetry_equiv_pos_site_id
 _symmetry_equiv_pos_as_xyz
  1  'x, y, z'
loop_
 _atom_site_type_symbol
 _atom_site_label
 _atom_site_symmetry_multiplicity
 _atom_site_fract_x
 _atom_site_fract_y
 _atom_site_fract_z
 _atom_site_occupancy
  Ca  Ca0  1  0.500000  0.000000  0.000000  1
  Ca  Ca1  1  0.000000  0.000000  0.500000  1
  Ca  Ca2  1  0.500000  0.500000  0.500000  1
  Y  Y3  1  0.000000  0.500000  0.000000  1
  Bi  Bi4  1  0.317815  0.004512  0.317815  1
  Bi  Bi5  1  0.000000  0.686698  0.682185  1
  Bi  Bi6  1  0.682185  0.686698  0.000000  1
  Bi  Bi7  1  0.682185  0.995488  0.682185  1
  Bi  Bi8  1  0.000000  0.313302  0.317815  1
  Bi  Bi9  1  0.317815  0.313302  0.000000  1
  Rh  Rh10  1  0.245847  0.500000  0.754153  1
  Rh  Rh11  1  0.508308  0.254153  0.754153  1
  Rh  Rh12  1  0.754153  0.254153  0.508308  1
  Rh  Rh13  1  0.491692  0.745847  0.245847  1
  Rh  Rh14  1  0.000000  0.000000  0.000000  1
  Rh  Rh15  1  0.245847  0.745847  0.491692  1
  Rh  Rh16  1  0.754153  0.500000  0.245847  1
