# generated using pymatgen
data_Pr6Cd22PdS
_symmetry_space_group_name_H-M   'P 1'
_cell_length_a   10.06067018
_cell_length_b   10.06067177
_cell_length_c   10.01767600
_cell_angle_alpha   60.14127073
_cell_angle_beta   60.14126554
_cell_angle_gamma   60.11727391
_symmetry_Int_Tables_number   1
_chemical_formula_structural   Pr6Cd22PdS
_chemical_formula_sum   'Pr6 Cd22 Pd1 S1'
_cell_volume   719.14256096
_cell_formula_units_Z   1
loop_
 _symmetry_equiv_pos_site_id
 _symmetry_equiv_pos_as_xyz
  1  'x, y, z'
loop_
 _atom_site_type_symbol
 _atom_site_label
 _atom_site_symmetry_multiplicity
 _atom_site_fract_x
 _atom_site_fract_y
 _atom_site_fract_z
 _atom_site_occupancy
  Pr  Pr0  1  0.795188  0.795188  0.204812  1
  Pr  Pr1  1  0.204049  0.795951  0.202583  1
  Pr  Pr2  1  0.795951  0.204049  0.202583  1
  Pr  Pr3  1  0.204812  0.204812  0.795188  1
  Pr  Pr4  1  0.795951  0.204049  0.797417  1
  Pr  Pr5  1  0.204049  0.795951  0.797417  1
  Cd  Cd6  1  0.833311  0.833311  0.498627  1
  Cd  Cd7  1  0.823141  0.503205  0.836827  1
  Cd  Cd8  1  0.503205  0.823141  0.836827  1
  Cd  Cd9  1  0.833311  0.833311  0.834751  1
  Cd  Cd10  1  0.166689  0.166689  0.501373  1
  Cd  Cd11  1  0.176859  0.496795  0.163173  1
  Cd  Cd12  1  0.496795  0.176859  0.163173  1
  Cd  Cd13  1  0.166689  0.166689  0.165249  1
  Cd  Cd14  1  0.615865  0.615865  0.134379  1
  Cd  Cd15  1  0.620776  0.135976  0.621624  1
  Cd  Cd16  1  0.135976  0.620776  0.621624  1
  Cd  Cd17  1  0.615865  0.615865  0.633891  1
  Cd  Cd18  1  0.384135  0.384135  0.865621  1
  Cd  Cd19  1  0.379224  0.864024  0.378376  1
  Cd  Cd20  1  0.864024  0.379224  0.378376  1
  Cd  Cd21  1  0.384135  0.384135  0.366109  1
  Cd  Cd22  1  0.000000  0.000000  0.500000  1
  Cd  Cd23  1  0.500000  0.000000  0.500000  1
  Cd  Cd24  1  0.000000  0.500000  0.500000  1
  Cd  Cd25  1  0.000000  0.500000  0.000000  1
  Cd  Cd26  1  0.500000  0.000000  0.000000  1
  Cd  Cd27  1  0.500000  0.500000  0.500000  1
  Pd  Pd28  1  0.500000  0.500000  0.000000  1
  S  S29  1  0.000000  0.000000  0.000000  1
