# generated using pymatgen
data_NaTbPr5CoBr12
_symmetry_space_group_name_H-M   'P 1'
_cell_length_a   9.48314969
_cell_length_b   9.57400097
_cell_length_c   9.45368910
_cell_angle_alpha   107.38360705
_cell_angle_beta   107.14155588
_cell_angle_gamma   106.76979822
_symmetry_Int_Tables_number   1
_chemical_formula_structural   NaTbPr5CoBr12
_chemical_formula_sum   'Na1 Tb1 Pr5 Co1 Br12'
_cell_volume   712.87217457
_cell_formula_units_Z   1
loop_
 _symmetry_equiv_pos_site_id
 _symmetry_equiv_pos_as_xyz
  1  'x, y, z'
loop_
 _atom_site_type_symbol
 _atom_site_label
 _atom_site_symmetry_multiplicity
 _atom_site_fract_x
 _atom_site_fract_y
 _atom_site_fract_z
 _atom_site_occupancy
  Na  Na0  1  0.499849  0.500437  0.499514  1
  Tb  Tb1  1  0.111071  0.318715  0.031524  1
  Pr  Pr2  1  0.310976  0.028568  0.107545  1
  Pr  Pr3  1  0.031190  0.110149  0.313785  1
  Pr  Pr4  1  0.970257  0.894276  0.687844  1
  Pr  Pr5  1  0.689159  0.970816  0.892713  1
  Pr  Pr6  1  0.886946  0.673198  0.968556  1
  Co  Co7  1  0.000712  0.000605  0.001243  1
  Br  Br8  1  0.219626  0.677335  0.072692  1
  Br  Br9  1  0.443910  0.372568  0.148220  1
  Br  Br10  1  0.683955  0.074630  0.222946  1
  Br  Br11  1  0.927593  0.781888  0.317849  1
  Br  Br12  1  0.152579  0.454122  0.363681  1
  Br  Br13  1  0.375530  0.156011  0.457716  1
  Br  Br14  1  0.624727  0.844908  0.542796  1
  Br  Br15  1  0.846222  0.546143  0.624247  1
  Br  Br16  1  0.075479  0.226304  0.694259  1
  Br  Br17  1  0.316264  0.926070  0.777620  1
  Br  Br18  1  0.544176  0.627460  0.845753  1
  Br  Br19  1  0.789786  0.315800  0.929503  1
