# generated using pymatgen
data_Sr2Pd3O8
_symmetry_space_group_name_H-M   'P 1'
_cell_length_a   6.65177788
_cell_length_b   6.65177757
_cell_length_c   5.36776491
_cell_angle_alpha   107.42456780
_cell_angle_beta   107.42456893
_cell_angle_gamma   56.81682403
_symmetry_Int_Tables_number   1
_chemical_formula_structural   Sr2Pd3O8
_chemical_formula_sum   'Sr2 Pd3 O8'
_cell_volume   186.89823074
_cell_formula_units_Z   1
loop_
 _symmetry_equiv_pos_site_id
 _symmetry_equiv_pos_as_xyz
  1  'x, y, z'
loop_
 _atom_site_type_symbol
 _atom_site_label
 _atom_site_symmetry_multiplicity
 _atom_site_fract_x
 _atom_site_fract_y
 _atom_site_fract_z
 _atom_site_occupancy
  Sr  Sr0  1  0.718770  0.718770  0.162500  1
  Sr  Sr1  1  0.281229  0.281229  0.837500  1
  Pd  Pd2  1  0.000000  0.000000  0.000000  1
  Pd  Pd3  1  0.747910  0.252089  0.500001  1
  Pd  Pd4  1  0.252089  0.747910  0.500001  1
  O  O5  1  0.678004  0.119086  0.109035  1
  O  O6  1  0.119086  0.678004  0.109035  1
  O  O7  1  0.093834  0.093834  0.403330  1
  O  O8  1  0.600220  0.600220  0.457763  1
  O  O9  1  0.399780  0.399780  0.542236  1
  O  O10  1  0.906166  0.906166  0.596672  1
  O  O11  1  0.880914  0.321996  0.890965  1
  O  O12  1  0.321996  0.880914  0.890965  1
