# generated using pymatgen
data_Yb6Sn7Pd16S
_symmetry_space_group_name_H-M   'P 1'
_cell_length_a   9.34555025
_cell_length_b   9.34554952
_cell_length_c   9.34555000
_cell_angle_alpha   59.99999830
_cell_angle_beta   60.00000088
_cell_angle_gamma   59.99999801
_symmetry_Int_Tables_number   1
_chemical_formula_structural   Yb6Sn7Pd16S
_chemical_formula_sum   'Yb6 Sn7 Pd16 S1'
_cell_volume   577.16445677
_cell_formula_units_Z   1
loop_
 _symmetry_equiv_pos_site_id
 _symmetry_equiv_pos_as_xyz
  1  'x, y, z'
loop_
 _atom_site_type_symbol
 _atom_site_label
 _atom_site_symmetry_multiplicity
 _atom_site_fract_x
 _atom_site_fract_y
 _atom_site_fract_z
 _atom_site_occupancy
  Yb  Yb0  1  0.710951  0.289049  0.289049  1
  Yb  Yb1  1  0.289049  0.710951  0.710951  1
  Yb  Yb2  1  0.289049  0.710951  0.289049  1
  Yb  Yb3  1  0.710951  0.289049  0.710951  1
  Yb  Yb4  1  0.289049  0.289049  0.710951  1
  Yb  Yb5  1  0.710951  0.710951  0.289049  1
  Sn  Sn6  1  0.000000  0.000000  0.000000  1
  Sn  Sn7  1  0.500000  0.000000  0.000000  1
  Sn  Sn8  1  0.000000  0.500000  0.500000  1
  Sn  Sn9  1  0.000000  0.500000  0.000000  1
  Sn  Sn10  1  0.500000  0.000000  0.500000  1
  Sn  Sn11  1  0.000000  0.000000  0.500000  1
  Sn  Sn12  1  0.500000  0.500000  0.000000  1
  Pd  Pd13  1  0.120240  0.120240  0.120240  1
  Pd  Pd14  1  0.879760  0.879760  0.879760  1
  Pd  Pd15  1  0.120240  0.120240  0.639278  1
  Pd  Pd16  1  0.120240  0.639278  0.120240  1
  Pd  Pd17  1  0.879760  0.879760  0.360722  1
  Pd  Pd18  1  0.879760  0.360722  0.879760  1
  Pd  Pd19  1  0.639278  0.120240  0.120240  1
  Pd  Pd20  1  0.360722  0.879760  0.879760  1
  Pd  Pd21  1  0.331372  0.331372  0.331372  1
  Pd  Pd22  1  0.668628  0.668628  0.668628  1
  Pd  Pd23  1  0.331372  0.331372  0.005884  1
  Pd  Pd24  1  0.331372  0.005884  0.331372  1
  Pd  Pd25  1  0.668628  0.668628  0.994116  1
  Pd  Pd26  1  0.668628  0.994116  0.668628  1
  Pd  Pd27  1  0.005884  0.331372  0.331372  1
  Pd  Pd28  1  0.994116  0.668628  0.668628  1
  S  S29  1  0.500000  0.500000  0.500000  1
