# generated using pymatgen
data_Ho2ErMg3Si2Pd
_symmetry_space_group_name_H-M   'P 1'
_cell_length_a   7.21332130
_cell_length_b   7.21691189
_cell_length_c   4.23941300
_cell_angle_alpha   90.00000000
_cell_angle_beta   90.00000000
_cell_angle_gamma   120.01646646
_symmetry_Int_Tables_number   1
_chemical_formula_structural   Ho2ErMg3Si2Pd
_chemical_formula_sum   'Ho2 Er1 Mg3 Si2 Pd1'
_cell_volume   191.09571725
_cell_formula_units_Z   1
loop_
 _symmetry_equiv_pos_site_id
 _symmetry_equiv_pos_as_xyz
  1  'x, y, z'
loop_
 _atom_site_type_symbol
 _atom_site_label
 _atom_site_symmetry_multiplicity
 _atom_site_fract_x
 _atom_site_fract_y
 _atom_site_fract_z
 _atom_site_occupancy
  Ho  Ho0  1  0.418418  0.418366  0.500000  1
  Ho  Ho1  1  0.581582  0.999948  0.500000  1
  Er  Er2  1  0.000000  0.581588  0.500000  1
  Mg  Mg3  1  0.756501  0.756430  0.000000  1
  Mg  Mg4  1  0.243499  0.999929  0.000000  1
  Mg  Mg5  1  0.000000  0.243620  0.000000  1
  Si  Si6  1  0.666767  0.333452  0.000000  1
  Si  Si7  1  0.333233  0.666686  0.000000  1
  Pd  Pd8  1  0.000000  0.999979  0.500000  1
