# generated using pymatgen
data_Be8VCr3
_symmetry_space_group_name_H-M   'P 1'
_cell_length_a   4.24761300
_cell_length_b   4.24761432
_cell_length_c   6.93818300
_cell_angle_alpha   90.00000000
_cell_angle_beta   90.00000000
_cell_angle_gamma   119.99999750
_symmetry_Int_Tables_number   1
_chemical_formula_structural   Be8VCr3
_chemical_formula_sum   'Be8 V1 Cr3'
_cell_volume   108.40926771
_cell_formula_units_Z   1
loop_
 _symmetry_equiv_pos_site_id
 _symmetry_equiv_pos_as_xyz
  1  'x, y, z'
loop_
 _atom_site_type_symbol
 _atom_site_label
 _atom_site_symmetry_multiplicity
 _atom_site_fract_x
 _atom_site_fract_y
 _atom_site_fract_z
 _atom_site_occupancy
  Be  Be0  1  0.000000  0.000000  0.000340  1
  Be  Be1  1  0.000000  0.000000  0.500991  1
  Be  Be2  1  0.829585  0.659169  0.248135  1
  Be  Be3  1  0.169962  0.830038  0.751282  1
  Be  Be4  1  0.660076  0.830038  0.751282  1
  Be  Be5  1  0.340831  0.170415  0.248135  1
  Be  Be6  1  0.829585  0.170415  0.248135  1
  Be  Be7  1  0.169962  0.339924  0.751282  1
  V  V8  1  0.333333  0.666667  0.436037  1
  Cr  Cr9  1  0.333333  0.666667  0.060341  1
  Cr  Cr10  1  0.666667  0.333333  0.567542  1
  Cr  Cr11  1  0.666667  0.333333  0.936498  1
