# generated using pymatgen
data_Er11LuTh4Mg3Co4Hg
_symmetry_space_group_name_H-M   'P 1'
_cell_length_a   9.55500569
_cell_length_b   9.55698441
_cell_length_c   9.55698438
_cell_angle_alpha   60.03073907
_cell_angle_beta   60.00221010
_cell_angle_gamma   60.00221358
_symmetry_Int_Tables_number   1
_chemical_formula_structural   Er11LuTh4Mg3Co4Hg
_chemical_formula_sum   'Er11 Lu1 Th4 Mg3 Co4 Hg1'
_cell_volume   617.26694512
_cell_formula_units_Z   1
loop_
 _symmetry_equiv_pos_site_id
 _symmetry_equiv_pos_as_xyz
  1  'x, y, z'
loop_
 _atom_site_type_symbol
 _atom_site_label
 _atom_site_symmetry_multiplicity
 _atom_site_fract_x
 _atom_site_fract_y
 _atom_site_fract_z
 _atom_site_occupancy
  Er  Er0  1  0.436123  0.063947  0.063947  1
  Er  Er1  1  0.435934  0.063840  0.437015  1
  Er  Er2  1  0.064010  0.435872  0.064660  1
  Er  Er3  1  0.435934  0.437015  0.063840  1
  Er  Er4  1  0.064010  0.064660  0.435872  1
  Er  Er5  1  0.185033  0.814465  0.814465  1
  Er  Er6  1  0.813947  0.186004  0.186004  1
  Er  Er7  1  0.815123  0.185199  0.814128  1
  Er  Er8  1  0.185684  0.813643  0.186156  1
  Er  Er9  1  0.815123  0.814128  0.185199  1
  Er  Er10  1  0.185684  0.186156  0.813643  1
  Lu  Lu11  1  0.062723  0.437081  0.437081  1
  Th  Th12  1  0.595260  0.593745  0.593745  1
  Th  Th13  1  0.596019  0.596156  0.212537  1
  Th  Th14  1  0.596019  0.212537  0.596156  1
  Th  Th15  1  0.212514  0.595723  0.595723  1
  Mg  Mg16  1  0.829451  0.829233  0.512402  1
  Mg  Mg17  1  0.829451  0.512402  0.829233  1
  Mg  Mg18  1  0.512342  0.829305  0.829305  1
  Co  Co19  1  0.392942  0.394233  0.394233  1
  Co  Co20  1  0.393502  0.392870  0.815208  1
  Co  Co21  1  0.393502  0.815208  0.392870  1
  Co  Co22  1  0.816456  0.393266  0.393266  1
  Hg  Hg23  1  0.833215  0.833312  0.833312  1
