# generated using pymatgen
data_LiAc(PrB12)2
_symmetry_space_group_name_H-M   'P 1'
_cell_length_a   7.19063700
_cell_length_b   7.19063662
_cell_length_c   5.89970800
_cell_angle_alpha   90.00000000
_cell_angle_beta   90.00000000
_cell_angle_gamma   109.29748501
_symmetry_Int_Tables_number   1
_chemical_formula_structural   LiAc(PrB12)2
_chemical_formula_sum   'Li1 Ac1 Pr2 B24'
_cell_volume   287.90705746
_cell_formula_units_Z   1
loop_
 _symmetry_equiv_pos_site_id
 _symmetry_equiv_pos_as_xyz
  1  'x, y, z'
loop_
 _atom_site_type_symbol
 _atom_site_label
 _atom_site_symmetry_multiplicity
 _atom_site_fract_x
 _atom_site_fract_y
 _atom_site_fract_z
 _atom_site_occupancy
  Li  Li0  1  0.000824  0.999176  0.000000  1
  Ac  Ac1  1  0.751802  0.248198  0.500000  1
  Pr  Pr2  1  0.497832  0.502168  0.000000  1
  Pr  Pr3  1  0.249809  0.750191  0.500000  1
  B  B4  1  0.175820  0.324996  0.649906  1
  B  B5  1  0.925821  0.576532  0.148393  1
  B  B6  1  0.675004  0.824180  0.649906  1
  B  B7  1  0.423468  0.074179  0.148393  1
  B  B8  1  0.175820  0.324996  0.350094  1
  B  B9  1  0.925821  0.576532  0.851607  1
  B  B10  1  0.675004  0.824180  0.350094  1
  B  B11  1  0.423468  0.074179  0.851607  1
  B  B12  1  0.399680  0.399410  0.500000  1
  B  B13  1  0.148605  0.651570  0.000000  1
  B  B14  1  0.899641  0.899191  0.500000  1
  B  B15  1  0.650012  0.147929  0.000000  1
  B  B16  1  0.323844  0.174630  0.649914  1
  B  B17  1  0.076041  0.425421  0.148323  1
  B  B18  1  0.825370  0.676156  0.649914  1
  B  B19  1  0.574579  0.923959  0.148323  1
  B  B20  1  0.100809  0.100359  0.500000  1
  B  B21  1  0.852071  0.349988  0.000000  1
  B  B22  1  0.600590  0.600320  0.500000  1
  B  B23  1  0.348430  0.851395  0.000000  1
  B  B24  1  0.323844  0.174630  0.350086  1
  B  B25  1  0.076041  0.425421  0.851677  1
  B  B26  1  0.825370  0.676156  0.350086  1
  B  B27  1  0.574579  0.923959  0.851677  1
