# generated using pymatgen
data_Pa4Zn4CoRh3
_symmetry_space_group_name_H-M   'P 1'
_cell_length_a   3.79103800
_cell_length_b   7.29540800
_cell_length_c   16.15616315
_cell_angle_alpha   89.90584129
_cell_angle_beta   90.00000000
_cell_angle_gamma   90.00000000
_symmetry_Int_Tables_number   1
_chemical_formula_structural   Pa4Zn4CoRh3
_chemical_formula_sum   'Pa8 Zn8 Co2 Rh6'
_cell_volume   446.83313060
_cell_formula_units_Z   2
loop_
 _symmetry_equiv_pos_site_id
 _symmetry_equiv_pos_as_xyz
  1  'x, y, z'
loop_
 _atom_site_type_symbol
 _atom_site_label
 _atom_site_symmetry_multiplicity
 _atom_site_fract_x
 _atom_site_fract_y
 _atom_site_fract_z
 _atom_site_occupancy
  Pa  Pa0  1  0.250000  0.670093  0.554667  1
  Pa  Pa1  1  0.750000  0.832627  0.058610  1
  Pa  Pa2  1  0.250000  0.066004  0.718593  1
  Pa  Pa3  1  0.250000  0.174432  0.932295  1
  Pa  Pa4  1  0.750000  0.936911  0.289154  1
  Pa  Pa5  1  0.250000  0.550274  0.783326  1
  Pa  Pa6  1  0.750000  0.442149  0.217064  1
  Pa  Pa7  1  0.750000  0.340601  0.442241  1
  Zn  Zn8  1  0.250000  0.110812  0.156671  1
  Zn  Zn9  1  0.750000  0.503118  0.935792  1
  Zn  Zn10  1  0.750000  0.000893  0.559137  1
  Zn  Zn11  1  0.750000  0.387726  0.656115  1
  Zn  Zn12  1  0.750000  0.890294  0.843224  1
  Zn  Zn13  1  0.250000  0.492792  0.060424  1
  Zn  Zn14  1  0.250000  0.620790  0.351405  1
  Zn  Zn15  1  0.250000  0.992202  0.438992  1
  Co  Co16  1  0.750000  0.735804  0.444634  1
  Co  Co17  1  0.750000  0.258901  0.813154  1
  Rh  Rh18  1  0.750000  0.757412  0.686111  1
  Rh  Rh19  1  0.250000  0.736967  0.187779  1
  Rh  Rh20  1  0.250000  0.763625  0.940126  1
  Rh  Rh21  1  0.250000  0.259290  0.560350  1
  Rh  Rh22  1  0.750000  0.232586  0.055720  1
  Rh  Rh23  1  0.250000  0.243696  0.314415  1
