# generated using pymatgen
data_Sr6Ga(RhO6)2
_symmetry_space_group_name_H-M   'P 1'
_cell_length_a   8.82987089
_cell_length_b   8.82987027
_cell_length_c   6.93007646
_cell_angle_alpha   67.55533811
_cell_angle_beta   67.55532943
_cell_angle_gamma   36.84574110
_symmetry_Int_Tables_number   1
_chemical_formula_structural   Sr6Ga(RhO6)2
_chemical_formula_sum   'Sr6 Ga1 Rh2 O12'
_cell_volume   296.61415272
_cell_formula_units_Z   1
loop_
 _symmetry_equiv_pos_site_id
 _symmetry_equiv_pos_as_xyz
  1  'x, y, z'
loop_
 _atom_site_type_symbol
 _atom_site_label
 _atom_site_symmetry_multiplicity
 _atom_site_fract_x
 _atom_site_fract_y
 _atom_site_fract_z
 _atom_site_occupancy
  Sr  Sr0  1  0.212227  0.212227  0.710602  1
  Sr  Sr1  1  0.884397  0.884397  0.707578  1
  Sr  Sr2  1  0.547648  0.547648  0.714396  1
  Sr  Sr3  1  0.787773  0.787773  0.289398  1
  Sr  Sr4  1  0.452352  0.452352  0.285604  1
  Sr  Sr5  1  0.115603  0.115603  0.292422  1
  Ga  Ga6  1  0.000000  0.000000  0.000000  1
  Rh  Rh7  1  0.667433  0.667433  0.000511  1
  Rh  Rh8  1  0.332567  0.332567  0.999489  1
  O  O9  1  0.279285  0.279285  0.325612  1
  O  O10  1  0.948290  0.948290  0.312930  1
  O  O11  1  0.611609  0.611609  0.325712  1
  O  O12  1  0.720715  0.720715  0.674388  1
  O  O13  1  0.388391  0.388391  0.674288  1
  O  O14  1  0.051710  0.051710  0.687070  1
  O  O15  1  0.000000  0.500000  0.000000  1
  O  O16  1  0.662494  0.168298  0.000052  1
  O  O17  1  0.337506  0.831702  0.999948  1
  O  O18  1  0.500000  0.000000  0.000000  1
  O  O19  1  0.168298  0.662494  0.000052  1
  O  O20  1  0.831702  0.337506  0.999948  1
