# generated using pymatgen
data_Rb3U2TlBr12
_symmetry_space_group_name_H-M   'P 1'
_cell_length_a   7.95692467
_cell_length_b   7.77990240
_cell_length_c   13.59732400
_cell_angle_alpha   54.94562260
_cell_angle_beta   90.06206323
_cell_angle_gamma   89.57887620
_symmetry_Int_Tables_number   1
_chemical_formula_structural   Rb3U2TlBr12
_chemical_formula_sum   'Rb3 U2 Tl1 Br12'
_cell_volume   689.01331104
_cell_formula_units_Z   1
loop_
 _symmetry_equiv_pos_site_id
 _symmetry_equiv_pos_as_xyz
  1  'x, y, z'
loop_
 _atom_site_type_symbol
 _atom_site_label
 _atom_site_symmetry_multiplicity
 _atom_site_fract_x
 _atom_site_fract_y
 _atom_site_fract_z
 _atom_site_occupancy
  Rb  Rb0  1  0.449259  0.734974  0.250694  1
  Rb  Rb1  1  0.948313  0.266272  0.249011  1
  Rb  Rb2  1  0.050961  0.734287  0.750939  1
  U  U3  1  0.999243  0.001179  0.998627  1
  U  U4  1  0.500458  0.998867  0.501475  1
  Tl  Tl5  1  0.555791  0.263533  0.749636  1
  Br  Br6  1  0.797313  0.322501  0.968635  1
  Br  Br7  1  0.501687  0.190115  0.254175  1
  Br  Br8  1  0.497870  0.816283  0.747351  1
  Br  Br9  1  0.289708  0.225522  0.970211  1
  Br  Br10  1  0.305025  0.669499  0.537735  1
  Br  Br11  1  0.210098  0.225595  0.474163  1
  Br  Br12  1  0.200303  0.678337  0.029854  1
  Br  Br13  1  0.789426  0.771808  0.526777  1
  Br  Br14  1  0.711018  0.777368  0.023661  1
  Br  Br15  1  0.004875  0.811784  0.245662  1
  Br  Br16  1  0.988820  0.191152  0.751905  1
  Br  Br17  1  0.699831  0.320925  0.469490  1
