# generated using pymatgen
data_Y5MnRuO12
_symmetry_space_group_name_H-M   'P 1'
_cell_length_a   6.85771334
_cell_length_b   6.85771481
_cell_length_c   7.26543108
_cell_angle_alpha   74.50968287
_cell_angle_beta   74.50968266
_cell_angle_gamma   50.53200090
_symmetry_Int_Tables_number   1
_chemical_formula_structural   Y5MnRuO12
_chemical_formula_sum   'Y5 Mn1 Ru1 O12'
_cell_volume   252.00516854
_cell_formula_units_Z   1
loop_
 _symmetry_equiv_pos_site_id
 _symmetry_equiv_pos_as_xyz
  1  'x, y, z'
loop_
 _atom_site_type_symbol
 _atom_site_label
 _atom_site_symmetry_multiplicity
 _atom_site_fract_x
 _atom_site_fract_y
 _atom_site_fract_z
 _atom_site_occupancy
  Y  Y0  1  0.692890  0.693805  0.666851  1
  Y  Y1  1  0.692213  0.704281  0.140678  1
  Y  Y2  1  0.001556  0.998444  0.000000  1
  Y  Y3  1  0.295719  0.307787  0.859322  1
  Y  Y4  1  0.306195  0.307110  0.333149  1
  Mn  Mn5  1  0.251785  0.748215  0.500000  1
  Ru  Ru6  1  0.760701  0.239299  0.500000  1
  O  O7  1  0.400795  0.905660  0.924877  1
  O  O8  1  0.575070  0.096557  0.582647  1
  O  O9  1  0.903443  0.424930  0.417353  1
  O  O10  1  0.094340  0.599205  0.075123  1
  O  O11  1  0.005653  0.994579  0.320029  1
  O  O12  1  0.497357  0.502489  0.681898  1
  O  O13  1  0.899751  0.402785  0.926223  1
  O  O14  1  0.100284  0.577900  0.581034  1
  O  O15  1  0.422100  0.899716  0.418966  1
  O  O16  1  0.597215  0.100249  0.073777  1
  O  O17  1  0.497511  0.502643  0.318102  1
  O  O18  1  0.005421  0.994347  0.679971  1
