# generated using pymatgen
data_LaU3(Al3Ir)6
_symmetry_space_group_name_H-M   'P 1'
_cell_length_a   7.60842149
_cell_length_b   7.62902492
_cell_length_c   9.44626400
_cell_angle_alpha   90.00000000
_cell_angle_beta   90.00000000
_cell_angle_gamma   119.50845961
_symmetry_Int_Tables_number   1
_chemical_formula_structural   LaU3(Al3Ir)6
_chemical_formula_sum   'La1 U3 Al18 Ir6'
_cell_volume   477.18212440
_cell_formula_units_Z   1
loop_
 _symmetry_equiv_pos_site_id
 _symmetry_equiv_pos_as_xyz
  1  'x, y, z'
loop_
 _atom_site_type_symbol
 _atom_site_label
 _atom_site_symmetry_multiplicity
 _atom_site_fract_x
 _atom_site_fract_y
 _atom_site_fract_z
 _atom_site_occupancy
  La  La0  1  0.995860  0.669594  0.750000  1
  U  U1  1  0.004102  0.328764  0.250000  1
  U  U2  1  0.670076  0.996368  0.750000  1
  U  U3  1  0.330139  0.004145  0.250000  1
  Al  Al4  1  0.127607  0.131339  0.750000  1
  Al  Al5  1  0.869409  0.871219  0.250000  1
  Al  Al6  1  0.003026  0.333793  0.571947  1
  Al  Al7  1  0.997465  0.664589  0.421412  1
  Al  Al8  1  0.997465  0.664589  0.078588  1
  Al  Al9  1  0.336553  0.003671  0.927764  1
  Al  Al10  1  0.003026  0.333793  0.928053  1
  Al  Al11  1  0.664142  0.997663  0.073944  1
  Al  Al12  1  0.664142  0.997663  0.426056  1
  Al  Al13  1  0.336553  0.003671  0.572236  1
  Al  Al14  1  0.334817  0.334891  0.054951  1
  Al  Al15  1  0.664534  0.665768  0.948091  1
  Al  Al16  1  0.664534  0.665768  0.551909  1
  Al  Al17  1  0.334817  0.334891  0.445049  1
  Al  Al18  1  0.344751  0.549022  0.750000  1
  Al  Al19  1  0.658588  0.452702  0.250000  1
  Al  Al20  1  0.544170  0.335254  0.750000  1
  Al  Al21  1  0.450936  0.659961  0.250000  1
  Ir  Ir22  1  0.672225  0.327006  0.498185  1
  Ir  Ir23  1  0.328278  0.672133  0.498011  1
  Ir  Ir24  1  0.328278  0.672133  0.001989  1
  Ir  Ir25  1  0.672225  0.327006  0.001815  1
  Ir  Ir26  1  0.001142  0.001301  0.497374  1
  Ir  Ir27  1  0.001142  0.001301  0.002626  1
