# generated using pymatgen
data_CuSiRhS4
_symmetry_space_group_name_H-M   'P 1'
_cell_length_a   6.91921863
_cell_length_b   6.91921893
_cell_length_c   6.91921905
_cell_angle_alpha   120.58651399
_cell_angle_beta   118.63078454
_cell_angle_gamma   90.68743450
_symmetry_Int_Tables_number   1
_chemical_formula_structural   CuSiRhS4
_chemical_formula_sum   'Cu2 Si2 Rh2 S8'
_cell_volume   235.52005819
_cell_formula_units_Z   2
loop_
 _symmetry_equiv_pos_site_id
 _symmetry_equiv_pos_as_xyz
  1  'x, y, z'
loop_
 _atom_site_type_symbol
 _atom_site_label
 _atom_site_symmetry_multiplicity
 _atom_site_fract_x
 _atom_site_fract_y
 _atom_site_fract_z
 _atom_site_occupancy
  Cu  Cu0  1  0.374563  0.624563  0.750000  1
  Cu  Cu1  1  0.625437  0.375437  0.250000  1
  Si  Si2  1  0.000000  0.000000  0.500000  1
  Si  Si3  1  0.000000  0.500000  0.000000  1
  Rh  Rh4  1  0.000000  0.000000  0.000000  1
  Rh  Rh5  1  0.500000  0.000000  0.500000  1
  S  S6  1  0.235805  0.754814  0.019009  1
  S  S7  1  0.235805  0.216795  0.480991  1
  S  S8  1  0.235496  0.756782  0.478713  1
  S  S9  1  0.778069  0.756782  0.021287  1
  S  S10  1  0.764195  0.245186  0.980991  1
  S  S11  1  0.764195  0.783205  0.519009  1
  S  S12  1  0.764504  0.243218  0.521287  1
  S  S13  1  0.221931  0.243218  0.978713  1
