# generated using pymatgen
data_Ho10TlBi5S2
_symmetry_space_group_name_H-M   'P 1'
_cell_length_a   9.20611100
_cell_length_b   9.21605657
_cell_length_c   6.61715500
_cell_angle_alpha   90.00000000
_cell_angle_beta   90.00000000
_cell_angle_gamma   120.03575441
_symmetry_Int_Tables_number   1
_chemical_formula_structural   Ho10TlBi5S2
_chemical_formula_sum   'Ho10 Tl1 Bi5 S2'
_cell_volume   486.03404992
_cell_formula_units_Z   1
loop_
 _symmetry_equiv_pos_site_id
 _symmetry_equiv_pos_as_xyz
  1  'x, y, z'
loop_
 _atom_site_type_symbol
 _atom_site_label
 _atom_site_symmetry_multiplicity
 _atom_site_fract_x
 _atom_site_fract_y
 _atom_site_fract_z
 _atom_site_occupancy
  Ho  Ho0  1  0.670998  0.334745  0.001763  1
  Ho  Ho1  1  0.329002  0.663748  0.001763  1
  Ho  Ho2  1  0.329002  0.663748  0.498237  1
  Ho  Ho3  1  0.670998  0.334745  0.498237  1
  Ho  Ho4  1  0.755587  0.755712  0.750000  1
  Ho  Ho5  1  0.244413  0.000124  0.750000  1
  Ho  Ho6  1  0.000000  0.243885  0.750000  1
  Ho  Ho7  1  0.240428  0.246463  0.250000  1
  Ho  Ho8  1  0.759572  0.006036  0.250000  1
  Ho  Ho9  1  0.000000  0.752840  0.250000  1
  Tl  Tl10  1  0.000000  0.397596  0.250000  1
  Bi  Bi11  1  0.395800  0.395079  0.750000  1
  Bi  Bi12  1  0.604200  0.999279  0.750000  1
  Bi  Bi13  1  0.000000  0.602557  0.750000  1
  Bi  Bi14  1  0.604958  0.606086  0.250000  1
  Bi  Bi15  1  0.395042  0.001128  0.250000  1
  S  S16  1  0.000000  0.998114  0.000020  1
  S  S17  1  0.000000  0.998114  0.499980  1
