# generated using pymatgen
data_Ho4ScOs7
_symmetry_space_group_name_H-M   'P 1'
_cell_length_a   5.38878000
_cell_length_b   5.38877881
_cell_length_c   8.86878300
_cell_angle_alpha   90.00000000
_cell_angle_beta   90.00000000
_cell_angle_gamma   120.00000731
_symmetry_Int_Tables_number   1
_chemical_formula_structural   Ho4ScOs7
_chemical_formula_sum   'Ho4 Sc1 Os7'
_cell_volume   223.03624242
_cell_formula_units_Z   1
loop_
 _symmetry_equiv_pos_site_id
 _symmetry_equiv_pos_as_xyz
  1  'x, y, z'
loop_
 _atom_site_type_symbol
 _atom_site_label
 _atom_site_symmetry_multiplicity
 _atom_site_fract_x
 _atom_site_fract_y
 _atom_site_fract_z
 _atom_site_occupancy
  Ho  Ho0  1  0.333333  0.666667  0.422639  1
  Ho  Ho1  1  0.666667  0.333333  0.577361  1
  Ho  Ho2  1  0.666667  0.333333  0.939916  1
  Ho  Ho3  1  0.333333  0.666667  0.060084  1
  Sc  Sc4  1  0.000000  0.000000  0.500000  1
  Os  Os5  1  0.000000  0.000000  0.000000  1
  Os  Os6  1  0.827580  0.172420  0.245020  1
  Os  Os7  1  0.827580  0.655160  0.245020  1
  Os  Os8  1  0.344840  0.172420  0.245020  1
  Os  Os9  1  0.172420  0.827580  0.754980  1
  Os  Os10  1  0.172420  0.344840  0.754980  1
  Os  Os11  1  0.655160  0.827580  0.754980  1
