# generated using pymatgen
data_Mn3Be3C
_symmetry_space_group_name_H-M   'P 1'
_cell_length_a   7.05379244
_cell_length_b   7.05379317
_cell_length_c   7.05379300
_cell_angle_alpha   59.99999612
_cell_angle_beta   59.99999270
_cell_angle_gamma   60.00000126
_symmetry_Int_Tables_number   1
_chemical_formula_structural   Mn3Be3C
_chemical_formula_sum   'Mn12 Be12 C4'
_cell_volume   248.17217005
_cell_formula_units_Z   4
loop_
 _symmetry_equiv_pos_site_id
 _symmetry_equiv_pos_as_xyz
  1  'x, y, z'
loop_
 _atom_site_type_symbol
 _atom_site_label
 _atom_site_symmetry_multiplicity
 _atom_site_fract_x
 _atom_site_fract_y
 _atom_site_fract_z
 _atom_site_occupancy
  Mn  Mn0  1  0.049045  0.049045  0.450955  1
  Mn  Mn1  1  0.450955  0.049045  0.450955  1
  Mn  Mn2  1  0.049045  0.450955  0.450955  1
  Mn  Mn3  1  0.450955  0.450955  0.049045  1
  Mn  Mn4  1  0.049045  0.450955  0.049045  1
  Mn  Mn5  1  0.450955  0.049045  0.049045  1
  Mn  Mn6  1  0.200955  0.200955  0.799045  1
  Mn  Mn7  1  0.799045  0.200955  0.799045  1
  Mn  Mn8  1  0.200955  0.799045  0.799045  1
  Mn  Mn9  1  0.799045  0.799045  0.200955  1
  Mn  Mn10  1  0.200955  0.799045  0.200955  1
  Mn  Mn11  1  0.799045  0.200955  0.200955  1
  Be  Be12  1  0.625000  0.625000  0.125000  1
  Be  Be13  1  0.625000  0.125000  0.625000  1
  Be  Be14  1  0.125000  0.625000  0.625000  1
  Be  Be15  1  0.625000  0.625000  0.625000  1
  Be  Be16  1  0.416331  0.416331  0.751007  1
  Be  Be17  1  0.416331  0.751007  0.416331  1
  Be  Be18  1  0.751007  0.416331  0.416331  1
  Be  Be19  1  0.416331  0.416331  0.416331  1
  Be  Be20  1  0.833669  0.833669  0.498993  1
  Be  Be21  1  0.833669  0.498993  0.833669  1
  Be  Be22  1  0.498993  0.833669  0.833669  1
  Be  Be23  1  0.833669  0.833669  0.833669  1
  C  C24  1  0.125000  0.125000  0.625000  1
  C  C25  1  0.125000  0.625000  0.125000  1
  C  C26  1  0.625000  0.125000  0.125000  1
  C  C27  1  0.125000  0.125000  0.125000  1
