# generated using pymatgen
data_Nd2Sm5Y(Si3Rh)4
_symmetry_space_group_name_H-M   'P 1'
_cell_length_a   8.24137605
_cell_length_b   8.23845852
_cell_length_c   8.17407700
_cell_angle_alpha   90.00000000
_cell_angle_beta   90.00000000
_cell_angle_gamma   119.98812640
_symmetry_Int_Tables_number   1
_chemical_formula_structural   Nd2Sm5Y(Si3Rh)4
_chemical_formula_sum   'Nd2 Sm5 Y1 Si12 Rh4'
_cell_volume   480.69211217
_cell_formula_units_Z   1
loop_
 _symmetry_equiv_pos_site_id
 _symmetry_equiv_pos_as_xyz
  1  'x, y, z'
loop_
 _atom_site_type_symbol
 _atom_site_label
 _atom_site_symmetry_multiplicity
 _atom_site_fract_x
 _atom_site_fract_y
 _atom_site_fract_z
 _atom_site_occupancy
  Nd  Nd0  1  0.999793  0.999897  0.250000  1
  Nd  Nd1  1  0.000267  0.000134  0.750000  1
  Sm  Sm2  1  0.507445  0.492677  0.250000  1
  Sm  Sm3  1  0.507447  0.014770  0.250000  1
  Sm  Sm4  1  0.985642  0.492820  0.250000  1
  Sm  Sm5  1  0.492174  0.507543  0.750000  1
  Sm  Sm6  1  0.492177  0.984630  0.750000  1
  Y  Y7  1  0.014203  0.507103  0.750000  1
  Si  Si8  1  0.166875  0.831926  0.501903  1
  Si  Si9  1  0.166874  0.334949  0.501903  1
  Si  Si10  1  0.665658  0.832828  0.500543  1
  Si  Si11  1  0.832902  0.167875  0.500299  1
  Si  Si12  1  0.832900  0.665025  0.500299  1
  Si  Si13  1  0.334787  0.167394  0.499864  1
  Si  Si14  1  0.832902  0.167875  0.999701  1
  Si  Si15  1  0.832900  0.665025  0.999701  1
  Si  Si16  1  0.334787  0.167394  0.000136  1
  Si  Si17  1  0.166875  0.831926  0.998097  1
  Si  Si18  1  0.166874  0.334949  0.998097  1
  Si  Si19  1  0.665658  0.832828  0.999457  1
  Rh  Rh20  1  0.332874  0.666438  0.471611  1
  Rh  Rh21  1  0.667557  0.333777  0.531897  1
  Rh  Rh22  1  0.667557  0.333777  0.968103  1
  Rh  Rh23  1  0.332874  0.666438  0.028389  1
