# generated using pymatgen
data_Er8Lu5Th3(CdIr)4
_symmetry_space_group_name_H-M   'P 1'
_cell_length_a   9.62193117
_cell_length_b   9.62425754
_cell_length_c   9.64596600
_cell_angle_alpha   59.92535732
_cell_angle_beta   59.91733494
_cell_angle_gamma   59.98420770
_symmetry_Int_Tables_number   1
_chemical_formula_structural   Er8Lu5Th3(CdIr)4
_chemical_formula_sum   'Er8 Lu5 Th3 Cd4 Ir4'
_cell_volume   630.79919959
_cell_formula_units_Z   1
loop_
 _symmetry_equiv_pos_site_id
 _symmetry_equiv_pos_as_xyz
  1  'x, y, z'
loop_
 _atom_site_type_symbol
 _atom_site_label
 _atom_site_symmetry_multiplicity
 _atom_site_fract_x
 _atom_site_fract_y
 _atom_site_fract_z
 _atom_site_occupancy
  Er  Er0  1  0.435762  0.436656  0.063791  1
  Er  Er1  1  0.063137  0.061589  0.437636  1
  Er  Er2  1  0.187234  0.813549  0.813076  1
  Er  Er3  1  0.815734  0.185407  0.184015  1
  Er  Er4  1  0.815734  0.185407  0.814845  1
  Er  Er5  1  0.187234  0.813549  0.186141  1
  Er  Er6  1  0.816247  0.815851  0.183951  1
  Er  Er7  1  0.186869  0.187688  0.812721  1
  Lu  Lu8  1  0.198244  0.600341  0.600707  1
  Lu  Lu9  1  0.061628  0.438423  0.439414  1
  Lu  Lu10  1  0.435404  0.063477  0.064208  1
  Lu  Lu11  1  0.435404  0.063477  0.436911  1
  Lu  Lu12  1  0.061628  0.438423  0.060533  1
  Th  Th13  1  0.598865  0.601290  0.599391  1
  Th  Th14  1  0.598865  0.601290  0.200453  1
  Th  Th15  1  0.598665  0.198448  0.601443  1
  Cd  Cd16  1  0.835231  0.830062  0.831352  1
  Cd  Cd17  1  0.835231  0.830062  0.503354  1
  Cd  Cd18  1  0.835103  0.502328  0.831284  1
  Cd  Cd19  1  0.500444  0.832317  0.833618  1
  Ir  Ir20  1  0.390723  0.391687  0.393584  1
  Ir  Ir21  1  0.390723  0.391687  0.824005  1
  Ir  Ir22  1  0.391934  0.824115  0.391976  1
  Ir  Ir23  1  0.823955  0.392871  0.391586  1
