# generated using pymatgen
data_Zr2AsRh5
_symmetry_space_group_name_H-M   'P 1'
_cell_length_a   5.65367400
_cell_length_b   10.99786300
_cell_length_c   4.07229800
_cell_angle_alpha   90.00000000
_cell_angle_beta   90.00000000
_cell_angle_gamma   90.00000000
_symmetry_Int_Tables_number   1
_chemical_formula_structural   Zr2AsRh5
_chemical_formula_sum   'Zr4 As2 Rh10'
_cell_volume   253.20869745
_cell_formula_units_Z   2
loop_
 _symmetry_equiv_pos_site_id
 _symmetry_equiv_pos_as_xyz
  1  'x, y, z'
loop_
 _atom_site_type_symbol
 _atom_site_label
 _atom_site_symmetry_multiplicity
 _atom_site_fract_x
 _atom_site_fract_y
 _atom_site_fract_z
 _atom_site_occupancy
  Zr  Zr0  1  0.821426  0.141948  0.500001  1
  Zr  Zr1  1  0.321427  0.358052  0.500001  1
  Zr  Zr2  1  0.678574  0.641948  0.500001  1
  Zr  Zr3  1  0.178574  0.858052  0.500001  1
  As  As4  1  0.500001  0.000000  0.000000  1
  As  As5  1  0.000000  0.500000  0.000000  1
  Rh  Rh6  1  0.000000  0.000000  0.000000  1
  Rh  Rh7  1  0.566513  0.244703  0.000000  1
  Rh  Rh8  1  0.066512  0.255298  0.000000  1
  Rh  Rh9  1  0.500001  0.500000  0.000000  1
  Rh  Rh10  1  0.933488  0.744703  0.000000  1
  Rh  Rh11  1  0.433487  0.755297  0.000000  1
  Rh  Rh12  1  0.311892  0.106216  0.500001  1
  Rh  Rh13  1  0.811893  0.393783  0.500001  1
  Rh  Rh14  1  0.188107  0.606217  0.500001  1
  Rh  Rh15  1  0.688108  0.893783  0.500001  1
