# generated using pymatgen
data_PuAlH6
_symmetry_space_group_name_H-M   'P 1'
_cell_length_a   4.13573608
_cell_length_b   4.13573709
_cell_length_c   4.13573541
_cell_angle_alpha   98.22117259
_cell_angle_beta   98.22118276
_cell_angle_gamma   98.22117643
_symmetry_Int_Tables_number   1
_chemical_formula_structural   PuAlH6
_chemical_formula_sum   'Pu1 Al1 H6'
_cell_volume   68.32112647
_cell_formula_units_Z   1
loop_
 _symmetry_equiv_pos_site_id
 _symmetry_equiv_pos_as_xyz
  1  'x, y, z'
loop_
 _atom_site_type_symbol
 _atom_site_label
 _atom_site_symmetry_multiplicity
 _atom_site_fract_x
 _atom_site_fract_y
 _atom_site_fract_z
 _atom_site_occupancy
  Pu  Pu0  1  0.500000  0.500000  0.500000  1
  Al  Al1  1  0.000000  0.000000  0.000000  1
  H  H2  1  0.307563  0.941490  0.307563  1
  H  H3  1  0.307563  0.307563  0.941490  1
  H  H4  1  0.941490  0.307563  0.307563  1
  H  H5  1  0.692437  0.058510  0.692437  1
  H  H6  1  0.692437  0.692437  0.058510  1
  H  H7  1  0.058510  0.692437  0.692437  1
