# generated using pymatgen
data_TmTl(SeO4)2
_symmetry_space_group_name_H-M   'P 1'
_cell_length_a   5.24597034
_cell_length_b   5.24597158
_cell_length_c   8.52901900
_cell_angle_alpha   94.06791133
_cell_angle_beta   94.06791230
_cell_angle_gamma   64.80588099
_symmetry_Int_Tables_number   1
_chemical_formula_structural   TmTl(SeO4)2
_chemical_formula_sum   'Tm1 Tl1 Se2 O8'
_cell_volume   211.64061227
_cell_formula_units_Z   1
loop_
 _symmetry_equiv_pos_site_id
 _symmetry_equiv_pos_as_xyz
  1  'x, y, z'
loop_
 _atom_site_type_symbol
 _atom_site_label
 _atom_site_symmetry_multiplicity
 _atom_site_fract_x
 _atom_site_fract_y
 _atom_site_fract_z
 _atom_site_occupancy
  Tm  Tm0  1  0.000000  0.000000  0.500000  1
  Tl  Tl1  1  0.000000  0.000000  0.000000  1
  Se  Se2  1  0.625304  0.625304  0.284872  1
  Se  Se3  1  0.374697  0.374697  0.715129  1
  O  O4  1  0.690033  0.690033  0.110175  1
  O  O5  1  0.755432  0.275952  0.306413  1
  O  O6  1  0.275952  0.755432  0.306413  1
  O  O7  1  0.755998  0.755998  0.438033  1
  O  O8  1  0.244002  0.244002  0.561966  1
  O  O9  1  0.724048  0.244568  0.693587  1
  O  O10  1  0.244568  0.724048  0.693587  1
  O  O11  1  0.309966  0.309966  0.889825  1
