# generated using pymatgen
data_Er16In4CoPd3
_symmetry_space_group_name_H-M   'P 1'
_cell_length_a   9.60196079
_cell_length_b   9.60196175
_cell_length_c   9.60196136
_cell_angle_alpha   59.82596097
_cell_angle_beta   59.82596102
_cell_angle_gamma   59.82596267
_symmetry_Int_Tables_number   1
_chemical_formula_structural   Er16In4CoPd3
_chemical_formula_sum   'Er16 In4 Co1 Pd3'
_cell_volume   623.51357760
_cell_formula_units_Z   1
loop_
 _symmetry_equiv_pos_site_id
 _symmetry_equiv_pos_as_xyz
  1  'x, y, z'
loop_
 _atom_site_type_symbol
 _atom_site_label
 _atom_site_symmetry_multiplicity
 _atom_site_fract_x
 _atom_site_fract_y
 _atom_site_fract_z
 _atom_site_occupancy
  Er  Er0  1  0.189956  0.189956  0.809542  1
  Er  Er1  1  0.439806  0.062542  0.062542  1
  Er  Er2  1  0.436653  0.064793  0.436653  1
  Er  Er3  1  0.062542  0.439806  0.062542  1
  Er  Er4  1  0.654248  0.051429  0.654248  1
  Er  Er5  1  0.178582  0.812000  0.812000  1
  Er  Er6  1  0.062542  0.062542  0.439806  1
  Er  Er7  1  0.809542  0.189956  0.189956  1
  Er  Er8  1  0.812000  0.812000  0.178582  1
  Er  Er9  1  0.654248  0.654248  0.051429  1
  Er  Er10  1  0.647068  0.647068  0.647068  1
  Er  Er11  1  0.064793  0.436653  0.436653  1
  Er  Er12  1  0.051429  0.654248  0.654248  1
  Er  Er13  1  0.812000  0.178582  0.812000  1
  Er  Er14  1  0.436653  0.436653  0.064793  1
  Er  Er15  1  0.189956  0.809542  0.189956  1
  In  In16  1  0.416136  0.749963  0.416136  1
  In  In17  1  0.416136  0.416136  0.749963  1
  In  In18  1  0.749963  0.416136  0.416136  1
  In  In19  1  0.416117  0.416117  0.416117  1
  Co  Co20  1  0.857195  0.857195  0.857195  1
  Pd  Pd21  1  0.856123  0.430188  0.856123  1
  Pd  Pd22  1  0.856123  0.856123  0.430188  1
  Pd  Pd23  1  0.430188  0.856123  0.856123  1
