# generated using pymatgen
data_Sc7Si16PdRu12
_symmetry_space_group_name_H-M   'P 1'
_cell_length_a   9.86370865
_cell_length_b   9.89412055
_cell_length_c   13.32404700
_cell_angle_alpha   54.08997508
_cell_angle_beta   54.10261796
_cell_angle_gamma   31.16451722
_symmetry_Int_Tables_number   1
_chemical_formula_structural   Sc7Si16PdRu12
_chemical_formula_sum   'Sc7 Si16 Pd1 Ru12'
_cell_volume   533.84072908
_cell_formula_units_Z   1
loop_
 _symmetry_equiv_pos_site_id
 _symmetry_equiv_pos_as_xyz
  1  'x, y, z'
loop_
 _atom_site_type_symbol
 _atom_site_label
 _atom_site_symmetry_multiplicity
 _atom_site_fract_x
 _atom_site_fract_y
 _atom_site_fract_z
 _atom_site_occupancy
  Sc  Sc0  1  0.711113  0.960945  0.858040  1
  Sc  Sc1  1  0.291119  0.038113  0.137849  1
  Sc  Sc2  1  0.439798  0.707721  0.850430  1
  Sc  Sc3  1  0.043054  0.287852  0.638188  1
  Sc  Sc4  1  0.559500  0.296790  0.142289  1
  Sc  Sc5  1  0.967518  0.704719  0.360597  1
  Sc  Sc6  1  0.688350  0.449011  0.363464  1
  Si  Si7  1  0.025834  0.748567  0.104419  1
  Si  Si8  1  0.619819  0.855986  0.596685  1
  Si  Si9  1  0.971758  0.253247  0.893756  1
  Si  Si10  1  0.384459  0.617981  0.248858  1
  Si  Si11  1  0.385857  0.143518  0.396659  1
  Si  Si12  1  0.574990  0.080087  0.066504  1
  Si  Si13  1  0.146407  0.379947  0.899911  1
  Si  Si14  1  0.245446  0.989636  0.389057  1
  Si  Si15  1  0.089969  0.576100  0.569273  1
  Si  Si16  1  0.427889  0.916857  0.931762  1
  Si  Si17  1  0.132473  0.865426  0.747298  1
  Si  Si18  1  0.731632  0.046375  0.601588  1
  Si  Si19  1  0.874494  0.124528  0.251079  1
  Si  Si20  1  0.615875  0.383602  0.744643  1
  Si  Si21  1  0.918596  0.426308  0.433983  1
  Si  Si22  1  0.859708  0.610832  0.100399  1
  Pd  Pd23  1  0.277861  0.546841  0.683796  1
  Ru  Ru24  1  0.141803  0.898005  0.085346  1
  Ru  Ru25  1  0.168998  0.354033  0.217667  1
  Ru  Ru26  1  0.354750  0.162842  0.716657  1
  Ru  Ru27  1  0.836999  0.641697  0.780153  1
  Ru  Ru28  1  0.505858  0.249638  0.429868  1
  Ru  Ru29  1  0.856607  0.104798  0.910690  1
  Ru  Ru30  1  0.649664  0.829841  0.281622  1
  Ru  Ru31  1  0.246654  0.508149  0.935982  1
  Ru  Ru32  1  0.755922  0.486946  0.067287  1
  Ru  Ru33  1  0.103404  0.860650  0.414826  1
  Ru  Ru34  1  0.904596  0.135967  0.582939  1
  Ru  Ru35  1  0.491225  0.756445  0.566440  1
