# generated using pymatgen
data_Pr5Y6In9Ir4
_symmetry_space_group_name_H-M   'P 1'
_cell_length_a   13.19362335
_cell_length_b   13.19362579
_cell_length_c   3.82335100
_cell_angle_alpha   90.00000000
_cell_angle_beta   90.00000000
_cell_angle_gamma   111.46090432
_symmetry_Int_Tables_number   1
_chemical_formula_structural   Pr5Y6In9Ir4
_chemical_formula_sum   'Pr5 Y6 In9 Ir4'
_cell_volume   619.39390911
_cell_formula_units_Z   1
loop_
 _symmetry_equiv_pos_site_id
 _symmetry_equiv_pos_as_xyz
  1  'x, y, z'
loop_
 _atom_site_type_symbol
 _atom_site_label
 _atom_site_symmetry_multiplicity
 _atom_site_fract_x
 _atom_site_fract_y
 _atom_site_fract_z
 _atom_site_occupancy
  Pr  Pr0  1  0.500000  0.500000  0.500000  1
  Pr  Pr1  1  0.127995  0.872003  0.500000  1
  Pr  Pr2  1  0.872005  0.127997  0.500000  1
  Pr  Pr3  1  0.340002  0.659997  0.500000  1
  Pr  Pr4  1  0.659998  0.340003  0.500000  1
  Y  Y5  1  0.813448  0.813448  0.500000  1
  Y  Y6  1  0.186552  0.186552  0.500000  1
  Y  Y7  1  0.580994  0.918553  0.500000  1
  Y  Y8  1  0.419006  0.081447  0.500000  1
  Y  Y9  1  0.918553  0.580994  0.500000  1
  Y  Y10  1  0.081447  0.419006  0.500000  1
  In  In11  1  0.345274  0.870108  0.000000  1
  In  In12  1  0.654726  0.129892  0.000000  1
  In  In13  1  0.870108  0.345274  0.000000  1
  In  In14  1  0.129892  0.654726  0.000000  1
  In  In15  1  0.582027  0.723400  0.000000  1
  In  In16  1  0.417973  0.276600  0.000000  1
  In  In17  1  0.723400  0.582027  0.000000  1
  In  In18  1  0.276600  0.417973  0.000000  1
  In  In19  1  0.000000  0.000000  0.000000  1
  Ir  Ir20  1  0.745642  0.950273  0.000000  1
  Ir  Ir21  1  0.254358  0.049727  0.000000  1
  Ir  Ir22  1  0.950271  0.745642  0.000000  1
  Ir  Ir23  1  0.049729  0.254358  0.000000  1
