# generated using pymatgen
data_Ti22Nb2P8H
_symmetry_space_group_name_H-M   'P 1'
_cell_length_a   5.00061200
_cell_length_b   9.95495080
_cell_length_c   9.98077393
_cell_angle_alpha   90.09043958
_cell_angle_beta   90.00000000
_cell_angle_gamma   90.00000000
_symmetry_Int_Tables_number   1
_chemical_formula_structural   Ti22Nb2P8H
_chemical_formula_sum   'Ti22 Nb2 P8 H1'
_cell_volume   496.85075506
_cell_formula_units_Z   1
loop_
 _symmetry_equiv_pos_site_id
 _symmetry_equiv_pos_as_xyz
  1  'x, y, z'
loop_
 _atom_site_type_symbol
 _atom_site_label
 _atom_site_symmetry_multiplicity
 _atom_site_fract_x
 _atom_site_fract_y
 _atom_site_fract_z
 _atom_site_occupancy
  Ti  Ti0  1  0.287927  0.584121  0.892599  1
  Ti  Ti1  1  0.287927  0.415879  0.107401  1
  Ti  Ti2  1  0.220642  0.109942  0.585663  1
  Ti  Ti3  1  0.220642  0.890058  0.414337  1
  Ti  Ti4  1  0.713011  0.913404  0.610134  1
  Ti  Ti5  1  0.713011  0.086596  0.389866  1
  Ti  Ti6  1  0.972799  0.028842  0.861212  1
  Ti  Ti7  1  0.972799  0.971158  0.138788  1
  Ti  Ti8  1  0.473631  0.640575  0.528194  1
  Ti  Ti9  1  0.473631  0.359425  0.471806  1
  Ti  Ti10  1  0.030977  0.472508  0.638686  1
  Ti  Ti11  1  0.030977  0.527492  0.361314  1
  Ti  Ti12  1  0.529965  0.860374  0.971021  1
  Ti  Ti13  1  0.529965  0.139626  0.028979  1
  Ti  Ti14  1  0.264682  0.284261  0.819458  1
  Ti  Ti15  1  0.264682  0.715739  0.180542  1
  Ti  Ti16  1  0.764409  0.680909  0.783410  1
  Ti  Ti17  1  0.764409  0.319091  0.216590  1
  Ti  Ti18  1  0.741229  0.217285  0.681948  1
  Ti  Ti19  1  0.741229  0.782715  0.318052  1
  Ti  Ti20  1  0.238955  0.817769  0.717909  1
  Ti  Ti21  1  0.238955  0.182231  0.282091  1
  Nb  Nb22  1  0.788582  0.394120  0.914994  1
  Nb  Nb23  1  0.788582  0.605880  0.085006  1
  P  P24  1  0.466301  0.040538  0.793429  1
  P  P25  1  0.466301  0.959462  0.206571  1
  P  P26  1  0.966473  0.706480  0.540603  1
  P  P27  1  0.966473  0.293520  0.459397  1
  P  P28  1  0.535090  0.460653  0.704350  1
  P  P29  1  0.535090  0.539347  0.295650  1
  P  P30  1  0.040099  0.794485  0.958232  1
  P  P31  1  0.040099  0.205515  0.041768  1
  H  H32  1  0.966055  0.000000  0.500000  1
