# generated using pymatgen
data_TmLu5TcBi2
_symmetry_space_group_name_H-M   'P 1'
_cell_length_a   8.12811000
_cell_length_b   8.11911611
_cell_length_c   4.26157100
_cell_angle_alpha   90.00000000
_cell_angle_beta   90.00000000
_cell_angle_gamma   120.03665874
_symmetry_Int_Tables_number   1
_chemical_formula_structural   TmLu5TcBi2
_chemical_formula_sum   'Tm1 Lu5 Tc1 Bi2'
_cell_volume   243.46589808
_cell_formula_units_Z   1
loop_
 _symmetry_equiv_pos_site_id
 _symmetry_equiv_pos_as_xyz
  1  'x, y, z'
loop_
 _atom_site_type_symbol
 _atom_site_label
 _atom_site_symmetry_multiplicity
 _atom_site_fract_x
 _atom_site_fract_y
 _atom_site_fract_z
 _atom_site_occupancy
  Tm  Tm0  1  0.614277  0.000000  0.000000  1
  Lu  Lu1  1  0.232517  0.000000  0.500000  1
  Lu  Lu2  1  0.000129  0.231655  0.500000  1
  Lu  Lu3  1  0.768474  0.768345  0.500000  1
  Lu  Lu4  1  0.999577  0.616139  0.000000  1
  Lu  Lu5  1  0.383437  0.383861  0.000000  1
  Tc  Tc6  1  0.002278  0.000000  0.000000  1
  Bi  Bi7  1  0.332693  0.666076  0.500000  1
  Bi  Bi8  1  0.666618  0.333924  0.500000  1
