# generated using pymatgen
data_Nd10ZnBi6P
_symmetry_space_group_name_H-M   'P 1'
_cell_length_a   9.66902400
_cell_length_b   9.66902314
_cell_length_c   6.60319500
_cell_angle_alpha   90.00000000
_cell_angle_beta   90.00000000
_cell_angle_gamma   119.99999609
_symmetry_Int_Tables_number   1
_chemical_formula_structural   Nd10ZnBi6P
_chemical_formula_sum   'Nd10 Zn1 Bi6 P1'
_cell_volume   534.62591845
_cell_formula_units_Z   1
loop_
 _symmetry_equiv_pos_site_id
 _symmetry_equiv_pos_as_xyz
  1  'x, y, z'
loop_
 _atom_site_type_symbol
 _atom_site_label
 _atom_site_symmetry_multiplicity
 _atom_site_fract_x
 _atom_site_fract_y
 _atom_site_fract_z
 _atom_site_occupancy
  Nd  Nd0  1  0.666667  0.333333  0.000000  1
  Nd  Nd1  1  0.333333  0.666667  0.000000  1
  Nd  Nd2  1  0.333333  0.666667  0.500000  1
  Nd  Nd3  1  0.666667  0.333333  0.500000  1
  Nd  Nd4  1  0.745932  0.745932  0.758589  1
  Nd  Nd5  1  0.254068  0.000000  0.758589  1
  Nd  Nd6  1  0.000000  0.254068  0.758589  1
  Nd  Nd7  1  0.254068  0.254068  0.241411  1
  Nd  Nd8  1  0.745932  0.000000  0.241411  1
  Nd  Nd9  1  0.000000  0.745932  0.241411  1
  Zn  Zn10  1  0.000000  0.000000  0.500000  1
  Bi  Bi11  1  0.388037  0.388037  0.746973  1
  Bi  Bi12  1  0.611963  0.000000  0.746973  1
  Bi  Bi13  1  0.000000  0.611963  0.746973  1
  Bi  Bi14  1  0.611963  0.611963  0.253027  1
  Bi  Bi15  1  0.388037  0.000000  0.253027  1
  Bi  Bi16  1  0.000000  0.388037  0.253027  1
  P  P17  1  0.000000  0.000000  0.000000  1
