# generated using pymatgen
data_La4Yb5Pd6
_symmetry_space_group_name_H-M   'P 1'
_cell_length_a   7.72960476
_cell_length_b   7.70983604
_cell_length_c   7.72914029
_cell_angle_alpha   70.89530875
_cell_angle_beta   70.99205028
_cell_angle_gamma   70.85766773
_symmetry_Int_Tables_number   1
_chemical_formula_structural   La4Yb5Pd6
_chemical_formula_sum   'La4 Yb5 Pd6'
_cell_volume   398.68219242
_cell_formula_units_Z   1
loop_
 _symmetry_equiv_pos_site_id
 _symmetry_equiv_pos_as_xyz
  1  'x, y, z'
loop_
 _atom_site_type_symbol
 _atom_site_label
 _atom_site_symmetry_multiplicity
 _atom_site_fract_x
 _atom_site_fract_y
 _atom_site_fract_z
 _atom_site_occupancy
  La  La0  1  0.398067  0.665542  0.156258  1
  La  La1  1  0.847259  0.600609  0.334204  1
  La  La2  1  0.333531  0.847460  0.603461  1
  La  La3  1  0.601207  0.330960  0.840930  1
  Yb  Yb4  1  0.996825  0.006089  0.999899  1
  Yb  Yb5  1  0.803900  0.801869  0.798650  1
  Yb  Yb6  1  0.196158  0.195228  0.195420  1
  Yb  Yb7  1  0.155091  0.395455  0.671409  1
  Yb  Yb8  1  0.672148  0.155517  0.396305  1
  Pd  Pd9  1  0.953908  0.165321  0.585634  1
  Pd  Pd10  1  0.588125  0.954885  0.166147  1
  Pd  Pd11  1  0.162847  0.584734  0.956310  1
  Pd  Pd12  1  0.046084  0.839513  0.412395  1
  Pd  Pd13  1  0.410246  0.043192  0.839822  1
  Pd  Pd14  1  0.834605  0.413627  0.043156  1
