# generated using pymatgen
data_La4YbGa3
_symmetry_space_group_name_H-M   'P 1'
_cell_length_a   8.00147900
_cell_length_b   8.00147900
_cell_length_c   14.72264200
_cell_angle_alpha   90.00000000
_cell_angle_beta   90.00000000
_cell_angle_gamma   90.00000000
_symmetry_Int_Tables_number   1
_chemical_formula_structural   La4YbGa3
_chemical_formula_sum   'La16 Yb4 Ga12'
_cell_volume   942.59751681
_cell_formula_units_Z   4
loop_
 _symmetry_equiv_pos_site_id
 _symmetry_equiv_pos_as_xyz
  1  'x, y, z'
loop_
 _atom_site_type_symbol
 _atom_site_label
 _atom_site_symmetry_multiplicity
 _atom_site_fract_x
 _atom_site_fract_y
 _atom_site_fract_z
 _atom_site_occupancy
  La  La0  1  0.823064  0.828159  0.601295  1
  La  La1  1  0.176936  0.828159  0.101295  1
  La  La2  1  0.171841  0.823064  0.398705  1
  La  La3  1  0.828159  0.176936  0.398705  1
  La  La4  1  0.676936  0.671841  0.398705  1
  La  La5  1  0.671841  0.323064  0.601295  1
  La  La6  1  0.328159  0.676936  0.601295  1
  La  La7  1  0.671841  0.676936  0.101295  1
  La  La8  1  0.676936  0.328159  0.898705  1
  La  La9  1  0.828159  0.823064  0.898705  1
  La  La10  1  0.323064  0.328159  0.398705  1
  La  La11  1  0.176936  0.171841  0.601295  1
  La  La12  1  0.823064  0.171841  0.101295  1
  La  La13  1  0.323064  0.671841  0.898705  1
  La  La14  1  0.328159  0.323064  0.101295  1
  La  La15  1  0.171841  0.176936  0.898705  1
  Yb  Yb16  1  0.000000  0.500000  0.743597  1
  Yb  Yb17  1  0.000000  0.500000  0.243597  1
  Yb  Yb18  1  0.500000  0.000000  0.256403  1
  Yb  Yb19  1  0.500000  0.000000  0.756403  1
  Ga  Ga20  1  0.616353  0.383647  0.250000  1
  Ga  Ga21  1  0.116353  0.883647  0.750000  1
  Ga  Ga22  1  0.383647  0.383647  0.750000  1
  Ga  Ga23  1  0.383647  0.616353  0.250000  1
  Ga  Ga24  1  0.883647  0.883647  0.250000  1
  Ga  Ga25  1  0.616353  0.616353  0.750000  1
  Ga  Ga26  1  0.000000  0.500000  0.503507  1
  Ga  Ga27  1  0.883647  0.116353  0.750000  1
  Ga  Ga28  1  0.500000  0.000000  0.496493  1
  Ga  Ga29  1  0.500000  0.000000  0.996493  1
  Ga  Ga30  1  0.116353  0.116353  0.250000  1
  Ga  Ga31  1  0.000000  0.500000  0.003507  1
