# generated using pymatgen
data_Ac4Cd5Hg3
_symmetry_space_group_name_H-M   'P 1'
_cell_length_a   5.18719100
_cell_length_b   8.07347579
_cell_length_c   8.51910529
_cell_angle_alpha   89.72568293
_cell_angle_beta   90.00000000
_cell_angle_gamma   90.00000000
_symmetry_Int_Tables_number   1
_chemical_formula_structural   Ac4Cd5Hg3
_chemical_formula_sum   'Ac4 Cd5 Hg3'
_cell_volume   356.76463339
_cell_formula_units_Z   1
loop_
 _symmetry_equiv_pos_site_id
 _symmetry_equiv_pos_as_xyz
  1  'x, y, z'
loop_
 _atom_site_type_symbol
 _atom_site_label
 _atom_site_symmetry_multiplicity
 _atom_site_fract_x
 _atom_site_fract_y
 _atom_site_fract_z
 _atom_site_occupancy
  Ac  Ac0  1  0.000000  0.252096  0.530794  1
  Ac  Ac1  1  0.499999  0.748343  0.037862  1
  Ac  Ac2  1  0.499999  0.243896  0.967581  1
  Ac  Ac3  1  0.000000  0.754094  0.463488  1
  Cd  Cd4  1  0.000000  0.550530  0.833132  1
  Cd  Cd5  1  0.000000  0.939344  0.834046  1
  Cd  Cd6  1  0.499999  0.059678  0.335776  1
  Cd  Cd7  1  0.499999  0.554495  0.669246  1
  Cd  Cd8  1  0.000000  0.445307  0.162440  1
  Hg  Hg9  1  0.000000  0.049797  0.164150  1
  Hg  Hg10  1  0.499999  0.949823  0.665966  1
  Hg  Hg11  1  0.499999  0.452598  0.335516  1
