# generated using pymatgen
data_Er6Co14Si11PIr4
_symmetry_space_group_name_H-M   'P 1'
_cell_length_a   3.79734300
_cell_length_b   10.76561260
_cell_length_c   12.48416781
_cell_angle_alpha   89.92171796
_cell_angle_beta   90.00000000
_cell_angle_gamma   90.00000000
_symmetry_Int_Tables_number   1
_chemical_formula_structural   Er6Co14Si11PIr4
_chemical_formula_sum   'Er6 Co14 Si11 P1 Ir4'
_cell_volume   510.36133797
_cell_formula_units_Z   1
loop_
 _symmetry_equiv_pos_site_id
 _symmetry_equiv_pos_as_xyz
  1  'x, y, z'
loop_
 _atom_site_type_symbol
 _atom_site_label
 _atom_site_symmetry_multiplicity
 _atom_site_fract_x
 _atom_site_fract_y
 _atom_site_fract_z
 _atom_site_occupancy
  Er  Er0  1  0.750000  0.250855  0.478739  1
  Er  Er1  1  0.250000  0.749406  0.521766  1
  Er  Er2  1  0.250000  0.935533  0.794693  1
  Er  Er3  1  0.250000  0.563411  0.796157  1
  Er  Er4  1  0.750000  0.064887  0.203584  1
  Er  Er5  1  0.750000  0.435232  0.206548  1
  Co  Co6  1  0.750000  0.255753  0.013504  1
  Co  Co7  1  0.250000  0.748935  0.981718  1
  Co  Co8  1  0.250000  0.420391  0.002787  1
  Co  Co9  1  0.250000  0.080813  0.008379  1
  Co  Co10  1  0.750000  0.578764  0.991412  1
  Co  Co11  1  0.750000  0.919909  0.991860  1
  Co  Co12  1  0.250000  0.445747  0.571657  1
  Co  Co13  1  0.250000  0.053942  0.569226  1
  Co  Co14  1  0.750000  0.552981  0.431891  1
  Co  Co15  1  0.750000  0.946039  0.429886  1
  Co  Co16  1  0.250000  0.866770  0.289704  1
  Co  Co17  1  0.250000  0.631676  0.290315  1
  Co  Co18  1  0.750000  0.132873  0.709961  1
  Co  Co19  1  0.750000  0.368122  0.717446  1
  Si  Si20  1  0.250000  0.251633  0.112057  1
  Si  Si21  1  0.750000  0.750310  0.886257  1
  Si  Si22  1  0.250000  0.250167  0.656822  1
  Si  Si23  1  0.750000  0.749350  0.342746  1
  Si  Si24  1  0.250000  0.452226  0.388299  1
  Si  Si25  1  0.250000  0.047096  0.386013  1
  Si  Si26  1  0.750000  0.545883  0.614955  1
  Si  Si27  1  0.750000  0.953120  0.612735  1
  Si  Si28  1  0.250000  0.899681  0.103534  1
  Si  Si29  1  0.250000  0.598907  0.103980  1
  Si  Si30  1  0.750000  0.099509  0.896271  1
  P  P31  1  0.750000  0.405678  0.897662  1
  Ir  Ir32  1  0.250000  0.245539  0.846924  1
  Ir  Ir33  1  0.750000  0.748785  0.151802  1
  Ir  Ir34  1  0.250000  0.250106  0.303328  1
  Ir  Ir35  1  0.750000  0.749973  0.695383  1
