# generated using pymatgen
data_Mn9Nb12Re3N4
_symmetry_space_group_name_H-M   'P 1'
_cell_length_a   8.15890112
_cell_length_b   8.15889952
_cell_length_c   8.15890056
_cell_angle_alpha   60.22618995
_cell_angle_beta   60.22619165
_cell_angle_gamma   60.22619136
_symmetry_Int_Tables_number   1
_chemical_formula_structural   Mn9Nb12Re3N4
_chemical_formula_sum   'Mn9 Nb12 Re3 N4'
_cell_volume   386.00970398
_cell_formula_units_Z   1
loop_
 _symmetry_equiv_pos_site_id
 _symmetry_equiv_pos_as_xyz
  1  'x, y, z'
loop_
 _atom_site_type_symbol
 _atom_site_label
 _atom_site_symmetry_multiplicity
 _atom_site_fract_x
 _atom_site_fract_y
 _atom_site_fract_z
 _atom_site_occupancy
  Mn  Mn0  1  0.625000  0.625000  0.625000  1
  Mn  Mn1  1  0.732885  0.426532  0.426532  1
  Mn  Mn2  1  0.426532  0.732885  0.426532  1
  Mn  Mn3  1  0.426532  0.426532  0.732885  1
  Mn  Mn4  1  0.421680  0.421680  0.421680  1
  Mn  Mn5  1  0.517115  0.823468  0.823468  1
  Mn  Mn6  1  0.823468  0.517115  0.823468  1
  Mn  Mn7  1  0.823468  0.823468  0.517115  1
  Mn  Mn8  1  0.828320  0.828320  0.828320  1
  Nb  Nb9  1  0.806460  0.806460  0.195133  1
  Nb  Nb10  1  0.192230  0.192230  0.807859  1
  Nb  Nb11  1  0.806460  0.195133  0.806460  1
  Nb  Nb12  1  0.192230  0.807859  0.192230  1
  Nb  Nb13  1  0.195133  0.806460  0.806460  1
  Nb  Nb14  1  0.807859  0.192230  0.192230  1
  Nb  Nb15  1  0.443540  0.443540  0.054867  1
  Nb  Nb16  1  0.057770  0.057770  0.442141  1
  Nb  Nb17  1  0.443540  0.054867  0.443540  1
  Nb  Nb18  1  0.057770  0.442141  0.057770  1
  Nb  Nb19  1  0.054867  0.443540  0.443540  1
  Nb  Nb20  1  0.442141  0.057770  0.057770  1
  Re  Re21  1  0.125000  0.625000  0.625000  1
  Re  Re22  1  0.625000  0.125000  0.625000  1
  Re  Re23  1  0.625000  0.625000  0.125000  1
  N  N24  1  0.625000  0.125000  0.125000  1
  N  N25  1  0.125000  0.625000  0.125000  1
  N  N26  1  0.125000  0.125000  0.625000  1
  N  N27  1  0.125000  0.125000  0.125000  1
