# generated using pymatgen
data_Cs2Sm8Y2Os2Br17
_symmetry_space_group_name_H-M   'P 1'
_cell_length_a   9.47128918
_cell_length_b   11.06571353
_cell_length_c   11.03088910
_cell_angle_alpha   107.61334386
_cell_angle_beta   93.77587506
_cell_angle_gamma   93.76845311
_symmetry_Int_Tables_number   1
_chemical_formula_structural   Cs2Sm8Y2Os2Br17
_chemical_formula_sum   'Cs2 Sm8 Y2 Os2 Br17'
_cell_volume   1095.05154573
_cell_formula_units_Z   1
loop_
 _symmetry_equiv_pos_site_id
 _symmetry_equiv_pos_as_xyz
  1  'x, y, z'
loop_
 _atom_site_type_symbol
 _atom_site_label
 _atom_site_symmetry_multiplicity
 _atom_site_fract_x
 _atom_site_fract_y
 _atom_site_fract_z
 _atom_site_occupancy
  Cs  Cs0  1  0.002165  0.822330  0.179356  1
  Cs  Cs1  1  0.001422  0.179554  0.821663  1
  Sm  Sm2  1  0.821279  0.293052  0.291184  1
  Sm  Sm3  1  0.307025  0.430751  0.429984  1
  Sm  Sm4  1  0.426810  0.794540  0.490182  1
  Sm  Sm5  1  0.573632  0.197338  0.511768  1
  Sm  Sm6  1  0.694191  0.563785  0.564411  1
  Sm  Sm7  1  0.172846  0.711384  0.711690  1
  Sm  Sm8  1  0.425267  0.488965  0.794931  1
  Sm  Sm9  1  0.563961  0.834366  0.837755  1
  Y  Y10  1  0.439228  0.170067  0.168780  1
  Y  Y11  1  0.573259  0.510825  0.199857  1
  Os  Os12  1  0.568336  0.360574  0.360816  1
  Os  Os13  1  0.429950  0.640174  0.640953  1
  Br  Br14  1  0.578347  0.682548  0.021957  1
  Br  Br15  1  0.704425  0.069786  0.068749  1
  Br  Br16  1  0.849636  0.452606  0.119809  1
  Br  Br17  1  0.134628  0.207760  0.203957  1
  Br  Br18  1  0.289687  0.604241  0.251136  1
  Br  Br19  1  0.419347  0.978988  0.311220  1
  Br  Br20  1  0.711878  0.743425  0.389909  1
  Br  Br21  1  0.855292  0.120773  0.449799  1
  Br  Br22  1  0.000119  0.501242  0.499599  1
  Br  Br23  1  0.146010  0.878178  0.549377  1
  Br  Br24  1  0.284589  0.252561  0.604370  1
  Br  Br25  1  0.580559  0.017796  0.687560  1
  Br  Br26  1  0.714136  0.393349  0.745726  1
  Br  Br27  1  0.869964  0.795750  0.796708  1
  Br  Br28  1  0.145173  0.550360  0.879425  1
  Br  Br29  1  0.293976  0.937362  0.936602  1
  Br  Br30  1  0.422867  0.315569  0.980767  1
