# generated using pymatgen
data_Yb11Ag12Ge12Pb
_symmetry_space_group_name_H-M   'P 1'
_cell_length_a   4.57500400
_cell_length_b   7.85549713
_cell_length_c   21.46693658
_cell_angle_alpha   89.80219628
_cell_angle_beta   90.00000000
_cell_angle_gamma   90.00000000
_symmetry_Int_Tables_number   1
_chemical_formula_structural   Yb11Ag12Ge12Pb
_chemical_formula_sum   'Yb11 Ag12 Ge12 Pb1'
_cell_volume   771.49415086
_cell_formula_units_Z   1
loop_
 _symmetry_equiv_pos_site_id
 _symmetry_equiv_pos_as_xyz
  1  'x, y, z'
loop_
 _atom_site_type_symbol
 _atom_site_label
 _atom_site_symmetry_multiplicity
 _atom_site_fract_x
 _atom_site_fract_y
 _atom_site_fract_z
 _atom_site_occupancy
  Yb  Yb0  1  0.250000  0.219305  0.000873  1
  Yb  Yb1  1  0.250000  0.278658  0.499827  1
  Yb  Yb2  1  0.750000  0.781777  0.999375  1
  Yb  Yb3  1  0.750000  0.721473  0.500122  1
  Yb  Yb4  1  0.250000  0.210227  0.333666  1
  Yb  Yb5  1  0.250000  0.295515  0.833213  1
  Yb  Yb6  1  0.750000  0.791275  0.667775  1
  Yb  Yb7  1  0.750000  0.712206  0.166437  1
  Yb  Yb8  1  0.250000  0.207849  0.665996  1
  Yb  Yb9  1  0.250000  0.286485  0.167161  1
  Yb  Yb10  1  0.750000  0.788349  0.333246  1
  Ag  Ag11  1  0.250000  0.912636  0.761812  1
  Ag  Ag12  1  0.250000  0.586262  0.261604  1
  Ag  Ag13  1  0.750000  0.087264  0.237868  1
  Ag  Ag14  1  0.750000  0.414999  0.735997  1
  Ag  Ag15  1  0.250000  0.921096  0.905292  1
  Ag  Ag16  1  0.250000  0.580732  0.405696  1
  Ag  Ag17  1  0.750000  0.081813  0.094010  1
  Ag  Ag18  1  0.750000  0.417663  0.594343  1
  Ag  Ag19  1  0.250000  0.917157  0.564630  1
  Ag  Ag20  1  0.250000  0.584326  0.068937  1
  Ag  Ag21  1  0.750000  0.082017  0.435059  1
  Ag  Ag22  1  0.750000  0.413998  0.937334  1
  Ge  Ge23  1  0.250000  0.577344  0.721327  1
  Ge  Ge24  1  0.250000  0.917279  0.227710  1
  Ge  Ge25  1  0.750000  0.417679  0.271768  1
  Ge  Ge26  1  0.750000  0.088374  0.772114  1
  Ge  Ge27  1  0.250000  0.912740  0.102681  1
  Ge  Ge28  1  0.250000  0.587705  0.598373  1
  Ge  Ge29  1  0.750000  0.091962  0.897951  1
  Ge  Ge30  1  0.750000  0.411483  0.396512  1
  Ge  Ge31  1  0.250000  0.588835  0.934164  1
  Ge  Ge32  1  0.250000  0.908960  0.427164  1
  Ge  Ge33  1  0.750000  0.411739  0.071945  1
  Ge  Ge34  1  0.750000  0.090434  0.572534  1
  Pb  Pb35  1  0.750000  0.702383  0.835484  1
