# generated using pymatgen
data_Ca2Nd(SnRh)2
_symmetry_space_group_name_H-M   'P 1'
_cell_length_a   5.91393085
_cell_length_b   8.28766694
_cell_length_c   14.15659048
_cell_angle_alpha   90.04289539
_cell_angle_beta   90.43125450
_cell_angle_gamma   89.83815254
_symmetry_Int_Tables_number   1
_chemical_formula_structural   Ca2Nd(SnRh)2
_chemical_formula_sum   'Ca8 Nd4 Sn8 Rh8'
_cell_volume   693.82996317
_cell_formula_units_Z   4
loop_
 _symmetry_equiv_pos_site_id
 _symmetry_equiv_pos_as_xyz
  1  'x, y, z'
loop_
 _atom_site_type_symbol
 _atom_site_label
 _atom_site_symmetry_multiplicity
 _atom_site_fract_x
 _atom_site_fract_y
 _atom_site_fract_z
 _atom_site_occupancy
  Ca  Ca0  1  0.631918  0.252743  0.248765  1
  Ca  Ca1  1  0.369055  0.745668  0.750281  1
  Ca  Ca2  1  0.366130  0.749960  0.250801  1
  Ca  Ca3  1  0.635060  0.251395  0.749960  1
  Ca  Ca4  1  0.156735  0.400211  0.097000  1
  Ca  Ca5  1  0.843731  0.598999  0.903477  1
  Ca  Ca6  1  0.841206  0.604612  0.595478  1
  Ca  Ca7  1  0.840125  0.895715  0.403607  1
  Nd  Nd8  1  0.165606  0.396261  0.405975  1
  Nd  Nd9  1  0.167455  0.102395  0.595268  1
  Nd  Nd10  1  0.169970  0.109766  0.906712  1
  Nd  Nd11  1  0.829515  0.891750  0.092519  1
  Sn  Sn12  1  0.133623  0.098393  0.249139  1
  Sn  Sn13  1  0.863562  0.901965  0.750921  1
  Sn  Sn14  1  0.862584  0.598713  0.250700  1
  Sn  Sn15  1  0.135953  0.400167  0.749240  1
  Sn  Sn16  1  0.656775  0.252869  0.001486  1
  Sn  Sn17  1  0.343366  0.747402  0.998584  1
  Sn  Sn18  1  0.351839  0.751138  0.499529  1
  Sn  Sn19  1  0.661339  0.249152  0.500474  1
  Rh  Rh20  1  0.375086  0.038205  0.091854  1
  Rh  Rh21  1  0.626118  0.960121  0.909243  1
  Rh  Rh22  1  0.621013  0.962672  0.592928  1
  Rh  Rh23  1  0.619288  0.535948  0.407391  1
  Rh  Rh24  1  0.365866  0.045602  0.410924  1
  Rh  Rh25  1  0.366514  0.456601  0.587857  1
  Rh  Rh26  1  0.371980  0.456959  0.909969  1
  Rh  Rh27  1  0.628587  0.544619  0.089917  1
