# generated using pymatgen
data_Ba4Pr5Bi3S16
_symmetry_space_group_name_H-M   'P 1'
_cell_length_a   4.20680400
_cell_length_b   12.47811912
_cell_length_c   14.99874982
_cell_angle_alpha   89.89027102
_cell_angle_beta   90.00000000
_cell_angle_gamma   90.00000000
_symmetry_Int_Tables_number   1
_chemical_formula_structural   Ba4Pr5Bi3S16
_chemical_formula_sum   'Ba4 Pr5 Bi3 S16'
_cell_volume   787.32795187
_cell_formula_units_Z   1
loop_
 _symmetry_equiv_pos_site_id
 _symmetry_equiv_pos_as_xyz
  1  'x, y, z'
loop_
 _atom_site_type_symbol
 _atom_site_label
 _atom_site_symmetry_multiplicity
 _atom_site_fract_x
 _atom_site_fract_y
 _atom_site_fract_z
 _atom_site_occupancy
  Ba  Ba0  1  0.250000  0.755095  0.341226  1
  Ba  Ba1  1  0.250000  0.253674  0.161649  1
  Ba  Ba2  1  0.750000  0.244945  0.657708  1
  Ba  Ba3  1  0.750000  0.743859  0.840378  1
  Pr  Pr4  1  0.250000  0.423278  0.393301  1
  Pr  Pr5  1  0.250000  0.921669  0.106039  1
  Pr  Pr6  1  0.750000  0.577546  0.606883  1
  Pr  Pr7  1  0.750000  0.075419  0.891778  1
  Pr  Pr8  1  0.250000  0.425099  0.897504  1
  Bi  Bi9  1  0.250000  0.926030  0.602830  1
  Bi  Bi10  1  0.750000  0.576256  0.104782  1
  Bi  Bi11  1  0.750000  0.072528  0.396688  1
  S  S12  1  0.250000  0.210483  0.824296  1
  S  S13  1  0.250000  0.711467  0.674263  1
  S  S14  1  0.750000  0.789457  0.176782  1
  S  S15  1  0.750000  0.289153  0.325652  1
  S  S16  1  0.250000  0.130001  0.524836  1
  S  S17  1  0.250000  0.632685  0.977242  1
  S  S18  1  0.750000  0.869413  0.474445  1
  S  S19  1  0.750000  0.370317  0.026216  1
  S  S20  1  0.250000  0.017209  0.283696  1
  S  S21  1  0.250000  0.519056  0.216462  1
  S  S22  1  0.750000  0.981808  0.714971  1
  S  S23  1  0.750000  0.484238  0.783273  1
  S  S24  1  0.250000  0.421037  0.580452  1
  S  S25  1  0.250000  0.920631  0.918220  1
  S  S26  1  0.750000  0.579218  0.418596  1
  S  S27  1  0.750000  0.078428  0.079836  1
