# generated using pymatgen
data_Hf6Mn6Co16Mo
_symmetry_space_group_name_H-M   'P 1'
_cell_length_a   8.14579130
_cell_length_b   8.14579186
_cell_length_c   8.14579100
_cell_angle_alpha   59.99999942
_cell_angle_beta   59.99999717
_cell_angle_gamma   59.99999567
_symmetry_Int_Tables_number   1
_chemical_formula_structural   Hf6Mn6Co16Mo
_chemical_formula_sum   'Hf6 Mn6 Co16 Mo1'
_cell_volume   382.19484719
_cell_formula_units_Z   1
loop_
 _symmetry_equiv_pos_site_id
 _symmetry_equiv_pos_as_xyz
  1  'x, y, z'
loop_
 _atom_site_type_symbol
 _atom_site_label
 _atom_site_symmetry_multiplicity
 _atom_site_fract_x
 _atom_site_fract_y
 _atom_site_fract_z
 _atom_site_occupancy
  Hf  Hf0  1  0.208516  0.791484  0.791484  1
  Hf  Hf1  1  0.791484  0.791484  0.208516  1
  Hf  Hf2  1  0.791484  0.208516  0.208516  1
  Hf  Hf3  1  0.208516  0.208516  0.791484  1
  Hf  Hf4  1  0.791484  0.208516  0.791484  1
  Hf  Hf5  1  0.208516  0.791484  0.208516  1
  Mn  Mn6  1  0.500000  0.000000  0.500000  1
  Mn  Mn7  1  0.500000  0.500000  0.000000  1
  Mn  Mn8  1  0.000000  0.000000  0.500000  1
  Mn  Mn9  1  0.000000  0.500000  0.000000  1
  Mn  Mn10  1  0.000000  0.500000  0.500000  1
  Mn  Mn11  1  0.500000  0.000000  0.000000  1
  Co  Co12  1  0.621863  0.621863  0.134413  1
  Co  Co13  1  0.173819  0.478543  0.173819  1
  Co  Co14  1  0.865587  0.378137  0.378137  1
  Co  Co15  1  0.521457  0.826181  0.826181  1
  Co  Co16  1  0.478543  0.173819  0.173819  1
  Co  Co17  1  0.826181  0.826181  0.521457  1
  Co  Co18  1  0.173819  0.173819  0.478543  1
  Co  Co19  1  0.134413  0.621863  0.621863  1
  Co  Co20  1  0.173819  0.173819  0.173819  1
  Co  Co21  1  0.378137  0.378137  0.865587  1
  Co  Co22  1  0.621863  0.621863  0.621863  1
  Co  Co23  1  0.378137  0.865587  0.378137  1
  Co  Co24  1  0.378137  0.378137  0.378137  1
  Co  Co25  1  0.826181  0.826181  0.826181  1
  Co  Co26  1  0.621863  0.134413  0.621863  1
  Co  Co27  1  0.826181  0.521457  0.826181  1
  Mo  Mo28  1  0.500000  0.500000  0.500000  1
