# generated using pymatgen
data_Tb10PdPb6S
_symmetry_space_group_name_H-M   'P 1'
_cell_length_a   9.22231400
_cell_length_b   9.22231332
_cell_length_c   6.77404500
_cell_angle_alpha   90.00000000
_cell_angle_beta   90.00000000
_cell_angle_gamma   119.99999526
_symmetry_Int_Tables_number   1
_chemical_formula_structural   Tb10PdPb6S
_chemical_formula_sum   'Tb10 Pd1 Pb6 S1'
_cell_volume   498.95170120
_cell_formula_units_Z   1
loop_
 _symmetry_equiv_pos_site_id
 _symmetry_equiv_pos_as_xyz
  1  'x, y, z'
loop_
 _atom_site_type_symbol
 _atom_site_label
 _atom_site_symmetry_multiplicity
 _atom_site_fract_x
 _atom_site_fract_y
 _atom_site_fract_z
 _atom_site_occupancy
  Tb  Tb0  1  0.246923  0.000000  0.240825  1
  Tb  Tb1  1  0.753077  0.000000  0.759175  1
  Tb  Tb2  1  0.000000  0.246923  0.240825  1
  Tb  Tb3  1  0.000000  0.753077  0.759175  1
  Tb  Tb4  1  0.753077  0.753077  0.240825  1
  Tb  Tb5  1  0.246923  0.246923  0.759175  1
  Tb  Tb6  1  0.333333  0.666667  0.000000  1
  Tb  Tb7  1  0.666667  0.333333  0.000000  1
  Tb  Tb8  1  0.666667  0.333333  0.500000  1
  Tb  Tb9  1  0.333333  0.666667  0.500000  1
  Pd  Pd10  1  0.000000  0.000000  0.500000  1
  Pb  Pb11  1  0.605413  0.000000  0.250169  1
  Pb  Pb12  1  0.394587  0.000000  0.749831  1
  Pb  Pb13  1  0.000000  0.605413  0.250169  1
  Pb  Pb14  1  0.000000  0.394587  0.749831  1
  Pb  Pb15  1  0.394587  0.394587  0.250169  1
  Pb  Pb16  1  0.605413  0.605413  0.749831  1
  S  S17  1  0.000000  0.000000  0.000000  1
