# generated using pymatgen
data_Er3AlSiRh2
_symmetry_space_group_name_H-M   'P 1'
_cell_length_a   5.48674600
_cell_length_b   7.84533700
_cell_length_c   13.16996100
_cell_angle_alpha   90.00000000
_cell_angle_beta   90.00000000
_cell_angle_gamma   90.00000000
_symmetry_Int_Tables_number   1
_chemical_formula_structural   Er3AlSiRh2
_chemical_formula_sum   'Er12 Al4 Si4 Rh8'
_cell_volume   566.90586261
_cell_formula_units_Z   4
loop_
 _symmetry_equiv_pos_site_id
 _symmetry_equiv_pos_as_xyz
  1  'x, y, z'
loop_
 _atom_site_type_symbol
 _atom_site_label
 _atom_site_symmetry_multiplicity
 _atom_site_fract_x
 _atom_site_fract_y
 _atom_site_fract_z
 _atom_site_occupancy
  Er  Er0  1  0.632920  0.259456  0.250000  1
  Er  Er1  1  0.367080  0.740544  0.750000  1
  Er  Er2  1  0.367080  0.759456  0.250000  1
  Er  Er3  1  0.632920  0.240544  0.750000  1
  Er  Er4  1  0.146714  0.398725  0.102919  1
  Er  Er5  1  0.853286  0.601275  0.897081  1
  Er  Er6  1  0.853286  0.601275  0.602919  1
  Er  Er7  1  0.853286  0.898725  0.397081  1
  Er  Er8  1  0.146714  0.398725  0.397081  1
  Er  Er9  1  0.146714  0.101275  0.602919  1
  Er  Er10  1  0.146714  0.101275  0.897081  1
  Er  Er11  1  0.853286  0.898725  0.102919  1
  Al  Al12  1  0.630307  0.250000  0.000000  1
  Al  Al13  1  0.369693  0.750000  0.000000  1
  Al  Al14  1  0.369693  0.750000  0.500000  1
  Al  Al15  1  0.630307  0.250000  0.500000  1
  Si  Si16  1  0.132234  0.112505  0.250000  1
  Si  Si17  1  0.867766  0.887495  0.750000  1
  Si  Si18  1  0.867766  0.612505  0.250000  1
  Si  Si19  1  0.132234  0.387495  0.750000  1
  Rh  Rh20  1  0.355764  0.030853  0.094523  1
  Rh  Rh21  1  0.644236  0.969147  0.905477  1
  Rh  Rh22  1  0.644236  0.969147  0.594523  1
  Rh  Rh23  1  0.644236  0.530853  0.405477  1
  Rh  Rh24  1  0.355764  0.030853  0.405477  1
  Rh  Rh25  1  0.355764  0.469147  0.594523  1
  Rh  Rh26  1  0.355764  0.469147  0.905477  1
  Rh  Rh27  1  0.644236  0.530853  0.094523  1
