# generated using pymatgen
data_Er2GaB2IrRu4
_symmetry_space_group_name_H-M   'P 1'
_cell_length_a   9.57342046
_cell_length_b   9.56363046
_cell_length_c   3.09243900
_cell_angle_alpha   90.00000000
_cell_angle_beta   90.00000000
_cell_angle_gamma   90.03546060
_symmetry_Int_Tables_number   1
_chemical_formula_structural   Er2GaB2IrRu4
_chemical_formula_sum   'Er4 Ga2 B4 Ir2 Ru8'
_cell_volume   283.13331790
_cell_formula_units_Z   2
loop_
 _symmetry_equiv_pos_site_id
 _symmetry_equiv_pos_as_xyz
  1  'x, y, z'
loop_
 _atom_site_type_symbol
 _atom_site_label
 _atom_site_symmetry_multiplicity
 _atom_site_fract_x
 _atom_site_fract_y
 _atom_site_fract_z
 _atom_site_occupancy
  Er  Er0  1  0.822459  0.323904  0.000000  1
  Er  Er1  1  0.177541  0.676096  0.000000  1
  Er  Er2  1  0.326229  0.174856  0.000000  1
  Er  Er3  1  0.673771  0.825144  0.000000  1
  Ga  Ga4  1  0.500000  0.500000  0.000000  1
  Ga  Ga5  1  0.000000  0.000000  0.000000  1
  B  B6  1  0.623197  0.123266  0.000000  1
  B  B7  1  0.376803  0.876734  0.000000  1
  B  B8  1  0.123897  0.379337  0.000000  1
  B  B9  1  0.876103  0.620663  0.000000  1
  Ir  Ir10  1  0.069214  0.217297  0.500000  1
  Ir  Ir11  1  0.930786  0.782703  0.500000  1
  Ru  Ru12  1  0.500000  0.000000  0.500000  1
  Ru  Ru13  1  0.000000  0.500000  0.500000  1
  Ru  Ru14  1  0.717759  0.569042  0.500000  1
  Ru  Ru15  1  0.282241  0.430958  0.500000  1
  Ru  Ru16  1  0.216844  0.931424  0.500000  1
  Ru  Ru17  1  0.783156  0.068576  0.500000  1
  Ru  Ru18  1  0.430786  0.717152  0.500000  1
  Ru  Ru19  1  0.569214  0.282848  0.500000  1
