# generated using pymatgen
data_DyTa3(PO4)6
_symmetry_space_group_name_H-M   'P 1'
_cell_length_a   8.87825729
_cell_length_b   9.14971370
_cell_length_c   8.87818000
_cell_angle_alpha   89.99769252
_cell_angle_beta   59.99907905
_cell_angle_gamma   119.02127197
_symmetry_Int_Tables_number   1
_chemical_formula_structural   DyTa3(PO4)6
_chemical_formula_sum   'Dy1 Ta3 P6 O24'
_cell_volume   517.36710784
_cell_formula_units_Z   1
loop_
 _symmetry_equiv_pos_site_id
 _symmetry_equiv_pos_as_xyz
  1  'x, y, z'
loop_
 _atom_site_type_symbol
 _atom_site_label
 _atom_site_symmetry_multiplicity
 _atom_site_fract_x
 _atom_site_fract_y
 _atom_site_fract_z
 _atom_site_occupancy
  Dy  Dy0  1  0.723463  0.085139  0.638212  1
  Ta  Ta1  1  0.284907  0.927240  0.357534  1
  Ta  Ta2  1  0.287073  0.430491  0.856454  1
  Ta  Ta3  1  0.715606  0.573327  0.142146  1
  P  P4  1  0.787317  0.748234  0.748231  1
  P  P5  1  0.481744  0.251202  0.536020  1
  P  P6  1  0.496657  0.748288  0.464355  1
  P  P7  1  0.233538  0.251281  0.230434  1
  P  P8  1  0.787344  0.251230  0.982174  1
  P  P9  1  0.212771  0.748258  0.038918  1
  O  O10  1  0.653809  0.908336  0.474579  1
  O  O11  1  0.994111  0.706335  0.099365  1
  O  O12  1  0.221020  0.583806  0.004770  1
  O  O13  1  0.227744  0.779527  0.205935  1
  O  O14  1  0.988073  0.276617  0.952846  1
  O  O15  1  0.792623  0.416379  0.025008  1
  O  O16  1  0.789704  0.238921  0.812925  1
  O  O17  1  0.805939  0.706494  0.906437  1
  O  O18  1  0.985563  0.779426  0.566248  1
  O  O19  1  0.636491  0.239110  0.550604  1
  O  O20  1  0.779779  0.908179  0.745391  1
  O  O21  1  0.588679  0.583700  0.774269  1
  O  O22  1  0.591219  0.085260  0.153306  1
  O  O23  1  0.598568  0.416284  0.376155  1
  O  O24  1  0.229441  0.276488  0.059088  1
  O  O25  1  0.335675  0.276527  0.711396  1
  O  O26  1  0.613083  0.706452  0.287597  1
  O  O27  1  0.340848  0.085142  0.505916  1
  O  O28  1  0.382960  0.908229  0.871429  1
  O  O29  1  0.358233  0.583839  0.637038  1
  O  O30  1  0.238728  0.085345  0.255536  1
  O  O31  1  0.441575  0.416508  0.182123  1
  O  O32  1  0.345804  0.779370  0.448091  1
  O  O33  1  0.052045  0.239039  0.397339  1
