# generated using pymatgen
data_Tb4ReOs6Ru
_symmetry_space_group_name_H-M   'P 1'
_cell_length_a   5.27315953
_cell_length_b   5.40476112
_cell_length_c   9.01646003
_cell_angle_alpha   90.00000230
_cell_angle_beta   89.99300729
_cell_angle_gamma   120.82906341
_symmetry_Int_Tables_number   1
_chemical_formula_structural   Tb4ReOs6Ru
_chemical_formula_sum   'Tb4 Re1 Os6 Ru1'
_cell_volume   220.66068401
_cell_formula_units_Z   1
loop_
 _symmetry_equiv_pos_site_id
 _symmetry_equiv_pos_as_xyz
  1  'x, y, z'
loop_
 _atom_site_type_symbol
 _atom_site_label
 _atom_site_symmetry_multiplicity
 _atom_site_fract_x
 _atom_site_fract_y
 _atom_site_fract_z
 _atom_site_occupancy
  Tb  Tb0  1  0.326821  0.663410  0.434107  1
  Tb  Tb1  1  0.655431  0.327715  0.564321  1
  Tb  Tb2  1  0.656649  0.328324  0.935655  1
  Tb  Tb3  1  0.328459  0.664230  0.066051  1
  Re  Re4  1  0.685553  0.842776  0.749050  1
  Os  Os5  1  0.975365  0.987682  0.499894  1
  Os  Os6  1  0.837452  0.168317  0.250567  1
  Os  Os7  1  0.837452  0.669134  0.250567  1
  Os  Os8  1  0.357389  0.178694  0.250806  1
  Os  Os9  1  0.181942  0.825836  0.749572  1
  Os  Os10  1  0.181942  0.356107  0.749572  1
  Ru  Ru11  1  0.975548  0.987774  0.999839  1
