# generated using pymatgen
data_Tm2UIn3Ir2Rh
_symmetry_space_group_name_H-M   'P 1'
_cell_length_a   7.53541901
_cell_length_b   7.76331097
_cell_length_c   3.75435400
_cell_angle_alpha   90.00000000
_cell_angle_beta   90.00000000
_cell_angle_gamma   121.00557090
_symmetry_Int_Tables_number   1
_chemical_formula_structural   Tm2UIn3Ir2Rh
_chemical_formula_sum   'Tm2 U1 In3 Ir2 Rh1'
_cell_volume   188.24776515
_cell_formula_units_Z   1
loop_
 _symmetry_equiv_pos_site_id
 _symmetry_equiv_pos_as_xyz
  1  'x, y, z'
loop_
 _atom_site_type_symbol
 _atom_site_label
 _atom_site_symmetry_multiplicity
 _atom_site_fract_x
 _atom_site_fract_y
 _atom_site_fract_z
 _atom_site_occupancy
  Tm  Tm0  1  0.595490  0.592936  0.500000  1
  Tm  Tm1  1  0.404510  0.997446  0.500000  1
  U  U2  1  0.000000  0.418830  0.500000  1
  In  In3  1  0.273240  0.259637  0.000000  1
  In  In4  1  0.000000  0.757481  0.000000  1
  In  In5  1  0.726760  0.986397  0.000000  1
  Ir  Ir6  1  0.297540  0.635896  0.000000  1
  Ir  Ir7  1  0.702460  0.338355  0.000000  1
  Rh  Rh8  1  0.000000  0.013021  0.500000  1
