# generated using pymatgen
data_Ho9Er3(CoTc)2
_symmetry_space_group_name_H-M   'P 1'
_cell_length_a   6.25261363
_cell_length_b   7.14586506
_cell_length_c   9.12830291
_cell_angle_alpha   90.00993801
_cell_angle_beta   90.05014340
_cell_angle_gamma   90.01182673
_symmetry_Int_Tables_number   1
_chemical_formula_structural   Ho9Er3(CoTc)2
_chemical_formula_sum   'Ho9 Er3 Co2 Tc2'
_cell_volume   407.85544553
_cell_formula_units_Z   1
loop_
 _symmetry_equiv_pos_site_id
 _symmetry_equiv_pos_as_xyz
  1  'x, y, z'
loop_
 _atom_site_type_symbol
 _atom_site_label
 _atom_site_symmetry_multiplicity
 _atom_site_fract_x
 _atom_site_fract_y
 _atom_site_fract_z
 _atom_site_occupancy
  Ho  Ho0  1  0.371026  0.546987  0.249960  1
  Ho  Ho1  1  0.143575  0.040542  0.249888  1
  Ho  Ho2  1  0.168085  0.326776  0.563605  1
  Ho  Ho3  1  0.668192  0.173275  0.436217  1
  Ho  Ho4  1  0.168229  0.326677  0.936400  1
  Ho  Ho5  1  0.323201  0.818418  0.566649  1
  Ho  Ho6  1  0.870875  0.953065  0.750072  1
  Ho  Ho7  1  0.643571  0.459456  0.750018  1
  Ho  Ho8  1  0.823088  0.681637  0.066671  1
  Er  Er9  1  0.668116  0.173156  0.063711  1
  Er  Er10  1  0.823207  0.681499  0.433295  1
  Er  Er11  1  0.323312  0.818534  0.933420  1
  Co  Co12  1  0.540515  0.885535  0.249941  1
  Co  Co13  1  0.040463  0.614532  0.749975  1
  Tc  Tc14  1  0.962169  0.390977  0.249996  1
  Tc  Tc15  1  0.462378  0.108934  0.750183  1
