# generated using pymatgen
data_GdIO5
_symmetry_space_group_name_H-M   'P 1'
_cell_length_a   5.35581134
_cell_length_b   6.56007432
_cell_length_c   12.82051300
_cell_angle_alpha   90.00000000
_cell_angle_beta   90.00000000
_cell_angle_gamma   109.64045274
_symmetry_Int_Tables_number   1
_chemical_formula_structural   GdIO5
_chemical_formula_sum   'Gd4 I4 O20'
_cell_volume   424.23599728
_cell_formula_units_Z   4
loop_
 _symmetry_equiv_pos_site_id
 _symmetry_equiv_pos_as_xyz
  1  'x, y, z'
loop_
 _atom_site_type_symbol
 _atom_site_label
 _atom_site_symmetry_multiplicity
 _atom_site_fract_x
 _atom_site_fract_y
 _atom_site_fract_z
 _atom_site_occupancy
  Gd  Gd0  1  0.163113  0.787790  0.441194  1
  Gd  Gd1  1  0.836887  0.212210  0.558806  1
  Gd  Gd2  1  0.336887  0.712210  0.941194  1
  Gd  Gd3  1  0.663113  0.287790  0.058806  1
  I  I4  1  0.955204  0.827239  0.135085  1
  I  I5  1  0.044796  0.172761  0.864915  1
  I  I6  1  0.544796  0.672761  0.635085  1
  I  I7  1  0.455204  0.327239  0.364915  1
  O  O8  1  0.051114  0.582180  0.097745  1
  O  O9  1  0.948886  0.417820  0.902255  1
  O  O10  1  0.448886  0.917820  0.597745  1
  O  O11  1  0.551114  0.082180  0.402255  1
  O  O12  1  0.870086  0.838617  0.574179  1
  O  O13  1  0.129914  0.161383  0.425821  1
  O  O14  1  0.629914  0.661383  0.074179  1
  O  O15  1  0.370086  0.338617  0.925821  1
  O  O16  1  0.266765  0.977660  0.063060  1
  O  O17  1  0.733235  0.022340  0.936940  1
  O  O18  1  0.233235  0.522340  0.563060  1
  O  O19  1  0.766765  0.477660  0.436940  1
  O  O20  1  0.990494  0.793128  0.273004  1
  O  O21  1  0.009506  0.206872  0.726996  1
  O  O22  1  0.509506  0.706872  0.773004  1
  O  O23  1  0.490494  0.293128  0.226996  1
  O  O24  1  0.137257  0.929003  0.852140  1
  O  O25  1  0.862743  0.070997  0.147860  1
  O  O26  1  0.362743  0.570997  0.352140  1
  O  O27  1  0.637257  0.429003  0.647860  1
