# generated using pymatgen
data_CsLiTiF6
_symmetry_space_group_name_H-M   'P 1'
_cell_length_a   10.87578500
_cell_length_b   5.85347438
_cell_length_c   9.40060995
_cell_angle_alpha   88.98281326
_cell_angle_beta   90.00000000
_cell_angle_gamma   90.00000000
_symmetry_Int_Tables_number   1
_chemical_formula_structural   CsLiTiF6
_chemical_formula_sum   'Cs4 Li4 Ti4 F24'
_cell_volume   598.35913424
_cell_formula_units_Z   4
loop_
 _symmetry_equiv_pos_site_id
 _symmetry_equiv_pos_as_xyz
  1  'x, y, z'
loop_
 _atom_site_type_symbol
 _atom_site_label
 _atom_site_symmetry_multiplicity
 _atom_site_fract_x
 _atom_site_fract_y
 _atom_site_fract_z
 _atom_site_occupancy
  Cs  Cs0  1  0.690596  0.301671  0.004923  1
  Cs  Cs1  1  0.190596  0.698329  0.495077  1
  Cs  Cs2  1  0.309404  0.698329  0.995077  1
  Cs  Cs3  1  0.809404  0.301671  0.504923  1
  Li  Li4  1  0.593852  0.753281  0.674154  1
  Li  Li5  1  0.093852  0.246719  0.825846  1
  Li  Li6  1  0.406148  0.246719  0.325846  1
  Li  Li7  1  0.906148  0.753281  0.174154  1
  Ti  Ti8  1  0.913758  0.776166  0.776398  1
  Ti  Ti9  1  0.413758  0.223834  0.723602  1
  Ti  Ti10  1  0.086242  0.223834  0.223602  1
  Ti  Ti11  1  0.586242  0.776166  0.276398  1
  F  F12  1  0.751982  0.651111  0.750592  1
  F  F13  1  0.251982  0.348889  0.749408  1
  F  F14  1  0.248018  0.348889  0.249408  1
  F  F15  1  0.748018  0.651111  0.250592  1
  F  F16  1  0.899688  0.710290  0.974826  1
  F  F17  1  0.399688  0.289710  0.525174  1
  F  F18  1  0.100312  0.289710  0.025174  1
  F  F19  1  0.600312  0.710290  0.474826  1
  F  F20  1  0.069931  0.920830  0.798572  1
  F  F21  1  0.569931  0.079170  0.701428  1
  F  F22  1  0.930069  0.079170  0.201428  1
  F  F23  1  0.430069  0.920830  0.298572  1
  F  F24  1  0.921013  0.813467  0.578398  1
  F  F25  1  0.421013  0.186533  0.921602  1
  F  F26  1  0.078987  0.186533  0.421602  1
  F  F27  1  0.578987  0.813467  0.078398  1
  F  F28  1  0.845196  0.064383  0.796275  1
  F  F29  1  0.345196  0.935617  0.703725  1
  F  F30  1  0.154804  0.935617  0.203725  1
  F  F31  1  0.654804  0.064383  0.296275  1
  F  F32  1  0.993209  0.486727  0.751838  1
  F  F33  1  0.493209  0.513273  0.748162  1
  F  F34  1  0.006791  0.513273  0.248162  1
  F  F35  1  0.506791  0.486727  0.251838  1
