# generated using pymatgen
data_Pr9NdIr5Ru
_symmetry_space_group_name_H-M   'P 1'
_cell_length_a   11.32159500
_cell_length_b   11.32159500
_cell_length_c   6.62794100
_cell_angle_alpha   90.00000000
_cell_angle_beta   90.00000000
_cell_angle_gamma   90.00000000
_symmetry_Int_Tables_number   1
_chemical_formula_structural   Pr9NdIr5Ru
_chemical_formula_sum   'Pr18 Nd2 Ir10 Ru2'
_cell_volume   849.55962391
_cell_formula_units_Z   2
loop_
 _symmetry_equiv_pos_site_id
 _symmetry_equiv_pos_as_xyz
  1  'x, y, z'
loop_
 _atom_site_type_symbol
 _atom_site_label
 _atom_site_symmetry_multiplicity
 _atom_site_fract_x
 _atom_site_fract_y
 _atom_site_fract_z
 _atom_site_occupancy
  Pr  Pr0  1  0.089276  0.292367  0.117501  1
  Pr  Pr1  1  0.792367  0.410724  0.117501  1
  Pr  Pr2  1  0.207633  0.589276  0.117501  1
  Pr  Pr3  1  0.910724  0.707633  0.117501  1
  Pr  Pr4  1  0.410646  0.792232  0.382690  1
  Pr  Pr5  1  0.589354  0.207768  0.382690  1
  Pr  Pr6  1  0.292232  0.089354  0.382690  1
  Pr  Pr7  1  0.707768  0.910646  0.382690  1
  Pr  Pr8  1  0.410470  0.207588  0.884575  1
  Pr  Pr9  1  0.707588  0.089530  0.884575  1
  Pr  Pr10  1  0.292412  0.910470  0.884575  1
  Pr  Pr11  1  0.589530  0.792412  0.884575  1
  Pr  Pr12  1  0.089520  0.707706  0.615323  1
  Pr  Pr13  1  0.910480  0.292294  0.615323  1
  Pr  Pr14  1  0.207706  0.410480  0.615323  1
  Pr  Pr15  1  0.792294  0.589520  0.615323  1
  Pr  Pr16  1  0.000000  0.000000  0.999863  1
  Pr  Pr17  1  0.500000  0.500000  0.999863  1
  Nd  Nd18  1  0.500000  0.500000  0.500258  1
  Nd  Nd19  1  0.000000  0.000000  0.500258  1
  Ir  Ir20  1  0.153171  0.846847  0.250673  1
  Ir  Ir21  1  0.346847  0.346829  0.250673  1
  Ir  Ir22  1  0.653153  0.653171  0.250673  1
  Ir  Ir23  1  0.846829  0.153153  0.250673  1
  Ir  Ir24  1  0.347055  0.652923  0.749288  1
  Ir  Ir25  1  0.152923  0.152945  0.749288  1
  Ir  Ir26  1  0.847077  0.847055  0.749288  1
  Ir  Ir27  1  0.652945  0.347077  0.749288  1
  Ir  Ir28  1  0.500000  0.000000  0.620335  1
  Ir  Ir29  1  0.000000  0.500000  0.879611  1
  Ru  Ru30  1  0.000000  0.500000  0.380340  1
  Ru  Ru31  1  0.500000  0.000000  0.119271  1
