# generated using pymatgen
data_Nd6Zn4CuIrPd11
_symmetry_space_group_name_H-M   'P 1'
_cell_length_a   8.32527293
_cell_length_b   8.32521124
_cell_length_c   8.39827088
_cell_angle_alpha   109.42072552
_cell_angle_beta   109.42687440
_cell_angle_gamma   109.21244210
_symmetry_Int_Tables_number   1
_chemical_formula_structural   Nd6Zn4CuIrPd11
_chemical_formula_sum   'Nd6 Zn4 Cu1 Ir1 Pd11'
_cell_volume   450.02972340
_cell_formula_units_Z   1
loop_
 _symmetry_equiv_pos_site_id
 _symmetry_equiv_pos_as_xyz
  1  'x, y, z'
loop_
 _atom_site_type_symbol
 _atom_site_label
 _atom_site_symmetry_multiplicity
 _atom_site_fract_x
 _atom_site_fract_y
 _atom_site_fract_z
 _atom_site_occupancy
  Nd  Nd0  1  0.705315  0.705319  0.002162  1
  Nd  Nd1  1  0.296549  0.997934  0.294501  1
  Nd  Nd2  1  0.997937  0.296531  0.294479  1
  Nd  Nd3  1  0.296843  0.296845  0.002156  1
  Nd  Nd4  1  0.703270  0.999436  0.702690  1
  Nd  Nd5  1  0.999423  0.703289  0.702704  1
  Zn  Zn6  1  0.000688  0.000688  0.499911  1
  Zn  Zn7  1  0.999503  0.499506  0.999011  1
  Zn  Zn8  1  0.499508  0.999507  0.999011  1
  Zn  Zn9  1  0.499225  0.499223  0.499907  1
  Cu  Cu10  1  0.331027  0.331044  0.662114  1
  Ir  Ir11  1  0.000244  0.000247  0.000485  1
  Pd  Pd12  1  0.669196  0.000695  0.332242  1
  Pd  Pd13  1  0.000714  0.669194  0.332259  1
  Pd  Pd14  1  0.667998  0.332918  0.000904  1
  Pd  Pd15  1  0.331563  0.663084  0.332264  1
  Pd  Pd16  1  0.006488  0.332140  0.668415  1
  Pd  Pd17  1  0.332902  0.667978  0.000884  1
  Pd  Pd18  1  0.332140  0.006502  0.668429  1
  Pd  Pd19  1  0.663074  0.331549  0.332262  1
  Pd  Pd20  1  0.668204  0.668188  0.336390  1
  Pd  Pd21  1  0.661917  0.336258  0.668407  1
  Pd  Pd22  1  0.336271  0.661925  0.668413  1
