# generated using pymatgen
data_Nd9Ho10Si16Hg
_symmetry_space_group_name_H-M   'P 1'
_cell_length_a   7.74880258
_cell_length_b   7.75523370
_cell_length_c   14.40527900
_cell_angle_alpha   89.86552324
_cell_angle_beta   90.23026173
_cell_angle_gamma   90.01756229
_symmetry_Int_Tables_number   1
_chemical_formula_structural   Nd9Ho10Si16Hg
_chemical_formula_sum   'Nd9 Ho10 Si16 Hg1'
_cell_volume   865.65818022
_cell_formula_units_Z   1
loop_
 _symmetry_equiv_pos_site_id
 _symmetry_equiv_pos_as_xyz
  1  'x, y, z'
loop_
 _atom_site_type_symbol
 _atom_site_label
 _atom_site_symmetry_multiplicity
 _atom_site_fract_x
 _atom_site_fract_y
 _atom_site_fract_z
 _atom_site_occupancy
  Nd  Nd0  1  0.001043  0.861640  0.121606  1
  Nd  Nd1  1  0.637857  0.991750  0.458447  1
  Nd  Nd2  1  0.369419  0.001461  0.957255  1
  Nd  Nd3  1  0.989877  0.638770  0.542591  1
  Nd  Nd4  1  0.497686  0.861933  0.201451  1
  Nd  Nd5  1  0.509907  0.141166  0.709869  1
  Nd  Nd6  1  0.861646  0.496873  0.797772  1
  Nd  Nd7  1  0.139926  0.510618  0.292300  1
  Nd  Nd8  1  0.002455  0.368604  0.040871  1
  Ho  Ho9  1  0.494775  0.370071  0.120730  1
  Ho  Ho10  1  0.991020  0.137857  0.626635  1
  Ho  Ho11  1  0.861122  0.996771  0.877950  1
  Ho  Ho12  1  0.138051  0.991743  0.374399  1
  Ho  Ho13  1  0.510613  0.634004  0.624381  1
  Ho  Ho14  1  0.371307  0.493272  0.876373  1
  Ho  Ho15  1  0.632556  0.511270  0.377686  1
  Ho  Ho16  1  0.313833  0.315087  0.500624  1
  Ho  Ho17  1  0.184755  0.814514  0.749679  1
  Ho  Ho18  1  0.812818  0.186203  0.250098  1
  Si  Si19  1  0.288361  0.933924  0.561754  1
  Si  Si20  1  0.712905  0.089665  0.062722  1
  Si  Si21  1  0.932653  0.289211  0.439237  1
  Si  Si22  1  0.433130  0.210821  0.309891  1
  Si  Si23  1  0.564579  0.790386  0.806070  1
  Si  Si24  1  0.209001  0.431839  0.690553  1
  Si  Si25  1  0.789070  0.561518  0.195538  1
  Si  Si26  1  0.089018  0.710481  0.933010  1
  Si  Si27  1  0.798917  0.844116  0.691796  1
  Si  Si28  1  0.205472  0.159490  0.190664  1
  Si  Si29  1  0.841722  0.797891  0.311173  1
  Si  Si30  1  0.343413  0.703503  0.441799  1
  Si  Si31  1  0.647855  0.279043  0.933205  1
  Si  Si32  1  0.703000  0.344868  0.560316  1
  Si  Si33  1  0.285959  0.646288  0.061094  1
  Si  Si34  1  0.153614  0.202869  0.812065  1
  Hg  Hg35  1  0.680669  0.680473  0.998399  1
