# generated using pymatgen
data_Dy4SiTc6Os
_symmetry_space_group_name_H-M   'P 1'
_cell_length_a   5.29602200
_cell_length_b   5.29602322
_cell_length_c   8.94368000
_cell_angle_alpha   90.00000000
_cell_angle_beta   90.00000000
_cell_angle_gamma   119.99999238
_symmetry_Int_Tables_number   1
_chemical_formula_structural   Dy4SiTc6Os
_chemical_formula_sum   'Dy4 Si1 Tc6 Os1'
_cell_volume   217.24339349
_cell_formula_units_Z   1
loop_
 _symmetry_equiv_pos_site_id
 _symmetry_equiv_pos_as_xyz
  1  'x, y, z'
loop_
 _atom_site_type_symbol
 _atom_site_label
 _atom_site_symmetry_multiplicity
 _atom_site_fract_x
 _atom_site_fract_y
 _atom_site_fract_z
 _atom_site_occupancy
  Dy  Dy0  1  0.333333  0.666667  0.432451  1
  Dy  Dy1  1  0.666667  0.333333  0.567549  1
  Dy  Dy2  1  0.666667  0.333333  0.936710  1
  Dy  Dy3  1  0.333333  0.666667  0.063290  1
  Si  Si4  1  0.000000  0.000000  0.500000  1
  Tc  Tc5  1  0.829805  0.170195  0.254754  1
  Tc  Tc6  1  0.829805  0.659608  0.254754  1
  Tc  Tc7  1  0.340392  0.170195  0.254754  1
  Tc  Tc8  1  0.170195  0.829805  0.745246  1
  Tc  Tc9  1  0.170195  0.340392  0.745246  1
  Tc  Tc10  1  0.659608  0.829805  0.745246  1
  Os  Os11  1  0.000000  0.000000  0.000000  1
