# generated using pymatgen
data_NaV2P5O16
_symmetry_space_group_name_H-M   'P 1'
_cell_length_a   6.81572600
_cell_length_b   5.08218700
_cell_length_c   18.86099761
_cell_angle_alpha   89.77797333
_cell_angle_beta   90.00000000
_cell_angle_gamma   90.00000000
_symmetry_Int_Tables_number   1
_chemical_formula_structural   NaV2P5O16
_chemical_formula_sum   'Na2 V4 P10 O32'
_cell_volume   653.31730702
_cell_formula_units_Z   2
loop_
 _symmetry_equiv_pos_site_id
 _symmetry_equiv_pos_as_xyz
  1  'x, y, z'
loop_
 _atom_site_type_symbol
 _atom_site_label
 _atom_site_symmetry_multiplicity
 _atom_site_fract_x
 _atom_site_fract_y
 _atom_site_fract_z
 _atom_site_occupancy
  Na  Na0  1  0.375140  0.748944  0.527486  1
  Na  Na1  1  0.624860  0.748944  0.027486  1
  V  V2  1  0.815026  0.734802  0.593804  1
  V  V3  1  0.184974  0.734802  0.093804  1
  V  V4  1  0.822654  0.257243  0.906284  1
  V  V5  1  0.177346  0.257243  0.406284  1
  P  P6  1  0.523627  0.250230  0.632834  1
  P  P7  1  0.476373  0.250230  0.132834  1
  P  P8  1  0.533040  0.747203  0.866640  1
  P  P9  1  0.878358  0.225639  0.080180  1
  P  P10  1  0.466960  0.747203  0.366640  1
  P  P11  1  0.258040  0.005311  0.249293  1
  P  P12  1  0.741960  0.005311  0.749293  1
  P  P13  1  0.868015  0.771877  0.422600  1
  P  P14  1  0.121642  0.225639  0.580180  1
  P  P15  1  0.131985  0.771877  0.922600  1
  O  O16  1  0.147109  0.852400  0.194425  1
  O  O17  1  0.942697  0.052626  0.430263  1
  O  O18  1  0.592753  0.210365  0.712944  1
  O  O19  1  0.391535  0.042225  0.084973  1
  O  O20  1  0.961913  0.397785  0.611107  1
  O  O21  1  0.852891  0.852400  0.694425  1
  O  O22  1  0.038087  0.397785  0.111107  1
  O  O23  1  0.608465  0.042225  0.584973  1
  O  O24  1  0.590007  0.805002  0.785881  1
  O  O25  1  0.368247  0.941578  0.416024  1
  O  O26  1  0.293289  0.216604  0.641658  1
  O  O27  1  0.304155  0.793010  0.862370  1
  O  O28  1  0.631753  0.941578  0.916024  1
  O  O29  1  0.858785  0.154450  0.802524  1
  O  O30  1  0.409993  0.805002  0.285881  1
  O  O31  1  0.560812  0.534476  0.613502  1
  O  O32  1  0.932212  0.935819  0.071407  1
  O  O33  1  0.017214  0.583413  0.391694  1
  O  O34  1  0.982786  0.583413  0.891694  1
  O  O35  1  0.221109  0.339333  0.513801  1
  O  O36  1  0.067788  0.935819  0.571407  1
  O  O37  1  0.426101  0.462387  0.382903  1
  O  O38  1  0.057303  0.052626  0.930263  1
  O  O39  1  0.764090  0.678575  0.490429  1
  O  O40  1  0.706711  0.216604  0.141658  1
  O  O41  1  0.235910  0.678575  0.990429  1
  O  O42  1  0.141215  0.154450  0.302524  1
  O  O43  1  0.407247  0.210365  0.212944  1
  O  O44  1  0.778891  0.339333  0.013801  1
  O  O45  1  0.695845  0.793010  0.362370  1
  O  O46  1  0.439188  0.534476  0.113502  1
  O  O47  1  0.573899  0.462387  0.882903  1
