# generated using pymatgen
data_Ho8Tm11Si16Ag
_symmetry_space_group_name_H-M   'P 1'
_cell_length_a   7.22335924
_cell_length_b   7.61154047
_cell_length_c   14.42466500
_cell_angle_alpha   90.00000000
_cell_angle_beta   90.00000000
_cell_angle_gamma   89.99036865
_symmetry_Int_Tables_number   1
_chemical_formula_structural   Ho8Tm11Si16Ag
_chemical_formula_sum   'Ho8 Tm11 Si16 Ag1'
_cell_volume   793.08092542
_cell_formula_units_Z   1
loop_
 _symmetry_equiv_pos_site_id
 _symmetry_equiv_pos_as_xyz
  1  'x, y, z'
loop_
 _atom_site_type_symbol
 _atom_site_label
 _atom_site_symmetry_multiplicity
 _atom_site_fract_x
 _atom_site_fract_y
 _atom_site_fract_z
 _atom_site_occupancy
  Ho  Ho0  1  0.016545  0.181084  0.096065  1
  Ho  Ho1  1  0.985204  0.807901  0.899988  1
  Ho  Ho2  1  0.477935  0.675957  0.900980  1
  Ho  Ho3  1  0.985204  0.807901  0.600012  1
  Ho  Ho4  1  0.514979  0.321053  0.095173  1
  Ho  Ho5  1  0.016545  0.181084  0.403935  1
  Ho  Ho6  1  0.514979  0.321053  0.404827  1
  Ho  Ho7  1  0.477935  0.675957  0.599020  1
  Tm  Tm8  1  0.838591  0.489256  0.250000  1
  Tm  Tm9  1  0.343678  0.012263  0.250000  1
  Tm  Tm10  1  0.653365  0.989356  0.750000  1
  Tm  Tm11  1  0.320646  0.185100  0.627341  1
  Tm  Tm12  1  0.674538  0.822841  0.377002  1
  Tm  Tm13  1  0.172572  0.683218  0.375817  1
  Tm  Tm14  1  0.674538  0.822841  0.122998  1
  Tm  Tm15  1  0.837346  0.325699  0.627279  1
  Tm  Tm16  1  0.320646  0.185100  0.872659  1
  Tm  Tm17  1  0.837346  0.325699  0.872721  1
  Tm  Tm18  1  0.172572  0.683218  0.124183  1
  Si  Si19  1  0.024375  0.081129  0.750000  1
  Si  Si20  1  0.970750  0.898431  0.250000  1
  Si  Si21  1  0.467507  0.608959  0.250000  1
  Si  Si22  1  0.531799  0.398785  0.750000  1
  Si  Si23  1  0.278474  0.870209  0.750000  1
  Si  Si24  1  0.722150  0.130127  0.250000  1
  Si  Si25  1  0.220142  0.372347  0.250000  1
  Si  Si26  1  0.770669  0.630161  0.750000  1
  Si  Si27  1  0.161707  0.462888  0.530963  1
  Si  Si28  1  0.844839  0.531344  0.462504  1
  Si  Si29  1  0.346711  0.970327  0.464305  1
  Si  Si30  1  0.844839  0.531344  0.037496  1
  Si  Si31  1  0.655631  0.030928  0.540926  1
  Si  Si32  1  0.161707  0.462888  0.969037  1
  Si  Si33  1  0.655631  0.030928  0.959074  1
  Si  Si34  1  0.346711  0.970327  0.035695  1
  Ag  Ag35  1  0.161189  0.522298  0.750000  1
