# generated using pymatgen
data_NdPa3CuTe12
_symmetry_space_group_name_H-M   'P 1'
_cell_length_a   7.49093264
_cell_length_b   7.49449591
_cell_length_c   11.21929457
_cell_angle_alpha   70.94651261
_cell_angle_beta   70.95018095
_cell_angle_gamma   69.80531668
_symmetry_Int_Tables_number   1
_chemical_formula_structural   NdPa3CuTe12
_chemical_formula_sum   'Nd1 Pa3 Cu1 Te12'
_cell_volume   542.29916212
_cell_formula_units_Z   1
loop_
 _symmetry_equiv_pos_site_id
 _symmetry_equiv_pos_as_xyz
  1  'x, y, z'
loop_
 _atom_site_type_symbol
 _atom_site_label
 _atom_site_symmetry_multiplicity
 _atom_site_fract_x
 _atom_site_fract_y
 _atom_site_fract_z
 _atom_site_occupancy
  Nd  Nd0  1  0.191777  0.687708  0.166611  1
  Pa  Pa1  1  0.811162  0.811492  0.831938  1
  Pa  Pa2  1  0.312861  0.312783  0.832869  1
  Pa  Pa3  1  0.688879  0.193131  0.163038  1
  Cu  Cu4  1  0.812316  0.814082  0.535125  1
  Te  Te5  1  0.002590  0.019584  0.328330  1
  Te  Te6  1  0.510828  0.490562  0.335573  1
  Te  Te7  1  0.486668  0.990120  0.675350  1
  Te  Te8  1  0.991813  0.488744  0.671356  1
  Te  Te9  1  0.265695  0.246500  0.338313  1
  Te  Te10  1  0.742970  0.761033  0.333629  1
  Te  Te11  1  0.242734  0.741234  0.674465  1
  Te  Te12  1  0.741721  0.243586  0.670881  1
  Te  Te13  1  0.014476  0.033003  0.937405  1
  Te  Te14  1  0.531312  0.514061  0.937644  1
  Te  Te15  1  0.486560  0.986359  0.051052  1
  Te  Te16  1  0.976934  0.477316  0.050820  1
