# generated using pymatgen
data_Na10HfGeAs6
_symmetry_space_group_name_H-M   'P 1'
_cell_length_a   7.60136800
_cell_length_b   8.47222893
_cell_length_c   16.14849308
_cell_angle_alpha   57.58914445
_cell_angle_beta   90.00000000
_cell_angle_gamma   90.00000000
_symmetry_Int_Tables_number   1
_chemical_formula_structural   Na10HfGeAs6
_chemical_formula_sum   'Na20 Hf2 Ge2 As12'
_cell_volume   877.97139492
_cell_formula_units_Z   2
loop_
 _symmetry_equiv_pos_site_id
 _symmetry_equiv_pos_as_xyz
  1  'x, y, z'
loop_
 _atom_site_type_symbol
 _atom_site_label
 _atom_site_symmetry_multiplicity
 _atom_site_fract_x
 _atom_site_fract_y
 _atom_site_fract_z
 _atom_site_occupancy
  Na  Na0  1  0.489511  0.075714  0.244993  1
  Na  Na1  1  0.989511  0.924286  0.255007  1
  Na  Na2  1  0.509652  0.914182  0.760126  1
  Na  Na3  1  0.009652  0.085818  0.739874  1
  Na  Na4  1  0.028169  0.416580  0.415469  1
  Na  Na5  1  0.528169  0.583420  0.084531  1
  Na  Na6  1  0.961645  0.588451  0.585088  1
  Na  Na7  1  0.461645  0.411549  0.914912  1
  Na  Na8  1  0.523588  0.255949  0.411210  1
  Na  Na9  1  0.023588  0.744051  0.088790  1
  Na  Na10  1  0.485086  0.742754  0.588596  1
  Na  Na11  1  0.985086  0.257246  0.911404  1
  Na  Na12  1  0.660398  0.993386  0.082152  1
  Na  Na13  1  0.160398  0.006614  0.417848  1
  Na  Na14  1  0.340371  0.010195  0.918464  1
  Na  Na15  1  0.840371  0.989805  0.581536  1
  Na  Na16  1  0.852317  0.311757  0.258936  1
  Na  Na17  1  0.352317  0.688243  0.241064  1
  Na  Na18  1  0.148043  0.682541  0.740474  1
  Na  Na19  1  0.648043  0.317459  0.759526  1
  Hf  Hf20  1  0.863271  0.647754  0.919724  1
  Hf  Hf21  1  0.363271  0.352246  0.580276  1
  Ge  Ge22  1  0.136675  0.347433  0.084029  1
  Ge  Ge23  1  0.636675  0.652567  0.415971  1
  As  As24  1  0.760628  0.922646  0.419607  1
  As  As25  1  0.260628  0.077354  0.080393  1
  As  As26  1  0.238600  0.068586  0.578405  1
  As  As27  1  0.738600  0.931414  0.921595  1
  As  As28  1  0.734191  0.632777  0.274637  1
  As  As29  1  0.234191  0.367223  0.225363  1
  As  As30  1  0.262188  0.360594  0.730958  1
  As  As31  1  0.762188  0.639406  0.769042  1
  As  As32  1  0.798889  0.321835  0.077285  1
  As  As33  1  0.298889  0.678165  0.422715  1
  As  As34  1  0.206779  0.663142  0.929655  1
  As  As35  1  0.706779  0.336858  0.570345  1
