# generated using pymatgen
data_ErTm3(Al3Rh)6
_symmetry_space_group_name_H-M   'P 1'
_cell_length_a   7.52620200
_cell_length_b   7.52969772
_cell_length_c   9.41837500
_cell_angle_alpha   90.00000000
_cell_angle_beta   90.00000000
_cell_angle_gamma   119.27038158
_symmetry_Int_Tables_number   1
_chemical_formula_structural   ErTm3(Al3Rh)6
_chemical_formula_sum   'Er1 Tm3 Al18 Rh6'
_cell_volume   465.59283010
_cell_formula_units_Z   1
loop_
 _symmetry_equiv_pos_site_id
 _symmetry_equiv_pos_as_xyz
  1  'x, y, z'
loop_
 _atom_site_type_symbol
 _atom_site_label
 _atom_site_symmetry_multiplicity
 _atom_site_fract_x
 _atom_site_fract_y
 _atom_site_fract_z
 _atom_site_occupancy
  Er  Er0  1  0.327343  0.005659  0.750000  1
  Tm  Tm1  1  0.994451  0.672614  0.250000  1
  Tm  Tm2  1  0.005754  0.327593  0.750000  1
  Tm  Tm3  1  0.672522  0.994240  0.250000  1
  Al  Al4  1  0.128428  0.128145  0.250000  1
  Al  Al5  1  0.871720  0.871666  0.750000  1
  Al  Al6  1  0.000664  0.335917  0.075693  1
  Al  Al7  1  0.999526  0.664167  0.924203  1
  Al  Al8  1  0.999526  0.664167  0.575797  1
  Al  Al9  1  0.335862  0.000516  0.424781  1
  Al  Al10  1  0.000664  0.335917  0.424307  1
  Al  Al11  1  0.663798  0.999414  0.575899  1
  Al  Al12  1  0.663798  0.999414  0.924101  1
  Al  Al13  1  0.335862  0.000516  0.075219  1
  Al  Al14  1  0.332703  0.332554  0.550564  1
  Al  Al15  1  0.667376  0.667362  0.450293  1
  Al  Al16  1  0.667376  0.667362  0.049707  1
  Al  Al17  1  0.332703  0.332554  0.949436  1
  Al  Al18  1  0.339878  0.551013  0.250000  1
  Al  Al19  1  0.659945  0.449095  0.750000  1
  Al  Al20  1  0.550965  0.339637  0.250000  1
  Al  Al21  1  0.449363  0.660441  0.750000  1
  Rh  Rh22  1  0.672339  0.327746  0.000035  1
  Rh  Rh23  1  0.327627  0.672142  0.000038  1
  Rh  Rh24  1  0.327627  0.672142  0.499962  1
  Rh  Rh25  1  0.672339  0.327746  0.499965  1
  Rh  Rh26  1  0.999920  0.000132  0.999965  1
  Rh  Rh27  1  0.999920  0.000132  0.500035  1
