# generated using pymatgen
data_Zr10SiSn6Au
_symmetry_space_group_name_H-M   'P 1'
_cell_length_a   8.75240200
_cell_length_b   8.75240159
_cell_length_c   5.91003300
_cell_angle_alpha   90.00000000
_cell_angle_beta   90.00000000
_cell_angle_gamma   120.00000156
_symmetry_Int_Tables_number   1
_chemical_formula_structural   Zr10SiSn6Au
_chemical_formula_sum   'Zr10 Si1 Sn6 Au1'
_cell_volume   392.08030170
_cell_formula_units_Z   1
loop_
 _symmetry_equiv_pos_site_id
 _symmetry_equiv_pos_as_xyz
  1  'x, y, z'
loop_
 _atom_site_type_symbol
 _atom_site_label
 _atom_site_symmetry_multiplicity
 _atom_site_fract_x
 _atom_site_fract_y
 _atom_site_fract_z
 _atom_site_occupancy
  Zr  Zr0  1  0.666667  0.333333  0.000000  1
  Zr  Zr1  1  0.333333  0.666667  0.000000  1
  Zr  Zr2  1  0.333333  0.666667  0.500000  1
  Zr  Zr3  1  0.666667  0.333333  0.500000  1
  Zr  Zr4  1  0.731800  0.731800  0.735317  1
  Zr  Zr5  1  0.268200  0.000000  0.735317  1
  Zr  Zr6  1  0.000000  0.268200  0.735317  1
  Zr  Zr7  1  0.268200  0.268200  0.264683  1
  Zr  Zr8  1  0.731800  0.000000  0.264683  1
  Zr  Zr9  1  0.000000  0.731800  0.264683  1
  Si  Si10  1  0.000000  0.000000  0.500000  1
  Sn  Sn11  1  0.387794  0.387794  0.754731  1
  Sn  Sn12  1  0.612206  0.000000  0.754731  1
  Sn  Sn13  1  0.000000  0.612206  0.754731  1
  Sn  Sn14  1  0.612206  0.612206  0.245269  1
  Sn  Sn15  1  0.387794  0.000000  0.245269  1
  Sn  Sn16  1  0.000000  0.387794  0.245269  1
  Au  Au17  1  0.000000  0.000000  0.000000  1
