# generated using pymatgen
data_Zr6BCl12
_symmetry_space_group_name_H-M   'P 1'
_cell_length_a   8.30538363
_cell_length_b   8.30538259
_cell_length_c   8.30538344
_cell_angle_alpha   106.86618471
_cell_angle_beta   106.86618517
_cell_angle_gamma   106.86618955
_symmetry_Int_Tables_number   1
_chemical_formula_structural   Zr6BCl12
_chemical_formula_sum   'Zr6 B1 Cl12'
_cell_volume   478.84776600
_cell_formula_units_Z   1
loop_
 _symmetry_equiv_pos_site_id
 _symmetry_equiv_pos_as_xyz
  1  'x, y, z'
loop_
 _atom_site_type_symbol
 _atom_site_label
 _atom_site_symmetry_multiplicity
 _atom_site_fract_x
 _atom_site_fract_y
 _atom_site_fract_z
 _atom_site_occupancy
  Zr  Zr0  1  0.970561  0.702187  0.900131  1
  Zr  Zr1  1  0.297813  0.099869  0.029439  1
  Zr  Zr2  1  0.099869  0.029439  0.297813  1
  Zr  Zr3  1  0.900131  0.970561  0.702187  1
  Zr  Zr4  1  0.702187  0.900131  0.970561  1
  Zr  Zr5  1  0.029439  0.297813  0.099869  1
  B  B6  1  0.000000  0.000000  0.000000  1
  Cl  Cl7  1  0.923115  0.312866  0.779202  1
  Cl  Cl8  1  0.687134  0.220798  0.076885  1
  Cl  Cl9  1  0.439750  0.140023  0.362690  1
  Cl  Cl10  1  0.859977  0.637310  0.560250  1
  Cl  Cl11  1  0.220798  0.076885  0.687134  1
  Cl  Cl12  1  0.637310  0.560250  0.859977  1
  Cl  Cl13  1  0.362690  0.439750  0.140023  1
  Cl  Cl14  1  0.779202  0.923115  0.312866  1
  Cl  Cl15  1  0.140023  0.362690  0.439750  1
  Cl  Cl16  1  0.560250  0.859977  0.637310  1
  Cl  Cl17  1  0.312866  0.779202  0.923115  1
  Cl  Cl18  1  0.076885  0.687134  0.220798  1
