# generated using pymatgen
data_MgSc3Ir8
_symmetry_space_group_name_H-M   'P 1'
_cell_length_a   5.23422200
_cell_length_b   5.23422094
_cell_length_c   8.49959900
_cell_angle_alpha   90.00000000
_cell_angle_beta   90.00000000
_cell_angle_gamma   120.00000668
_symmetry_Int_Tables_number   1
_chemical_formula_structural   MgSc3Ir8
_chemical_formula_sum   'Mg1 Sc3 Ir8'
_cell_volume   201.66625271
_cell_formula_units_Z   1
loop_
 _symmetry_equiv_pos_site_id
 _symmetry_equiv_pos_as_xyz
  1  'x, y, z'
loop_
 _atom_site_type_symbol
 _atom_site_label
 _atom_site_symmetry_multiplicity
 _atom_site_fract_x
 _atom_site_fract_y
 _atom_site_fract_z
 _atom_site_occupancy
  Mg  Mg0  1  0.333333  0.666667  0.436343  1
  Sc  Sc1  1  0.333333  0.666667  0.077900  1
  Sc  Sc2  1  0.666667  0.333333  0.563020  1
  Sc  Sc3  1  0.666667  0.333333  0.929446  1
  Ir  Ir4  1  0.000000  0.000000  0.998341  1
  Ir  Ir5  1  0.000000  0.000000  0.498391  1
  Ir  Ir6  1  0.829358  0.658717  0.248899  1
  Ir  Ir7  1  0.171104  0.828896  0.749954  1
  Ir  Ir8  1  0.657793  0.828896  0.749954  1
  Ir  Ir9  1  0.341283  0.170642  0.248899  1
  Ir  Ir10  1  0.829358  0.170642  0.248899  1
  Ir  Ir11  1  0.171104  0.342207  0.749954  1
