# generated using pymatgen
data_AcCe(CuGe)2
_symmetry_space_group_name_H-M   'P 1'
_cell_length_a   4.33736800
_cell_length_b   4.33736861
_cell_length_c   8.18234000
_cell_angle_alpha   90.00000000
_cell_angle_beta   90.00000000
_cell_angle_gamma   120.00001060
_symmetry_Int_Tables_number   1
_chemical_formula_structural   AcCe(CuGe)2
_chemical_formula_sum   'Ac1 Ce1 Cu2 Ge2'
_cell_volume   133.30938046
_cell_formula_units_Z   1
loop_
 _symmetry_equiv_pos_site_id
 _symmetry_equiv_pos_as_xyz
  1  'x, y, z'
loop_
 _atom_site_type_symbol
 _atom_site_label
 _atom_site_symmetry_multiplicity
 _atom_site_fract_x
 _atom_site_fract_y
 _atom_site_fract_z
 _atom_site_occupancy
  Ac  Ac0  1  0.000000  0.000000  0.500000  1
  Ce  Ce1  1  0.000000  0.000000  0.000000  1
  Cu  Cu2  1  0.666667  0.333333  0.229896  1
  Cu  Cu3  1  0.333333  0.666667  0.770104  1
  Ge  Ge4  1  0.333333  0.666667  0.225184  1
  Ge  Ge5  1  0.666667  0.333333  0.774816  1
