# generated using pymatgen
data_Lu18Sc2ZnBi11
_symmetry_space_group_name_H-M   'P 1'
_cell_length_a   8.02531051
_cell_length_b   9.33505500
_cell_length_c   11.75087900
_cell_angle_alpha   90.00000000
_cell_angle_beta   89.55274156
_cell_angle_gamma   90.00000000
_symmetry_Int_Tables_number   1
_chemical_formula_structural   Lu18Sc2ZnBi11
_chemical_formula_sum   'Lu18 Sc2 Zn1 Bi11'
_cell_volume   880.31043153
_cell_formula_units_Z   1
loop_
 _symmetry_equiv_pos_site_id
 _symmetry_equiv_pos_as_xyz
  1  'x, y, z'
loop_
 _atom_site_type_symbol
 _atom_site_label
 _atom_site_symmetry_multiplicity
 _atom_site_fract_x
 _atom_site_fract_y
 _atom_site_fract_z
 _atom_site_occupancy
  Lu  Lu0  1  0.038951  0.250000  0.506906  1
  Lu  Lu1  1  0.525138  0.250000  0.989877  1
  Lu  Lu2  1  0.355846  0.250000  0.294979  1
  Lu  Lu3  1  0.652965  0.750000  0.717438  1
  Lu  Lu4  1  0.147696  0.750000  0.781132  1
  Lu  Lu5  1  0.851216  0.250000  0.215366  1
  Lu  Lu6  1  0.201507  0.250000  0.776522  1
  Lu  Lu7  1  0.809240  0.750000  0.216482  1
  Lu  Lu8  1  0.313756  0.750000  0.282641  1
  Lu  Lu9  1  0.669043  0.250000  0.707980  1
  Lu  Lu10  1  0.192487  0.066952  0.062217  1
  Lu  Lu11  1  0.805004  0.931300  0.942532  1
  Lu  Lu12  1  0.308290  0.950963  0.558302  1
  Lu  Lu13  1  0.805004  0.568700  0.942532  1
  Lu  Lu14  1  0.684481  0.072568  0.445291  1
  Lu  Lu15  1  0.192487  0.433048  0.062217  1
  Lu  Lu16  1  0.684481  0.427432  0.445291  1
  Lu  Lu17  1  0.308290  0.549037  0.558302  1
  Sc  Sc18  1  0.982932  0.750000  0.490990  1
  Sc  Sc19  1  0.476270  0.750000  0.012313  1
  Zn  Zn20  1  0.405059  0.250000  0.538264  1
  Bi  Bi21  1  0.600557  0.750000  0.457986  1
  Bi  Bi22  1  0.102333  0.750000  0.042400  1
  Bi  Bi23  1  0.905816  0.250000  0.950176  1
  Bi  Bi24  1  0.057937  0.998513  0.324476  1
  Bi  Bi25  1  0.934798  0.996685  0.673616  1
  Bi  Bi26  1  0.435835  0.991546  0.828846  1
  Bi  Bi27  1  0.934798  0.503315  0.673616  1
  Bi  Bi28  1  0.562005  0.001873  0.173993  1
  Bi  Bi29  1  0.057937  0.501487  0.324476  1
  Bi  Bi30  1  0.562005  0.498127  0.173993  1
  Bi  Bi31  1  0.435835  0.508454  0.828846  1
