# generated using pymatgen
data_Nd3Hf(Co4P3)2
_symmetry_space_group_name_H-M   'P 1'
_cell_length_a   3.77812600
_cell_length_b   10.82272000
_cell_length_c   12.60840800
_cell_angle_alpha   90.00000000
_cell_angle_beta   90.00000000
_cell_angle_gamma   90.00000000
_symmetry_Int_Tables_number   1
_chemical_formula_structural   Nd3Hf(Co4P3)2
_chemical_formula_sum   'Nd6 Hf2 Co16 P12'
_cell_volume   515.55275752
_cell_formula_units_Z   2
loop_
 _symmetry_equiv_pos_site_id
 _symmetry_equiv_pos_as_xyz
  1  'x, y, z'
loop_
 _atom_site_type_symbol
 _atom_site_label
 _atom_site_symmetry_multiplicity
 _atom_site_fract_x
 _atom_site_fract_y
 _atom_site_fract_z
 _atom_site_occupancy
  Nd  Nd0  1  0.000000  0.500000  0.528637  1
  Nd  Nd1  1  0.500000  0.000000  0.471363  1
  Nd  Nd2  1  0.500000  0.820854  0.205229  1
  Nd  Nd3  1  0.500000  0.179146  0.205229  1
  Nd  Nd4  1  0.000000  0.679146  0.794771  1
  Nd  Nd5  1  0.000000  0.320854  0.794771  1
  Hf  Hf6  1  0.500000  0.500000  0.155680  1
  Hf  Hf7  1  0.000000  0.000000  0.844320  1
  Co  Co8  1  0.500000  0.500000  0.704588  1
  Co  Co9  1  0.000000  0.000000  0.295412  1
  Co  Co10  1  0.000000  0.500000  0.987414  1
  Co  Co11  1  0.500000  0.000000  0.012586  1
  Co  Co12  1  0.500000  0.332353  0.994217  1
  Co  Co13  1  0.500000  0.667647  0.994217  1
  Co  Co14  1  0.000000  0.167647  0.005783  1
  Co  Co15  1  0.000000  0.832353  0.005783  1
  Co  Co16  1  0.500000  0.295538  0.432928  1
  Co  Co17  1  0.500000  0.704462  0.432928  1
  Co  Co18  1  0.000000  0.204462  0.567072  1
  Co  Co19  1  0.000000  0.795538  0.567072  1
  Co  Co20  1  0.500000  0.880688  0.702544  1
  Co  Co21  1  0.500000  0.119312  0.702544  1
  Co  Co22  1  0.000000  0.619312  0.297456  1
  Co  Co23  1  0.000000  0.380688  0.297456  1
  P  P24  1  0.500000  0.500000  0.886415  1
  P  P25  1  0.000000  0.000000  0.113585  1
  P  P26  1  0.500000  0.500000  0.357869  1
  P  P27  1  0.000000  0.000000  0.642131  1
  P  P28  1  0.500000  0.304649  0.613356  1
  P  P29  1  0.500000  0.695351  0.613356  1
  P  P30  1  0.000000  0.195351  0.386644  1
  P  P31  1  0.000000  0.804649  0.386644  1
  P  P32  1  0.500000  0.840998  0.896898  1
  P  P33  1  0.500000  0.159002  0.896898  1
  P  P34  1  0.000000  0.659002  0.103102  1
  P  P35  1  0.000000  0.340998  0.103102  1
