# generated using pymatgen
data_PrNdGa3Ge
_symmetry_space_group_name_H-M   'P 1'
_cell_length_a   4.29906500
_cell_length_b   4.28694300
_cell_length_c   7.38810900
_cell_angle_alpha   90.00000000
_cell_angle_beta   90.00000000
_cell_angle_gamma   90.00000000
_symmetry_Int_Tables_number   1
_chemical_formula_structural   PrNdGa3Ge
_chemical_formula_sum   'Pr1 Nd1 Ga3 Ge1'
_cell_volume   136.16171560
_cell_formula_units_Z   1
loop_
 _symmetry_equiv_pos_site_id
 _symmetry_equiv_pos_as_xyz
  1  'x, y, z'
loop_
 _atom_site_type_symbol
 _atom_site_label
 _atom_site_symmetry_multiplicity
 _atom_site_fract_x
 _atom_site_fract_y
 _atom_site_fract_z
 _atom_site_occupancy
  Pr  Pr0  1  0.000000  0.000000  0.496804  1
  Nd  Nd1  1  0.000000  0.500000  0.003503  1
  Ga  Ga2  1  0.500000  0.000000  0.830730  1
  Ga  Ga3  1  0.500000  0.000000  0.161205  1
  Ga  Ga4  1  0.500000  0.500000  0.671226  1
  Ge  Ge5  1  0.500000  0.500000  0.336532  1
