# generated using pymatgen
data_La2Nd2PtSe7
_symmetry_space_group_name_H-M   'P 1'
_cell_length_a   4.09142209
_cell_length_b   8.43388447
_cell_length_c   8.73657937
_cell_angle_alpha   90.03586330
_cell_angle_beta   89.99413663
_cell_angle_gamma   89.99141775
_symmetry_Int_Tables_number   1
_chemical_formula_structural   La2Nd2PtSe7
_chemical_formula_sum   'La2 Nd2 Pt1 Se7'
_cell_volume   301.46942170
_cell_formula_units_Z   1
loop_
 _symmetry_equiv_pos_site_id
 _symmetry_equiv_pos_as_xyz
  1  'x, y, z'
loop_
 _atom_site_type_symbol
 _atom_site_label
 _atom_site_symmetry_multiplicity
 _atom_site_fract_x
 _atom_site_fract_y
 _atom_site_fract_z
 _atom_site_occupancy
  La  La0  1  0.250839  0.626073  0.749754  1
  La  La1  1  0.749639  0.380863  0.273706  1
  Nd  Nd2  1  0.250320  0.125009  0.701272  1
  Nd  Nd3  1  0.750030  0.868360  0.272613  1
  Pt  Pt4  1  0.749088  0.124184  0.999999  1
  Se  Se5  1  0.249177  0.316362  0.995600  1
  Se  Se6  1  0.750440  0.625976  0.008304  1
  Se  Se7  1  0.750697  0.875034  0.632042  1
  Se  Se8  1  0.249996  0.628606  0.373267  1
  Se  Se9  1  0.249338  0.932335  0.998084  1
  Se  Se10  1  0.750458  0.376041  0.633655  1
  Se  Se11  1  0.249978  0.121157  0.361704  1
