# generated using pymatgen
data_Y2Tm2Hf3PtF28
_symmetry_space_group_name_H-M   'P 1'
_cell_length_a   5.64520960
_cell_length_b   8.97045389
_cell_length_c   12.06399811
_cell_angle_alpha   62.44889554
_cell_angle_beta   90.16518831
_cell_angle_gamma   90.02732764
_symmetry_Int_Tables_number   1
_chemical_formula_structural   Y2Tm2Hf3PtF28
_chemical_formula_sum   'Y2 Tm2 Hf3 Pt1 F28'
_cell_volume   541.64008439
_cell_formula_units_Z   1
loop_
 _symmetry_equiv_pos_site_id
 _symmetry_equiv_pos_as_xyz
  1  'x, y, z'
loop_
 _atom_site_type_symbol
 _atom_site_label
 _atom_site_symmetry_multiplicity
 _atom_site_fract_x
 _atom_site_fract_y
 _atom_site_fract_z
 _atom_site_occupancy
  Y  Y0  1  0.757814  0.182990  0.234931  1
  Y  Y1  1  0.241036  0.817011  0.761385  1
  Tm  Tm2  1  0.258750  0.815057  0.267274  1
  Tm  Tm3  1  0.743281  0.186599  0.732929  1
  Hf  Hf4  1  0.756359  0.728235  0.044604  1
  Hf  Hf5  1  0.244404  0.273361  0.953537  1
  Hf  Hf6  1  0.256718  0.277010  0.456601  1
  Pt  Pt7  1  0.740112  0.726064  0.543502  1
  F  F8  1  0.936376  0.703839  0.417060  1
  F  F9  1  0.038761  0.289015  0.582277  1
  F  F10  1  0.460484  0.290521  0.078931  1
  F  F11  1  0.537269  0.710841  0.920531  1
  F  F12  1  0.483819  0.733824  0.149465  1
  F  F13  1  0.519260  0.266729  0.851070  1
  F  F14  1  0.981582  0.268380  0.354396  1
  F  F15  1  0.027287  0.725947  0.636188  1
  F  F16  1  0.969366  0.749158  0.172191  1
  F  F17  1  0.035576  0.250355  0.826308  1
  F  F18  1  0.463904  0.256557  0.327792  1
  F  F19  1  0.551366  0.741146  0.675883  1
  F  F20  1  0.774018  0.477286  0.140421  1
  F  F21  1  0.224676  0.524186  0.857053  1
  F  F22  1  0.268577  0.528671  0.360418  1
  F  F23  1  0.729640  0.478795  0.642293  1
  F  F24  1  0.951117  0.276695  0.047967  1
  F  F25  1  0.048250  0.723780  0.949921  1
  F  F26  1  0.443887  0.720110  0.456868  1
  F  F27  1  0.552628  0.280506  0.549449  1
  F  F28  1  0.742551  0.973198  0.451256  1
  F  F29  1  0.261250  0.025990  0.554983  1
  F  F30  1  0.242538  0.023184  0.059721  1
  F  F31  1  0.759048  0.978495  0.940636  1
  F  F32  1  0.573350  0.967422  0.236458  1
  F  F33  1  0.426230  0.030983  0.764510  1
  F  F34  1  0.079875  0.023242  0.270130  1
  F  F35  1  0.918840  0.974813  0.731062  1
