# generated using pymatgen
data_Ca6TbPrP6
_symmetry_space_group_name_H-M   'P 1'
_cell_length_a   7.60237120
_cell_length_b   7.61144787
_cell_length_c   7.53651400
_cell_angle_alpha   109.39972755
_cell_angle_beta   109.32529871
_cell_angle_gamma   109.64013088
_symmetry_Int_Tables_number   1
_chemical_formula_structural   Ca6TbPrP6
_chemical_formula_sum   'Ca6 Tb1 Pr1 P6'
_cell_volume   335.90926397
_cell_formula_units_Z   1
loop_
 _symmetry_equiv_pos_site_id
 _symmetry_equiv_pos_as_xyz
  1  'x, y, z'
loop_
 _atom_site_type_symbol
 _atom_site_label
 _atom_site_symmetry_multiplicity
 _atom_site_fract_x
 _atom_site_fract_y
 _atom_site_fract_z
 _atom_site_occupancy
  Ca  Ca0  1  0.126285  0.130642  0.128085  1
  Ca  Ca1  1  0.497543  0.002704  0.871153  1
  Ca  Ca2  1  0.868964  0.497397  0.003387  1
  Ca  Ca3  1  0.003959  0.869935  0.497798  1
  Ca  Ca4  1  0.366124  0.496434  0.997000  1
  Ca  Ca5  1  0.003671  0.370470  0.502174  1
  Tb  Tb6  1  0.500996  0.999442  0.368144  1
  Pr  Pr7  1  0.633779  0.632861  0.632955  1
  P  P8  1  0.625401  0.370613  0.255198  1
  P  P9  1  0.257950  0.634094  0.375602  1
  P  P10  1  0.743384  0.875326  0.126728  1
  P  P11  1  0.127049  0.753366  0.882538  1
  P  P12  1  0.379095  0.247132  0.619941  1
  P  P13  1  0.865799  0.119583  0.739298  1
