# generated using pymatgen
data_Y4Ho6AlSb5
_symmetry_space_group_name_H-M   'P 1'
_cell_length_a   6.36938100
_cell_length_b   8.91557413
_cell_length_c   8.89819828
_cell_angle_alpha   120.06461654
_cell_angle_beta   89.99985840
_cell_angle_gamma   90.00029121
_symmetry_Int_Tables_number   1
_chemical_formula_structural   Y4Ho6AlSb5
_chemical_formula_sum   'Y4 Ho6 Al1 Sb5'
_cell_volume   437.31674595
_cell_formula_units_Z   1
loop_
 _symmetry_equiv_pos_site_id
 _symmetry_equiv_pos_as_xyz
  1  'x, y, z'
loop_
 _atom_site_type_symbol
 _atom_site_label
 _atom_site_symmetry_multiplicity
 _atom_site_fract_x
 _atom_site_fract_y
 _atom_site_fract_z
 _atom_site_occupancy
  Y  Y0  1  0.750009  0.753386  0.762471  1
  Y  Y1  1  0.750009  0.990914  0.237529  1
  Y  Y2  1  0.249999  0.245879  0.244905  1
  Y  Y3  1  0.249999  0.000974  0.755095  1
  Ho  Ho4  1  0.500929  0.338290  0.673075  1
  Ho  Ho5  1  0.500929  0.665216  0.326925  1
  Ho  Ho6  1  0.999074  0.665216  0.326929  1
  Ho  Ho7  1  0.999074  0.338288  0.673071  1
  Ho  Ho8  1  0.749981  0.248334  0.000000  1
  Ho  Ho9  1  0.250001  0.756699  0.000000  1
  Al  Al10  1  0.750001  0.603457  0.000000  1
  Sb  Sb11  1  0.750000  0.388378  0.389752  1
  Sb  Sb12  1  0.750000  0.998624  0.610248  1
  Sb  Sb13  1  0.249997  0.392839  0.000000  1
  Sb  Sb14  1  0.249999  0.611127  0.608747  1
  Sb  Sb15  1  0.249999  0.002381  0.391253  1
