# generated using pymatgen
data_DyY(ErPt)2
_symmetry_space_group_name_H-M   'P 1'
_cell_length_a   4.75397000
_cell_length_b   7.13432300
_cell_length_c   8.75639900
_cell_angle_alpha   90.00000000
_cell_angle_beta   90.00000000
_cell_angle_gamma   90.00000000
_symmetry_Int_Tables_number   1
_chemical_formula_structural   DyY(ErPt)2
_chemical_formula_sum   'Dy2 Y2 Er4 Pt4'
_cell_volume   296.98515900
_cell_formula_units_Z   2
loop_
 _symmetry_equiv_pos_site_id
 _symmetry_equiv_pos_as_xyz
  1  'x, y, z'
loop_
 _atom_site_type_symbol
 _atom_site_label
 _atom_site_symmetry_multiplicity
 _atom_site_fract_x
 _atom_site_fract_y
 _atom_site_fract_z
 _atom_site_occupancy
  Dy  Dy0  1  0.250000  0.990373  0.331572  1
  Dy  Dy1  1  0.250000  0.490373  0.168428  1
  Y  Y2  1  0.750000  0.009647  0.669802  1
  Y  Y3  1  0.750000  0.509647  0.830198  1
  Er  Er4  1  0.250000  0.855973  0.920591  1
  Er  Er5  1  0.250000  0.355973  0.579409  1
  Er  Er6  1  0.750000  0.143826  0.079764  1
  Er  Er7  1  0.750000  0.643826  0.420236  1
  Pt  Pt8  1  0.250000  0.257205  0.907125  1
  Pt  Pt9  1  0.250000  0.757205  0.592875  1
  Pt  Pt10  1  0.750000  0.742976  0.093581  1
  Pt  Pt11  1  0.750000  0.242976  0.406419  1
