# generated using pymatgen
data_Ta6Si6Mo4RuW
_symmetry_space_group_name_H-M   'P 1'
_cell_length_a   7.67002945
_cell_length_b   7.68373878
_cell_length_c   7.67070803
_cell_angle_alpha   126.45152376
_cell_angle_beta   128.25847632
_cell_angle_gamma   77.64175511
_symmetry_Int_Tables_number   1
_chemical_formula_structural   Ta6Si6Mo4RuW
_chemical_formula_sum   'Ta6 Si6 Mo4 Ru1 W1'
_cell_volume   276.92545040
_cell_formula_units_Z   1
loop_
 _symmetry_equiv_pos_site_id
 _symmetry_equiv_pos_as_xyz
  1  'x, y, z'
loop_
 _atom_site_type_symbol
 _atom_site_label
 _atom_site_symmetry_multiplicity
 _atom_site_fract_x
 _atom_site_fract_y
 _atom_site_fract_z
 _atom_site_occupancy
  Ta  Ta0  1  0.950352  0.914850  0.465462  1
  Ta  Ta1  1  0.057097  0.503467  0.951105  1
  Ta  Ta2  1  0.551641  0.504675  0.447653  1
  Ta  Ta3  1  0.449598  0.914311  0.963055  1
  Ta  Ta4  1  0.746130  0.090729  0.848193  1
  Ta  Ta5  1  0.242908  0.091704  0.344486  1
  Si  Si6  1  0.753884  0.501988  0.248865  1
  Si  Si7  1  0.254602  0.501957  0.747677  1
  Si  Si8  1  0.665485  0.178932  0.512909  1
  Si  Si9  1  0.329798  0.834279  0.502267  1
  Si  Si10  1  0.165596  0.172917  0.007124  1
  Si  Si11  1  0.828319  0.828386  0.001493  1
  Mo  Mo12  1  0.999060  0.759476  0.761217  1
  Mo  Mo13  1  0.870917  0.244887  0.374568  1
  Mo  Mo14  1  0.130340  0.503485  0.371467  1
  Mo  Mo15  1  0.372213  0.247046  0.874853  1
  Ru  Ru16  1  0.630816  0.503253  0.875476  1
  W  W17  1  0.501246  0.761459  0.259927  1
