# generated using pymatgen
data_Ho7Lu5InGaCo4
_symmetry_space_group_name_H-M   'P 1'
_cell_length_a   8.22974312
_cell_length_b   8.22906230
_cell_length_c   8.22374757
_cell_angle_alpha   111.68698548
_cell_angle_beta   110.17676211
_cell_angle_gamma   106.62124242
_symmetry_Int_Tables_number   1
_chemical_formula_structural   Ho7Lu5InGaCo4
_chemical_formula_sum   'Ho7 Lu5 In1 Ga1 Co4'
_cell_volume   427.69618401
_cell_formula_units_Z   1
loop_
 _symmetry_equiv_pos_site_id
 _symmetry_equiv_pos_as_xyz
  1  'x, y, z'
loop_
 _atom_site_type_symbol
 _atom_site_label
 _atom_site_symmetry_multiplicity
 _atom_site_fract_x
 _atom_site_fract_y
 _atom_site_fract_z
 _atom_site_occupancy
  Ho  Ho0  1  0.435108  0.228628  0.204510  1
  Ho  Ho1  1  0.568358  0.773093  0.796172  1
  Ho  Ho2  1  0.023204  0.227958  0.796106  1
  Ho  Ho3  1  0.975801  0.769612  0.204387  1
  Ho  Ho4  1  0.184422  0.285415  0.469641  1
  Ho  Ho5  1  0.815405  0.715028  0.530043  1
  Ho  Ho6  1  0.184928  0.715525  0.900053  1
  Lu  Lu7  1  0.815341  0.284892  0.100136  1
  Lu  Lu8  1  0.316437  0.622508  0.305697  1
  Lu  Lu9  1  0.683121  0.376122  0.695005  1
  Lu  Lu10  1  0.318885  0.011933  0.694994  1
  Lu  Lu11  1  0.683247  0.989263  0.305686  1
  In  In12  1  0.498760  0.499734  0.000110  1
  Ga  Ga13  1  0.000587  0.002100  0.002664  1
  Co  Co14  1  0.374581  0.999133  0.374176  1
  Co  Co15  1  0.625334  0.001111  0.626402  1
  Co  Co16  1  0.111935  0.612667  0.497072  1
  Co  Co17  1  0.884546  0.385280  0.497146  1
