# generated using pymatgen
data_K5Cu(ReH9)3
_symmetry_space_group_name_H-M   'P 1'
_cell_length_a   9.44037754
_cell_length_b   9.37191844
_cell_length_c   5.78976500
_cell_angle_alpha   90.00000000
_cell_angle_beta   90.00000000
_cell_angle_gamma   119.76041000
_symmetry_Int_Tables_number   1
_chemical_formula_structural   K5Cu(ReH9)3
_chemical_formula_sum   'K5 Cu1 Re3 H27'
_cell_volume   444.68540963
_cell_formula_units_Z   1
loop_
 _symmetry_equiv_pos_site_id
 _symmetry_equiv_pos_as_xyz
  1  'x, y, z'
loop_
 _atom_site_type_symbol
 _atom_site_label
 _atom_site_symmetry_multiplicity
 _atom_site_fract_x
 _atom_site_fract_y
 _atom_site_fract_z
 _atom_site_occupancy
  K  K0  1  0.749183  0.756601  0.500000  1
  K  K1  1  0.250817  0.007418  0.500000  1
  K  K2  1  0.000000  0.603501  0.000000  1
  K  K3  1  0.373721  0.398612  0.000000  1
  K  K4  1  0.626279  0.024890  0.000000  1
  Cu  Cu5  1  0.000000  0.436995  0.500000  1
  Re  Re6  1  0.685869  0.331187  0.500000  1
  Re  Re7  1  0.314131  0.645318  0.500000  1
  Re  Re8  1  0.000000  0.996506  0.000000  1
  H  H9  1  0.825358  0.318129  0.688398  1
  H  H10  1  0.694319  0.432351  0.745484  1
  H  H11  1  0.536106  0.208777  0.688635  1
  H  H12  1  0.174642  0.492772  0.311602  1
  H  H13  1  0.536106  0.208777  0.311365  1
  H  H14  1  0.825358  0.318129  0.311602  1
  H  H15  1  0.694319  0.432351  0.254516  1
  H  H16  1  0.305681  0.738033  0.745484  1
  H  H17  1  0.463894  0.672672  0.688635  1
  H  H18  1  0.185239  0.007607  0.000000  1
  H  H19  1  0.814761  0.822368  0.000000  1
  H  H20  1  0.000000  0.175001  0.000000  1
  H  H21  1  0.880478  0.008655  0.209677  1
  H  H22  1  0.119522  0.128177  0.790323  1
  H  H23  1  0.000000  0.864244  0.792513  1
  H  H24  1  0.000000  0.864244  0.207487  1
  H  H25  1  0.119522  0.128177  0.209677  1
  H  H26  1  0.880478  0.008655  0.790323  1
  H  H27  1  0.148412  0.675804  0.500000  1
  H  H28  1  0.455057  0.848411  0.500000  1
  H  H29  1  0.341128  0.481272  0.500000  1
  H  H30  1  0.544943  0.393354  0.500000  1
  H  H31  1  0.851588  0.527392  0.500000  1
  H  H32  1  0.658872  0.140144  0.500000  1
  H  H33  1  0.174642  0.492772  0.688398  1
  H  H34  1  0.305681  0.738033  0.254516  1
  H  H35  1  0.463894  0.672672  0.311365  1
