# generated using pymatgen
data_TbNd(SnRh)2
_symmetry_space_group_name_H-M   'P 1'
_cell_length_a   7.55534800
_cell_length_b   7.55534910
_cell_length_c   8.03393600
_cell_angle_alpha   90.00000000
_cell_angle_beta   90.00000000
_cell_angle_gamma   120.00000392
_symmetry_Int_Tables_number   1
_chemical_formula_structural   TbNd(SnRh)2
_chemical_formula_sum   'Tb3 Nd3 Sn6 Rh6'
_cell_volume   397.16227642
_cell_formula_units_Z   3
loop_
 _symmetry_equiv_pos_site_id
 _symmetry_equiv_pos_as_xyz
  1  'x, y, z'
loop_
 _atom_site_type_symbol
 _atom_site_label
 _atom_site_symmetry_multiplicity
 _atom_site_fract_x
 _atom_site_fract_y
 _atom_site_fract_z
 _atom_site_occupancy
  Tb  Tb0  1  0.999865  0.405731  0.250000  1
  Tb  Tb1  1  0.594269  0.594135  0.250000  1
  Tb  Tb2  1  0.405865  0.000135  0.250000  1
  Nd  Nd3  1  0.999969  0.409576  0.750000  1
  Nd  Nd4  1  0.590424  0.590394  0.750000  1
  Nd  Nd5  1  0.409606  0.000031  0.750000  1
  Sn  Sn6  1  0.256641  0.256725  0.495630  1
  Sn  Sn7  1  0.000084  0.743359  0.495630  1
  Sn  Sn8  1  0.000084  0.743359  0.004370  1
  Sn  Sn9  1  0.743275  0.999916  0.495630  1
  Sn  Sn10  1  0.743275  0.999916  0.004370  1
  Sn  Sn11  1  0.256641  0.256725  0.004370  1
  Rh  Rh12  1  0.333333  0.666667  0.489509  1
  Rh  Rh13  1  0.666667  0.333333  0.489969  1
  Rh  Rh14  1  0.333333  0.666667  0.010491  1
  Rh  Rh15  1  0.000000  0.000000  0.750000  1
  Rh  Rh16  1  0.000000  0.000000  0.250000  1
  Rh  Rh17  1  0.666667  0.333333  0.010031  1
