# generated using pymatgen
data_Tb2Co3(NiP)4
_symmetry_space_group_name_H-M   'P 1'
_cell_length_a   3.67287800
_cell_length_b   9.09120800
_cell_length_c   10.28474400
_cell_angle_alpha   90.00000000
_cell_angle_beta   90.00000000
_cell_angle_gamma   90.00000000
_symmetry_Int_Tables_number   1
_chemical_formula_structural   Tb2Co3(NiP)4
_chemical_formula_sum   'Tb4 Co6 Ni8 P8'
_cell_volume   343.41683639
_cell_formula_units_Z   2
loop_
 _symmetry_equiv_pos_site_id
 _symmetry_equiv_pos_as_xyz
  1  'x, y, z'
loop_
 _atom_site_type_symbol
 _atom_site_label
 _atom_site_symmetry_multiplicity
 _atom_site_fract_x
 _atom_site_fract_y
 _atom_site_fract_z
 _atom_site_occupancy
  Tb  Tb0  1  0.000000  0.059895  0.395444  1
  Tb  Tb1  1  0.500000  0.940105  0.895444  1
  Tb  Tb2  1  0.000000  0.436552  0.178092  1
  Tb  Tb3  1  0.500000  0.563448  0.678092  1
  Co  Co4  1  0.000000  0.063823  0.702273  1
  Co  Co5  1  0.500000  0.936177  0.202273  1
  Co  Co6  1  0.000000  0.729376  0.507653  1
  Co  Co7  1  0.500000  0.270624  0.007653  1
  Co  Co8  1  0.000000  0.095738  0.099316  1
  Co  Co9  1  0.500000  0.904262  0.599316  1
  Ni  Ni10  1  0.000000  0.749221  0.271347  1
  Ni  Ni11  1  0.500000  0.250779  0.771347  1
  Ni  Ni12  1  0.000000  0.308936  0.600790  1
  Ni  Ni13  1  0.500000  0.691064  0.100790  1
  Ni  Ni14  1  0.000000  0.685080  0.910394  1
  Ni  Ni15  1  0.500000  0.314920  0.410394  1
  Ni  Ni16  1  0.000000  0.414906  0.868240  1
  Ni  Ni17  1  0.500000  0.585094  0.368240  1
  P  P18  1  0.000000  0.179259  0.897284  1
  P  P19  1  0.500000  0.820741  0.397284  1
  P  P20  1  0.000000  0.849782  0.084598  1
  P  P21  1  0.500000  0.150218  0.584598  1
  P  P22  1  0.000000  0.816427  0.708510  1
  P  P23  1  0.500000  0.183573  0.208510  1
  P  P24  1  0.000000  0.483973  0.460158  1
  P  P25  1  0.500000  0.516027  0.960158  1
