# generated using pymatgen
data_TbLuGa3Cu
_symmetry_space_group_name_H-M   'P 1'
_cell_length_a   4.35411110
_cell_length_b   4.35413752
_cell_length_c   7.17301900
_cell_angle_alpha   89.99924356
_cell_angle_beta   89.99999952
_cell_angle_gamma   119.98987283
_symmetry_Int_Tables_number   1
_chemical_formula_structural   TbLuGa3Cu
_chemical_formula_sum   'Tb1 Lu1 Ga3 Cu1'
_cell_volume   117.78190401
_cell_formula_units_Z   1
loop_
 _symmetry_equiv_pos_site_id
 _symmetry_equiv_pos_as_xyz
  1  'x, y, z'
loop_
 _atom_site_type_symbol
 _atom_site_label
 _atom_site_symmetry_multiplicity
 _atom_site_fract_x
 _atom_site_fract_y
 _atom_site_fract_z
 _atom_site_occupancy
  Tb  Tb0  1  0.000013  0.000007  0.259446  1
  Lu  Lu1  1  0.000003  0.000001  0.728487  1
  Ga  Ga2  1  0.333341  0.666668  0.486003  1
  Ga  Ga3  1  0.333355  0.666666  0.039562  1
  Ga  Ga4  1  0.666683  0.333333  0.946404  1
  Cu  Cu5  1  0.666607  0.333324  0.540096  1
