# generated using pymatgen
data_Tm6Th2MgCdCo2
_symmetry_space_group_name_H-M   'P 1'
_cell_length_a   9.51385981
_cell_length_b   9.51386079
_cell_length_c   9.52276700
_cell_angle_alpha   59.96903172
_cell_angle_beta   59.96902829
_cell_angle_gamma   60.06773431
_symmetry_Int_Tables_number   1
_chemical_formula_structural   Tm6Th2MgCdCo2
_chemical_formula_sum   'Tm12 Th4 Mg2 Cd2 Co4'
_cell_volume   609.50862857
_cell_formula_units_Z   2
loop_
 _symmetry_equiv_pos_site_id
 _symmetry_equiv_pos_as_xyz
  1  'x, y, z'
loop_
 _atom_site_type_symbol
 _atom_site_label
 _atom_site_symmetry_multiplicity
 _atom_site_fract_x
 _atom_site_fract_y
 _atom_site_fract_z
 _atom_site_occupancy
  Tm  Tm0  1  0.813872  0.185131  0.186621  1
  Tm  Tm1  1  0.185131  0.813872  0.814376  1
  Tm  Tm2  1  0.185131  0.813872  0.186621  1
  Tm  Tm3  1  0.813872  0.185131  0.814376  1
  Tm  Tm4  1  0.186651  0.186651  0.813349  1
  Tm  Tm5  1  0.813575  0.813575  0.186425  1
  Tm  Tm6  1  0.935831  0.564141  0.564946  1
  Tm  Tm7  1  0.564141  0.935831  0.935083  1
  Tm  Tm8  1  0.564141  0.935831  0.564946  1
  Tm  Tm9  1  0.935831  0.564141  0.935083  1
  Tm  Tm10  1  0.564229  0.564229  0.935771  1
  Tm  Tm11  1  0.935255  0.935255  0.564745  1
  Th  Th12  1  0.345555  0.345555  0.346126  1
  Th  Th13  1  0.345555  0.345555  0.962766  1
  Th  Th14  1  0.347414  0.960328  0.346130  1
  Th  Th15  1  0.960328  0.347414  0.346130  1
  Mg  Mg16  1  0.579923  0.264714  0.577681  1
  Mg  Mg17  1  0.264714  0.579923  0.577681  1
  Cd  Cd18  1  0.581548  0.581548  0.584109  1
  Cd  Cd19  1  0.581548  0.581548  0.252795  1
  Co  Co20  1  0.143586  0.143586  0.145533  1
  Co  Co21  1  0.143586  0.143586  0.567296  1
  Co  Co22  1  0.143036  0.565549  0.145708  1
  Co  Co23  1  0.565549  0.143036  0.145708  1
