# generated using pymatgen
data_Ba5La(Sn4Bi)2
_symmetry_space_group_name_H-M   'P 1'
_cell_length_a   9.25995003
_cell_length_b   9.25994978
_cell_length_c   9.33622615
_cell_angle_alpha   119.73010638
_cell_angle_beta   119.73010538
_cell_angle_gamma   90.00000687
_symmetry_Int_Tables_number   1
_chemical_formula_structural   Ba5La(Sn4Bi)2
_chemical_formula_sum   'Ba5 La1 Sn8 Bi2'
_cell_volume   570.66185666
_cell_formula_units_Z   1
loop_
 _symmetry_equiv_pos_site_id
 _symmetry_equiv_pos_as_xyz
  1  'x, y, z'
loop_
 _atom_site_type_symbol
 _atom_site_label
 _atom_site_symmetry_multiplicity
 _atom_site_fract_x
 _atom_site_fract_y
 _atom_site_fract_z
 _atom_site_occupancy
  Ba  Ba0  1  0.750000  0.750000  0.500000  1
  Ba  Ba1  1  0.662366  0.162366  0.000000  1
  Ba  Ba2  1  0.337634  0.837634  0.000000  1
  Ba  Ba3  1  0.837634  0.662366  0.000000  1
  Ba  Ba4  1  0.162366  0.337634  0.000000  1
  La  La5  1  0.250000  0.250000  0.500000  1
  Sn  Sn6  1  0.332518  0.837682  0.385409  1
  Sn  Sn7  1  0.662318  0.167482  0.614591  1
  Sn  Sn8  1  0.052892  0.547727  0.385409  1
  Sn  Sn9  1  0.547727  0.332518  0.385409  1
  Sn  Sn10  1  0.167482  0.952273  0.614591  1
  Sn  Sn11  1  0.952273  0.447108  0.614591  1
  Sn  Sn12  1  0.447108  0.662318  0.614591  1
  Sn  Sn13  1  0.837682  0.052892  0.385409  1
  Bi  Bi14  1  0.010037  0.010037  0.020075  1
  Bi  Bi15  1  0.489963  0.489963  0.979925  1
