# generated using pymatgen
data_HfMn2Nb5B14
_symmetry_space_group_name_H-M   'P 1'
_cell_length_a   3.21659100
_cell_length_b   7.36236887
_cell_length_c   8.86219400
_cell_angle_alpha   90.00000000
_cell_angle_beta   90.00000000
_cell_angle_gamma   77.38209715
_symmetry_Int_Tables_number   1
_chemical_formula_structural   HfMn2Nb5B14
_chemical_formula_sum   'Hf1 Mn2 Nb5 B14'
_cell_volume   204.80336593
_cell_formula_units_Z   1
loop_
 _symmetry_equiv_pos_site_id
 _symmetry_equiv_pos_as_xyz
  1  'x, y, z'
loop_
 _atom_site_type_symbol
 _atom_site_label
 _atom_site_symmetry_multiplicity
 _atom_site_fract_x
 _atom_site_fract_y
 _atom_site_fract_z
 _atom_site_occupancy
  Hf  Hf0  1  0.751525  0.496955  0.250000  1
  Mn  Mn1  1  0.951521  0.096957  0.250000  1
  Mn  Mn2  1  0.048090  0.903821  0.750000  1
  Nb  Nb3  1  0.105522  0.788956  0.052078  1
  Nb  Nb4  1  0.105522  0.788956  0.447921  1
  Nb  Nb5  1  0.893925  0.212154  0.553686  1
  Nb  Nb6  1  0.247540  0.504921  0.750000  1
  Nb  Nb7  1  0.893925  0.212154  0.946315  1
  B  B8  1  0.273200  0.453600  0.031718  1
  B  B9  1  0.485118  0.029767  0.095154  1
  B  B10  1  0.368377  0.263248  0.151485  1
  B  B11  1  0.564727  0.870549  0.250000  1
  B  B12  1  0.368377  0.263248  0.348516  1
  B  B13  1  0.485118  0.029767  0.404846  1
  B  B14  1  0.273200  0.453600  0.468282  1
  B  B15  1  0.727215  0.545574  0.534001  1
  B  B16  1  0.515140  0.969723  0.594329  1
  B  B17  1  0.631950  0.736102  0.652250  1
  B  B18  1  0.435728  0.128544  0.750000  1
  B  B19  1  0.631950  0.736102  0.847749  1
  B  B20  1  0.515140  0.969723  0.905671  1
  B  B21  1  0.727215  0.545574  0.965999  1
