# generated using pymatgen
data_Yb2GaSiAg2
_symmetry_space_group_name_H-M   'P 1'
_cell_length_a   5.77874717
_cell_length_b   5.76015671
_cell_length_c   5.76015753
_cell_angle_alpha   133.58976906
_cell_angle_beta   103.98277546
_cell_angle_gamma   93.89227576
_symmetry_Int_Tables_number   1
_chemical_formula_structural   Yb2GaSiAg2
_chemical_formula_sum   'Yb2 Ga1 Si1 Ag2'
_cell_volume   127.03715126
_cell_formula_units_Z   1
loop_
 _symmetry_equiv_pos_site_id
 _symmetry_equiv_pos_as_xyz
  1  'x, y, z'
loop_
 _atom_site_type_symbol
 _atom_site_label
 _atom_site_symmetry_multiplicity
 _atom_site_fract_x
 _atom_site_fract_y
 _atom_site_fract_z
 _atom_site_occupancy
  Yb  Yb0  1  0.293356  0.292112  0.001245  1
  Yb  Yb1  1  0.864464  0.366001  0.498463  1
  Ga  Ga2  1  0.477836  0.662422  0.815414  1
  Si  Si3  1  0.850582  0.660237  0.190345  1
  Ag  Ag4  1  0.260603  0.983199  0.277403  1
  Ag  Ag5  1  0.714958  0.997828  0.717130  1
