# generated using pymatgen
data_Dy3Tm(Ga8Pt3)3
_symmetry_space_group_name_H-M   'P 1'
_cell_length_a   7.50329109
_cell_length_b   7.58327908
_cell_length_c   13.36293844
_cell_angle_alpha   84.78133522
_cell_angle_beta   79.54676092
_cell_angle_gamma   60.22131746
_symmetry_Int_Tables_number   1
_chemical_formula_structural   Dy3Tm(Ga8Pt3)3
_chemical_formula_sum   'Dy3 Tm1 Ga24 Pt9'
_cell_volume   648.98866061
_cell_formula_units_Z   1
loop_
 _symmetry_equiv_pos_site_id
 _symmetry_equiv_pos_as_xyz
  1  'x, y, z'
loop_
 _atom_site_type_symbol
 _atom_site_label
 _atom_site_symmetry_multiplicity
 _atom_site_fract_x
 _atom_site_fract_y
 _atom_site_fract_z
 _atom_site_occupancy
  Dy  Dy0  1  0.607873  0.830889  0.188367  1
  Dy  Dy1  1  0.732804  0.497619  0.811951  1
  Dy  Dy2  1  0.268301  0.502853  0.188091  1
  Tm  Tm3  1  0.394001  0.168955  0.810469  1
  Ga  Ga4  1  0.684011  0.835044  0.937856  1
  Ga  Ga5  1  0.314521  0.166099  0.061045  1
  Ga  Ga6  1  0.145911  0.832822  0.558974  1
  Ga  Ga7  1  0.854223  0.167161  0.441316  1
  Ga  Ga8  1  0.478261  0.166801  0.555929  1
  Ga  Ga9  1  0.521919  0.833139  0.444148  1
  Ga  Ga10  1  0.220715  0.165558  0.323469  1
  Ga  Ga11  1  0.778821  0.834767  0.676925  1
  Ga  Ga12  1  0.437559  0.503231  0.676016  1
  Ga  Ga13  1  0.562364  0.496587  0.324422  1
  Ga  Ga14  1  0.107006  0.163727  0.675637  1
  Ga  Ga15  1  0.893418  0.836160  0.324965  1
  Ga  Ga16  1  0.357579  0.496767  0.937997  1
  Ga  Ga17  1  0.642254  0.502017  0.061529  1
  Ga  Ga18  1  0.021149  0.169551  0.942687  1
  Ga  Ga19  1  0.980015  0.830322  0.056638  1
  Ga  Ga20  1  0.187193  0.499134  0.443345  1
  Ga  Ga21  1  0.812919  0.500905  0.556916  1
  Ga  Ga22  1  0.734085  0.163692  0.182010  1
  Ga  Ga23  1  0.265734  0.836918  0.818028  1
  Ga  Ga24  1  0.061178  0.630300  0.817434  1
  Ga  Ga25  1  0.939435  0.368969  0.182748  1
  Ga  Ga26  1  0.855043  0.040435  0.817274  1
  Ga  Ga27  1  0.144195  0.959865  0.182894  1
  Pt  Pt28  1  0.117668  0.495442  0.639367  1
  Pt  Pt29  1  0.882430  0.504210  0.361102  1
  Pt  Pt30  1  0.659751  0.169898  0.999182  1
  Pt  Pt31  1  0.339256  0.829598  0.000652  1
  Pt  Pt32  1  0.540887  0.166832  0.360209  1
  Pt  Pt33  1  0.458985  0.833370  0.640049  1
  Pt  Pt34  1  0.779097  0.171832  0.637641  1
  Pt  Pt35  1  0.220583  0.828279  0.362805  1
  Pt  Pt36  1  0.998853  0.500252  0.999912  1
