# generated using pymatgen
data_Nd7ErThPd24
_symmetry_space_group_name_H-M   'P 1'
_cell_length_a   8.54678341
_cell_length_b   8.54678281
_cell_length_c   8.54678300
_cell_angle_alpha   89.92981808
_cell_angle_beta   89.92981808
_cell_angle_gamma   89.92981931
_symmetry_Int_Tables_number   1
_chemical_formula_structural   Nd7ErThPd24
_chemical_formula_sum   'Nd7 Er1 Th1 Pd24'
_cell_volume   624.31974029
_cell_formula_units_Z   1
loop_
 _symmetry_equiv_pos_site_id
 _symmetry_equiv_pos_as_xyz
  1  'x, y, z'
loop_
 _atom_site_type_symbol
 _atom_site_label
 _atom_site_symmetry_multiplicity
 _atom_site_fract_x
 _atom_site_fract_y
 _atom_site_fract_z
 _atom_site_occupancy
  Nd  Nd0  1  0.746767  0.746767  0.746767  1
  Nd  Nd1  1  0.747132  0.747132  0.252175  1
  Nd  Nd2  1  0.747132  0.252175  0.747132  1
  Nd  Nd3  1  0.252638  0.252638  0.748985  1
  Nd  Nd4  1  0.252638  0.748985  0.252638  1
  Nd  Nd5  1  0.252175  0.747132  0.747132  1
  Nd  Nd6  1  0.748985  0.252638  0.252638  1
  Er  Er7  1  0.998786  0.998786  0.998786  1
  Th  Th8  1  0.253745  0.253745  0.253745  1
  Pd  Pd9  1  0.268108  0.498898  0.003137  1
  Pd  Pd10  1  0.731877  0.499416  0.999845  1
  Pd  Pd11  1  0.003137  0.268108  0.498898  1
  Pd  Pd12  1  0.498898  0.268108  0.003137  1
  Pd  Pd13  1  0.999845  0.731877  0.499416  1
  Pd  Pd14  1  0.499416  0.731877  0.999845  1
  Pd  Pd15  1  0.498898  0.003137  0.268108  1
  Pd  Pd16  1  0.268108  0.003137  0.498898  1
  Pd  Pd17  1  0.499416  0.999845  0.731877  1
  Pd  Pd18  1  0.731877  0.999845  0.499416  1
  Pd  Pd19  1  0.003137  0.498898  0.268108  1
  Pd  Pd20  1  0.999845  0.499416  0.731877  1
  Pd  Pd21  1  0.255314  0.498504  0.498504  1
  Pd  Pd22  1  0.745456  0.499659  0.499659  1
  Pd  Pd23  1  0.498504  0.255314  0.498504  1
  Pd  Pd24  1  0.499659  0.745456  0.499659  1
  Pd  Pd25  1  0.498504  0.498504  0.255314  1
  Pd  Pd26  1  0.499659  0.499659  0.745456  1
  Pd  Pd27  1  0.316693  0.001227  0.001227  1
  Pd  Pd28  1  0.681561  0.999815  0.999815  1
  Pd  Pd29  1  0.001227  0.316693  0.001227  1
  Pd  Pd30  1  0.999815  0.681561  0.999815  1
  Pd  Pd31  1  0.001227  0.001227  0.316693  1
  Pd  Pd32  1  0.999815  0.999815  0.681561  1
