# generated using pymatgen
data_Zr4Nb2Si4MoW
_symmetry_space_group_name_H-M   'P 1'
_cell_length_a   3.58466400
_cell_length_b   7.03434402
_cell_length_c   8.40106502
_cell_angle_alpha   89.99224229
_cell_angle_beta   90.00000000
_cell_angle_gamma   90.00000000
_symmetry_Int_Tables_number   1
_chemical_formula_structural   Zr4Nb2Si4MoW
_chemical_formula_sum   'Zr4 Nb2 Si4 Mo1 W1'
_cell_volume   211.83923530
_cell_formula_units_Z   1
loop_
 _symmetry_equiv_pos_site_id
 _symmetry_equiv_pos_as_xyz
  1  'x, y, z'
loop_
 _atom_site_type_symbol
 _atom_site_label
 _atom_site_symmetry_multiplicity
 _atom_site_fract_x
 _atom_site_fract_y
 _atom_site_fract_z
 _atom_site_occupancy
  Zr  Zr0  1  0.250000  0.044122  0.333613  1
  Zr  Zr1  1  0.250000  0.544054  0.166350  1
  Zr  Zr2  1  0.750000  0.958020  0.668218  1
  Zr  Zr3  1  0.750000  0.458202  0.831911  1
  Nb  Nb4  1  0.250000  0.130036  0.940393  1
  Nb  Nb5  1  0.250000  0.629727  0.559367  1
  Si  Si6  1  0.250000  0.254925  0.634519  1
  Si  Si7  1  0.250000  0.754747  0.865194  1
  Si  Si8  1  0.750000  0.744656  0.357628  1
  Si  Si9  1  0.750000  0.244481  0.142487  1
  Mo  Mo10  1  0.750000  0.368530  0.438911  1
  W  W11  1  0.750000  0.868500  0.061409  1
