# generated using pymatgen
data_Ca7Th(Si4Mo3)4
_symmetry_space_group_name_H-M   'P 1'
_cell_length_a   6.77438218
_cell_length_b   6.99138271
_cell_length_c   13.10058608
_cell_angle_alpha   90.06979219
_cell_angle_beta   90.08668511
_cell_angle_gamma   89.89324834
_symmetry_Int_Tables_number   1
_chemical_formula_structural   Ca7Th(Si4Mo3)4
_chemical_formula_sum   'Ca7 Th1 Si16 Mo12'
_cell_volume   620.47162255
_cell_formula_units_Z   1
loop_
 _symmetry_equiv_pos_site_id
 _symmetry_equiv_pos_as_xyz
  1  'x, y, z'
loop_
 _atom_site_type_symbol
 _atom_site_label
 _atom_site_symmetry_multiplicity
 _atom_site_fract_x
 _atom_site_fract_y
 _atom_site_fract_z
 _atom_site_occupancy
  Ca  Ca0  1  0.498409  0.334057  0.090813  1
  Ca  Ca1  1  0.998096  0.166154  0.409136  1
  Ca  Ca2  1  0.500861  0.667268  0.591686  1
  Ca  Ca3  1  0.001552  0.831592  0.904788  1
  Ca  Ca4  1  0.502226  0.667326  0.905914  1
  Ca  Ca5  1  0.000938  0.832213  0.591680  1
  Ca  Ca6  1  0.497997  0.335123  0.411716  1
  Th  Th7  1  0.000286  0.167101  0.092931  1
  Si  Si8  1  0.657038  0.042892  0.546524  1
  Si  Si9  1  0.159362  0.461595  0.951663  1
  Si  Si10  1  0.348003  0.952409  0.045334  1
  Si  Si11  1  0.843289  0.542302  0.453662  1
  Si  Si12  1  0.342396  0.957346  0.454406  1
  Si  Si13  1  0.840296  0.550892  0.044924  1
  Si  Si14  1  0.656520  0.042598  0.951008  1
  Si  Si15  1  0.156953  0.456542  0.546622  1
  Si  Si16  1  0.534557  0.370061  0.749597  1
  Si  Si17  1  0.034645  0.128084  0.749042  1
  Si  Si18  1  0.466162  0.630855  0.249731  1
  Si  Si19  1  0.963938  0.864293  0.253565  1
  Si  Si20  1  0.800849  0.626822  0.748754  1
  Si  Si21  1  0.302111  0.872345  0.749143  1
  Si  Si22  1  0.202368  0.375800  0.253670  1
  Si  Si23  1  0.690971  0.128520  0.254008  1
  Mo  Mo24  1  0.834819  0.330572  0.627940  1
  Mo  Mo25  1  0.332109  0.167980  0.872563  1
  Mo  Mo26  1  0.165033  0.667813  0.128004  1
  Mo  Mo27  1  0.664662  0.830160  0.372601  1
  Mo  Mo28  1  0.167134  0.668394  0.372855  1
  Mo  Mo29  1  0.670213  0.836352  0.127933  1
  Mo  Mo30  1  0.836292  0.331047  0.872420  1
  Mo  Mo31  1  0.333576  0.168307  0.628098  1
  Mo  Mo32  1  0.661050  0.011074  0.749156  1
  Mo  Mo33  1  0.161632  0.489115  0.749785  1
  Mo  Mo34  1  0.336970  0.990605  0.250278  1
  Mo  Mo35  1  0.836683  0.504393  0.248051  1
