# generated using pymatgen
data_Er16Al3ZnCo4
_symmetry_space_group_name_H-M   'P 1'
_cell_length_a   9.30802346
_cell_length_b   9.30996349
_cell_length_c   9.30996400
_cell_angle_alpha   60.00000530
_cell_angle_beta   59.99311039
_cell_angle_gamma   59.99311449
_symmetry_Int_Tables_number   1
_chemical_formula_structural   Er16Al3ZnCo4
_chemical_formula_sum   'Er16 Al3 Zn1 Co4'
_cell_volume   570.41803486
_cell_formula_units_Z   1
loop_
 _symmetry_equiv_pos_site_id
 _symmetry_equiv_pos_as_xyz
  1  'x, y, z'
loop_
 _atom_site_type_symbol
 _atom_site_label
 _atom_site_symmetry_multiplicity
 _atom_site_fract_x
 _atom_site_fract_y
 _atom_site_fract_z
 _atom_site_occupancy
  Er  Er0  1  0.600261  0.599209  0.599209  1
  Er  Er1  1  0.600261  0.599209  0.201320  1
  Er  Er2  1  0.600261  0.201320  0.599209  1
  Er  Er3  1  0.200521  0.599827  0.599827  1
  Er  Er4  1  0.056748  0.443032  0.443032  1
  Er  Er5  1  0.441673  0.058310  0.058310  1
  Er  Er6  1  0.441673  0.058310  0.441708  1
  Er  Er7  1  0.056748  0.443032  0.057187  1
  Er  Er8  1  0.441673  0.441708  0.058310  1
  Er  Er9  1  0.056748  0.057187  0.443032  1
  Er  Er10  1  0.190760  0.811670  0.811670  1
  Er  Er11  1  0.812639  0.187386  0.187386  1
  Er  Er12  1  0.812639  0.187386  0.812590  1
  Er  Er13  1  0.190760  0.811670  0.185899  1
  Er  Er14  1  0.812639  0.812590  0.187386  1
  Er  Er15  1  0.190760  0.185899  0.811670  1
  Al  Al16  1  0.826603  0.827533  0.827533  1
  Al  Al17  1  0.826603  0.827533  0.518331  1
  Al  Al18  1  0.826603  0.518331  0.827533  1
  Zn  Zn19  1  0.515808  0.828064  0.828064  1
  Co  Co20  1  0.390166  0.390902  0.390902  1
  Co  Co21  1  0.390166  0.390902  0.828032  1
  Co  Co22  1  0.390166  0.828032  0.390902  1
  Co  Co23  1  0.827124  0.390959  0.390959  1
