# generated using pymatgen
data_NpTa7O19
_symmetry_space_group_name_H-M   'P 1'
_cell_length_a   6.26361000
_cell_length_b   6.26360967
_cell_length_c   20.09300400
_cell_angle_alpha   90.00000000
_cell_angle_beta   90.00000000
_cell_angle_gamma   120.00000174
_symmetry_Int_Tables_number   1
_chemical_formula_structural   NpTa7O19
_chemical_formula_sum   'Np2 Ta14 O38'
_cell_volume   682.69211937
_cell_formula_units_Z   2
loop_
 _symmetry_equiv_pos_site_id
 _symmetry_equiv_pos_as_xyz
  1  'x, y, z'
loop_
 _atom_site_type_symbol
 _atom_site_label
 _atom_site_symmetry_multiplicity
 _atom_site_fract_x
 _atom_site_fract_y
 _atom_site_fract_z
 _atom_site_occupancy
  Np  Np0  1  0.666667  0.333333  0.000000  1
  Np  Np1  1  0.666667  0.333333  0.500000  1
  Ta  Ta2  1  0.693193  0.025941  0.155795  1
  Ta  Ta3  1  0.693193  0.025941  0.344205  1
  Ta  Ta4  1  0.974059  0.306807  0.655795  1
  Ta  Ta5  1  0.974059  0.306807  0.844205  1
  Ta  Ta6  1  0.693193  0.667251  0.844205  1
  Ta  Ta7  1  0.693193  0.667251  0.655795  1
  Ta  Ta8  1  0.000000  0.000000  0.500000  1
  Ta  Ta9  1  0.000000  0.000000  0.000000  1
  Ta  Ta10  1  0.974059  0.667251  0.155795  1
  Ta  Ta11  1  0.974059  0.667251  0.344205  1
  Ta  Ta12  1  0.332749  0.306807  0.155795  1
  Ta  Ta13  1  0.332749  0.306807  0.344205  1
  Ta  Ta14  1  0.332749  0.025941  0.844205  1
  Ta  Ta15  1  0.332749  0.025941  0.655795  1
  O  O16  1  0.332983  0.420042  0.653069  1
  O  O17  1  0.332983  0.420042  0.846931  1
  O  O18  1  0.375834  0.292605  0.250000  1
  O  O19  1  0.579958  0.667017  0.346931  1
  O  O20  1  0.579958  0.667017  0.153069  1
  O  O21  1  0.375834  0.083229  0.750000  1
  O  O22  1  0.332983  0.912940  0.153069  1
  O  O23  1  0.332983  0.912940  0.346931  1
  O  O24  1  0.707395  0.624166  0.750000  1
  O  O25  1  0.666667  0.333333  0.130862  1
  O  O26  1  0.666667  0.333333  0.869138  1
  O  O27  1  0.666667  0.333333  0.630862  1
  O  O28  1  0.666667  0.333333  0.369138  1
  O  O29  1  0.916771  0.624166  0.250000  1
  O  O30  1  0.579958  0.912940  0.653069  1
  O  O31  1  0.579958  0.912940  0.846931  1
  O  O32  1  0.707395  0.083229  0.250000  1
  O  O33  1  0.761343  0.047915  0.055828  1
  O  O34  1  0.761343  0.047915  0.444172  1
  O  O35  1  0.087060  0.667017  0.846931  1
  O  O36  1  0.087060  0.667017  0.653069  1
  O  O37  1  0.916771  0.292605  0.750000  1
  O  O38  1  0.952085  0.238657  0.944172  1
  O  O39  1  0.952085  0.238657  0.555828  1
  O  O40  1  0.087060  0.420042  0.153069  1
  O  O41  1  0.087060  0.420042  0.346931  1
  O  O42  1  0.761343  0.713428  0.555828  1
  O  O43  1  0.761343  0.713428  0.944172  1
  O  O44  1  0.000000  0.000000  0.333869  1
  O  O45  1  0.000000  0.000000  0.833869  1
  O  O46  1  0.000000  0.000000  0.666131  1
  O  O47  1  0.000000  0.000000  0.166131  1
  O  O48  1  0.952085  0.713428  0.055828  1
  O  O49  1  0.952085  0.713428  0.444172  1
  O  O50  1  0.286572  0.238657  0.055828  1
  O  O51  1  0.286572  0.238657  0.444172  1
  O  O52  1  0.286572  0.047915  0.555828  1
  O  O53  1  0.286572  0.047915  0.944172  1
