# generated using pymatgen
data_Tb2Y2MnCoC8
_symmetry_space_group_name_H-M   'P 1'
_cell_length_a   6.62471978
_cell_length_b   6.64013552
_cell_length_c   6.64013509
_cell_angle_alpha   135.06664295
_cell_angle_beta   111.10316398
_cell_angle_gamma   86.14123816
_symmetry_Int_Tables_number   1
_chemical_formula_structural   Tb2Y2MnCoC8
_chemical_formula_sum   'Tb2 Y2 Mn1 Co1 C8'
_cell_volume   184.50017565
_cell_formula_units_Z   1
loop_
 _symmetry_equiv_pos_site_id
 _symmetry_equiv_pos_as_xyz
  1  'x, y, z'
loop_
 _atom_site_type_symbol
 _atom_site_label
 _atom_site_symmetry_multiplicity
 _atom_site_fract_x
 _atom_site_fract_y
 _atom_site_fract_z
 _atom_site_occupancy
  Tb  Tb0  1  0.512517  0.356932  0.158733  1
  Tb  Tb1  1  0.487483  0.646216  0.844415  1
  Y  Y2  1  0.198342  0.854086  0.341007  1
  Y  Y3  1  0.801658  0.142665  0.655744  1
  Mn  Mn4  1  0.000000  0.750000  0.750000  1
  Co  Co5  1  0.000000  0.250181  0.250181  1
  C  C6  1  0.246019  0.063098  0.151471  1
  C  C7  1  0.753981  0.905451  0.817078  1
  C  C8  1  0.913142  0.595141  0.349649  1
  C  C9  1  0.086858  0.436507  0.681999  1
  C  C10  1  0.465814  0.133390  0.343431  1
  C  C11  1  0.534186  0.877617  0.667577  1
  C  C12  1  0.791741  0.622738  0.157718  1
  C  C13  1  0.208259  0.365977  0.830997  1
