# generated using pymatgen
data_CsYTe4
_symmetry_space_group_name_H-M   'P 1'
_cell_length_a   6.89645600
_cell_length_b   6.89645600
_cell_length_c   9.56082100
_cell_angle_alpha   90.00000000
_cell_angle_beta   90.00000000
_cell_angle_gamma   90.00000000
_symmetry_Int_Tables_number   1
_chemical_formula_structural   CsYTe4
_chemical_formula_sum   'Cs2 Y2 Te8'
_cell_volume   454.72321491
_cell_formula_units_Z   2
loop_
 _symmetry_equiv_pos_site_id
 _symmetry_equiv_pos_as_xyz
  1  'x, y, z'
loop_
 _atom_site_type_symbol
 _atom_site_label
 _atom_site_symmetry_multiplicity
 _atom_site_fract_x
 _atom_site_fract_y
 _atom_site_fract_z
 _atom_site_occupancy
  Cs  Cs0  1  0.500000  0.500000  0.000000  1
  Cs  Cs1  1  0.000000  0.000000  0.000000  1
  Y  Y2  1  0.500000  0.500000  0.500000  1
  Y  Y3  1  0.000000  0.000000  0.500000  1
  Te  Te4  1  0.353986  0.853986  0.307643  1
  Te  Te5  1  0.853986  0.646014  0.307643  1
  Te  Te6  1  0.146014  0.353986  0.307643  1
  Te  Te7  1  0.646014  0.146014  0.307643  1
  Te  Te8  1  0.146014  0.646014  0.692357  1
  Te  Te9  1  0.646014  0.853986  0.692357  1
  Te  Te10  1  0.353986  0.146014  0.692357  1
  Te  Te11  1  0.853986  0.353986  0.692357  1
