# generated using pymatgen
data_TbTm15MgAg3Rh4
_symmetry_space_group_name_H-M   'P 1'
_cell_length_a   9.44086385
_cell_length_b   9.46008093
_cell_length_c   9.44477900
_cell_angle_alpha   60.05350341
_cell_angle_beta   59.98629132
_cell_angle_gamma   59.88168044
_symmetry_Int_Tables_number   1
_chemical_formula_structural   TbTm15MgAg3Rh4
_chemical_formula_sum   'Tb1 Tm15 Mg1 Ag3 Rh4'
_cell_volume   596.10608164
_cell_formula_units_Z   1
loop_
 _symmetry_equiv_pos_site_id
 _symmetry_equiv_pos_as_xyz
  1  'x, y, z'
loop_
 _atom_site_type_symbol
 _atom_site_label
 _atom_site_symmetry_multiplicity
 _atom_site_fract_x
 _atom_site_fract_y
 _atom_site_fract_z
 _atom_site_occupancy
  Tb  Tb0  1  0.933860  0.935766  0.565187  1
  Tm  Tm1  1  0.351619  0.349030  0.348688  1
  Tm  Tm2  1  0.351619  0.349030  0.950662  1
  Tm  Tm3  1  0.351461  0.953022  0.347758  1
  Tm  Tm4  1  0.937639  0.354977  0.353692  1
  Tm  Tm5  1  0.810369  0.188341  0.188199  1
  Tm  Tm6  1  0.185943  0.812973  0.814632  1
  Tm  Tm7  1  0.185943  0.812973  0.186451  1
  Tm  Tm8  1  0.810369  0.188341  0.813090  1
  Tm  Tm9  1  0.185486  0.186385  0.814064  1
  Tm  Tm10  1  0.810406  0.811455  0.189069  1
  Tm  Tm11  1  0.933296  0.563419  0.565105  1
  Tm  Tm12  1  0.563849  0.935191  0.935846  1
  Tm  Tm13  1  0.563849  0.935191  0.565115  1
  Tm  Tm14  1  0.933296  0.563419  0.938180  1
  Tm  Tm15  1  0.564388  0.565790  0.934912  1
  Mg  Mg16  1  0.285032  0.571903  0.571532  1
  Ag  Ag17  1  0.582970  0.584637  0.584261  1
  Ag  Ag18  1  0.582970  0.584637  0.248135  1
  Ag  Ag19  1  0.581942  0.249138  0.584461  1
  Rh  Rh20  1  0.140549  0.145729  0.142442  1
  Rh  Rh21  1  0.140549  0.145729  0.571278  1
  Rh  Rh22  1  0.140943  0.569862  0.144597  1
  Rh  Rh23  1  0.571654  0.143061  0.142643  1
