# generated using pymatgen
data_Zr12Cd12BS3
_symmetry_space_group_name_H-M   'P 1'
_cell_length_a   9.37603432
_cell_length_b   9.33468950
_cell_length_c   9.37603500
_cell_angle_alpha   59.85337727
_cell_angle_beta   60.00000113
_cell_angle_gamma   59.85337689
_symmetry_Int_Tables_number   1
_chemical_formula_structural   Zr12Cd12BS3
_chemical_formula_sum   'Zr12 Cd12 B1 S3'
_cell_volume   578.97157405
_cell_formula_units_Z   1
loop_
 _symmetry_equiv_pos_site_id
 _symmetry_equiv_pos_as_xyz
  1  'x, y, z'
loop_
 _atom_site_type_symbol
 _atom_site_label
 _atom_site_symmetry_multiplicity
 _atom_site_fract_x
 _atom_site_fract_y
 _atom_site_fract_z
 _atom_site_occupancy
  Zr  Zr0  1  0.809041  0.193871  0.188047  1
  Zr  Zr1  1  0.184462  0.803140  0.184462  1
  Zr  Zr2  1  0.827936  0.803140  0.184462  1
  Zr  Zr3  1  0.184462  0.803140  0.827936  1
  Zr  Zr4  1  0.809041  0.193871  0.809041  1
  Zr  Zr5  1  0.188047  0.193871  0.809041  1
  Zr  Zr6  1  0.440959  0.056129  0.061953  1
  Zr  Zr7  1  0.065538  0.446860  0.065538  1
  Zr  Zr8  1  0.422064  0.446860  0.065538  1
  Zr  Zr9  1  0.065538  0.446860  0.422064  1
  Zr  Zr10  1  0.440959  0.056129  0.440959  1
  Zr  Zr11  1  0.061953  0.056129  0.440959  1
  Cd  Cd12  1  0.411997  0.412299  0.763705  1
  Cd  Cd13  1  0.411997  0.412299  0.411997  1
  Cd  Cd14  1  0.763705  0.412299  0.411997  1
  Cd  Cd15  1  0.413218  0.760344  0.413218  1
  Cd  Cd16  1  0.838003  0.837701  0.486295  1
  Cd  Cd17  1  0.838003  0.837701  0.838003  1
  Cd  Cd18  1  0.486295  0.837701  0.838003  1
  Cd  Cd19  1  0.836782  0.489656  0.836782  1
  Cd  Cd20  1  0.625000  0.625000  0.125000  1
  Cd  Cd21  1  0.625000  0.625000  0.625000  1
  Cd  Cd22  1  0.125000  0.625000  0.625000  1
  Cd  Cd23  1  0.625000  0.125000  0.625000  1
  B  B24  1  0.125000  0.625000  0.125000  1
  S  S25  1  0.125000  0.125000  0.625000  1
  S  S26  1  0.125000  0.125000  0.125000  1
  S  S27  1  0.625000  0.125000  0.125000  1
