# generated using pymatgen
data_Dy2Ho6Si12PtRh3
_symmetry_space_group_name_H-M   'P 1'
_cell_length_a   8.16972900
_cell_length_b   8.16972851
_cell_length_c   7.88560400
_cell_angle_alpha   90.00000000
_cell_angle_beta   90.00000000
_cell_angle_gamma   120.00000604
_symmetry_Int_Tables_number   1
_chemical_formula_structural   Dy2Ho6Si12PtRh3
_chemical_formula_sum   'Dy2 Ho6 Si12 Pt1 Rh3'
_cell_volume   455.80684661
_cell_formula_units_Z   1
loop_
 _symmetry_equiv_pos_site_id
 _symmetry_equiv_pos_as_xyz
  1  'x, y, z'
loop_
 _atom_site_type_symbol
 _atom_site_label
 _atom_site_symmetry_multiplicity
 _atom_site_fract_x
 _atom_site_fract_y
 _atom_site_fract_z
 _atom_site_occupancy
  Dy  Dy0  1  0.000000  0.000000  0.249330  1
  Dy  Dy1  1  0.000000  0.000000  0.751423  1
  Ho  Ho2  1  0.510391  0.489609  0.247426  1
  Ho  Ho3  1  0.510391  0.020783  0.247426  1
  Ho  Ho4  1  0.979217  0.489609  0.247426  1
  Ho  Ho5  1  0.491477  0.508523  0.752132  1
  Ho  Ho6  1  0.491477  0.982954  0.752132  1
  Ho  Ho7  1  0.017046  0.508523  0.752132  1
  Si  Si8  1  0.164439  0.835561  0.500129  1
  Si  Si9  1  0.164439  0.328876  0.500129  1
  Si  Si10  1  0.671124  0.835561  0.500129  1
  Si  Si11  1  0.832048  0.167952  0.499694  1
  Si  Si12  1  0.832048  0.664098  0.499694  1
  Si  Si13  1  0.335902  0.167952  0.499694  1
  Si  Si14  1  0.833229  0.166771  0.999397  1
  Si  Si15  1  0.833229  0.666460  0.999397  1
  Si  Si16  1  0.333540  0.166771  0.999397  1
  Si  Si17  1  0.166959  0.833041  0.000588  1
  Si  Si18  1  0.166959  0.333917  0.000588  1
  Si  Si19  1  0.666083  0.833041  0.000588  1
  Pt  Pt20  1  0.333333  0.666667  0.466045  1
  Rh  Rh21  1  0.666667  0.333333  0.536933  1
  Rh  Rh22  1  0.666667  0.333333  0.963460  1
  Rh  Rh23  1  0.333333  0.666667  0.034710  1
