# generated using pymatgen
data_HoLu7In3Ni
_symmetry_space_group_name_H-M   'P 1'
_cell_length_a   10.22331500
_cell_length_b   10.22331618
_cell_length_c   6.85152400
_cell_angle_alpha   90.00000000
_cell_angle_beta   90.00000000
_cell_angle_gamma   120.00000588
_symmetry_Int_Tables_number   1
_chemical_formula_structural   HoLu7In3Ni
_chemical_formula_sum   'Ho2 Lu14 In6 Ni2'
_cell_volume   620.15653487
_cell_formula_units_Z   2
loop_
 _symmetry_equiv_pos_site_id
 _symmetry_equiv_pos_as_xyz
  1  'x, y, z'
loop_
 _atom_site_type_symbol
 _atom_site_label
 _atom_site_symmetry_multiplicity
 _atom_site_fract_x
 _atom_site_fract_y
 _atom_site_fract_z
 _atom_site_occupancy
  Ho  Ho0  1  0.000000  0.000000  0.498304  1
  Ho  Ho1  1  0.000000  0.000000  0.998304  1
  Lu  Lu2  1  0.466610  0.533390  0.478509  1
  Lu  Lu3  1  0.066782  0.533390  0.478509  1
  Lu  Lu4  1  0.466610  0.933218  0.478509  1
  Lu  Lu5  1  0.533390  0.466610  0.978509  1
  Lu  Lu6  1  0.933218  0.466610  0.978509  1
  Lu  Lu7  1  0.533390  0.066782  0.978509  1
  Lu  Lu8  1  0.821377  0.178623  0.275662  1
  Lu  Lu9  1  0.357245  0.178623  0.275662  1
  Lu  Lu10  1  0.821377  0.642755  0.275662  1
  Lu  Lu11  1  0.178623  0.821377  0.775662  1
  Lu  Lu12  1  0.642755  0.821377  0.775662  1
  Lu  Lu13  1  0.178623  0.357245  0.775662  1
  Lu  Lu14  1  0.333333  0.666667  0.093513  1
  Lu  Lu15  1  0.666667  0.333333  0.593513  1
  In  In16  1  0.162996  0.837004  0.236820  1
  In  In17  1  0.674007  0.837004  0.236820  1
  In  In18  1  0.162996  0.325993  0.236820  1
  In  In19  1  0.837004  0.162996  0.736820  1
  In  In20  1  0.325993  0.162996  0.736820  1
  In  In21  1  0.837004  0.674007  0.736820  1
  Ni  Ni22  1  0.333333  0.666667  0.707488  1
  Ni  Ni23  1  0.666667  0.333333  0.207488  1
