# generated using pymatgen
data_Ho7Sn22BiOs6
_symmetry_space_group_name_H-M   'P 1'
_cell_length_a   9.81578000
_cell_length_b   9.81577877
_cell_length_c   10.17839100
_cell_angle_alpha   90.00000000
_cell_angle_beta   90.00000000
_cell_angle_gamma   119.99999739
_symmetry_Int_Tables_number   1
_chemical_formula_structural   Ho7Sn22BiOs6
_chemical_formula_sum   'Ho7 Sn22 Bi1 Os6'
_cell_volume   849.29653280
_cell_formula_units_Z   1
loop_
 _symmetry_equiv_pos_site_id
 _symmetry_equiv_pos_as_xyz
  1  'x, y, z'
loop_
 _atom_site_type_symbol
 _atom_site_label
 _atom_site_symmetry_multiplicity
 _atom_site_fract_x
 _atom_site_fract_y
 _atom_site_fract_z
 _atom_site_occupancy
  Ho  Ho0  1  0.000000  0.000000  0.000000  1
  Ho  Ho1  1  0.515991  0.484009  0.696478  1
  Ho  Ho2  1  0.515991  0.031980  0.696478  1
  Ho  Ho3  1  0.968020  0.484009  0.696478  1
  Ho  Ho4  1  0.031980  0.515991  0.303522  1
  Ho  Ho5  1  0.484009  0.968020  0.303522  1
  Ho  Ho6  1  0.484009  0.515991  0.303522  1
  Sn  Sn7  1  0.666667  0.333333  0.178491  1
  Sn  Sn8  1  0.666667  0.333333  0.871245  1
  Sn  Sn9  1  0.333333  0.666667  0.128755  1
  Sn  Sn10  1  0.350613  0.350613  0.000000  1
  Sn  Sn11  1  0.000000  0.649387  0.000000  1
  Sn  Sn12  1  0.649387  0.000000  0.000000  1
  Sn  Sn13  1  0.649387  0.649387  0.000000  1
  Sn  Sn14  1  0.333333  0.666667  0.821509  1
  Sn  Sn15  1  0.440531  0.220265  0.460601  1
  Sn  Sn16  1  0.220265  0.779735  0.539399  1
  Sn  Sn17  1  0.220265  0.440531  0.539399  1
  Sn  Sn18  1  0.559469  0.779735  0.539399  1
  Sn  Sn19  1  0.119478  0.880522  0.271927  1
  Sn  Sn20  1  0.779735  0.559469  0.460601  1
  Sn  Sn21  1  0.779735  0.220265  0.460601  1
  Sn  Sn22  1  0.350613  0.000000  0.000000  1
  Sn  Sn23  1  0.119478  0.238955  0.271927  1
  Sn  Sn24  1  0.761045  0.880522  0.271927  1
  Sn  Sn25  1  0.238955  0.119478  0.728073  1
  Sn  Sn26  1  0.880522  0.761045  0.728073  1
  Sn  Sn27  1  0.880522  0.119478  0.728073  1
  Sn  Sn28  1  0.000000  0.350613  0.000000  1
  Bi  Bi29  1  0.000000  0.000000  0.500000  1
  Os  Os30  1  0.170085  0.829915  0.798710  1
  Os  Os31  1  0.170085  0.340171  0.798710  1
  Os  Os32  1  0.659829  0.829915  0.798710  1
  Os  Os33  1  0.340171  0.170085  0.201290  1
  Os  Os34  1  0.829915  0.659829  0.201290  1
  Os  Os35  1  0.829915  0.170085  0.201290  1
