# generated using pymatgen
data_Zr2Al2GaPt
_symmetry_space_group_name_H-M   'P 1'
_cell_length_a   6.78024500
_cell_length_b   6.78024439
_cell_length_c   8.12228700
_cell_angle_alpha   90.00000000
_cell_angle_beta   90.00000000
_cell_angle_gamma   119.99999809
_symmetry_Int_Tables_number   1
_chemical_formula_structural   Zr2Al2GaPt
_chemical_formula_sum   'Zr6 Al6 Ga3 Pt3'
_cell_volume   323.36998499
_cell_formula_units_Z   3
loop_
 _symmetry_equiv_pos_site_id
 _symmetry_equiv_pos_as_xyz
  1  'x, y, z'
loop_
 _atom_site_type_symbol
 _atom_site_label
 _atom_site_symmetry_multiplicity
 _atom_site_fract_x
 _atom_site_fract_y
 _atom_site_fract_z
 _atom_site_occupancy
  Zr  Zr0  1  0.000945  0.587530  0.747520  1
  Zr  Zr1  1  0.001668  0.587629  0.252395  1
  Zr  Zr2  1  0.585961  0.998332  0.252395  1
  Zr  Zr3  1  0.586585  0.999055  0.747520  1
  Zr  Zr4  1  0.412371  0.414039  0.252395  1
  Zr  Zr5  1  0.412470  0.413415  0.747520  1
  Al  Al6  1  0.001813  0.243496  0.500020  1
  Al  Al7  1  0.746191  0.756284  0.999825  1
  Al  Al8  1  0.010093  0.253809  0.999825  1
  Al  Al9  1  0.241683  0.998187  0.500020  1
  Al  Al10  1  0.243716  0.989907  0.999825  1
  Al  Al11  1  0.756504  0.758317  0.500020  1
  Ga  Ga12  1  0.333333  0.666667  0.500517  1
  Ga  Ga13  1  0.666667  0.333333  0.499902  1
  Ga  Ga14  1  0.666667  0.333333  0.000849  1
  Pt  Pt15  1  0.000000  0.000000  0.247333  1
  Pt  Pt16  1  0.000000  0.000000  0.752490  1
  Pt  Pt17  1  0.333333  0.666667  0.999627  1
