# generated using pymatgen
data_Lu2Pa2Ge6Ru7
_symmetry_space_group_name_H-M   'P 1'
_cell_length_a   7.23446154
_cell_length_b   7.20334276
_cell_length_c   7.20334241
_cell_angle_alpha   109.50970683
_cell_angle_beta   109.36495371
_cell_angle_gamma   109.36496205
_symmetry_Int_Tables_number   1
_chemical_formula_structural   Lu2Pa2Ge6Ru7
_chemical_formula_sum   'Lu2 Pa2 Ge6 Ru7'
_cell_volume   289.58834918
_cell_formula_units_Z   1
loop_
 _symmetry_equiv_pos_site_id
 _symmetry_equiv_pos_as_xyz
  1  'x, y, z'
loop_
 _atom_site_type_symbol
 _atom_site_label
 _atom_site_symmetry_multiplicity
 _atom_site_fract_x
 _atom_site_fract_y
 _atom_site_fract_z
 _atom_site_occupancy
  Lu  Lu0  1  0.000000  0.000000  0.500000  1
  Lu  Lu1  1  0.000000  0.500000  0.000000  1
  Pa  Pa2  1  0.500000  0.000000  0.000000  1
  Pa  Pa3  1  0.500000  0.500000  0.500000  1
  Ge  Ge4  1  0.693311  0.687616  0.005695  1
  Ge  Ge5  1  0.306689  0.994305  0.312384  1
  Ge  Ge6  1  0.000000  0.313276  0.313276  1
  Ge  Ge7  1  0.306689  0.312384  0.994305  1
  Ge  Ge8  1  0.693311  0.005695  0.687616  1
  Ge  Ge9  1  0.000000  0.686724  0.686724  1
  Ru  Ru10  1  0.743017  0.249123  0.493894  1
  Ru  Ru11  1  0.743017  0.493894  0.249123  1
  Ru  Ru12  1  0.500000  0.250000  0.750000  1
  Ru  Ru13  1  0.256983  0.506106  0.750877  1
  Ru  Ru14  1  0.256983  0.750877  0.506106  1
  Ru  Ru15  1  0.500000  0.750000  0.250000  1
  Ru  Ru16  1  0.000000  0.000000  0.000000  1
