# generated using pymatgen
data_Ho2Tm8BiSb5
_symmetry_space_group_name_H-M   'P 1'
_cell_length_a   8.04158800
_cell_length_b   9.27438714
_cell_length_c   11.74291269
_cell_angle_alpha   90.07769660
_cell_angle_beta   90.00000000
_cell_angle_gamma   90.00000000
_symmetry_Int_Tables_number   1
_chemical_formula_structural   Ho2Tm8BiSb5
_chemical_formula_sum   'Ho4 Tm16 Bi2 Sb10'
_cell_volume   875.79502132
_cell_formula_units_Z   2
loop_
 _symmetry_equiv_pos_site_id
 _symmetry_equiv_pos_as_xyz
  1  'x, y, z'
loop_
 _atom_site_type_symbol
 _atom_site_label
 _atom_site_symmetry_multiplicity
 _atom_site_fract_x
 _atom_site_fract_y
 _atom_site_fract_z
 _atom_site_occupancy
  Ho  Ho0  1  0.315751  0.251039  0.218170  1
  Ho  Ho1  1  0.815751  0.248961  0.281830  1
  Ho  Ho2  1  0.685220  0.750068  0.781517  1
  Ho  Ho3  1  0.185220  0.749932  0.718483  1
  Tm  Tm4  1  0.353131  0.750539  0.215251  1
  Tm  Tm5  1  0.853131  0.749461  0.284749  1
  Tm  Tm6  1  0.646596  0.250078  0.784195  1
  Tm  Tm7  1  0.146596  0.249922  0.715805  1
  Tm  Tm8  1  0.692318  0.563022  0.057597  1
  Tm  Tm9  1  0.192318  0.936978  0.442403  1
  Tm  Tm10  1  0.309380  0.063131  0.938584  1
  Tm  Tm11  1  0.809380  0.436869  0.561416  1
  Tm  Tm12  1  0.308665  0.437389  0.940122  1
  Tm  Tm13  1  0.808665  0.062611  0.559878  1
  Tm  Tm14  1  0.689591  0.936824  0.059076  1
  Tm  Tm15  1  0.189591  0.563176  0.440924  1
  Tm  Tm16  1  0.473569  0.247960  0.490639  1
  Tm  Tm17  1  0.973569  0.252040  0.009361  1
  Tm  Tm18  1  0.525433  0.751925  0.512556  1
  Tm  Tm19  1  0.025433  0.748075  0.987444  1
  Bi  Bi20  1  0.566420  0.504433  0.325957  1
  Bi  Bi21  1  0.066420  0.995567  0.174043  1
  Sb  Sb22  1  0.406221  0.750028  0.959341  1
  Sb  Sb23  1  0.906221  0.749972  0.540659  1
  Sb  Sb24  1  0.593575  0.250073  0.040561  1
  Sb  Sb25  1  0.093575  0.249927  0.459439  1
  Sb  Sb26  1  0.565792  0.994990  0.326809  1
  Sb  Sb27  1  0.065792  0.505010  0.173191  1
  Sb  Sb28  1  0.434252  0.495183  0.672948  1
  Sb  Sb29  1  0.934252  0.004817  0.827052  1
  Sb  Sb30  1  0.434086  0.004928  0.673478  1
  Sb  Sb31  1  0.934086  0.495072  0.826522  1
