# generated using pymatgen
data_Er12InNi4Hg
_symmetry_space_group_name_H-M   'P 1'
_cell_length_a   8.30811417
_cell_length_b   8.30811357
_cell_length_c   8.30811336
_cell_angle_alpha   112.51181480
_cell_angle_beta   109.19343191
_cell_angle_gamma   106.76025400
_symmetry_Int_Tables_number   1
_chemical_formula_structural   Er12InNi4Hg
_chemical_formula_sum   'Er12 In1 Ni4 Hg1'
_cell_volume   440.32821931
_cell_formula_units_Z   1
loop_
 _symmetry_equiv_pos_site_id
 _symmetry_equiv_pos_as_xyz
  1  'x, y, z'
loop_
 _atom_site_type_symbol
 _atom_site_label
 _atom_site_symmetry_multiplicity
 _atom_site_fract_x
 _atom_site_fract_y
 _atom_site_fract_z
 _atom_site_occupancy
  Er  Er0  1  0.434028  0.228340  0.205687  1
  Er  Er1  1  0.565972  0.771660  0.794313  1
  Er  Er2  1  0.022654  0.228340  0.794313  1
  Er  Er3  1  0.977346  0.771660  0.205687  1
  Er  Er4  1  0.183881  0.292540  0.476421  1
  Er  Er5  1  0.816119  0.707460  0.523579  1
  Er  Er6  1  0.183881  0.707460  0.891342  1
  Er  Er7  1  0.816119  0.292540  0.108658  1
  Er  Er8  1  0.322862  0.626338  0.303475  1
  Er  Er9  1  0.677138  0.373662  0.696525  1
  Er  Er10  1  0.322862  0.019385  0.696525  1
  Er  Er11  1  0.677138  0.980615  0.303475  1
  In  In12  1  0.500000  0.500000  0.000000  1
  Ni  Ni13  1  0.363918  0.000000  0.363918  1
  Ni  Ni14  1  0.636082  0.000000  0.636082  1
  Ni  Ni15  1  0.123508  0.623508  0.500000  1
  Ni  Ni16  1  0.876492  0.376492  0.500000  1
  Hg  Hg17  1  0.000000  0.000000  0.000000  1
