# generated using pymatgen
data_Sr2LiRh2
_symmetry_space_group_name_H-M   'P 1'
_cell_length_a   5.92267694
_cell_length_b   5.92267625
_cell_length_c   5.92267594
_cell_angle_alpha   134.43519579
_cell_angle_beta   125.39364408
_cell_angle_gamma   73.78199080
_symmetry_Int_Tables_number   1
_chemical_formula_structural   Sr2LiRh2
_chemical_formula_sum   'Sr2 Li1 Rh2'
_cell_volume   118.05472193
_cell_formula_units_Z   1
loop_
 _symmetry_equiv_pos_site_id
 _symmetry_equiv_pos_as_xyz
  1  'x, y, z'
loop_
 _atom_site_type_symbol
 _atom_site_label
 _atom_site_symmetry_multiplicity
 _atom_site_fract_x
 _atom_site_fract_y
 _atom_site_fract_z
 _atom_site_occupancy
  Sr  Sr0  1  0.693394  0.193394  0.500001  1
  Sr  Sr1  1  0.306607  0.806607  0.500000  1
  Li  Li2  1  0.000000  0.000000  0.000000  1
  Rh  Rh3  1  0.748777  0.499999  0.248777  1
  Rh  Rh4  1  0.251222  0.500000  0.751222  1
