# generated using pymatgen
data_CePr7(CdIr)2
_symmetry_space_group_name_H-M   'P 1'
_cell_length_a   9.99790012
_cell_length_b   9.99789988
_cell_length_c   10.07269700
_cell_angle_alpha   59.75221433
_cell_angle_beta   59.75221513
_cell_angle_gamma   59.68665071
_symmetry_Int_Tables_number   1
_chemical_formula_structural   CePr7(CdIr)2
_chemical_formula_sum   'Ce2 Pr14 Cd4 Ir4'
_cell_volume   707.58774558
_cell_formula_units_Z   2
loop_
 _symmetry_equiv_pos_site_id
 _symmetry_equiv_pos_as_xyz
  1  'x, y, z'
loop_
 _atom_site_type_symbol
 _atom_site_label
 _atom_site_symmetry_multiplicity
 _atom_site_fract_x
 _atom_site_fract_y
 _atom_site_fract_z
 _atom_site_occupancy
  Ce  Ce0  1  0.343234  0.343234  0.345040  1
  Ce  Ce1  1  0.343234  0.343234  0.968490  1
  Pr  Pr2  1  0.349055  0.952461  0.349242  1
  Pr  Pr3  1  0.952461  0.349055  0.349242  1
  Pr  Pr4  1  0.809425  0.190303  0.191239  1
  Pr  Pr5  1  0.190303  0.809425  0.809034  1
  Pr  Pr6  1  0.190303  0.809425  0.191239  1
  Pr  Pr7  1  0.809425  0.190303  0.809034  1
  Pr  Pr8  1  0.191245  0.191245  0.808755  1
  Pr  Pr9  1  0.809240  0.809240  0.190760  1
  Pr  Pr10  1  0.941917  0.559579  0.561836  1
  Pr  Pr11  1  0.559579  0.941917  0.936668  1
  Pr  Pr12  1  0.559579  0.941917  0.561836  1
  Pr  Pr13  1  0.941917  0.559579  0.936668  1
  Pr  Pr14  1  0.559598  0.559598  0.940402  1
  Pr  Pr15  1  0.937613  0.937613  0.562387  1
  Cd  Cd16  1  0.578256  0.578256  0.582357  1
  Cd  Cd17  1  0.578256  0.578256  0.261129  1
  Cd  Cd18  1  0.577000  0.261515  0.580742  1
  Cd  Cd19  1  0.261515  0.577000  0.580742  1
  Ir  Ir20  1  0.148028  0.148028  0.134120  1
  Ir  Ir21  1  0.148028  0.148028  0.569824  1
  Ir  Ir22  1  0.153534  0.567253  0.139607  1
  Ir  Ir23  1  0.567253  0.153534  0.139607  1
