# generated using pymatgen
data_Dy6Ni20As13
_symmetry_space_group_name_H-M   'P 1'
_cell_length_a   13.11021800
_cell_length_b   13.11021728
_cell_length_c   3.87932500
_cell_angle_alpha   90.00000000
_cell_angle_beta   90.00000000
_cell_angle_gamma   120.00000183
_symmetry_Int_Tables_number   1
_chemical_formula_structural   Dy6Ni20As13
_chemical_formula_sum   'Dy6 Ni20 As13'
_cell_volume   577.43963674
_cell_formula_units_Z   1
loop_
 _symmetry_equiv_pos_site_id
 _symmetry_equiv_pos_as_xyz
  1  'x, y, z'
loop_
 _atom_site_type_symbol
 _atom_site_label
 _atom_site_symmetry_multiplicity
 _atom_site_fract_x
 _atom_site_fract_y
 _atom_site_fract_z
 _atom_site_occupancy
  Dy  Dy0  1  0.529225  0.811393  0.000000  1
  Dy  Dy1  1  0.282167  0.470775  0.000000  1
  Dy  Dy2  1  0.188607  0.717833  0.000000  1
  Dy  Dy3  1  0.810390  0.280277  0.500000  1
  Dy  Dy4  1  0.469887  0.189610  0.500000  1
  Dy  Dy5  1  0.719723  0.530113  0.500000  1
  Ni  Ni6  1  0.800605  0.908715  0.000000  1
  Ni  Ni7  1  0.108109  0.199395  0.000000  1
  Ni  Ni8  1  0.091285  0.891891  0.000000  1
  Ni  Ni9  1  0.333333  0.666667  0.500000  1
  Ni  Ni10  1  0.931582  0.081332  0.500000  1
  Ni  Ni11  1  0.149750  0.068418  0.500000  1
  Ni  Ni12  1  0.918668  0.850250  0.500000  1
  Ni  Ni13  1  0.666667  0.333333  0.000000  1
  Ni  Ni14  1  0.563959  0.584159  0.000000  1
  Ni  Ni15  1  0.020198  0.436041  0.000000  1
  Ni  Ni16  1  0.415841  0.979802  0.000000  1
  Ni  Ni17  1  0.684193  0.753438  0.500000  1
  Ni  Ni18  1  0.069246  0.315807  0.500000  1
  Ni  Ni19  1  0.246562  0.930754  0.500000  1
  Ni  Ni20  1  0.979540  0.564655  0.500000  1
  Ni  Ni21  1  0.585115  0.020460  0.500000  1
  Ni  Ni22  1  0.435345  0.414885  0.500000  1
  Ni  Ni23  1  0.753600  0.075098  0.000000  1
  Ni  Ni24  1  0.321498  0.246400  0.000000  1
  Ni  Ni25  1  0.924902  0.678502  0.000000  1
  As  As26  1  0.476728  0.614391  0.500000  1
  As  As27  1  0.137663  0.523272  0.500000  1
  As  As28  1  0.385609  0.862337  0.500000  1
  As  As29  1  0.720178  0.952395  0.500000  1
  As  As30  1  0.232218  0.279822  0.500000  1
  As  As31  1  0.047605  0.767782  0.500000  1
  As  As32  1  0.862044  0.475114  0.000000  1
  As  As33  1  0.613070  0.137956  0.000000  1
  As  As34  1  0.524886  0.386930  0.000000  1
  As  As35  1  0.948268  0.231062  0.000000  1
  As  As36  1  0.282794  0.051732  0.000000  1
  As  As37  1  0.768938  0.717206  0.000000  1
  As  As38  1  0.000000  0.000000  0.000000  1
