# generated using pymatgen
data_Hf3Co5B2
_symmetry_space_group_name_H-M   'P 1'
_cell_length_a   8.75718900
_cell_length_b   8.75718900
_cell_length_c   3.18083000
_cell_angle_alpha   90.00000000
_cell_angle_beta   90.00000000
_cell_angle_gamma   90.00000000
_symmetry_Int_Tables_number   1
_chemical_formula_structural   Hf3Co5B2
_chemical_formula_sum   'Hf6 Co10 B4'
_cell_volume   243.93263354
_cell_formula_units_Z   2
loop_
 _symmetry_equiv_pos_site_id
 _symmetry_equiv_pos_as_xyz
  1  'x, y, z'
loop_
 _atom_site_type_symbol
 _atom_site_label
 _atom_site_symmetry_multiplicity
 _atom_site_fract_x
 _atom_site_fract_y
 _atom_site_fract_z
 _atom_site_occupancy
  Hf  Hf0  1  0.000000  0.000000  0.000000  1
  Hf  Hf1  1  0.500000  0.500000  0.000000  1
  Hf  Hf2  1  0.825739  0.325739  0.000000  1
  Hf  Hf3  1  0.325739  0.174261  0.000000  1
  Hf  Hf4  1  0.674261  0.825739  0.000000  1
  Hf  Hf5  1  0.174261  0.674261  0.000000  1
  Co  Co6  1  0.500000  0.000000  0.500000  1
  Co  Co7  1  0.000000  0.500000  0.500000  1
  Co  Co8  1  0.070838  0.227803  0.500000  1
  Co  Co9  1  0.227803  0.929162  0.500000  1
  Co  Co10  1  0.772197  0.070838  0.500000  1
  Co  Co11  1  0.929162  0.772197  0.500000  1
  Co  Co12  1  0.429162  0.727803  0.500000  1
  Co  Co13  1  0.570838  0.272197  0.500000  1
  Co  Co14  1  0.727803  0.570838  0.500000  1
  Co  Co15  1  0.272197  0.429162  0.500000  1
  B  B16  1  0.618437  0.118437  0.000000  1
  B  B17  1  0.118437  0.381563  0.000000  1
  B  B18  1  0.881563  0.618437  0.000000  1
  B  B19  1  0.381563  0.881563  0.000000  1
