# generated using pymatgen
data_Ac7Yb10Pr3Si16
_symmetry_space_group_name_H-M   'P 1'
_cell_length_a   8.09715823
_cell_length_b   8.09689801
_cell_length_c   15.02588421
_cell_angle_alpha   90.28585501
_cell_angle_beta   89.79770753
_cell_angle_gamma   90.15509042
_symmetry_Int_Tables_number   1
_chemical_formula_structural   Ac7Yb10Pr3Si16
_chemical_formula_sum   'Ac7 Yb10 Pr3 Si16'
_cell_volume   985.10301994
_cell_formula_units_Z   1
loop_
 _symmetry_equiv_pos_site_id
 _symmetry_equiv_pos_as_xyz
  1  'x, y, z'
loop_
 _atom_site_type_symbol
 _atom_site_label
 _atom_site_symmetry_multiplicity
 _atom_site_fract_x
 _atom_site_fract_y
 _atom_site_fract_z
 _atom_site_occupancy
  Ac  Ac0  1  0.370981  0.012124  0.453749  1
  Ac  Ac1  1  0.487136  0.869909  0.705466  1
  Ac  Ac2  1  0.510533  0.130975  0.203766  1
  Ac  Ac3  1  0.866799  0.488887  0.291025  1
  Ac  Ac4  1  0.127751  0.513004  0.799100  1
  Ac  Ac5  1  0.627278  0.987975  0.956090  1
  Ac  Ac6  1  0.011811  0.372129  0.545778  1
  Yb  Yb7  1  0.311864  0.319831  0.999405  1
  Yb  Yb8  1  0.191933  0.800840  0.246437  1
  Yb  Yb9  1  0.808157  0.191779  0.752726  1
  Yb  Yb10  1  0.682577  0.680086  0.499442  1
  Yb  Yb11  1  0.994881  0.621240  0.047879  1
  Yb  Yb12  1  0.129711  0.990007  0.877280  1
  Yb  Yb13  1  0.510430  0.631743  0.123141  1
  Yb  Yb14  1  0.490644  0.369238  0.626385  1
  Yb  Yb15  1  0.633285  0.510777  0.877468  1
  Yb  Yb16  1  0.370050  0.491670  0.374076  1
  Pr  Pr17  1  0.872987  0.004360  0.374569  1
  Pr  Pr18  1  0.995987  0.127419  0.123516  1
  Pr  Pr19  1  0.005688  0.873630  0.624407  1
  Si  Si20  1  0.206917  0.158717  0.696027  1
  Si  Si21  1  0.337218  0.703866  0.946377  1
  Si  Si22  1  0.663263  0.293911  0.444869  1
  Si  Si23  1  0.708776  0.339961  0.056773  1
  Si  Si24  1  0.294571  0.663679  0.553162  1
  Si  Si25  1  0.794720  0.841500  0.192485  1
  Si  Si26  1  0.157137  0.209447  0.305420  1
  Si  Si27  1  0.837809  0.796654  0.803288  1
  Si  Si28  1  0.284599  0.918843  0.058647  1
  Si  Si29  1  0.582459  0.787880  0.306950  1
  Si  Si30  1  0.419237  0.213998  0.809495  1
  Si  Si31  1  0.785942  0.581927  0.691587  1
  Si  Si32  1  0.212191  0.418465  0.191658  1
  Si  Si33  1  0.714294  0.080941  0.557948  1
  Si  Si34  1  0.920338  0.289232  0.942893  1
  Si  Si35  1  0.080047  0.713358  0.440714  1
