# generated using pymatgen
data_Ti2Nb12SiP7
_symmetry_space_group_name_H-M   'P 1'
_cell_length_a   7.69823167
_cell_length_b   7.69823124
_cell_length_c   13.84628374
_cell_angle_alpha   76.08516255
_cell_angle_beta   76.08516372
_cell_angle_gamma   26.06535768
_symmetry_Int_Tables_number   1
_chemical_formula_structural   Ti2Nb12SiP7
_chemical_formula_sum   'Ti2 Nb12 Si1 P7'
_cell_volume   349.39818329
_cell_formula_units_Z   1
loop_
 _symmetry_equiv_pos_site_id
 _symmetry_equiv_pos_as_xyz
  1  'x, y, z'
loop_
 _atom_site_type_symbol
 _atom_site_label
 _atom_site_symmetry_multiplicity
 _atom_site_fract_x
 _atom_site_fract_y
 _atom_site_fract_z
 _atom_site_occupancy
  Ti  Ti0  1  0.998463  0.998463  0.000934  1
  Ti  Ti1  1  0.500410  0.500410  0.500360  1
  Nb  Nb2  1  0.431105  0.431105  0.171654  1
  Nb  Nb3  1  0.567312  0.567312  0.826928  1
  Nb  Nb4  1  0.196518  0.196518  0.686735  1
  Nb  Nb5  1  0.804662  0.804662  0.312438  1
  Nb  Nb6  1  0.209299  0.209299  0.200827  1
  Nb  Nb7  1  0.793094  0.793094  0.795248  1
  Nb  Nb8  1  0.336805  0.336805  0.971584  1
  Nb  Nb9  1  0.662205  0.662205  0.031849  1
  Nb  Nb10  1  0.003202  0.003202  0.335018  1
  Nb  Nb11  1  0.996803  0.996803  0.664897  1
  Nb  Nb12  1  0.174925  0.174925  0.458184  1
  Nb  Nb13  1  0.825348  0.825348  0.541590  1
  Si  Si14  1  0.174058  0.174058  0.889898  1
  P  P15  1  0.826198  0.826198  0.111290  1
  P  P16  1  0.376093  0.376093  0.400184  1
  P  P17  1  0.623778  0.623778  0.600509  1
  P  P18  1  0.372189  0.372189  0.661464  1
  P  P19  1  0.628556  0.628556  0.337504  1
  P  P20  1  0.061872  0.061872  0.149832  1
  P  P21  1  0.937106  0.937106  0.851072  1
