# generated using pymatgen
data_Tb6Ho5ScPb10
_symmetry_space_group_name_H-M   'P 1'
_cell_length_a   11.73971284
_cell_length_b   11.73475012
_cell_length_c   11.74878851
_cell_angle_alpha   147.40719805
_cell_angle_beta   132.61667562
_cell_angle_gamma   58.59705823
_symmetry_Int_Tables_number   1
_chemical_formula_structural   Tb6Ho5ScPb10
_chemical_formula_sum   'Tb6 Ho5 Sc1 Pb10'
_cell_volume   636.59312574
_cell_formula_units_Z   1
loop_
 _symmetry_equiv_pos_site_id
 _symmetry_equiv_pos_as_xyz
  1  'x, y, z'
loop_
 _atom_site_type_symbol
 _atom_site_label
 _atom_site_symmetry_multiplicity
 _atom_site_fract_x
 _atom_site_fract_y
 _atom_site_fract_z
 _atom_site_occupancy
  Tb  Tb0  1  0.696215  0.946556  0.249927  1
  Tb  Tb1  1  0.251994  0.639639  0.610992  1
  Tb  Tb2  1  0.674967  0.940965  0.733646  1
  Tb  Tb3  1  0.028764  0.140922  0.889116  1
  Tb  Tb4  1  0.970885  0.858353  0.111178  1
  Tb  Tb5  1  0.792715  0.559644  0.233814  1
  Ho  Ho6  1  0.207997  0.441452  0.767058  1
  Ho  Ho7  1  0.303554  0.053699  0.749969  1
  Ho  Ho8  1  0.325983  0.058866  0.266391  1
  Ho  Ho9  1  0.303933  0.553985  0.249813  1
  Ho  Ho10  1  0.747363  0.359799  0.389049  1
  Sc  Sc11  1  0.694629  0.444737  0.749803  1
  Pb  Pb12  1  0.479116  0.569001  0.894594  1
  Pb  Pb13  1  0.597591  0.785984  0.797878  1
  Pb  Pb14  1  0.673639  0.084943  0.604424  1
  Pb  Pb15  1  0.000922  0.749781  0.750267  1
  Pb  Pb16  1  0.988046  0.300026  0.701345  1
  Pb  Pb17  1  0.523130  0.423728  0.098347  1
  Pb  Pb18  1  0.006972  0.702494  0.296655  1
  Pb  Pb19  1  0.405586  0.209992  0.203523  1
  Pb  Pb20  1  0.325675  0.925165  0.401341  1
  Pb  Pb21  1  0.000324  0.250267  0.250871  1
