# generated using pymatgen
data_Na3Pu(PO4)2
_symmetry_space_group_name_H-M   'P 1'
_cell_length_a   5.37257082
_cell_length_b   5.37256944
_cell_length_c   7.00536758
_cell_angle_alpha   92.47863063
_cell_angle_beta   92.47863011
_cell_angle_gamma   64.47267081
_symmetry_Int_Tables_number   1
_chemical_formula_structural   Na3Pu(PO4)2
_chemical_formula_sum   'Na3 Pu1 P2 O8'
_cell_volume   182.22842299
_cell_formula_units_Z   1
loop_
 _symmetry_equiv_pos_site_id
 _symmetry_equiv_pos_as_xyz
  1  'x, y, z'
loop_
 _atom_site_type_symbol
 _atom_site_label
 _atom_site_symmetry_multiplicity
 _atom_site_fract_x
 _atom_site_fract_y
 _atom_site_fract_z
 _atom_site_occupancy
  Na  Na0  1  0.678890  0.678890  0.312714  1
  Na  Na1  1  0.000000  0.000000  0.500000  1
  Na  Na2  1  0.321110  0.321110  0.687286  1
  Pu  Pu3  1  0.000000  0.000000  0.000000  1
  P  P4  1  0.656008  0.656008  0.785597  1
  P  P5  1  0.343992  0.343992  0.214403  1
  O  O6  1  0.225881  0.225881  0.364324  1
  O  O7  1  0.774119  0.774119  0.635676  1
  O  O8  1  0.226307  0.666450  0.241542  1
  O  O9  1  0.333550  0.773693  0.758458  1
  O  O10  1  0.773693  0.333550  0.758458  1
  O  O11  1  0.666450  0.226307  0.241542  1
  O  O12  1  0.268409  0.268409  0.011159  1
  O  O13  1  0.731591  0.731591  0.988841  1
