# generated using pymatgen
data_Y12TcOs3
_symmetry_space_group_name_H-M   'P 1'
_cell_length_a   6.35242394
_cell_length_b   7.47734408
_cell_length_c   9.11671500
_cell_angle_alpha   90.00000000
_cell_angle_beta   90.00000000
_cell_angle_gamma   90.06200976
_symmetry_Int_Tables_number   1
_chemical_formula_structural   Y12TcOs3
_chemical_formula_sum   'Y12 Tc1 Os3'
_cell_volume   433.03695852
_cell_formula_units_Z   1
loop_
 _symmetry_equiv_pos_site_id
 _symmetry_equiv_pos_as_xyz
  1  'x, y, z'
loop_
 _atom_site_type_symbol
 _atom_site_label
 _atom_site_symmetry_multiplicity
 _atom_site_fract_x
 _atom_site_fract_y
 _atom_site_fract_z
 _atom_site_occupancy
  Y  Y0  1  0.334557  0.673499  0.063196  1
  Y  Y1  1  0.166372  0.174700  0.436627  1
  Y  Y2  1  0.668112  0.325543  0.563137  1
  Y  Y3  1  0.833633  0.825909  0.936399  1
  Y  Y4  1  0.668112  0.325543  0.936863  1
  Y  Y5  1  0.833633  0.825909  0.563601  1
  Y  Y6  1  0.334557  0.673499  0.436804  1
  Y  Y7  1  0.166372  0.174700  0.063373  1
  Y  Y8  1  0.870283  0.541119  0.250000  1
  Y  Y9  1  0.627517  0.040827  0.250000  1
  Y  Y10  1  0.131606  0.458559  0.750000  1
  Y  Y11  1  0.367892  0.959130  0.750000  1
  Tc  Tc12  1  0.037715  0.882928  0.250000  1
  Os  Os13  1  0.460920  0.382163  0.250000  1
  Os  Os14  1  0.960150  0.118498  0.750000  1
  Os  Os15  1  0.538569  0.617474  0.750000  1
