# generated using pymatgen
data_Ce2Th6CrS17
_symmetry_space_group_name_H-M   'P 1'
_cell_length_a   7.98162442
_cell_length_b   7.98162356
_cell_length_c   10.67294200
_cell_angle_alpha   80.59576778
_cell_angle_beta   80.59576152
_cell_angle_gamma   65.19661558
_symmetry_Int_Tables_number   1
_chemical_formula_structural   Ce2Th6CrS17
_chemical_formula_sum   'Ce2 Th6 Cr1 S17'
_cell_volume   605.49151868
_cell_formula_units_Z   1
loop_
 _symmetry_equiv_pos_site_id
 _symmetry_equiv_pos_as_xyz
  1  'x, y, z'
loop_
 _atom_site_type_symbol
 _atom_site_label
 _atom_site_symmetry_multiplicity
 _atom_site_fract_x
 _atom_site_fract_y
 _atom_site_fract_z
 _atom_site_occupancy
  Ce  Ce0  1  0.814565  0.303117  0.296673  1
  Ce  Ce1  1  0.696883  0.185435  0.703327  1
  Th  Th2  1  0.184461  0.697326  0.705153  1
  Th  Th3  1  0.302674  0.815539  0.294847  1
  Th  Th4  1  0.204522  0.204977  0.546348  1
  Th  Th5  1  0.795023  0.795478  0.453652  1
  Th  Th6  1  0.681855  0.680609  0.976871  1
  Th  Th7  1  0.319391  0.318145  0.023129  1
  Cr  Cr8  1  0.999071  0.000929  0.000000  1
  S  S9  1  0.823859  0.429119  0.531581  1
  S  S10  1  0.570881  0.176141  0.468419  1
  S  S11  1  0.179547  0.568343  0.467389  1
  S  S12  1  0.431657  0.820453  0.532611  1
  S  S13  1  0.944773  0.317257  0.027399  1
  S  S14  1  0.682742  0.055227  0.972601  1
  S  S15  1  0.053663  0.682298  0.974070  1
  S  S16  1  0.317702  0.946337  0.025930  1
  S  S17  1  0.213917  0.208405  0.279054  1
  S  S18  1  0.791595  0.786083  0.720946  1
  S  S19  1  0.055322  0.056101  0.777371  1
  S  S20  1  0.943899  0.944678  0.222629  1
  S  S21  1  0.298958  0.303523  0.758257  1
  S  S22  1  0.696477  0.701042  0.241743  1
  S  S23  1  0.516656  0.521876  0.833511  1
  S  S24  1  0.478124  0.483344  0.166489  1
  S  S25  1  0.001786  0.998214  0.500000  1
