# generated using pymatgen
data_Tm10Al5PbC8
_symmetry_space_group_name_H-M   'P 1'
_cell_length_a   10.83587900
_cell_length_b   10.83587900
_cell_length_c   3.47711800
_cell_angle_alpha   90.00000000
_cell_angle_beta   90.00000000
_cell_angle_gamma   90.00000000
_symmetry_Int_Tables_number   1
_chemical_formula_structural   Tm10Al5PbC8
_chemical_formula_sum   'Tm10 Al5 Pb1 C8'
_cell_volume   408.27023878
_cell_formula_units_Z   1
loop_
 _symmetry_equiv_pos_site_id
 _symmetry_equiv_pos_as_xyz
  1  'x, y, z'
loop_
 _atom_site_type_symbol
 _atom_site_label
 _atom_site_symmetry_multiplicity
 _atom_site_fract_x
 _atom_site_fract_y
 _atom_site_fract_z
 _atom_site_occupancy
  Tm  Tm0  1  0.551280  0.739214  0.500000  1
  Tm  Tm1  1  0.448720  0.260786  0.500000  1
  Tm  Tm2  1  0.048571  0.770391  0.500000  1
  Tm  Tm3  1  0.951429  0.229609  0.500000  1
  Tm  Tm4  1  0.260786  0.551280  0.500000  1
  Tm  Tm5  1  0.739214  0.448720  0.500000  1
  Tm  Tm6  1  0.229609  0.048571  0.500000  1
  Tm  Tm7  1  0.770391  0.951429  0.500000  1
  Tm  Tm8  1  0.500000  0.000000  0.000000  1
  Tm  Tm9  1  0.000000  0.500000  0.000000  1
  Al  Al10  1  0.709856  0.196561  0.000000  1
  Al  Al11  1  0.290144  0.803439  0.000000  1
  Al  Al12  1  0.196561  0.290144  0.000000  1
  Al  Al13  1  0.803439  0.709856  0.000000  1
  Al  Al14  1  0.000000  0.000000  0.000000  1
  Pb  Pb15  1  0.500000  0.500000  0.000000  1
  C  C16  1  0.628400  0.130371  0.500000  1
  C  C17  1  0.371600  0.869629  0.500000  1
  C  C18  1  0.130371  0.371600  0.500000  1
  C  C19  1  0.869629  0.628400  0.500000  1
  C  C20  1  0.160934  0.662353  0.000000  1
  C  C21  1  0.839066  0.337647  0.000000  1
  C  C22  1  0.662353  0.839066  0.000000  1
  C  C23  1  0.337647  0.160934  0.000000  1
