# generated using pymatgen
data_Cs3Li2VP3
_symmetry_space_group_name_H-M   'P 1'
_cell_length_a   9.82869137
_cell_length_b   9.82869148
_cell_length_c   18.08716100
_cell_angle_alpha   90.00000000
_cell_angle_beta   90.00000000
_cell_angle_gamma   142.76347393
_symmetry_Int_Tables_number   1
_chemical_formula_structural   Cs3Li2VP3
_chemical_formula_sum   'Cs12 Li8 V4 P12'
_cell_volume   1057.28926822
_cell_formula_units_Z   4
loop_
 _symmetry_equiv_pos_site_id
 _symmetry_equiv_pos_as_xyz
  1  'x, y, z'
loop_
 _atom_site_type_symbol
 _atom_site_label
 _atom_site_symmetry_multiplicity
 _atom_site_fract_x
 _atom_site_fract_y
 _atom_site_fract_z
 _atom_site_occupancy
  Cs  Cs0  1  0.942535  0.602093  0.841586  1
  Cs  Cs1  1  0.557465  0.897907  0.341586  1
  Cs  Cs2  1  0.397907  0.057465  0.158414  1
  Cs  Cs3  1  0.057465  0.397907  0.158414  1
  Cs  Cs4  1  0.897907  0.557465  0.341586  1
  Cs  Cs5  1  0.442535  0.102093  0.658414  1
  Cs  Cs6  1  0.602093  0.942535  0.841586  1
  Cs  Cs7  1  0.278641  0.278641  0.331275  1
  Cs  Cs8  1  0.778641  0.778641  0.168725  1
  Cs  Cs9  1  0.221359  0.221359  0.831275  1
  Cs  Cs10  1  0.721359  0.721359  0.668725  1
  Cs  Cs11  1  0.102093  0.442535  0.658414  1
  Li  Li12  1  0.918696  0.081304  0.000000  1
  Li  Li13  1  0.581304  0.418696  0.500000  1
  Li  Li14  1  0.081304  0.918696  0.000000  1
  Li  Li15  1  0.418696  0.581304  0.500000  1
  Li  Li16  1  0.750763  0.249237  0.000000  1
  Li  Li17  1  0.749237  0.250763  0.500000  1
  Li  Li18  1  0.249237  0.750763  0.000000  1
  Li  Li19  1  0.250763  0.749237  0.500000  1
  V  V20  1  0.583539  0.416461  0.000000  1
  V  V21  1  0.916461  0.083539  0.500000  1
  V  V22  1  0.416461  0.583539  0.000000  1
  V  V23  1  0.083539  0.916461  0.500000  1
  P  P24  1  0.879805  0.565125  0.068915  1
  P  P25  1  0.434875  0.120195  0.931085  1
  P  P26  1  0.620195  0.934875  0.568915  1
  P  P27  1  0.934875  0.620195  0.568915  1
  P  P28  1  0.120195  0.434875  0.931085  1
  P  P29  1  0.565125  0.879805  0.068915  1
  P  P30  1  0.379805  0.065125  0.431085  1
  P  P31  1  0.206955  0.206955  0.568144  1
  P  P32  1  0.706955  0.706955  0.931856  1
  P  P33  1  0.293045  0.293045  0.068144  1
  P  P34  1  0.065125  0.379805  0.431085  1
  P  P35  1  0.793045  0.793045  0.431856  1
