# generated using pymatgen
data_ErTm2Mg3SiHg2
_symmetry_space_group_name_H-M   'P 1'
_cell_length_a   7.42033063
_cell_length_b   7.42519301
_cell_length_c   4.30293300
_cell_angle_alpha   90.00000000
_cell_angle_beta   90.00000000
_cell_angle_gamma   119.93630184
_symmetry_Int_Tables_number   1
_chemical_formula_structural   ErTm2Mg3SiHg2
_chemical_formula_sum   'Er1 Tm2 Mg3 Si1 Hg2'
_cell_volume   205.44927846
_cell_formula_units_Z   1
loop_
 _symmetry_equiv_pos_site_id
 _symmetry_equiv_pos_as_xyz
  1  'x, y, z'
loop_
 _atom_site_type_symbol
 _atom_site_label
 _atom_site_symmetry_multiplicity
 _atom_site_fract_x
 _atom_site_fract_y
 _atom_site_fract_z
 _atom_site_occupancy
  Er  Er0  1  0.580140  0.009270  0.000000  1
  Tm  Tm1  1  0.990988  0.571269  0.000000  1
  Tm  Tm2  1  0.428890  0.419682  0.000000  1
  Mg  Mg3  1  0.251075  0.002187  0.500000  1
  Mg  Mg4  1  0.998136  0.249311  0.500000  1
  Mg  Mg5  1  0.750735  0.748631  0.500000  1
  Si  Si6  1  0.666686  0.333937  0.500000  1
  Hg  Hg7  1  0.332450  0.665624  0.500000  1
  Hg  Hg8  1  0.000903  0.000089  0.000000  1
