# generated using pymatgen
data_CuP4(HO6)2
_symmetry_space_group_name_H-M   'P 1'
_cell_length_a   5.89400218
_cell_length_b   6.60198060
_cell_length_c   7.86432807
_cell_angle_alpha   106.71086024
_cell_angle_beta   105.95270056
_cell_angle_gamma   101.98852939
_symmetry_Int_Tables_number   1
_chemical_formula_structural   CuP4(HO6)2
_chemical_formula_sum   'Cu1 P4 H2 O12'
_cell_volume   267.79644395
_cell_formula_units_Z   1
loop_
 _symmetry_equiv_pos_site_id
 _symmetry_equiv_pos_as_xyz
  1  'x, y, z'
loop_
 _atom_site_type_symbol
 _atom_site_label
 _atom_site_symmetry_multiplicity
 _atom_site_fract_x
 _atom_site_fract_y
 _atom_site_fract_z
 _atom_site_occupancy
  Cu  Cu0  1  0.000000  0.000000  0.000000  1
  P  P1  1  0.316590  0.766617  0.208663  1
  P  P2  1  0.116148  0.567171  0.790466  1
  P  P3  1  0.883852  0.432829  0.209534  1
  P  P4  1  0.683410  0.233383  0.791337  1
  H  H5  1  0.352596  0.348645  0.660558  1
  H  H6  1  0.647404  0.651355  0.339442  1
  O  O7  1  0.967019  0.231084  0.200068  1
  O  O8  1  0.271728  0.515449  0.671932  1
  O  O9  1  0.032981  0.768916  0.799932  1
  O  O10  1  0.737998  0.420642  0.995579  1
  O  O11  1  0.262002  0.579358  0.004421  1
  O  O12  1  0.274483  0.976199  0.188235  1
  O  O13  1  0.728272  0.484551  0.328068  1
  O  O14  1  0.425776  0.201472  0.661504  1
  O  O15  1  0.725517  0.023801  0.811765  1
  O  O16  1  0.117553  0.653093  0.283906  1
  O  O17  1  0.882447  0.346907  0.716094  1
  O  O18  1  0.574224  0.798528  0.338496  1
