# generated using pymatgen
data_Ho3Tm13In6CoPt
_symmetry_space_group_name_H-M   'P 1'
_cell_length_a   10.34776400
_cell_length_b   10.34776580
_cell_length_c   6.94010400
_cell_angle_alpha   90.00000000
_cell_angle_beta   90.00000000
_cell_angle_gamma   120.00000063
_symmetry_Int_Tables_number   1
_chemical_formula_structural   Ho3Tm13In6CoPt
_chemical_formula_sum   'Ho3 Tm13 In6 Co1 Pt1'
_cell_volume   643.56099380
_cell_formula_units_Z   1
loop_
 _symmetry_equiv_pos_site_id
 _symmetry_equiv_pos_as_xyz
  1  'x, y, z'
loop_
 _atom_site_type_symbol
 _atom_site_label
 _atom_site_symmetry_multiplicity
 _atom_site_fract_x
 _atom_site_fract_y
 _atom_site_fract_z
 _atom_site_occupancy
  Ho  Ho0  1  0.333333  0.666667  0.395901  1
  Ho  Ho1  1  0.000000  0.000000  0.492426  1
  Ho  Ho2  1  0.000000  0.000000  0.991226  1
  Tm  Tm3  1  0.531014  0.062027  0.508399  1
  Tm  Tm4  1  0.937973  0.468986  0.508399  1
  Tm  Tm5  1  0.531014  0.468986  0.508399  1
  Tm  Tm6  1  0.464341  0.928682  0.005349  1
  Tm  Tm7  1  0.071318  0.535659  0.005349  1
  Tm  Tm8  1  0.464341  0.535659  0.005349  1
  Tm  Tm9  1  0.178414  0.356828  0.714076  1
  Tm  Tm10  1  0.643172  0.821586  0.714076  1
  Tm  Tm11  1  0.178414  0.821586  0.714076  1
  Tm  Tm12  1  0.824265  0.648530  0.212624  1
  Tm  Tm13  1  0.351470  0.175735  0.212624  1
  Tm  Tm14  1  0.824265  0.175735  0.212624  1
  Tm  Tm15  1  0.666667  0.333333  0.884590  1
  In  In16  1  0.837531  0.675063  0.751203  1
  In  In17  1  0.324937  0.162469  0.751203  1
  In  In18  1  0.837531  0.162469  0.751203  1
  In  In19  1  0.162676  0.325351  0.251524  1
  In  In20  1  0.674649  0.837324  0.251524  1
  In  In21  1  0.162676  0.837324  0.251524  1
  Co  Co22  1  0.333333  0.666667  0.781982  1
  Pt  Pt23  1  0.666667  0.333333  0.282388  1
