# generated using pymatgen
data_EuDy2RuO7
_symmetry_space_group_name_H-M   'P 1'
_cell_length_a   6.45108457
_cell_length_b   6.45108305
_cell_length_c   7.46752200
_cell_angle_alpha   90.00000000
_cell_angle_beta   90.00000000
_cell_angle_gamma   109.19937323
_symmetry_Int_Tables_number   1
_chemical_formula_structural   EuDy2RuO7
_chemical_formula_sum   'Eu2 Dy4 Ru2 O14'
_cell_volume   293.48684853
_cell_formula_units_Z   2
loop_
 _symmetry_equiv_pos_site_id
 _symmetry_equiv_pos_as_xyz
  1  'x, y, z'
loop_
 _atom_site_type_symbol
 _atom_site_label
 _atom_site_symmetry_multiplicity
 _atom_site_fract_x
 _atom_site_fract_y
 _atom_site_fract_z
 _atom_site_occupancy
  Eu  Eu0  1  0.000000  0.000000  0.500000  1
  Eu  Eu1  1  0.000000  0.000000  0.000000  1
  Dy  Dy2  1  0.482128  0.931197  0.750000  1
  Dy  Dy3  1  0.517872  0.068803  0.250000  1
  Dy  Dy4  1  0.931197  0.482128  0.750000  1
  Dy  Dy5  1  0.068803  0.517872  0.250000  1
  Ru  Ru6  1  0.500000  0.500000  0.500000  1
  Ru  Ru7  1  0.500000  0.500000  0.000000  1
  O  O8  1  0.589359  0.589359  0.750000  1
  O  O9  1  0.410641  0.410641  0.250000  1
  O  O10  1  0.840737  0.114447  0.750000  1
  O  O11  1  0.159263  0.885553  0.250000  1
  O  O12  1  0.114447  0.840737  0.750000  1
  O  O13  1  0.885553  0.159263  0.250000  1
  O  O14  1  0.445513  0.184410  0.961756  1
  O  O15  1  0.554487  0.815590  0.461756  1
  O  O16  1  0.184410  0.445513  0.961756  1
  O  O17  1  0.815590  0.554487  0.461756  1
  O  O18  1  0.445513  0.184410  0.538244  1
  O  O19  1  0.554487  0.815590  0.038244  1
  O  O20  1  0.815590  0.554487  0.038244  1
  O  O21  1  0.184410  0.445513  0.538244  1
