# generated using pymatgen
data_Ca2MnAl20Rh3
_symmetry_space_group_name_H-M   'P 1'
_cell_length_a   6.87597782
_cell_length_b   6.85860397
_cell_length_c   9.13162144
_cell_angle_alpha   90.11349328
_cell_angle_beta   90.06920092
_cell_angle_gamma   96.83214562
_symmetry_Int_Tables_number   1
_chemical_formula_structural   Ca2MnAl20Rh3
_chemical_formula_sum   'Ca2 Mn1 Al20 Rh3'
_cell_volume   427.58436919
_cell_formula_units_Z   1
loop_
 _symmetry_equiv_pos_site_id
 _symmetry_equiv_pos_as_xyz
  1  'x, y, z'
loop_
 _atom_site_type_symbol
 _atom_site_label
 _atom_site_symmetry_multiplicity
 _atom_site_fract_x
 _atom_site_fract_y
 _atom_site_fract_z
 _atom_site_occupancy
  Ca  Ca0  1  0.876481  0.125709  0.751276  1
  Ca  Ca1  1  0.123519  0.874291  0.248724  1
  Mn  Mn2  1  0.000000  0.500000  0.000000  1
  Al  Al3  1  0.621707  0.379652  0.550673  1
  Al  Al4  1  0.378293  0.620348  0.449327  1
  Al  Al5  1  0.372166  0.618443  0.047802  1
  Al  Al6  1  0.627834  0.381557  0.952198  1
  Al  Al7  1  0.223790  0.225299  0.498691  1
  Al  Al8  1  0.776210  0.774701  0.501309  1
  Al  Al9  1  0.779983  0.771237  0.003224  1
  Al  Al10  1  0.220017  0.228763  0.996776  1
  Al  Al11  1  0.845735  0.162733  0.097534  1
  Al  Al12  1  0.154265  0.837267  0.902466  1
  Al  Al13  1  0.158346  0.842512  0.602332  1
  Al  Al14  1  0.841654  0.157488  0.397668  1
  Al  Al15  1  0.861986  0.586821  0.754987  1
  Al  Al16  1  0.138014  0.413179  0.245013  1
  Al  Al17  1  0.409465  0.140669  0.750878  1
  Al  Al18  1  0.590535  0.859331  0.249122  1
  Al  Al19  1  0.221106  0.478296  0.756350  1
  Al  Al20  1  0.778894  0.521704  0.243650  1
  Al  Al21  1  0.521735  0.774719  0.750263  1
  Al  Al22  1  0.478265  0.225281  0.249737  1
  Rh  Rh23  1  0.000000  0.500000  0.500000  1
  Rh  Rh24  1  0.500000  0.000000  0.000000  1
  Rh  Rh25  1  0.500000  0.000000  0.500000  1
