# generated using pymatgen
data_ErTm3Si4OsRh3
_symmetry_space_group_name_H-M   'P 1'
_cell_length_a   4.25134500
_cell_length_b   6.84472329
_cell_length_c   7.28691448
_cell_angle_alpha   89.97705952
_cell_angle_beta   90.00000000
_cell_angle_gamma   90.00000000
_symmetry_Int_Tables_number   1
_chemical_formula_structural   ErTm3Si4OsRh3
_chemical_formula_sum   'Er1 Tm3 Si4 Os1 Rh3'
_cell_volume   212.04394852
_cell_formula_units_Z   1
loop_
 _symmetry_equiv_pos_site_id
 _symmetry_equiv_pos_as_xyz
  1  'x, y, z'
loop_
 _atom_site_type_symbol
 _atom_site_label
 _atom_site_symmetry_multiplicity
 _atom_site_fract_x
 _atom_site_fract_y
 _atom_site_fract_z
 _atom_site_occupancy
  Er  Er0  1  0.750000  0.000688  0.186313  1
  Tm  Tm1  1  0.250000  0.497564  0.690627  1
  Tm  Tm2  1  0.750000  0.506149  0.310799  1
  Tm  Tm3  1  0.250000  0.998617  0.812523  1
  Si  Si4  1  0.250000  0.296913  0.107961  1
  Si  Si5  1  0.750000  0.705279  0.885849  1
  Si  Si6  1  0.250000  0.795916  0.400635  1
  Si  Si7  1  0.750000  0.201027  0.605332  1
  Os  Os8  1  0.750000  0.842980  0.567398  1
  Rh  Rh9  1  0.250000  0.156045  0.431886  1
  Rh  Rh10  1  0.750000  0.343231  0.931939  1
  Rh  Rh11  1  0.250000  0.655590  0.068737  1
