# generated using pymatgen
data_Zr10AlBi2Sb3
_symmetry_space_group_name_H-M   'P 1'
_cell_length_a   5.61571200
_cell_length_b   8.47961514
_cell_length_c   8.49518093
_cell_angle_alpha   96.28340644
_cell_angle_beta   109.30054912
_cell_angle_gamma   70.66260601
_symmetry_Int_Tables_number   1
_chemical_formula_structural   Zr10AlBi2Sb3
_chemical_formula_sum   'Zr10 Al1 Bi2 Sb3'
_cell_volume   360.25797349
_cell_formula_units_Z   1
loop_
 _symmetry_equiv_pos_site_id
 _symmetry_equiv_pos_as_xyz
  1  'x, y, z'
loop_
 _atom_site_type_symbol
 _atom_site_label
 _atom_site_symmetry_multiplicity
 _atom_site_fract_x
 _atom_site_fract_y
 _atom_site_fract_z
 _atom_site_occupancy
  Zr  Zr0  1  0.413671  0.864257  0.705589  1
  Zr  Zr1  1  0.572338  0.135743  0.294411  1
  Zr  Zr2  1  0.934858  0.288524  0.145532  1
  Zr  Zr3  1  0.077849  0.711476  0.854468  1
  Zr  Zr4  1  0.710675  0.711476  0.145532  1
  Zr  Zr5  1  0.276618  0.288524  0.854468  1
  Zr  Zr6  1  0.791918  0.135743  0.705589  1
  Zr  Zr7  1  0.222073  0.864257  0.294411  1
  Zr  Zr8  1  0.247579  0.500000  0.500000  1
  Zr  Zr9  1  0.752421  0.500000  0.500000  1
  Al  Al10  1  0.250000  0.000000  0.000000  1
  Bi  Bi11  1  0.334346  0.500000  0.168691  1
  Bi  Bi12  1  0.665654  0.500000  0.831309  1
  Sb  Sb13  1  0.836738  0.826525  0.500000  1
  Sb  Sb14  1  0.163262  0.173475  0.500000  1
  Sb  Sb15  1  0.750000  0.000000  0.000000  1
