# generated using pymatgen
data_HoSi7Ir3
_symmetry_space_group_name_H-M   'P 1'
_cell_length_a   8.04411456
_cell_length_b   8.04411447
_cell_length_c   8.04411520
_cell_angle_alpha   56.50203279
_cell_angle_beta   56.50203570
_cell_angle_gamma   56.50202999
_symmetry_Int_Tables_number   1
_chemical_formula_structural   HoSi7Ir3
_chemical_formula_sum   'Ho2 Si14 Ir6'
_cell_volume   338.30334823
_cell_formula_units_Z   2
loop_
 _symmetry_equiv_pos_site_id
 _symmetry_equiv_pos_as_xyz
  1  'x, y, z'
loop_
 _atom_site_type_symbol
 _atom_site_label
 _atom_site_symmetry_multiplicity
 _atom_site_fract_x
 _atom_site_fract_y
 _atom_site_fract_z
 _atom_site_occupancy
  Ho  Ho0  1  0.000000  0.000000  0.000000  1
  Ho  Ho1  1  0.500000  0.500000  0.500000  1
  Si  Si2  1  0.750000  0.750000  0.750000  1
  Si  Si3  1  0.250000  0.250000  0.250000  1
  Si  Si4  1  0.850613  0.064239  0.672270  1
  Si  Si5  1  0.672270  0.850613  0.064239  1
  Si  Si6  1  0.064239  0.672270  0.850613  1
  Si  Si7  1  0.649387  0.827730  0.435761  1
  Si  Si8  1  0.435761  0.649387  0.827730  1
  Si  Si9  1  0.827730  0.435761  0.649387  1
  Si  Si10  1  0.172270  0.564239  0.350613  1
  Si  Si11  1  0.564239  0.350613  0.172270  1
  Si  Si12  1  0.350613  0.172270  0.564239  1
  Si  Si13  1  0.935761  0.327730  0.149387  1
  Si  Si14  1  0.327730  0.149387  0.935761  1
  Si  Si15  1  0.149387  0.935761  0.327730  1
  Ir  Ir16  1  0.070663  0.429337  0.750000  1
  Ir  Ir17  1  0.250000  0.929337  0.570663  1
  Ir  Ir18  1  0.570663  0.250000  0.929337  1
  Ir  Ir19  1  0.929337  0.570663  0.250000  1
  Ir  Ir20  1  0.429337  0.750000  0.070663  1
  Ir  Ir21  1  0.750000  0.070663  0.429337  1
