# generated using pymatgen
data_Dy8Er4CoTc3
_symmetry_space_group_name_H-M   'P 1'
_cell_length_a   6.27886296
_cell_length_b   7.29856135
_cell_length_c   9.14213899
_cell_angle_alpha   89.97265239
_cell_angle_beta   89.80229460
_cell_angle_gamma   90.12232548
_symmetry_Int_Tables_number   1
_chemical_formula_structural   Dy8Er4CoTc3
_chemical_formula_sum   'Dy8 Er4 Co1 Tc3'
_cell_volume   418.95025635
_cell_formula_units_Z   1
loop_
 _symmetry_equiv_pos_site_id
 _symmetry_equiv_pos_as_xyz
  1  'x, y, z'
loop_
 _atom_site_type_symbol
 _atom_site_label
 _atom_site_symmetry_multiplicity
 _atom_site_fract_x
 _atom_site_fract_y
 _atom_site_fract_z
 _atom_site_occupancy
  Dy  Dy0  1  0.373402  0.958378  0.749666  1
  Dy  Dy1  1  0.857836  0.543107  0.250128  1
  Dy  Dy2  1  0.626180  0.049370  0.250341  1
  Dy  Dy3  1  0.167658  0.178920  0.063666  1
  Dy  Dy4  1  0.836611  0.823410  0.937536  1
  Dy  Dy5  1  0.669978  0.321993  0.565119  1
  Dy  Dy6  1  0.334773  0.672861  0.064454  1
  Dy  Dy7  1  0.334173  0.673468  0.435572  1
  Er  Er8  1  0.128281  0.458198  0.749819  1
  Er  Er9  1  0.669766  0.322432  0.934891  1
  Er  Er10  1  0.167199  0.178184  0.436659  1
  Er  Er11  1  0.837115  0.824038  0.561887  1
  Co  Co12  1  0.460783  0.384749  0.249787  1
  Tc  Tc13  1  0.539604  0.610242  0.749934  1
  Tc  Tc14  1  0.961393  0.112493  0.749772  1
  Tc  Tc15  1  0.035249  0.888158  0.250769  1
