# generated using pymatgen
data_Ca2Nd2ScTa3O14
_symmetry_space_group_name_H-M   'P 1'
_cell_length_a   7.45975700
_cell_length_b   7.50934496
_cell_length_c   12.91505500
_cell_angle_alpha   54.93521593
_cell_angle_beta   90.00000000
_cell_angle_gamma   90.00000000
_symmetry_Int_Tables_number   1
_chemical_formula_structural   Ca2Nd2ScTa3O14
_chemical_formula_sum   'Ca4 Nd4 Sc2 Ta6 O28'
_cell_volume   592.16571764
_cell_formula_units_Z   2
loop_
 _symmetry_equiv_pos_site_id
 _symmetry_equiv_pos_as_xyz
  1  'x, y, z'
loop_
 _atom_site_type_symbol
 _atom_site_label
 _atom_site_symmetry_multiplicity
 _atom_site_fract_x
 _atom_site_fract_y
 _atom_site_fract_z
 _atom_site_occupancy
  Ca  Ca0  1  0.500000  0.500000  0.500000  1
  Ca  Ca1  1  0.741560  0.500000  0.250000  1
  Ca  Ca2  1  0.258440  0.500000  0.750000  1
  Ca  Ca3  1  0.500000  0.500000  0.000000  1
  Nd  Nd4  1  0.257192  0.000000  0.750000  1
  Nd  Nd5  1  0.742808  0.000000  0.250000  1
  Nd  Nd6  1  0.000000  0.500000  0.500000  1
  Nd  Nd7  1  0.000000  0.500000  0.000000  1
  Sc  Sc8  1  0.000000  0.000000  0.000000  1
  Sc  Sc9  1  0.000000  0.000000  0.500000  1
  Ta  Ta10  1  0.500000  0.000000  0.000000  1
  Ta  Ta11  1  0.500000  0.000000  0.500000  1
  Ta  Ta12  1  0.760188  0.500000  0.750000  1
  Ta  Ta13  1  0.761201  0.000000  0.750000  1
  Ta  Ta14  1  0.239812  0.500000  0.250000  1
  Ta  Ta15  1  0.238799  0.000000  0.250000  1
  O  O16  1  0.437687  0.316245  0.375963  1
  O  O17  1  0.750746  0.315951  0.682575  1
  O  O18  1  0.744765  0.623875  0.376441  1
  O  O19  1  0.740929  0.926460  0.078803  1
  O  O20  1  0.953683  0.914110  0.873144  1
  O  O21  1  0.947626  0.336163  0.875440  1
  O  O22  1  0.953683  0.085890  0.626856  1
  O  O23  1  0.052374  0.336163  0.375440  1
  O  O24  1  0.249254  0.315951  0.182575  1
  O  O25  1  0.259071  0.073540  0.921197  1
  O  O26  1  0.255235  0.623875  0.876441  1
  O  O27  1  0.249254  0.684049  0.317425  1
  O  O28  1  0.259071  0.926460  0.578803  1
  O  O29  1  0.438969  0.931287  0.374109  1
  O  O30  1  0.437687  0.683755  0.124037  1
  O  O31  1  0.438969  0.068713  0.125891  1
  O  O32  1  0.561031  0.068713  0.625891  1
  O  O33  1  0.561031  0.931287  0.874109  1
  O  O34  1  0.562313  0.316245  0.875963  1
  O  O35  1  0.740929  0.073540  0.421197  1
  O  O36  1  0.750746  0.684049  0.817425  1
  O  O37  1  0.744765  0.376125  0.123559  1
  O  O38  1  0.947626  0.663837  0.624560  1
  O  O39  1  0.046317  0.914110  0.373144  1
  O  O40  1  0.052374  0.663837  0.124560  1
  O  O41  1  0.046317  0.085890  0.126856  1
  O  O42  1  0.255235  0.376125  0.623559  1
  O  O43  1  0.562313  0.683755  0.624037  1
