# generated using pymatgen
data_Ho7Lu3In8CoPt3
_symmetry_space_group_name_H-M   'P 1'
_cell_length_a   3.59053400
_cell_length_b   8.07795488
_cell_length_c   18.05843498
_cell_angle_alpha   89.98920897
_cell_angle_beta   90.00000000
_cell_angle_gamma   90.00000000
_symmetry_Int_Tables_number   1
_chemical_formula_structural   Ho7Lu3In8CoPt3
_chemical_formula_sum   'Ho7 Lu3 In8 Co1 Pt3'
_cell_volume   523.76993863
_cell_formula_units_Z   1
loop_
 _symmetry_equiv_pos_site_id
 _symmetry_equiv_pos_as_xyz
  1  'x, y, z'
loop_
 _atom_site_type_symbol
 _atom_site_label
 _atom_site_symmetry_multiplicity
 _atom_site_fract_x
 _atom_site_fract_y
 _atom_site_fract_z
 _atom_site_occupancy
  Ho  Ho0  1  0.000000  0.617889  0.086924  1
  Ho  Ho1  1  0.000000  0.231883  0.224754  1
  Ho  Ho2  1  0.000000  0.759321  0.779114  1
  Ho  Ho3  1  0.000000  0.258228  0.720651  1
  Ho  Ho4  1  0.000000  0.754870  0.279403  1
  Ho  Ho5  1  0.000000  0.000673  0.001338  1
  Ho  Ho6  1  0.000000  0.500812  0.498533  1
  Lu  Lu7  1  0.000000  0.110923  0.408277  1
  Lu  Lu8  1  0.000000  0.884052  0.584008  1
  Lu  Lu9  1  0.000000  0.384317  0.915318  1
  In  In10  1  0.500000  0.420367  0.351476  1
  In  In11  1  0.500000  0.577950  0.647415  1
  In  In12  1  0.500000  0.078099  0.852245  1
  In  In13  1  0.500000  0.929478  0.152329  1
  In  In14  1  0.500000  0.291875  0.068149  1
  In  In15  1  0.500000  0.707669  0.934158  1
  In  In16  1  0.500000  0.206342  0.563914  1
  In  In17  1  0.500000  0.795907  0.429418  1
  Co  Co18  1  0.500000  0.017690  0.305646  1
  Pt  Pt19  1  0.500000  0.975623  0.693932  1
  Pt  Pt20  1  0.500000  0.475868  0.805381  1
  Pt  Pt21  1  0.500000  0.520161  0.197615  1
