# generated using pymatgen
data_Th6TcAu7
_symmetry_space_group_name_H-M   'P 1'
_cell_length_a   8.28853072
_cell_length_b   8.28853056
_cell_length_c   8.28853191
_cell_angle_alpha   114.06291951
_cell_angle_beta   114.06292567
_cell_angle_gamma   114.06290035
_symmetry_Int_Tables_number   1
_chemical_formula_structural   Th6TcAu7
_chemical_formula_sum   'Th6 Tc1 Au7'
_cell_volume   344.33234556
_cell_formula_units_Z   1
loop_
 _symmetry_equiv_pos_site_id
 _symmetry_equiv_pos_as_xyz
  1  'x, y, z'
loop_
 _atom_site_type_symbol
 _atom_site_label
 _atom_site_symmetry_multiplicity
 _atom_site_fract_x
 _atom_site_fract_y
 _atom_site_fract_z
 _atom_site_occupancy
  Th  Th0  1  0.015974  0.378414  0.266896  1
  Th  Th1  1  0.378414  0.266896  0.015974  1
  Th  Th2  1  0.733104  0.984026  0.621586  1
  Th  Th3  1  0.266896  0.015974  0.378414  1
  Th  Th4  1  0.621586  0.733104  0.984026  1
  Th  Th5  1  0.984026  0.621586  0.733104  1
  Tc  Tc6  1  0.000000  0.000000  0.000000  1
  Au  Au7  1  0.500000  0.500000  0.500000  1
  Au  Au8  1  0.420139  0.922202  0.759289  1
  Au  Au9  1  0.922202  0.759289  0.420139  1
  Au  Au10  1  0.240711  0.579861  0.077798  1
  Au  Au11  1  0.759289  0.420139  0.922202  1
  Au  Au12  1  0.077798  0.240711  0.579861  1
  Au  Au13  1  0.579861  0.077798  0.240711  1
