# generated using pymatgen
data_RbF37
_symmetry_space_group_name_H-M   'P 1'
_cell_length_a   6.00576829
_cell_length_b   11.66827429
_cell_length_c   10.71784194
_cell_angle_alpha   83.55224260
_cell_angle_beta   96.38862496
_cell_angle_gamma   75.86668603
_symmetry_Int_Tables_number   1
_chemical_formula_structural   RbF37
_chemical_formula_sum   'Rb1 F37'
_cell_volume   716.19606724
_cell_formula_units_Z   1
loop_
 _symmetry_equiv_pos_site_id
 _symmetry_equiv_pos_as_xyz
  1  'x, y, z'
loop_
 _atom_site_type_symbol
 _atom_site_label
 _atom_site_symmetry_multiplicity
 _atom_site_fract_x
 _atom_site_fract_y
 _atom_site_fract_z
 _atom_site_occupancy
  Rb  Rb0  1  0.190805  0.155291  0.243035  1
  F  F1  1  0.712764  0.851187  0.726069  1
  F  F2  1  0.255665  0.382354  0.896412  1
  F  F3  1  0.693536  0.635169  0.077180  1
  F  F4  1  0.346051  0.249375  0.560527  1
  F  F5  1  0.716738  0.715814  0.413794  1
  F  F6  1  0.784348  0.214357  0.796378  1
  F  F7  1  0.197422  0.790734  0.193725  1
  F  F8  1  0.706320  0.877894  0.027830  1
  F  F9  1  0.307244  0.120843  0.954152  1
  F  F10  1  0.761709  0.576135  0.842849  1
  F  F11  1  0.205373  0.427767  0.157103  1
  F  F12  1  0.419783  0.445713  0.861885  1
  F  F13  1  0.617963  0.562700  0.170936  1
  F  F14  1  0.748193  0.582573  0.708391  1
  F  F15  1  0.294435  0.422996  0.287583  1
  F  F16  1  0.757166  0.058804  0.463757  1
  F  F17  1  0.293466  0.958843  0.489174  1
  F  F18  1  0.295553  0.193119  0.674944  1
  F  F19  1  0.702207  0.835926  0.354454  1
  F  F20  1  0.838744  0.070686  0.599188  1
  F  F21  1  0.197559  0.908410  0.386965  1
  F  F22  1  0.804847  0.969983  0.979338  1
  F  F23  1  0.196268  0.027083  0.979337  1
  F  F24  1  0.884219  0.312851  0.802512  1
  F  F25  1  0.092272  0.694286  0.209897  1
  F  F26  1  0.167170  0.706725  0.931635  1
  F  F27  1  0.752981  0.274947  0.090299  1
  F  F28  1  0.490495  0.922635  0.740358  1
  F  F29  1  0.651025  0.036566  0.280767  1
  F  F30  1  0.104690  0.755835  0.600953  1
  F  F31  1  0.831269  0.274087  0.424793  1
  F  F32  1  0.196834  0.636806  0.664923  1
  F  F33  1  0.853848  0.385202  0.363353  1
  F  F34  1  0.285634  0.786712  0.875242  1
  F  F35  1  0.702644  0.162709  0.178367  1
  F  F36  1  0.450767  0.453849  0.523258  1
  F  F37  1  0.491991  0.563036  0.468634  1
