# generated using pymatgen
data_ScZn2SnRh4
_symmetry_space_group_name_H-M   'P 1'
_cell_length_a   6.25938000
_cell_length_b   6.26007200
_cell_length_c   6.28947100
_cell_angle_alpha   90.00000000
_cell_angle_beta   90.00000000
_cell_angle_gamma   90.00000000
_symmetry_Int_Tables_number   1
_chemical_formula_structural   ScZn2SnRh4
_chemical_formula_sum   'Sc2 Zn4 Sn2 Rh8'
_cell_volume   246.44769757
_cell_formula_units_Z   2
loop_
 _symmetry_equiv_pos_site_id
 _symmetry_equiv_pos_as_xyz
  1  'x, y, z'
loop_
 _atom_site_type_symbol
 _atom_site_label
 _atom_site_symmetry_multiplicity
 _atom_site_fract_x
 _atom_site_fract_y
 _atom_site_fract_z
 _atom_site_occupancy
  Sc  Sc0  1  0.750007  0.250000  0.499998  1
  Sc  Sc1  1  0.249991  0.750000  0.500001  1
  Zn  Zn2  1  0.249996  0.250000  0.000000  1
  Zn  Zn3  1  0.750004  0.750000  0.000000  1
  Zn  Zn4  1  0.250063  0.250000  0.499996  1
  Zn  Zn5  1  0.749938  0.750000  0.500004  1
  Sn  Sn6  1  0.750000  0.250000  0.000000  1
  Sn  Sn7  1  0.249998  0.750000  0.000000  1
  Rh  Rh8  1  0.499999  0.000000  0.246219  1
  Rh  Rh9  1  0.499999  0.499996  0.246219  1
  Rh  Rh10  1  0.000000  0.000000  0.246268  1
  Rh  Rh11  1  0.000000  0.500004  0.246268  1
  Rh  Rh12  1  0.000000  0.000000  0.753732  1
  Rh  Rh13  1  0.000000  0.499996  0.753732  1
  Rh  Rh14  1  0.500001  0.000000  0.753781  1
  Rh  Rh15  1  0.500001  0.500004  0.753781  1
