# generated using pymatgen
data_Sr2CaY(Al3Pd)6
_symmetry_space_group_name_H-M   'P 1'
_cell_length_a   7.70400916
_cell_length_b   7.70021455
_cell_length_c   9.61893800
_cell_angle_alpha   90.00000000
_cell_angle_beta   90.00000000
_cell_angle_gamma   119.45695372
_symmetry_Int_Tables_number   1
_chemical_formula_structural   Sr2CaY(Al3Pd)6
_chemical_formula_sum   'Sr2 Ca1 Y1 Al18 Pd6'
_cell_volume   496.85304903
_cell_formula_units_Z   1
loop_
 _symmetry_equiv_pos_site_id
 _symmetry_equiv_pos_as_xyz
  1  'x, y, z'
loop_
 _atom_site_type_symbol
 _atom_site_label
 _atom_site_symmetry_multiplicity
 _atom_site_fract_x
 _atom_site_fract_y
 _atom_site_fract_z
 _atom_site_occupancy
  Sr  Sr0  1  0.993513  0.669318  0.250000  1
  Sr  Sr1  1  0.671605  0.995614  0.250000  1
  Ca  Ca2  1  0.003603  0.329590  0.750000  1
  Y  Y3  1  0.329922  0.002468  0.750000  1
  Al  Al4  1  0.137235  0.137429  0.250000  1
  Al  Al5  1  0.872202  0.869920  0.750000  1
  Al  Al6  1  0.005865  0.335181  0.066938  1
  Al  Al7  1  0.999624  0.664401  0.917281  1
  Al  Al8  1  0.999624  0.664401  0.582719  1
  Al  Al9  1  0.334803  0.004511  0.432395  1
  Al  Al10  1  0.005865  0.335181  0.433062  1
  Al  Al11  1  0.665225  0.000383  0.582627  1
  Al  Al12  1  0.665225  0.000383  0.917373  1
  Al  Al13  1  0.334803  0.004511  0.067605  1
  Al  Al14  1  0.331997  0.331132  0.563622  1
  Al  Al15  1  0.663022  0.663230  0.459056  1
  Al  Al16  1  0.663022  0.663230  0.040944  1
  Al  Al17  1  0.331997  0.331132  0.936378  1
  Al  Al18  1  0.339732  0.542701  0.250000  1
  Al  Al19  1  0.655043  0.451201  0.750000  1
  Al  Al20  1  0.540421  0.340189  0.250000  1
  Al  Al21  1  0.454812  0.663513  0.750000  1
  Pd  Pd22  1  0.670582  0.327878  0.996576  1
  Pd  Pd23  1  0.328209  0.671248  0.995961  1
  Pd  Pd24  1  0.328209  0.671248  0.504039  1
  Pd  Pd25  1  0.670582  0.327878  0.503424  1
  Pd  Pd26  1  0.001631  0.001064  0.995794  1
  Pd  Pd27  1  0.001631  0.001064  0.504206  1
