# generated using pymatgen
data_Li3Ce3DySi8Rh
_symmetry_space_group_name_H-M   'P 1'
_cell_length_a   3.89255100
_cell_length_b   7.45544689
_cell_length_c   10.29028546
_cell_angle_alpha   89.76506131
_cell_angle_beta   90.00000000
_cell_angle_gamma   90.00000000
_symmetry_Int_Tables_number   1
_chemical_formula_structural   Li3Ce3DySi8Rh
_chemical_formula_sum   'Li3 Ce3 Dy1 Si8 Rh1'
_cell_volume   298.62885115
_cell_formula_units_Z   1
loop_
 _symmetry_equiv_pos_site_id
 _symmetry_equiv_pos_as_xyz
  1  'x, y, z'
loop_
 _atom_site_type_symbol
 _atom_site_label
 _atom_site_symmetry_multiplicity
 _atom_site_fract_x
 _atom_site_fract_y
 _atom_site_fract_z
 _atom_site_occupancy
  Li  Li0  1  0.250000  0.491822  0.108518  1
  Li  Li1  1  0.750000  0.007026  0.604255  1
  Li  Li2  1  0.750000  0.503354  0.892150  1
  Ce  Ce3  1  0.250000  0.644360  0.629136  1
  Ce  Ce4  1  0.750000  0.859757  0.133119  1
  Ce  Ce5  1  0.750000  0.364987  0.366308  1
  Dy  Dy6  1  0.250000  0.136526  0.868182  1
  Si  Si7  1  0.250000  0.220523  0.564982  1
  Si  Si8  1  0.250000  0.733005  0.926297  1
  Si  Si9  1  0.750000  0.787002  0.427903  1
  Si  Si10  1  0.750000  0.264718  0.075855  1
  Si  Si11  1  0.250000  0.668274  0.321369  1
  Si  Si12  1  0.250000  0.155239  0.191322  1
  Si  Si13  1  0.750000  0.333241  0.678896  1
  Si  Si14  1  0.750000  0.840207  0.816015  1
  Rh  Rh15  1  0.250000  0.989958  0.395693  1
