# generated using pymatgen
data_LaTa3(NiH6)2
_symmetry_space_group_name_H-M   'P 1'
_cell_length_a   6.02544200
_cell_length_b   6.02544077
_cell_length_c   4.64496000
_cell_angle_alpha   90.00000000
_cell_angle_beta   90.00000000
_cell_angle_gamma   119.99999576
_symmetry_Int_Tables_number   1
_chemical_formula_structural   LaTa3(NiH6)2
_chemical_formula_sum   'La1 Ta3 Ni2 H12'
_cell_volume   146.04623341
_cell_formula_units_Z   1
loop_
 _symmetry_equiv_pos_site_id
 _symmetry_equiv_pos_as_xyz
  1  'x, y, z'
loop_
 _atom_site_type_symbol
 _atom_site_label
 _atom_site_symmetry_multiplicity
 _atom_site_fract_x
 _atom_site_fract_y
 _atom_site_fract_z
 _atom_site_occupancy
  La  La0  1  0.000000  0.000000  0.000000  1
  Ta  Ta1  1  0.500000  0.000000  0.500000  1
  Ta  Ta2  1  0.000000  0.500000  0.500000  1
  Ta  Ta3  1  0.500000  0.500000  0.500000  1
  Ni  Ni4  1  0.666667  0.333333  0.000000  1
  Ni  Ni5  1  0.333333  0.666667  0.000000  1
  H  H6  1  0.794222  0.588445  0.753777  1
  H  H7  1  0.205778  0.411555  0.246223  1
  H  H8  1  0.205778  0.794222  0.246223  1
  H  H9  1  0.794222  0.205778  0.246223  1
  H  H10  1  0.588445  0.794222  0.246223  1
  H  H11  1  0.411555  0.205778  0.246223  1
  H  H12  1  0.411555  0.205778  0.753777  1
  H  H13  1  0.205778  0.411555  0.753777  1
  H  H14  1  0.794222  0.205778  0.753777  1
  H  H15  1  0.588445  0.794222  0.753777  1
  H  H16  1  0.794222  0.588445  0.246223  1
  H  H17  1  0.205778  0.794222  0.753777  1
