# generated using pymatgen
data_Er5Tm7Tc3Rh
_symmetry_space_group_name_H-M   'P 1'
_cell_length_a   6.22623526
_cell_length_b   7.33151610
_cell_length_c   9.03032232
_cell_angle_alpha   90.01238173
_cell_angle_beta   90.02768655
_cell_angle_gamma   89.90525852
_symmetry_Int_Tables_number   1
_chemical_formula_structural   Er5Tm7Tc3Rh
_chemical_formula_sum   'Er5 Tm7 Tc3 Rh1'
_cell_volume   412.21322082
_cell_formula_units_Z   1
loop_
 _symmetry_equiv_pos_site_id
 _symmetry_equiv_pos_as_xyz
  1  'x, y, z'
loop_
 _atom_site_type_symbol
 _atom_site_label
 _atom_site_symmetry_multiplicity
 _atom_site_fract_x
 _atom_site_fract_y
 _atom_site_fract_z
 _atom_site_occupancy
  Er  Er0  1  0.662681  0.174089  0.439222  1
  Er  Er1  1  0.876231  0.961493  0.750226  1
  Er  Er2  1  0.369256  0.542246  0.249909  1
  Er  Er3  1  0.625862  0.459743  0.750157  1
  Er  Er4  1  0.127211  0.040692  0.249788  1
  Tm  Tm5  1  0.662635  0.173801  0.060597  1
  Tm  Tm6  1  0.167867  0.322995  0.934913  1
  Tm  Tm7  1  0.837009  0.678563  0.438946  1
  Tm  Tm8  1  0.336925  0.823979  0.562816  1
  Tm  Tm9  1  0.337056  0.824165  0.937299  1
  Tm  Tm10  1  0.836894  0.678645  0.061000  1
  Tm  Tm11  1  0.167898  0.323140  0.565235  1
  Tc  Tc12  1  0.038114  0.612968  0.749985  1
  Tc  Tc13  1  0.539413  0.883649  0.249911  1
  Tc  Tc14  1  0.459562  0.115166  0.750272  1
  Rh  Rh15  1  0.955386  0.384664  0.249726  1
