# generated using pymatgen
data_Tl(RhO2)4
_symmetry_space_group_name_H-M   'P 1'
_cell_length_a   7.35760708
_cell_length_b   7.35760685
_cell_length_c   7.35760700
_cell_angle_alpha   92.64323328
_cell_angle_beta   92.64323320
_cell_angle_gamma   155.19851605
_symmetry_Int_Tables_number   1
_chemical_formula_structural   Tl(RhO2)4
_chemical_formula_sum   'Tl1 Rh4 O8'
_cell_volume   163.17891715
_cell_formula_units_Z   1
loop_
 _symmetry_equiv_pos_site_id
 _symmetry_equiv_pos_as_xyz
  1  'x, y, z'
loop_
 _atom_site_type_symbol
 _atom_site_label
 _atom_site_symmetry_multiplicity
 _atom_site_fract_x
 _atom_site_fract_y
 _atom_site_fract_z
 _atom_site_occupancy
  Tl  Tl0  1  0.500000  0.500000  0.000000  1
  Rh  Rh1  1  0.350813  0.835091  0.185905  1
  Rh  Rh2  1  0.835091  0.649187  0.484278  1
  Rh  Rh3  1  0.164909  0.350813  0.515722  1
  Rh  Rh4  1  0.649187  0.164909  0.814095  1
  O  O5  1  0.160969  0.544506  0.705476  1
  O  O6  1  0.544506  0.839031  0.383538  1
  O  O7  1  0.455494  0.160969  0.616462  1
  O  O8  1  0.839031  0.455494  0.294524  1
  O  O9  1  0.847352  0.203271  0.050623  1
  O  O10  1  0.203271  0.152648  0.355919  1
  O  O11  1  0.152648  0.796729  0.949377  1
  O  O12  1  0.796729  0.847352  0.644081  1
