# generated using pymatgen
data_Ho4NpAlRu6
_symmetry_space_group_name_H-M   'P 1'
_cell_length_a   5.68805163
_cell_length_b   5.68805024
_cell_length_c   7.93014301
_cell_angle_alpha   90.00572537
_cell_angle_beta   89.99426474
_cell_angle_gamma   120.00163279
_symmetry_Int_Tables_number   1
_chemical_formula_structural   Ho4NpAlRu6
_chemical_formula_sum   'Ho4 Np1 Al1 Ru6'
_cell_volume   222.19355409
_cell_formula_units_Z   1
loop_
 _symmetry_equiv_pos_site_id
 _symmetry_equiv_pos_as_xyz
  1  'x, y, z'
loop_
 _atom_site_type_symbol
 _atom_site_label
 _atom_site_symmetry_multiplicity
 _atom_site_fract_x
 _atom_site_fract_y
 _atom_site_fract_z
 _atom_site_occupancy
  Ho  Ho0  1  0.666683  0.333317  0.552194  1
  Ho  Ho1  1  0.333317  0.666683  0.447806  1
  Ho  Ho2  1  0.333336  0.666664  0.066666  1
  Ho  Ho3  1  0.666664  0.333336  0.933334  1
  Np  Np4  1  0.000000  0.000000  0.000000  1
  Al  Al5  1  0.000000  0.000000  0.500000  1
  Ru  Ru6  1  0.167432  0.334861  0.757251  1
  Ru  Ru7  1  0.167427  0.832573  0.757252  1
  Ru  Ru8  1  0.665139  0.832568  0.757251  1
  Ru  Ru9  1  0.832568  0.665139  0.242749  1
  Ru  Ru10  1  0.832573  0.167427  0.242748  1
  Ru  Ru11  1  0.334861  0.167432  0.242749  1
