# generated using pymatgen
data_Ho6ErRhO12
_symmetry_space_group_name_H-M   'P 1'
_cell_length_a   6.60737894
_cell_length_b   6.60737795
_cell_length_c   6.60737875
_cell_angle_alpha   94.06562585
_cell_angle_beta   94.06562211
_cell_angle_gamma   94.06562125
_symmetry_Int_Tables_number   1
_chemical_formula_structural   Ho6ErRhO12
_chemical_formula_sum   'Ho6 Er1 Rh1 O12'
_cell_volume   286.17444127
_cell_formula_units_Z   1
loop_
 _symmetry_equiv_pos_site_id
 _symmetry_equiv_pos_as_xyz
  1  'x, y, z'
loop_
 _atom_site_type_symbol
 _atom_site_label
 _atom_site_symmetry_multiplicity
 _atom_site_fract_x
 _atom_site_fract_y
 _atom_site_fract_z
 _atom_site_occupancy
  Ho  Ho0  1  0.738057  0.918524  0.432694  1
  Ho  Ho1  1  0.918524  0.432694  0.738057  1
  Ho  Ho2  1  0.432694  0.738057  0.918524  1
  Ho  Ho3  1  0.261943  0.081476  0.567306  1
  Ho  Ho4  1  0.081476  0.567306  0.261943  1
  Ho  Ho5  1  0.567306  0.261943  0.081476  1
  Er  Er6  1  0.000000  0.000000  0.000000  1
  Rh  Rh7  1  0.500000  0.500000  0.500000  1
  O  O8  1  0.590479  0.461846  0.805314  1
  O  O9  1  0.461846  0.805314  0.590479  1
  O  O10  1  0.805314  0.590479  0.461846  1
  O  O11  1  0.409521  0.538154  0.194686  1
  O  O12  1  0.538154  0.194686  0.409521  1
  O  O13  1  0.194686  0.409521  0.538154  1
  O  O14  1  0.068036  0.908595  0.318516  1
  O  O15  1  0.908595  0.318516  0.068036  1
  O  O16  1  0.681484  0.931964  0.091405  1
  O  O17  1  0.091405  0.681484  0.931964  1
  O  O18  1  0.931964  0.091405  0.681484  1
  O  O19  1  0.318516  0.068036  0.908595  1
