# generated using pymatgen
data_Ce2TcB6
_symmetry_space_group_name_H-M   'P 1'
_cell_length_a   3.74637300
_cell_length_b   9.42563600
_cell_length_c   11.53927100
_cell_angle_alpha   90.00000000
_cell_angle_beta   90.00000000
_cell_angle_gamma   90.00000000
_symmetry_Int_Tables_number   1
_chemical_formula_structural   Ce2TcB6
_chemical_formula_sum   'Ce8 Tc4 B24'
_cell_volume   407.47414003
_cell_formula_units_Z   4
loop_
 _symmetry_equiv_pos_site_id
 _symmetry_equiv_pos_as_xyz
  1  'x, y, z'
loop_
 _atom_site_type_symbol
 _atom_site_label
 _atom_site_symmetry_multiplicity
 _atom_site_fract_x
 _atom_site_fract_y
 _atom_site_fract_z
 _atom_site_occupancy
  Ce  Ce0  1  0.000000  0.335615  0.408414  1
  Ce  Ce1  1  0.000000  0.664385  0.591586  1
  Ce  Ce2  1  0.000000  0.835615  0.091586  1
  Ce  Ce3  1  0.000000  0.164385  0.908414  1
  Ce  Ce4  1  0.000000  0.953552  0.388888  1
  Ce  Ce5  1  0.000000  0.046448  0.611112  1
  Ce  Ce6  1  0.000000  0.453552  0.111112  1
  Ce  Ce7  1  0.000000  0.546448  0.888888  1
  Tc  Tc8  1  0.000000  0.644180  0.320869  1
  Tc  Tc9  1  0.000000  0.355820  0.679131  1
  Tc  Tc10  1  0.000000  0.144180  0.179131  1
  Tc  Tc11  1  0.000000  0.855820  0.820869  1
  B  B12  1  0.500000  0.552985  0.430047  1
  B  B13  1  0.500000  0.447015  0.569953  1
  B  B14  1  0.500000  0.052985  0.069953  1
  B  B15  1  0.500000  0.947015  0.930047  1
  B  B16  1  0.500000  0.742278  0.422511  1
  B  B17  1  0.500000  0.257722  0.577489  1
  B  B18  1  0.500000  0.242278  0.077489  1
  B  B19  1  0.500000  0.757722  0.922511  1
  B  B20  1  0.500000  0.798394  0.274545  1
  B  B21  1  0.500000  0.201606  0.725455  1
  B  B22  1  0.500000  0.298394  0.225455  1
  B  B23  1  0.500000  0.701606  0.774545  1
  B  B24  1  0.500000  0.644077  0.189610  1
  B  B25  1  0.500000  0.355923  0.810390  1
  B  B26  1  0.500000  0.144077  0.310390  1
  B  B27  1  0.500000  0.855923  0.689610  1
  B  B28  1  0.500000  0.991034  0.217194  1
  B  B29  1  0.500000  0.008966  0.782806  1
  B  B30  1  0.500000  0.491034  0.282806  1
  B  B31  1  0.500000  0.508966  0.717194  1
  B  B32  1  0.500000  0.646253  0.040835  1
  B  B33  1  0.500000  0.353747  0.959165  1
  B  B34  1  0.500000  0.146253  0.459165  1
  B  B35  1  0.500000  0.853747  0.540835  1
