# generated using pymatgen
data_Dy12OsPt3
_symmetry_space_group_name_H-M   'P 1'
_cell_length_a   6.44321206
_cell_length_b   7.12474940
_cell_length_c   9.47327100
_cell_angle_alpha   90.00000000
_cell_angle_beta   90.00000000
_cell_angle_gamma   90.10085032
_symmetry_Int_Tables_number   1
_chemical_formula_structural   Dy12OsPt3
_chemical_formula_sum   'Dy12 Os1 Pt3'
_cell_volume   434.88187429
_cell_formula_units_Z   1
loop_
 _symmetry_equiv_pos_site_id
 _symmetry_equiv_pos_as_xyz
  1  'x, y, z'
loop_
 _atom_site_type_symbol
 _atom_site_label
 _atom_site_symmetry_multiplicity
 _atom_site_fract_x
 _atom_site_fract_y
 _atom_site_fract_z
 _atom_site_occupancy
  Dy  Dy0  1  0.319709  0.683522  0.062857  1
  Dy  Dy1  1  0.174904  0.178229  0.436806  1
  Dy  Dy2  1  0.674422  0.318041  0.561177  1
  Dy  Dy3  1  0.828056  0.817379  0.944626  1
  Dy  Dy4  1  0.674422  0.318041  0.938823  1
  Dy  Dy5  1  0.828056  0.817379  0.555374  1
  Dy  Dy6  1  0.319709  0.683522  0.437143  1
  Dy  Dy7  1  0.174904  0.178229  0.063194  1
  Dy  Dy8  1  0.874605  0.536009  0.250000  1
  Dy  Dy9  1  0.629712  0.028426  0.250000  1
  Dy  Dy10  1  0.132359  0.470401  0.750000  1
  Dy  Dy11  1  0.369868  0.971178  0.750000  1
  Os  Os12  1  0.046049  0.888796  0.250000  1
  Pt  Pt13  1  0.454211  0.388232  0.250000  1
  Pt  Pt14  1  0.946758  0.110302  0.750000  1
  Pt  Pt15  1  0.552261  0.612311  0.750000  1
