# generated using pymatgen
data_KMn3AlO8
_symmetry_space_group_name_H-M   'P 1'
_cell_length_a   2.92566637
_cell_length_b   7.10963697
_cell_length_c   7.12968454
_cell_angle_alpha   87.43412989
_cell_angle_beta   101.83647722
_cell_angle_gamma   101.86341179
_symmetry_Int_Tables_number   1
_chemical_formula_structural   KMn3AlO8
_chemical_formula_sum   'K1 Mn3 Al1 O8'
_cell_volume   142.04636157
_cell_formula_units_Z   1
loop_
 _symmetry_equiv_pos_site_id
 _symmetry_equiv_pos_as_xyz
  1  'x, y, z'
loop_
 _atom_site_type_symbol
 _atom_site_label
 _atom_site_symmetry_multiplicity
 _atom_site_fract_x
 _atom_site_fract_y
 _atom_site_fract_z
 _atom_site_occupancy
  K  K0  1  0.036460  0.008685  0.003929  1
  Mn  Mn1  1  0.861489  0.513001  0.174724  1
  Mn  Mn2  1  0.683306  0.811428  0.520454  1
  Mn  Mn3  1  0.352294  0.182264  0.487524  1
  Al  Al4  1  0.167584  0.486833  0.813643  1
  O  O5  1  0.347601  0.372020  0.288042  1
  O  O6  1  0.681669  0.621548  0.707257  1
  O  O7  1  0.975643  0.291233  0.625263  1
  O  O8  1  0.060563  0.709854  0.376538  1
  O  O9  1  0.363651  0.644657  0.047468  1
  O  O10  1  0.672163  0.359570  0.949185  1
  O  O11  1  0.720484  0.047681  0.357953  1
  O  O12  1  0.317093  0.951227  0.648019  1
