# generated using pymatgen
data_Ce4Al18(PdRh)3
_symmetry_space_group_name_H-M   'P 1'
_cell_length_a   7.61747467
_cell_length_b   7.61747491
_cell_length_c   9.47554200
_cell_angle_alpha   89.97605115
_cell_angle_beta   89.97605115
_cell_angle_gamma   119.55568912
_symmetry_Int_Tables_number   1
_chemical_formula_structural   Ce4Al18(PdRh)3
_chemical_formula_sum   'Ce4 Al18 Pd3 Rh3'
_cell_volume   478.28156896
_cell_formula_units_Z   1
loop_
 _symmetry_equiv_pos_site_id
 _symmetry_equiv_pos_as_xyz
  1  'x, y, z'
loop_
 _atom_site_type_symbol
 _atom_site_label
 _atom_site_symmetry_multiplicity
 _atom_site_fract_x
 _atom_site_fract_y
 _atom_site_fract_z
 _atom_site_occupancy
  Ce  Ce0  1  0.994916  0.669801  0.251288  1
  Ce  Ce1  1  0.005084  0.330199  0.748712  1
  Ce  Ce2  1  0.669801  0.994916  0.251288  1
  Ce  Ce3  1  0.330199  0.005084  0.748712  1
  Al  Al4  1  0.131198  0.131198  0.253635  1
  Al  Al5  1  0.868802  0.868802  0.746365  1
  Al  Al6  1  0.004911  0.335194  0.076806  1
  Al  Al7  1  0.995089  0.664806  0.923194  1
  Al  Al8  1  0.999296  0.665243  0.573650  1
  Al  Al9  1  0.334757  0.000704  0.426350  1
  Al  Al10  1  0.000704  0.334757  0.426350  1
  Al  Al11  1  0.665243  0.999296  0.573650  1
  Al  Al12  1  0.664806  0.995089  0.923194  1
  Al  Al13  1  0.335194  0.004911  0.076806  1
  Al  Al14  1  0.332883  0.332883  0.546509  1
  Al  Al15  1  0.667117  0.667117  0.453491  1
  Al  Al16  1  0.664029  0.664029  0.057135  1
  Al  Al17  1  0.335971  0.335971  0.942865  1
  Al  Al18  1  0.342190  0.547620  0.253964  1
  Al  Al19  1  0.657810  0.452380  0.746036  1
  Al  Al20  1  0.547620  0.342190  0.253964  1
  Al  Al21  1  0.452380  0.657810  0.746036  1
  Pd  Pd22  1  0.671998  0.328002  0.000000  1
  Pd  Pd23  1  0.328002  0.671998  0.000000  1
  Pd  Pd24  1  0.000000  0.000000  0.000000  1
  Rh  Rh25  1  0.328678  0.671322  0.500000  1
  Rh  Rh26  1  0.671322  0.328678  0.500000  1
  Rh  Rh27  1  0.000000  0.000000  0.500000  1
