# generated using pymatgen
data_Tb3Dy2Er5Sn6
_symmetry_space_group_name_H-M   'P 1'
_cell_length_a   8.94888259
_cell_length_b   8.93384170
_cell_length_c   6.53052000
_cell_angle_alpha   90.00000000
_cell_angle_beta   90.00000000
_cell_angle_gamma   119.98733111
_symmetry_Int_Tables_number   1
_chemical_formula_structural   Tb3Dy2Er5Sn6
_chemical_formula_sum   'Tb3 Dy2 Er5 Sn6'
_cell_volume   452.21075430
_cell_formula_units_Z   1
loop_
 _symmetry_equiv_pos_site_id
 _symmetry_equiv_pos_as_xyz
  1  'x, y, z'
loop_
 _atom_site_type_symbol
 _atom_site_label
 _atom_site_symmetry_multiplicity
 _atom_site_fract_x
 _atom_site_fract_y
 _atom_site_fract_z
 _atom_site_occupancy
  Tb  Tb0  1  0.999890  0.761614  0.750000  1
  Tb  Tb1  1  0.000436  0.238565  0.250000  1
  Tb  Tb2  1  0.761301  0.761268  0.250000  1
  Dy  Dy3  1  0.760843  0.999711  0.750000  1
  Dy  Dy4  1  0.238743  0.238506  0.750000  1
  Er  Er5  1  0.238946  0.000333  0.250000  1
  Er  Er6  1  0.333211  0.666762  0.499969  1
  Er  Er7  1  0.666704  0.333205  0.000063  1
  Er  Er8  1  0.666704  0.333205  0.499937  1
  Er  Er9  1  0.333211  0.666762  0.000031  1
  Sn  Sn10  1  0.396386  0.000130  0.750000  1
  Sn  Sn11  1  0.395380  0.394610  0.250000  1
  Sn  Sn12  1  0.000836  0.605000  0.250000  1
  Sn  Sn13  1  0.999978  0.395833  0.750000  1
  Sn  Sn14  1  0.604200  0.604356  0.750000  1
  Sn  Sn15  1  0.603233  0.000141  0.250000  1
