# generated using pymatgen
data_PaNbI10
_symmetry_space_group_name_H-M   'P 1'
_cell_length_a   7.68543719
_cell_length_b   8.31178624
_cell_length_c   11.19294741
_cell_angle_alpha   109.34991663
_cell_angle_beta   91.03324384
_cell_angle_gamma   115.97095438
_symmetry_Int_Tables_number   1
_chemical_formula_structural   PaNbI10
_chemical_formula_sum   'Pa1 Nb1 I10'
_cell_volume   595.16713604
_cell_formula_units_Z   1
loop_
 _symmetry_equiv_pos_site_id
 _symmetry_equiv_pos_as_xyz
  1  'x, y, z'
loop_
 _atom_site_type_symbol
 _atom_site_label
 _atom_site_symmetry_multiplicity
 _atom_site_fract_x
 _atom_site_fract_y
 _atom_site_fract_z
 _atom_site_occupancy
  Pa  Pa0  1  0.098974  0.204743  0.206552  1
  Nb  Nb1  1  0.893010  0.778615  0.777215  1
  I  I2  1  0.758711  0.811100  0.036425  1
  I  I3  1  0.877882  0.386819  0.149128  1
  I  I4  1  0.310954  0.006978  0.251177  1
  I  I5  1  0.444982  0.578407  0.331336  1
  I  I6  1  0.927258  0.184264  0.433598  1
  I  I7  1  0.063584  0.813222  0.577208  1
  I  I8  1  0.571517  0.438788  0.671893  1
  I  I9  1  0.708306  0.986382  0.762048  1
  I  I10  1  0.111039  0.637465  0.855872  1
  I  I11  1  0.233781  0.173219  0.947547  1
