# generated using pymatgen
data_Tb5Zr3(As3Rh4)4
_symmetry_space_group_name_H-M   'P 1'
_cell_length_a   13.32389900
_cell_length_b   13.32389924
_cell_length_c   4.01340700
_cell_angle_alpha   90.00000000
_cell_angle_beta   90.00000000
_cell_angle_gamma   120.00000189
_symmetry_Int_Tables_number   1
_chemical_formula_structural   Tb5Zr3(As3Rh4)4
_chemical_formula_sum   'Tb5 Zr3 As12 Rh16'
_cell_volume   617.03031111
_cell_formula_units_Z   1
loop_
 _symmetry_equiv_pos_site_id
 _symmetry_equiv_pos_as_xyz
  1  'x, y, z'
loop_
 _atom_site_type_symbol
 _atom_site_label
 _atom_site_symmetry_multiplicity
 _atom_site_fract_x
 _atom_site_fract_y
 _atom_site_fract_z
 _atom_site_occupancy
  Tb  Tb0  1  0.187510  0.187510  0.500000  1
  Tb  Tb1  1  0.812490  0.000000  0.500000  1
  Tb  Tb2  1  0.000000  0.812490  0.500000  1
  Tb  Tb3  1  0.333333  0.666667  0.000000  1
  Tb  Tb4  1  0.666667  0.333333  0.000000  1
  Zr  Zr5  1  0.556430  0.556430  0.000000  1
  Zr  Zr6  1  0.443570  0.000000  0.000000  1
  Zr  Zr7  1  0.000000  0.443570  0.000000  1
  As  As8  1  0.824503  0.824503  0.000000  1
  As  As9  1  0.175497  0.000000  0.000000  1
  As  As10  1  0.000000  0.175497  0.000000  1
  As  As11  1  0.170423  0.485441  0.500000  1
  As  As12  1  0.514559  0.684981  0.500000  1
  As  As13  1  0.315019  0.829577  0.500000  1
  As  As14  1  0.684981  0.514559  0.500000  1
  As  As15  1  0.829577  0.315019  0.500000  1
  As  As16  1  0.485441  0.170423  0.500000  1
  As  As17  1  0.354541  0.354541  0.000000  1
  As  As18  1  0.645459  0.000000  0.000000  1
  As  As19  1  0.000000  0.645459  0.000000  1
  Rh  Rh20  1  0.719094  0.719094  0.500000  1
  Rh  Rh21  1  0.280906  0.000000  0.500000  1
  Rh  Rh22  1  0.000000  0.280906  0.500000  1
  Rh  Rh23  1  0.176388  0.373924  0.000000  1
  Rh  Rh24  1  0.626076  0.802463  0.000000  1
  Rh  Rh25  1  0.197537  0.823612  0.000000  1
  Rh  Rh26  1  0.802463  0.626076  0.000000  1
  Rh  Rh27  1  0.823612  0.197537  0.000000  1
  Rh  Rh28  1  0.373924  0.176388  0.000000  1
  Rh  Rh29  1  0.354752  0.482275  0.500000  1
  Rh  Rh30  1  0.517725  0.872478  0.500000  1
  Rh  Rh31  1  0.127522  0.645248  0.500000  1
  Rh  Rh32  1  0.872478  0.517725  0.500000  1
  Rh  Rh33  1  0.645248  0.127522  0.500000  1
  Rh  Rh34  1  0.482275  0.354752  0.500000  1
  Rh  Rh35  1  0.000000  0.000000  0.000000  1
