# generated using pymatgen
data_NbAl3(Fe2Si)4
_symmetry_space_group_name_H-M   'P 1'
_cell_length_a   5.69766900
_cell_length_b   5.66947400
_cell_length_c   5.66947400
_cell_angle_alpha   90.00000000
_cell_angle_beta   90.00000000
_cell_angle_gamma   90.00000000
_symmetry_Int_Tables_number   1
_chemical_formula_structural   NbAl3(Fe2Si)4
_chemical_formula_sum   'Nb1 Al3 Fe8 Si4'
_cell_volume   183.13980681
_cell_formula_units_Z   1
loop_
 _symmetry_equiv_pos_site_id
 _symmetry_equiv_pos_as_xyz
  1  'x, y, z'
loop_
 _atom_site_type_symbol
 _atom_site_label
 _atom_site_symmetry_multiplicity
 _atom_site_fract_x
 _atom_site_fract_y
 _atom_site_fract_z
 _atom_site_occupancy
  Nb  Nb0  1  0.500000  0.000000  0.000000  1
  Al  Al1  1  0.000000  0.000000  0.000000  1
  Al  Al2  1  0.000000  0.500000  0.000000  1
  Al  Al3  1  0.000000  0.000000  0.500000  1
  Fe  Fe4  1  0.254157  0.260988  0.260988  1
  Fe  Fe5  1  0.745843  0.260988  0.260988  1
  Fe  Fe6  1  0.254157  0.739012  0.260988  1
  Fe  Fe7  1  0.745843  0.739012  0.260988  1
  Fe  Fe8  1  0.254157  0.260988  0.739012  1
  Fe  Fe9  1  0.745843  0.260988  0.739012  1
  Fe  Fe10  1  0.254157  0.739012  0.739012  1
  Fe  Fe11  1  0.745843  0.739012  0.739012  1
  Si  Si12  1  0.500000  0.500000  0.000000  1
  Si  Si13  1  0.500000  0.000000  0.500000  1
  Si  Si14  1  0.000000  0.500000  0.500000  1
  Si  Si15  1  0.500000  0.500000  0.500000  1
