# generated using pymatgen
data_Bi5Ru3PbO18
_symmetry_space_group_name_H-M   'P 1'
_cell_length_a   9.24870852
_cell_length_b   9.27990796
_cell_length_c   5.28152344
_cell_angle_alpha   89.99999828
_cell_angle_beta   90.24209059
_cell_angle_gamma   120.11165518
_symmetry_Int_Tables_number   1
_chemical_formula_structural   Bi5Ru3PbO18
_chemical_formula_sum   'Bi5 Ru3 Pb1 O18'
_cell_volume   392.12063184
_cell_formula_units_Z   1
loop_
 _symmetry_equiv_pos_site_id
 _symmetry_equiv_pos_as_xyz
  1  'x, y, z'
loop_
 _atom_site_type_symbol
 _atom_site_label
 _atom_site_symmetry_multiplicity
 _atom_site_fract_x
 _atom_site_fract_y
 _atom_site_fract_z
 _atom_site_occupancy
  Bi  Bi0  1  0.288152  0.287029  0.001344  1
  Bi  Bi1  1  0.000000  0.715993  0.000000  1
  Bi  Bi2  1  0.623292  0.622784  0.498372  1
  Bi  Bi3  1  0.376708  0.999493  0.501628  1
  Bi  Bi4  1  0.711848  0.998877  0.998656  1
  Ru  Ru5  1  0.000000  0.001323  0.500000  1
  Ru  Ru6  1  0.331753  0.664863  0.002128  1
  Ru  Ru7  1  0.668247  0.333108  0.997872  1
  Pb  Pb8  1  0.000000  0.379396  0.500000  1
  O  O9  1  0.070624  0.189660  0.719027  1
  O  O10  1  0.236058  0.470961  0.216887  1
  O  O11  1  0.137605  0.601016  0.794165  1
  O  O12  1  0.402375  0.539090  0.790421  1
  O  O13  1  0.237286  0.772495  0.217345  1
  O  O14  1  0.122327  0.920207  0.708619  1
  O  O15  1  0.536508  0.765811  0.215983  1
  O  O16  1  0.199508  0.076592  0.289642  1
  O  O17  1  0.461737  0.864750  0.791096  1
  O  O18  1  0.800492  0.877085  0.710358  1
  O  O19  1  0.463492  0.229302  0.784017  1
  O  O20  1  0.597625  0.136715  0.209579  1
  O  O21  1  0.538263  0.403013  0.208904  1
  O  O22  1  0.763942  0.234904  0.783113  1
  O  O23  1  0.929376  0.119036  0.280973  1
  O  O24  1  0.762714  0.535209  0.782655  1
  O  O25  1  0.862395  0.463410  0.205835  1
  O  O26  1  0.877673  0.797881  0.291381  1
