# generated using pymatgen
data_Ho6Sn6Ir5Rh
_symmetry_space_group_name_H-M   'P 1'
_cell_length_a   7.66810300
_cell_length_b   7.69677718
_cell_length_c   7.61123900
_cell_angle_alpha   90.00000000
_cell_angle_beta   90.00000000
_cell_angle_gamma   120.06597198
_symmetry_Int_Tables_number   1
_chemical_formula_structural   Ho6Sn6Ir5Rh
_chemical_formula_sum   'Ho6 Sn6 Ir5 Rh1'
_cell_volume   388.77089954
_cell_formula_units_Z   1
loop_
 _symmetry_equiv_pos_site_id
 _symmetry_equiv_pos_as_xyz
  1  'x, y, z'
loop_
 _atom_site_type_symbol
 _atom_site_label
 _atom_site_symmetry_multiplicity
 _atom_site_fract_x
 _atom_site_fract_y
 _atom_site_fract_z
 _atom_site_occupancy
  Ho  Ho0  1  0.596486  0.999162  0.250000  1
  Ho  Ho1  1  0.404146  0.401895  0.250000  1
  Ho  Ho2  1  0.593970  0.999797  0.750000  1
  Ho  Ho3  1  0.404969  0.406950  0.750000  1
  Ho  Ho4  1  0.001120  0.593850  0.750000  1
  Ho  Ho5  1  0.999771  0.597475  0.250000  1
  Sn  Sn6  1  0.263802  0.000398  0.998281  1
  Sn  Sn7  1  0.736488  0.736167  0.501495  1
  Sn  Sn8  1  0.999756  0.263202  0.499494  1
  Sn  Sn9  1  0.999756  0.263202  0.000506  1
  Sn  Sn10  1  0.736488  0.736167  0.998505  1
  Sn  Sn11  1  0.263802  0.000398  0.501719  1
  Ir  Ir12  1  0.667122  0.333972  0.998471  1
  Ir  Ir13  1  0.667122  0.333972  0.501529  1
  Ir  Ir14  1  0.332790  0.666671  0.001054  1
  Ir  Ir15  1  0.332790  0.666671  0.498946  1
  Ir  Ir16  1  0.999942  0.999006  0.250000  1
  Rh  Rh17  1  0.999679  0.001044  0.750000  1
