# generated using pymatgen
data_MnInCuSbRh4
_symmetry_space_group_name_H-M   'P 1'
_cell_length_a   7.65786730
_cell_length_b   7.65786711
_cell_length_c   7.65786846
_cell_angle_alpha   33.66390864
_cell_angle_beta   33.66391361
_cell_angle_gamma   33.66391032
_symmetry_Int_Tables_number   1
_chemical_formula_structural   MnInCuSbRh4
_chemical_formula_sum   'Mn1 In1 Cu1 Sb1 Rh4'
_cell_volume   122.93181457
_cell_formula_units_Z   1
loop_
 _symmetry_equiv_pos_site_id
 _symmetry_equiv_pos_as_xyz
  1  'x, y, z'
loop_
 _atom_site_type_symbol
 _atom_site_label
 _atom_site_symmetry_multiplicity
 _atom_site_fract_x
 _atom_site_fract_y
 _atom_site_fract_z
 _atom_site_occupancy
  Mn  Mn0  1  0.747100  0.747100  0.747100  1
  In  In1  1  0.998875  0.998875  0.998875  1
  Cu  Cu2  1  0.253903  0.253903  0.253903  1
  Sb  Sb3  1  0.500822  0.500822  0.500822  1
  Rh  Rh4  1  0.622355  0.622355  0.622355  1
  Rh  Rh5  1  0.127549  0.127549  0.127549  1
  Rh  Rh6  1  0.871006  0.871006  0.871006  1
  Rh  Rh7  1  0.378391  0.378391  0.378391  1
