# generated using pymatgen
data_Nd5(AlTe)2
_symmetry_space_group_name_H-M   'P 1'
_cell_length_a   8.22224700
_cell_length_b   8.22146500
_cell_length_c   16.06798000
_cell_angle_alpha   90.00000000
_cell_angle_beta   90.00000000
_cell_angle_gamma   90.00000000
_symmetry_Int_Tables_number   1
_chemical_formula_structural   Nd5(AlTe)2
_chemical_formula_sum   'Nd20 Al8 Te8'
_cell_volume   1086.17802921
_cell_formula_units_Z   4
loop_
 _symmetry_equiv_pos_site_id
 _symmetry_equiv_pos_as_xyz
  1  'x, y, z'
loop_
 _atom_site_type_symbol
 _atom_site_label
 _atom_site_symmetry_multiplicity
 _atom_site_fract_x
 _atom_site_fract_y
 _atom_site_fract_z
 _atom_site_occupancy
  Nd  Nd0  1  0.072953  0.169003  0.384343  1
  Nd  Nd1  1  0.413679  0.832147  0.118396  1
  Nd  Nd2  1  0.086321  0.332147  0.618396  1
  Nd  Nd3  1  0.427047  0.669003  0.884343  1
  Nd  Nd4  1  0.913679  0.667853  0.118396  1
  Nd  Nd5  1  0.086321  0.332147  0.881604  1
  Nd  Nd6  1  0.242518  0.498025  0.250000  1
  Nd  Nd7  1  0.742518  0.001975  0.250000  1
  Nd  Nd8  1  0.427047  0.669003  0.615657  1
  Nd  Nd9  1  0.257482  0.998025  0.750000  1
  Nd  Nd10  1  0.586321  0.167853  0.618396  1
  Nd  Nd11  1  0.757482  0.501975  0.750000  1
  Nd  Nd12  1  0.913679  0.667853  0.381604  1
  Nd  Nd13  1  0.072953  0.169003  0.115657  1
  Nd  Nd14  1  0.927047  0.830997  0.884343  1
  Nd  Nd15  1  0.586321  0.167853  0.881604  1
  Nd  Nd16  1  0.572953  0.330997  0.115657  1
  Nd  Nd17  1  0.413679  0.832147  0.381604  1
  Nd  Nd18  1  0.927047  0.830997  0.615657  1
  Nd  Nd19  1  0.572953  0.330997  0.384343  1
  Al  Al20  1  0.638119  0.881229  0.750000  1
  Al  Al21  1  0.861881  0.381229  0.250000  1
  Al  Al22  1  0.622774  0.616186  0.250000  1
  Al  Al23  1  0.377226  0.383814  0.750000  1
  Al  Al24  1  0.138119  0.618771  0.750000  1
  Al  Al25  1  0.877226  0.116186  0.750000  1
  Al  Al26  1  0.361881  0.118771  0.250000  1
  Al  Al27  1  0.122774  0.883814  0.250000  1
  Te  Te28  1  0.754843  0.496959  0.547935  1
  Te  Te29  1  0.745157  0.996959  0.452065  1
  Te  Te30  1  0.245157  0.503041  0.452065  1
  Te  Te31  1  0.254843  0.003041  0.952065  1
  Te  Te32  1  0.754843  0.496959  0.952065  1
  Te  Te33  1  0.245157  0.503041  0.047935  1
  Te  Te34  1  0.254843  0.003041  0.547935  1
  Te  Te35  1  0.745157  0.996959  0.047935  1
