# generated using pymatgen
data_Sc12Mn3Si12Tc
_symmetry_space_group_name_H-M   'P 1'
_cell_length_a   3.94999716
_cell_length_b   10.34041715
_cell_length_c   11.78216178
_cell_angle_alpha   89.86844079
_cell_angle_beta   90.00101746
_cell_angle_gamma   90.03110259
_symmetry_Int_Tables_number   1
_chemical_formula_structural   Sc12Mn3Si12Tc
_chemical_formula_sum   'Sc12 Mn3 Si12 Tc1'
_cell_volume   481.23656180
_cell_formula_units_Z   1
loop_
 _symmetry_equiv_pos_site_id
 _symmetry_equiv_pos_as_xyz
  1  'x, y, z'
loop_
 _atom_site_type_symbol
 _atom_site_label
 _atom_site_symmetry_multiplicity
 _atom_site_fract_x
 _atom_site_fract_y
 _atom_site_fract_z
 _atom_site_occupancy
  Sc  Sc0  1  0.249988  0.878364  0.019049  1
  Sc  Sc1  1  0.250017  0.619810  0.521094  1
  Sc  Sc2  1  0.749965  0.123256  0.978988  1
  Sc  Sc3  1  0.750067  0.377493  0.478782  1
  Sc  Sc4  1  0.250054  0.922534  0.604853  1
  Sc  Sc5  1  0.249924  0.576975  0.103784  1
  Sc  Sc6  1  0.750026  0.076147  0.397101  1
  Sc  Sc7  1  0.750102  0.424026  0.898493  1
  Sc  Sc8  1  0.249969  0.658533  0.798438  1
  Sc  Sc9  1  0.250032  0.838479  0.298773  1
  Sc  Sc10  1  0.750025  0.338725  0.201184  1
  Sc  Sc11  1  0.749991  0.166811  0.701532  1
  Mn  Mn12  1  0.249627  0.385659  0.677009  1
  Mn  Mn13  1  0.250610  0.113677  0.177863  1
  Mn  Mn14  1  0.750091  0.612983  0.321931  1
  Si  Si15  1  0.249695  0.019199  0.822493  1
  Si  Si16  1  0.250005  0.483652  0.324452  1
  Si  Si17  1  0.750407  0.983978  0.175858  1
  Si  Si18  1  0.749724  0.514046  0.676453  1
  Si  Si19  1  0.250044  0.255510  0.843573  1
  Si  Si20  1  0.250065  0.246785  0.342283  1
  Si  Si21  1  0.749926  0.746965  0.157770  1
  Si  Si22  1  0.750013  0.750128  0.655458  1
  Si  Si23  1  0.250025  0.193834  0.543955  1
  Si  Si24  1  0.250054  0.305211  0.044882  1
  Si  Si25  1  0.749990  0.803093  0.455295  1
  Si  Si26  1  0.749919  0.694158  0.956920  1
  Tc  Tc27  1  0.749648  0.889972  0.821733  1
