# generated using pymatgen
data_Ba2GaSiI
_symmetry_space_group_name_H-M   'P 1'
_cell_length_a   4.49783500
_cell_length_b   4.49783629
_cell_length_c   19.71559000
_cell_angle_alpha   90.00000000
_cell_angle_beta   90.00000000
_cell_angle_gamma   120.00001255
_symmetry_Int_Tables_number   1
_chemical_formula_structural   Ba2GaSiI
_chemical_formula_sum   'Ba4 Ga2 Si2 I2'
_cell_volume   345.42003116
_cell_formula_units_Z   2
loop_
 _symmetry_equiv_pos_site_id
 _symmetry_equiv_pos_as_xyz
  1  'x, y, z'
loop_
 _atom_site_type_symbol
 _atom_site_label
 _atom_site_symmetry_multiplicity
 _atom_site_fract_x
 _atom_site_fract_y
 _atom_site_fract_z
 _atom_site_occupancy
  Ba  Ba0  1  0.000000  0.000000  0.381001  1
  Ba  Ba1  1  0.000000  0.000000  0.881001  1
  Ba  Ba2  1  0.000000  0.000000  0.618209  1
  Ba  Ba3  1  0.000000  0.000000  0.118209  1
  Ga  Ga4  1  0.333333  0.666667  0.519156  1
  Ga  Ga5  1  0.666667  0.333333  0.019156  1
  Si  Si6  1  0.666667  0.333333  0.482196  1
  Si  Si7  1  0.333333  0.666667  0.982196  1
  I  I8  1  0.333333  0.666667  0.249437  1
  I  I9  1  0.666667  0.333333  0.749437  1
