# generated using pymatgen
data_Nd5EuHoFeI12
_symmetry_space_group_name_H-M   'P 1'
_cell_length_a   9.99867272
_cell_length_b   9.88301854
_cell_length_c   10.01118000
_cell_angle_alpha   107.03699588
_cell_angle_beta   106.95288359
_cell_angle_gamma   107.10214905
_symmetry_Int_Tables_number   1
_chemical_formula_structural   Nd5EuHoFeI12
_chemical_formula_sum   'Nd5 Eu1 Ho1 Fe1 I12'
_cell_volume   823.18657706
_cell_formula_units_Z   1
loop_
 _symmetry_equiv_pos_site_id
 _symmetry_equiv_pos_as_xyz
  1  'x, y, z'
loop_
 _atom_site_type_symbol
 _atom_site_label
 _atom_site_symmetry_multiplicity
 _atom_site_fract_x
 _atom_site_fract_y
 _atom_site_fract_z
 _atom_site_occupancy
  Nd  Nd0  1  0.800281  0.522642  0.596463  1
  Nd  Nd1  1  0.405748  0.214225  0.476757  1
  Nd  Nd2  1  0.477086  0.403207  0.200948  1
  Nd  Nd3  1  0.590138  0.784973  0.522119  1
  Nd  Nd4  1  0.522089  0.596764  0.798415  1
  Eu  Eu5  1  0.999250  0.000457  0.000043  1
  Ho  Ho6  1  0.212121  0.477671  0.406679  1
  Fe  Fe7  1  0.500007  0.499462  0.499933  1
  I  I8  1  0.670803  0.969750  0.890791  1
  I  I9  1  0.723677  0.178039  0.571074  1
  I  I10  1  0.889577  0.668445  0.967992  1
  I  I11  1  0.268469  0.810853  0.426529  1
  I  I12  1  0.177411  0.568595  0.716383  1
  I  I13  1  0.034252  0.117235  0.331556  1
  I  I14  1  0.572640  0.729111  0.180586  1
  I  I15  1  0.110389  0.336188  0.041332  1
  I  I16  1  0.824881  0.429203  0.274131  1
  I  I17  1  0.426931  0.271028  0.819409  1
  I  I18  1  0.966306  0.892044  0.669726  1
  I  I19  1  0.327943  0.030108  0.109134  1
