# generated using pymatgen
data_KBa3Tc(IN2)2
_symmetry_space_group_name_H-M   'P 1'
_cell_length_a   6.32676500
_cell_length_b   8.55469342
_cell_length_c   11.83691293
_cell_angle_alpha   83.04744851
_cell_angle_beta   90.00000000
_cell_angle_gamma   90.00000000
_symmetry_Int_Tables_number   1
_chemical_formula_structural   KBa3Tc(IN2)2
_chemical_formula_sum   'K2 Ba6 Tc2 I4 N8'
_cell_volume   635.94466056
_cell_formula_units_Z   2
loop_
 _symmetry_equiv_pos_site_id
 _symmetry_equiv_pos_as_xyz
  1  'x, y, z'
loop_
 _atom_site_type_symbol
 _atom_site_label
 _atom_site_symmetry_multiplicity
 _atom_site_fract_x
 _atom_site_fract_y
 _atom_site_fract_z
 _atom_site_occupancy
  K  K0  1  0.750000  0.264905  0.305356  1
  K  K1  1  0.750000  0.007184  0.624316  1
  Ba  Ba2  1  0.750000  0.437260  0.593274  1
  Ba  Ba3  1  0.750000  0.751524  0.129028  1
  Ba  Ba4  1  0.250000  0.007481  0.379409  1
  Ba  Ba5  1  0.250000  0.550876  0.395275  1
  Ba  Ba6  1  0.250000  0.232920  0.874573  1
  Ba  Ba7  1  0.250000  0.742038  0.684414  1
  Tc  Tc8  1  0.750000  0.770301  0.409747  1
  Tc  Tc9  1  0.250000  0.235585  0.593249  1
  I  I10  1  0.250000  0.361341  0.152936  1
  I  I11  1  0.750000  0.634073  0.840727  1
  I  I12  1  0.250000  0.873995  0.098104  1
  I  I13  1  0.750000  0.112368  0.919265  1
  N  N14  1  0.250000  0.061998  0.698689  1
  N  N15  1  0.018902  0.241783  0.500237  1
  N  N16  1  0.505974  0.766314  0.496758  1
  N  N17  1  0.994026  0.766314  0.496758  1
  N  N18  1  0.750000  0.594812  0.334928  1
  N  N19  1  0.750000  0.935512  0.300550  1
  N  N20  1  0.481098  0.241783  0.500237  1
  N  N21  1  0.250000  0.409634  0.672175  1
