# generated using pymatgen
data_Ba10SiGeBi4
_symmetry_space_group_name_H-M   'P 1'
_cell_length_a   14.39280500
_cell_length_b   10.60208100
_cell_length_c   9.15347600
_cell_angle_alpha   90.00000000
_cell_angle_beta   90.00000000
_cell_angle_gamma   90.00000000
_symmetry_Int_Tables_number   1
_chemical_formula_structural   Ba10SiGeBi4
_chemical_formula_sum   'Ba20 Si2 Ge2 Bi8'
_cell_volume   1396.76262816
_cell_formula_units_Z   2
loop_
 _symmetry_equiv_pos_site_id
 _symmetry_equiv_pos_as_xyz
  1  'x, y, z'
loop_
 _atom_site_type_symbol
 _atom_site_label
 _atom_site_symmetry_multiplicity
 _atom_site_fract_x
 _atom_site_fract_y
 _atom_site_fract_z
 _atom_site_occupancy
  Ba  Ba0  1  0.075259  0.527283  0.820319  1
  Ba  Ba1  1  0.575259  0.972717  0.679681  1
  Ba  Ba2  1  0.924749  0.025771  0.179850  1
  Ba  Ba3  1  0.424749  0.474229  0.320150  1
  Ba  Ba4  1  0.924749  0.474229  0.179850  1
  Ba  Ba5  1  0.424749  0.025771  0.320150  1
  Ba  Ba6  1  0.075259  0.972717  0.820319  1
  Ba  Ba7  1  0.575259  0.527283  0.679681  1
  Ba  Ba8  1  0.000732  0.750000  0.441728  1
  Ba  Ba9  1  0.500732  0.750000  0.058272  1
  Ba  Ba10  1  0.999220  0.250000  0.557409  1
  Ba  Ba11  1  0.499220  0.250000  0.942591  1
  Ba  Ba12  1  0.213852  0.750000  0.168211  1
  Ba  Ba13  1  0.713852  0.750000  0.331789  1
  Ba  Ba14  1  0.785627  0.250000  0.831600  1
  Ba  Ba15  1  0.285627  0.250000  0.668400  1
  Ba  Ba16  1  0.301533  0.750000  0.645184  1
  Ba  Ba17  1  0.801533  0.750000  0.854816  1
  Ba  Ba18  1  0.699053  0.250000  0.354145  1
  Ba  Ba19  1  0.199053  0.250000  0.145855  1
  Si  Si20  1  0.488475  0.750000  0.439045  1
  Si  Si21  1  0.988475  0.750000  0.060955  1
  Ge  Ge22  1  0.511495  0.250000  0.560635  1
  Ge  Ge23  1  0.011495  0.250000  0.939365  1
  Bi  Bi24  1  0.331123  0.505578  0.938103  1
  Bi  Bi25  1  0.831123  0.994422  0.561897  1
  Bi  Bi26  1  0.668875  0.005612  0.061920  1
  Bi  Bi27  1  0.168875  0.494388  0.438080  1
  Bi  Bi28  1  0.668875  0.494388  0.061920  1
  Bi  Bi29  1  0.168875  0.005612  0.438080  1
  Bi  Bi30  1  0.331123  0.994422  0.938103  1
  Bi  Bi31  1  0.831123  0.505578  0.561897  1
