# generated using pymatgen
data_Al4Pd3Pt
_symmetry_space_group_name_H-M   'P 1'
_cell_length_a   4.91069891
_cell_length_b   4.91069891
_cell_length_c   4.91069891
_cell_angle_alpha   90.23052796
_cell_angle_beta   90.23052796
_cell_angle_gamma   90.23052796
_symmetry_Int_Tables_number   1
_chemical_formula_structural   Al4Pd3Pt
_chemical_formula_sum   'Al4 Pd3 Pt1'
_cell_volume   118.41844338
_cell_formula_units_Z   1
loop_
 _symmetry_equiv_pos_site_id
 _symmetry_equiv_pos_as_xyz
  1  'x, y, z'
loop_
 _atom_site_type_symbol
 _atom_site_label
 _atom_site_symmetry_multiplicity
 _atom_site_fract_x
 _atom_site_fract_y
 _atom_site_fract_z
 _atom_site_occupancy
  Al  Al0  1  0.844008  0.844008  0.844008  1
  Al  Al1  1  0.655515  0.155812  0.343954  1
  Al  Al2  1  0.343954  0.655515  0.155812  1
  Al  Al3  1  0.155812  0.343954  0.655515  1
  Pd  Pd4  1  0.353643  0.851163  0.647945  1
  Pd  Pd5  1  0.647945  0.353643  0.851163  1
  Pd  Pd6  1  0.851163  0.647945  0.353643  1
  Pt  Pt7  1  0.147960  0.147960  0.147960  1
