# generated using pymatgen
data_TbDyHgO4
_symmetry_space_group_name_H-M   'P 1'
_cell_length_a   7.08707714
_cell_length_b   7.08707729
_cell_length_c   10.15075705
_cell_angle_alpha   121.06697427
_cell_angle_beta   121.06697493
_cell_angle_gamma   29.94742627
_symmetry_Int_Tables_number   1
_chemical_formula_structural   TbDyHgO4
_chemical_formula_sum   'Tb2 Dy2 Hg2 O8'
_cell_volume   215.15908419
_cell_formula_units_Z   2
loop_
 _symmetry_equiv_pos_site_id
 _symmetry_equiv_pos_as_xyz
  1  'x, y, z'
loop_
 _atom_site_type_symbol
 _atom_site_label
 _atom_site_symmetry_multiplicity
 _atom_site_fract_x
 _atom_site_fract_y
 _atom_site_fract_z
 _atom_site_occupancy
  Tb  Tb0  1  0.340318  0.340318  0.200133  1
  Tb  Tb1  1  0.119706  0.119706  0.462773  1
  Dy  Dy2  1  0.881301  0.881301  0.538165  1
  Dy  Dy3  1  0.659102  0.659102  0.799653  1
  Hg  Hg4  1  0.613144  0.613144  0.161213  1
  Hg  Hg5  1  0.386476  0.386476  0.837725  1
  O  O6  1  0.702073  0.702073  0.053253  1
  O  O7  1  0.534662  0.534662  0.282678  1
  O  O8  1  0.917530  0.917530  0.347794  1
  O  O9  1  0.268754  0.268754  0.389271  1
  O  O10  1  0.732477  0.732477  0.612513  1
  O  O11  1  0.082507  0.082507  0.653958  1
  O  O12  1  0.465205  0.465205  0.716270  1
  O  O13  1  0.296743  0.296743  0.944604  1
