# generated using pymatgen
data_LiY12Th4Mg3Co4
_symmetry_space_group_name_H-M   'P 1'
_cell_length_a   9.69030265
_cell_length_b   9.69030178
_cell_length_c   9.69030217
_cell_angle_alpha   59.82382207
_cell_angle_beta   59.82382305
_cell_angle_gamma   59.82382756
_symmetry_Int_Tables_number   1
_chemical_formula_structural   LiY12Th4Mg3Co4
_chemical_formula_sum   'Li1 Y12 Th4 Mg3 Co4'
_cell_volume   640.85067961
_cell_formula_units_Z   1
loop_
 _symmetry_equiv_pos_site_id
 _symmetry_equiv_pos_as_xyz
  1  'x, y, z'
loop_
 _atom_site_type_symbol
 _atom_site_label
 _atom_site_symmetry_multiplicity
 _atom_site_fract_x
 _atom_site_fract_y
 _atom_site_fract_z
 _atom_site_occupancy
  Li  Li0  1  0.578115  0.578115  0.578115  1
  Y  Y1  1  0.812020  0.187487  0.187487  1
  Y  Y2  1  0.184732  0.814531  0.814531  1
  Y  Y3  1  0.187487  0.812020  0.187487  1
  Y  Y4  1  0.814531  0.184732  0.814531  1
  Y  Y5  1  0.187487  0.187487  0.812020  1
  Y  Y6  1  0.814531  0.814531  0.184732  1
  Y  Y7  1  0.935810  0.564583  0.564583  1
  Y  Y8  1  0.564095  0.935791  0.935791  1
  Y  Y9  1  0.564583  0.935810  0.564583  1
  Y  Y10  1  0.935791  0.564095  0.935791  1
  Y  Y11  1  0.564583  0.564583  0.935810  1
  Y  Y12  1  0.935791  0.935791  0.564095  1
  Th  Th13  1  0.343822  0.343822  0.343822  1
  Th  Th14  1  0.343090  0.343090  0.970044  1
  Th  Th15  1  0.343090  0.970044  0.343090  1
  Th  Th16  1  0.970044  0.343090  0.343090  1
  Mg  Mg17  1  0.579743  0.579743  0.261358  1
  Mg  Mg18  1  0.579743  0.261358  0.579743  1
  Mg  Mg19  1  0.261358  0.579743  0.579743  1
  Co  Co20  1  0.145680  0.145680  0.145680  1
  Co  Co21  1  0.145582  0.145582  0.562709  1
  Co  Co22  1  0.145582  0.562709  0.145582  1
  Co  Co23  1  0.562709  0.145582  0.145582  1
