# generated using pymatgen
data_HfZr(PBr9)2
_symmetry_space_group_name_H-M   'P 1'
_cell_length_a   8.15070253
_cell_length_b   10.86063128
_cell_length_c   10.60162497
_cell_angle_alpha   105.34111943
_cell_angle_beta   97.98133047
_cell_angle_gamma   89.29186363
_symmetry_Int_Tables_number   1
_chemical_formula_structural   HfZr(PBr9)2
_chemical_formula_sum   'Hf1 Zr1 P2 Br18'
_cell_volume   895.97600407
_cell_formula_units_Z   1
loop_
 _symmetry_equiv_pos_site_id
 _symmetry_equiv_pos_as_xyz
  1  'x, y, z'
loop_
 _atom_site_type_symbol
 _atom_site_label
 _atom_site_symmetry_multiplicity
 _atom_site_fract_x
 _atom_site_fract_y
 _atom_site_fract_z
 _atom_site_occupancy
  Hf  Hf0  1  0.395393  0.341452  0.345132  1
  Zr  Zr1  1  0.605143  0.659556  0.655378  1
  P  P2  1  0.068830  0.195492  0.785532  1
  P  P3  1  0.931103  0.804672  0.214418  1
  Br  Br4  1  0.911336  0.725843  0.723981  1
  Br  Br5  1  0.807956  0.653679  0.045624  1
  Br  Br6  1  0.361088  0.511765  0.199239  1
  Br  Br7  1  0.639148  0.486761  0.802352  1
  Br  Br8  1  0.455925  0.195118  0.496047  1
  Br  Br9  1  0.543330  0.806476  0.502387  1
  Br  Br10  1  0.092404  0.274373  0.276281  1
  Br  Br11  1  0.472667  0.811740  0.842923  1
  Br  Br12  1  0.525482  0.189748  0.159171  1
  Br  Br13  1  0.301273  0.532183  0.548228  1
  Br  Br14  1  0.161088  0.866797  0.164771  1
  Br  Br15  1  0.696998  0.464872  0.448868  1
  Br  Br16  1  0.010919  0.255318  0.605099  1
  Br  Br17  1  0.989134  0.744652  0.394829  1
  Br  Br18  1  0.230163  0.031546  0.754281  1
  Br  Br19  1  0.769710  0.968616  0.245787  1
  Br  Br20  1  0.838959  0.133255  0.835282  1
  Br  Br21  1  0.191952  0.346087  0.954391  1
