# generated using pymatgen
data_Pr16MgTl2AgIr4
_symmetry_space_group_name_H-M   'P 1'
_cell_length_a   10.03737459
_cell_length_b   10.05327798
_cell_length_c   10.06317600
_cell_angle_alpha   59.96741920
_cell_angle_beta   59.91492435
_cell_angle_gamma   59.92986902
_symmetry_Int_Tables_number   1
_chemical_formula_structural   Pr16MgTl2AgIr4
_chemical_formula_sum   'Pr16 Mg1 Tl2 Ag1 Ir4'
_cell_volume   717.01900551
_cell_formula_units_Z   1
loop_
 _symmetry_equiv_pos_site_id
 _symmetry_equiv_pos_as_xyz
  1  'x, y, z'
loop_
 _atom_site_type_symbol
 _atom_site_label
 _atom_site_symmetry_multiplicity
 _atom_site_fract_x
 _atom_site_fract_y
 _atom_site_fract_z
 _atom_site_occupancy
  Pr  Pr0  1  0.347725  0.347630  0.347120  1
  Pr  Pr1  1  0.347725  0.347630  0.957525  1
  Pr  Pr2  1  0.348933  0.955409  0.347829  1
  Pr  Pr3  1  0.950678  0.350362  0.349481  1
  Pr  Pr4  1  0.807092  0.190939  0.192855  1
  Pr  Pr5  1  0.188112  0.809828  0.811082  1
  Pr  Pr6  1  0.188112  0.809828  0.190979  1
  Pr  Pr7  1  0.807092  0.190939  0.809113  1
  Pr  Pr8  1  0.185932  0.188264  0.812903  1
  Pr  Pr9  1  0.805484  0.806654  0.193931  1
  Pr  Pr10  1  0.941524  0.562142  0.560402  1
  Pr  Pr11  1  0.559472  0.946139  0.933886  1
  Pr  Pr12  1  0.559472  0.946139  0.560503  1
  Pr  Pr13  1  0.941524  0.562142  0.935934  1
  Pr  Pr14  1  0.559821  0.562513  0.938833  1
  Pr  Pr15  1  0.938408  0.941383  0.560105  1
  Mg  Mg16  1  0.281858  0.567519  0.575311  1
  Tl  Tl17  1  0.581649  0.580704  0.586472  1
  Tl  Tl18  1  0.581649  0.580704  0.251176  1
  Ag  Ag19  1  0.579684  0.250063  0.585127  1
  Ir  Ir20  1  0.141063  0.142377  0.141196  1
  Ir  Ir21  1  0.141063  0.142377  0.575363  1
  Ir  Ir22  1  0.141331  0.575373  0.141647  1
  Ir  Ir23  1  0.574596  0.142944  0.141230  1
