# generated using pymatgen
data_Rb2Tb(TeO4)3
_symmetry_space_group_name_H-M   'P 1'
_cell_length_a   7.60662064
_cell_length_b   7.42479452
_cell_length_c   7.60613028
_cell_angle_alpha   89.99916770
_cell_angle_beta   58.42875764
_cell_angle_gamma   119.21315615
_symmetry_Int_Tables_number   1
_chemical_formula_structural   Rb2Tb(TeO4)3
_chemical_formula_sum   'Rb2 Tb1 Te3 O12'
_cell_volume   299.98940027
_cell_formula_units_Z   1
loop_
 _symmetry_equiv_pos_site_id
 _symmetry_equiv_pos_as_xyz
  1  'x, y, z'
loop_
 _atom_site_type_symbol
 _atom_site_label
 _atom_site_symmetry_multiplicity
 _atom_site_fract_x
 _atom_site_fract_y
 _atom_site_fract_z
 _atom_site_occupancy
  Rb  Rb0  1  0.250846  0.122737  0.625427  1
  Rb  Rb1  1  0.749199  0.871927  0.374556  1
  Tb  Tb2  1  0.000017  0.497429  0.000011  1
  Te  Te3  1  0.499983  0.497269  0.000008  1
  Te  Te4  1  0.500018  0.997282  0.999992  1
  Te  Te5  1  0.999977  0.497313  0.500007  1
  O  O6  1  0.629152  0.811866  0.916704  1
  O  O7  1  0.845760  0.420273  0.357339  1
  O  O8  1  0.280280  0.420297  0.922783  1
  O  O9  1  0.231181  0.811878  0.314561  1
  O  O10  1  0.280343  0.854761  0.922822  1
  O  O11  1  0.231208  0.413973  0.314577  1
  O  O12  1  0.370876  0.182718  0.083334  1
  O  O13  1  0.154216  0.574531  0.642679  1
  O  O14  1  0.719681  0.574384  0.077161  1
  O  O15  1  0.768712  0.182733  0.685420  1
  O  O16  1  0.719820  0.140023  0.077154  1
  O  O17  1  0.768731  0.580609  0.685466  1
