# generated using pymatgen
data_Ho3Er5Ti7Si16Tc5
_symmetry_space_group_name_H-M   'P 1'
_cell_length_a   6.91018174
_cell_length_b   6.91814564
_cell_length_c   12.73755109
_cell_angle_alpha   89.82152907
_cell_angle_beta   89.91256622
_cell_angle_gamma   89.92525216
_symmetry_Int_Tables_number   1
_chemical_formula_structural   Ho3Er5Ti7Si16Tc5
_chemical_formula_sum   'Ho3 Er5 Ti7 Si16 Tc5'
_cell_volume   608.92265135
_cell_formula_units_Z   1
loop_
 _symmetry_equiv_pos_site_id
 _symmetry_equiv_pos_as_xyz
  1  'x, y, z'
loop_
 _atom_site_type_symbol
 _atom_site_label
 _atom_site_symmetry_multiplicity
 _atom_site_fract_x
 _atom_site_fract_y
 _atom_site_fract_z
 _atom_site_occupancy
  Ho  Ho0  1  0.659211  0.999542  0.968233  1
  Ho  Ho1  1  0.000836  0.340861  0.531216  1
  Ho  Ho2  1  0.997298  0.658461  0.028930  1
  Er  Er3  1  0.340468  0.000179  0.470126  1
  Er  Er4  1  0.498632  0.840267  0.719817  1
  Er  Er5  1  0.499418  0.159084  0.218799  1
  Er  Er6  1  0.839378  0.498539  0.279949  1
  Er  Er7  1  0.159640  0.499253  0.781731  1
  Ti  Ti8  1  0.493447  0.657832  0.127058  1
  Ti  Ti9  1  0.501528  0.346266  0.628690  1
  Ti  Ti10  1  0.655846  0.496835  0.873224  1
  Ti  Ti11  1  0.346329  0.504859  0.373527  1
  Ti  Ti12  1  0.845964  0.997028  0.376614  1
  Ti  Ti13  1  0.003836  0.155531  0.126109  1
  Ti  Ti14  1  0.996226  0.846711  0.622799  1
  Si  Si15  1  0.196874  0.127769  0.687118  1
  Si  Si16  1  0.375586  0.701912  0.933507  1
  Si  Si17  1  0.628056  0.299664  0.433851  1
  Si  Si18  1  0.700203  0.371334  0.066041  1
  Si  Si19  1  0.300170  0.629674  0.566516  1
  Si  Si20  1  0.800167  0.870929  0.183471  1
  Si  Si21  1  0.129809  0.200747  0.317432  1
  Si  Si22  1  0.875101  0.805623  0.815736  1
  Si  Si23  1  0.289909  0.958964  0.062308  1
  Si  Si24  1  0.546826  0.791250  0.317598  1
  Si  Si25  1  0.446368  0.210470  0.819227  1
  Si  Si26  1  0.790720  0.548637  0.682984  1
  Si  Si27  1  0.209015  0.453598  0.183002  1
  Si  Si28  1  0.708775  0.046485  0.567396  1
  Si  Si29  1  0.961946  0.279725  0.931649  1
  Si  Si30  1  0.046403  0.709894  0.431657  1
  Tc  Tc31  1  0.328861  0.332230  0.001209  1
  Tc  Tc32  1  0.170034  0.830705  0.247451  1
  Tc  Tc33  1  0.826090  0.169764  0.748274  1
  Tc  Tc34  1  0.669992  0.670104  0.500464  1
  Tc  Tc35  1  0.161036  0.989273  0.876289  1
