# generated using pymatgen
data_Lu12ZnNi4Sb
_symmetry_space_group_name_H-M   'P 1'
_cell_length_a   8.15936752
_cell_length_b   8.15936794
_cell_length_c   8.15936749
_cell_angle_alpha   112.27540039
_cell_angle_beta   110.10950991
_cell_angle_gamma   106.08872281
_symmetry_Int_Tables_number   1
_chemical_formula_structural   Lu12ZnNi4Sb
_chemical_formula_sum   'Lu12 Zn1 Ni4 Sb1'
_cell_volume   416.92133020
_cell_formula_units_Z   1
loop_
 _symmetry_equiv_pos_site_id
 _symmetry_equiv_pos_as_xyz
  1  'x, y, z'
loop_
 _atom_site_type_symbol
 _atom_site_label
 _atom_site_symmetry_multiplicity
 _atom_site_fract_x
 _atom_site_fract_y
 _atom_site_fract_z
 _atom_site_occupancy
  Lu  Lu0  1  0.676837  0.868266  0.191429  1
  Lu  Lu1  1  0.323163  0.514592  0.191429  1
  Lu  Lu2  1  0.820208  0.784883  0.605092  1
  Lu  Lu3  1  0.179792  0.784883  0.964676  1
  Lu  Lu4  1  0.820208  0.215117  0.035324  1
  Lu  Lu5  1  0.179792  0.215117  0.394908  1
  Lu  Lu6  1  0.676837  0.485408  0.808571  1
  Lu  Lu7  1  0.323163  0.131734  0.808571  1
  Lu  Lu8  1  0.570852  0.271103  0.299747  1
  Lu  Lu9  1  0.429148  0.728897  0.700253  1
  Lu  Lu10  1  0.028645  0.728897  0.299747  1
  Lu  Lu11  1  0.971355  0.271103  0.700253  1
  Zn  Zn12  1  0.000000  0.500000  0.500000  1
  Ni  Ni13  1  0.346847  0.500000  0.846847  1
  Ni  Ni14  1  0.653153  0.500000  0.153153  1
  Ni  Ni15  1  0.878166  0.878166  0.000000  1
  Ni  Ni16  1  0.121834  0.121834  0.000000  1
  Sb  Sb17  1  0.500000  0.000000  0.500000  1
