# generated using pymatgen
data_Ca2La17NdIr12
_symmetry_space_group_name_H-M   'P 1'
_cell_length_a   11.42260200
_cell_length_b   11.42260200
_cell_length_c   6.59697400
_cell_angle_alpha   90.00000000
_cell_angle_beta   90.00000000
_cell_angle_gamma   90.00000000
_symmetry_Int_Tables_number   1
_chemical_formula_structural   Ca2La17NdIr12
_chemical_formula_sum   'Ca2 La17 Nd1 Ir12'
_cell_volume   860.74570069
_cell_formula_units_Z   1
loop_
 _symmetry_equiv_pos_site_id
 _symmetry_equiv_pos_as_xyz
  1  'x, y, z'
loop_
 _atom_site_type_symbol
 _atom_site_label
 _atom_site_symmetry_multiplicity
 _atom_site_fract_x
 _atom_site_fract_y
 _atom_site_fract_z
 _atom_site_occupancy
  Ca  Ca0  1  0.000000  0.000000  0.500000  1
  Ca  Ca1  1  0.000000  0.000000  0.000000  1
  La  La2  1  0.287751  0.089787  0.390512  1
  La  La3  1  0.287796  0.909982  0.890463  1
  La  La4  1  0.712204  0.090018  0.890463  1
  La  La5  1  0.712249  0.910213  0.390512  1
  La  La6  1  0.590745  0.791759  0.887747  1
  La  La7  1  0.590604  0.208063  0.387282  1
  La  La8  1  0.409396  0.791937  0.387282  1
  La  La9  1  0.409255  0.208241  0.887747  1
  La  La10  1  0.208063  0.409396  0.612718  1
  La  La11  1  0.208241  0.590745  0.112253  1
  La  La12  1  0.791759  0.409255  0.112253  1
  La  La13  1  0.791937  0.590604  0.612718  1
  La  La14  1  0.909982  0.712204  0.109537  1
  La  La15  1  0.910213  0.287751  0.609488  1
  La  La16  1  0.089787  0.712249  0.609488  1
  La  La17  1  0.090018  0.287796  0.109537  1
  La  La18  1  0.500000  0.500000  0.500000  1
  Nd  Nd19  1  0.500000  0.500000  0.000000  1
  Ir  Ir20  1  0.841319  0.158708  0.249960  1
  Ir  Ir21  1  0.841292  0.841319  0.750040  1
  Ir  Ir22  1  0.158708  0.158681  0.750040  1
  Ir  Ir23  1  0.158681  0.841292  0.249960  1
  Ir  Ir24  1  0.654187  0.345878  0.749990  1
  Ir  Ir25  1  0.654122  0.654187  0.250010  1
  Ir  Ir26  1  0.345878  0.345813  0.250010  1
  Ir  Ir27  1  0.345813  0.654122  0.749990  1
  Ir  Ir28  1  0.500000  0.000000  0.115121  1
  Ir  Ir29  1  0.500000  0.000000  0.615170  1
  Ir  Ir30  1  0.000000  0.500000  0.884879  1
  Ir  Ir31  1  0.000000  0.500000  0.384830  1
