# generated using pymatgen
data_Nd3Y(GaRh)4
_symmetry_space_group_name_H-M   'P 1'
_cell_length_a   4.37495600
_cell_length_b   6.99773353
_cell_length_c   7.89973796
_cell_angle_alpha   89.79219304
_cell_angle_beta   90.00000000
_cell_angle_gamma   90.00000000
_symmetry_Int_Tables_number   1
_chemical_formula_structural   Nd3Y(GaRh)4
_chemical_formula_sum   'Nd3 Y1 Ga4 Rh4'
_cell_volume   241.84711982
_cell_formula_units_Z   1
loop_
 _symmetry_equiv_pos_site_id
 _symmetry_equiv_pos_as_xyz
  1  'x, y, z'
loop_
 _atom_site_type_symbol
 _atom_site_label
 _atom_site_symmetry_multiplicity
 _atom_site_fract_x
 _atom_site_fract_y
 _atom_site_fract_z
 _atom_site_occupancy
  Nd  Nd0  1  0.250000  0.973108  0.308679  1
  Nd  Nd1  1  0.250000  0.474482  0.189001  1
  Nd  Nd2  1  0.750000  0.026456  0.692404  1
  Y  Y3  1  0.750000  0.527421  0.807065  1
  Ga  Ga4  1  0.250000  0.346264  0.574828  1
  Ga  Ga5  1  0.250000  0.839439  0.925384  1
  Ga  Ga6  1  0.750000  0.654683  0.429579  1
  Ga  Ga7  1  0.750000  0.159769  0.072031  1
  Rh  Rh8  1  0.250000  0.227234  0.895315  1
  Rh  Rh9  1  0.250000  0.722811  0.606874  1
  Rh  Rh10  1  0.750000  0.773792  0.102279  1
  Rh  Rh11  1  0.750000  0.274541  0.396560  1
