# generated using pymatgen
data_Dy12Si3BBr12
_symmetry_space_group_name_H-M   'P 1'
_cell_length_a   10.07350426
_cell_length_b   9.98021754
_cell_length_c   9.98021803
_cell_angle_alpha   109.28110134
_cell_angle_beta   109.66067921
_cell_angle_gamma   109.66068021
_symmetry_Int_Tables_number   1
_chemical_formula_structural   Dy12Si3BBr12
_chemical_formula_sum   'Dy12 Si3 B1 Br12'
_cell_volume   770.58030088
_cell_formula_units_Z   1
loop_
 _symmetry_equiv_pos_site_id
 _symmetry_equiv_pos_as_xyz
  1  'x, y, z'
loop_
 _atom_site_type_symbol
 _atom_site_label
 _atom_site_symmetry_multiplicity
 _atom_site_fract_x
 _atom_site_fract_y
 _atom_site_fract_z
 _atom_site_occupancy
  Dy  Dy0  1  0.462580  0.491900  0.223242  1
  Dy  Dy1  1  0.750000  0.237542  0.262458  1
  Dy  Dy2  1  0.750000  0.011418  0.488582  1
  Dy  Dy3  1  0.238582  0.477164  0.488582  1
  Dy  Dy4  1  0.260663  0.731343  0.223242  1
  Dy  Dy5  1  0.037420  0.276758  0.008100  1
  Dy  Dy6  1  0.012458  0.024915  0.262458  1
  Dy  Dy7  1  0.470680  0.731343  0.008100  1
  Dy  Dy8  1  0.487542  0.237542  0.475085  1
  Dy  Dy9  1  0.029320  0.491900  0.768657  1
  Dy  Dy10  1  0.261418  0.011418  0.022836  1
  Dy  Dy11  1  0.239337  0.276758  0.768657  1
  Si  Si12  1  0.250000  0.250783  0.249217  1
  Si  Si13  1  0.499217  0.998434  0.249217  1
  Si  Si14  1  0.000783  0.250783  0.501566  1
  B  B15  1  0.250000  0.500000  0.000000  1
  Br  Br16  1  0.250000  0.755673  0.744327  1
  Br  Br17  1  0.511046  0.505905  0.757212  1
  Br  Br18  1  0.988954  0.742788  0.994095  1
  Br  Br19  1  0.746167  0.251307  0.757212  1
  Br  Br20  1  0.994327  0.988654  0.744327  1
  Br  Br21  1  0.250000  0.995829  0.504171  1
  Br  Br22  1  0.754171  0.508342  0.504171  1
  Br  Br23  1  0.505141  0.251307  0.994095  1
  Br  Br24  1  0.753833  0.742788  0.248693  1
  Br  Br25  1  0.745829  0.995829  0.991658  1
  Br  Br26  1  0.994859  0.505905  0.248693  1
  Br  Br27  1  0.505673  0.755673  0.511346  1
