# generated using pymatgen
data_Lu3In3Ag2Rh
_symmetry_space_group_name_H-M   'P 1'
_cell_length_a   8.00965700
_cell_length_b   8.00965724
_cell_length_c   3.57161500
_cell_angle_alpha   90.00000000
_cell_angle_beta   90.00000000
_cell_angle_gamma   119.99999489
_symmetry_Int_Tables_number   1
_chemical_formula_structural   Lu3In3Ag2Rh
_chemical_formula_sum   'Lu3 In3 Ag2 Rh1'
_cell_volume   198.43722369
_cell_formula_units_Z   1
loop_
 _symmetry_equiv_pos_site_id
 _symmetry_equiv_pos_as_xyz
  1  'x, y, z'
loop_
 _atom_site_type_symbol
 _atom_site_label
 _atom_site_symmetry_multiplicity
 _atom_site_fract_x
 _atom_site_fract_y
 _atom_site_fract_z
 _atom_site_occupancy
  Lu  Lu0  1  0.965349  0.380808  0.500000  1
  Lu  Lu1  1  0.619192  0.584541  0.500000  1
  Lu  Lu2  1  0.415459  0.034651  0.500000  1
  In  In3  1  0.269224  0.282644  0.000000  1
  In  In4  1  0.013419  0.730776  0.000000  1
  In  In5  1  0.717356  0.986581  0.000000  1
  Ag  Ag6  1  0.333333  0.666667  0.000000  1
  Ag  Ag7  1  0.000000  0.000000  0.500000  1
  Rh  Rh8  1  0.666667  0.333333  0.000000  1
