# generated using pymatgen
data_Pr6SiGeBr6
_symmetry_space_group_name_H-M   'P 1'
_cell_length_a   10.52847963
_cell_length_b   10.52847343
_cell_length_c   10.58002436
_cell_angle_alpha   109.50872072
_cell_angle_beta   109.50888415
_cell_angle_gamma   109.19773571
_symmetry_Int_Tables_number   1
_chemical_formula_structural   Pr6SiGeBr6
_chemical_formula_sum   'Pr12 Si2 Ge2 Br12'
_cell_volume   905.00518202
_cell_formula_units_Z   2
loop_
 _symmetry_equiv_pos_site_id
 _symmetry_equiv_pos_as_xyz
  1  'x, y, z'
loop_
 _atom_site_type_symbol
 _atom_site_label
 _atom_site_symmetry_multiplicity
 _atom_site_fract_x
 _atom_site_fract_y
 _atom_site_fract_z
 _atom_site_occupancy
  Pr  Pr0  1  0.478094  0.485890  0.241095  1
  Pr  Pr1  1  0.744792  0.236999  0.258904  1
  Pr  Pr2  1  0.745126  0.009442  0.485259  1
  Pr  Pr3  1  0.240133  0.475818  0.485259  1
  Pr  Pr4  1  0.263001  0.755206  0.241096  1
  Pr  Pr5  1  0.024182  0.259866  0.014741  1
  Pr  Pr6  1  0.014112  0.021907  0.258905  1
  Pr  Pr7  1  0.490561  0.754874  0.014742  1
  Pr  Pr8  1  0.487707  0.237707  0.475415  1
  Pr  Pr9  1  0.010491  0.489509  0.750001  1
  Pr  Pr10  1  0.262293  0.012293  0.024586  1
  Pr  Pr11  1  0.239510  0.260489  0.749996  1
  Si  Si12  1  0.250314  0.249687  0.250000  1
  Si  Si13  1  0.499687  0.000313  0.250000  1
  Ge  Ge14  1  0.999548  0.249549  0.499095  1
  Ge  Ge15  1  0.250449  0.500451  0.000900  1
  Br  Br16  1  0.249632  0.752413  0.746209  1
  Br  Br17  1  0.506205  0.503423  0.753792  1
  Br  Br18  1  0.992172  0.745290  0.995648  1
  Br  Br19  1  0.747587  0.250368  0.753792  1
  Br  Br20  1  0.996576  0.993795  0.746209  1
  Br  Br21  1  0.249642  0.996525  0.504354  1
  Br  Br22  1  0.754711  0.507829  0.504354  1
  Br  Br23  1  0.503475  0.250357  0.995647  1
  Br  Br24  1  0.753166  0.746834  0.250001  1
  Br  Br25  1  0.746368  0.996369  0.992737  1
  Br  Br26  1  0.996834  0.503166  0.250000  1
  Br  Br27  1  0.503632  0.753632  0.507264  1
