# generated using pymatgen
data_Tm3Al12Ru3Pt
_symmetry_space_group_name_H-M   'P 1'
_cell_length_a   8.78372939
_cell_length_b   8.78372857
_cell_length_c   9.55117600
_cell_angle_alpha   90.00000000
_cell_angle_beta   90.00000000
_cell_angle_gamma   119.83245090
_symmetry_Int_Tables_number   1
_chemical_formula_structural   Tm3Al12Ru3Pt
_chemical_formula_sum   'Tm6 Al24 Ru6 Pt2'
_cell_volume   639.25788819
_cell_formula_units_Z   2
loop_
 _symmetry_equiv_pos_site_id
 _symmetry_equiv_pos_as_xyz
  1  'x, y, z'
loop_
 _atom_site_type_symbol
 _atom_site_label
 _atom_site_symmetry_multiplicity
 _atom_site_fract_x
 _atom_site_fract_y
 _atom_site_fract_z
 _atom_site_occupancy
  Tm  Tm0  1  0.804114  0.195886  0.750000  1
  Tm  Tm1  1  0.195886  0.804114  0.250000  1
  Tm  Tm2  1  0.386589  0.190022  0.750000  1
  Tm  Tm3  1  0.613411  0.809978  0.250000  1
  Tm  Tm4  1  0.809978  0.613411  0.750000  1
  Tm  Tm5  1  0.190022  0.386589  0.250000  1
  Al  Al6  1  0.668981  0.331019  0.974731  1
  Al  Al7  1  0.331019  0.668981  0.025269  1
  Al  Al8  1  0.331019  0.668981  0.474731  1
  Al  Al9  1  0.668981  0.331019  0.525269  1
  Al  Al10  1  0.836684  0.163316  0.420558  1
  Al  Al11  1  0.163316  0.836684  0.579442  1
  Al  Al12  1  0.324730  0.158157  0.421214  1
  Al  Al13  1  0.163316  0.836684  0.920558  1
  Al  Al14  1  0.675270  0.841843  0.578786  1
  Al  Al15  1  0.836684  0.163316  0.079442  1
  Al  Al16  1  0.841843  0.675270  0.421214  1
  Al  Al17  1  0.675270  0.841843  0.921214  1
  Al  Al18  1  0.158157  0.324730  0.578786  1
  Al  Al19  1  0.324730  0.158157  0.078786  1
  Al  Al20  1  0.158157  0.324730  0.921214  1
  Al  Al21  1  0.841843  0.675270  0.078786  1
  Al  Al22  1  0.436540  0.563460  0.750000  1
  Al  Al23  1  0.563460  0.436540  0.250000  1
  Al  Al24  1  0.122487  0.561212  0.750000  1
  Al  Al25  1  0.877513  0.438788  0.250000  1
  Al  Al26  1  0.438788  0.877513  0.750000  1
  Al  Al27  1  0.561212  0.122487  0.250000  1
  Al  Al28  1  0.000783  0.999217  0.750000  1
  Al  Al29  1  0.999217  0.000783  0.250000  1
  Ru  Ru30  1  0.000000  0.500000  0.000000  1
  Ru  Ru31  1  0.500000  0.000000  0.000000  1
  Ru  Ru32  1  0.000000  0.500000  0.500000  1
  Ru  Ru33  1  0.500000  0.000000  0.500000  1
  Ru  Ru34  1  0.000000  0.000000  0.000000  1
  Ru  Ru35  1  0.000000  0.000000  0.500000  1
  Pt  Pt36  1  0.500000  0.500000  0.000000  1
  Pt  Pt37  1  0.500000  0.500000  0.500000  1
