# generated using pymatgen
data_Li2Ac2Sn3
_symmetry_space_group_name_H-M   'P 1'
_cell_length_a   10.67896154
_cell_length_b   10.67896206
_cell_length_c   7.64193100
_cell_angle_alpha   90.00000000
_cell_angle_beta   90.00000000
_cell_angle_gamma   153.05609601
_symmetry_Int_Tables_number   1
_chemical_formula_structural   Li2Ac2Sn3
_chemical_formula_sum   'Li4 Ac4 Sn6'
_cell_volume   394.88662947
_cell_formula_units_Z   2
loop_
 _symmetry_equiv_pos_site_id
 _symmetry_equiv_pos_as_xyz
  1  'x, y, z'
loop_
 _atom_site_type_symbol
 _atom_site_label
 _atom_site_symmetry_multiplicity
 _atom_site_fract_x
 _atom_site_fract_y
 _atom_site_fract_z
 _atom_site_occupancy
  Li  Li0  1  0.806815  0.193185  0.436984  1
  Li  Li1  1  0.193185  0.806815  0.563016  1
  Li  Li2  1  0.806815  0.193185  0.063016  1
  Li  Li3  1  0.193185  0.806815  0.936984  1
  Ac  Ac4  1  0.550002  0.449998  0.750000  1
  Ac  Ac5  1  0.449998  0.550002  0.250000  1
  Ac  Ac6  1  0.340849  0.659151  0.750000  1
  Ac  Ac7  1  0.659151  0.340849  0.250000  1
  Sn  Sn8  1  0.933857  0.066143  0.940538  1
  Sn  Sn9  1  0.066143  0.933857  0.059462  1
  Sn  Sn10  1  0.933857  0.066143  0.559462  1
  Sn  Sn11  1  0.066143  0.933857  0.440538  1
  Sn  Sn12  1  0.719789  0.280211  0.750000  1
  Sn  Sn13  1  0.280211  0.719789  0.250000  1
