# generated using pymatgen
data_Tm15Sc5(SiBi3)3
_symmetry_space_group_name_H-M   'P 1'
_cell_length_a   7.85663437
_cell_length_b   9.14053419
_cell_length_c   11.62787505
_cell_angle_alpha   90.01031866
_cell_angle_beta   89.89294001
_cell_angle_gamma   89.91066344
_symmetry_Int_Tables_number   1
_chemical_formula_structural   Tm15Sc5(SiBi3)3
_chemical_formula_sum   'Tm15 Sc5 Si3 Bi9'
_cell_volume   835.03981490
_cell_formula_units_Z   1
loop_
 _symmetry_equiv_pos_site_id
 _symmetry_equiv_pos_as_xyz
  1  'x, y, z'
loop_
 _atom_site_type_symbol
 _atom_site_label
 _atom_site_symmetry_multiplicity
 _atom_site_fract_x
 _atom_site_fract_y
 _atom_site_fract_z
 _atom_site_occupancy
  Tm  Tm0  1  0.349879  0.249257  0.294387  1
  Tm  Tm1  1  0.649244  0.749215  0.703852  1
  Tm  Tm2  1  0.146142  0.749413  0.795392  1
  Tm  Tm3  1  0.850307  0.249888  0.215923  1
  Tm  Tm4  1  0.192969  0.249621  0.772264  1
  Tm  Tm5  1  0.824190  0.749785  0.215439  1
  Tm  Tm6  1  0.326943  0.750519  0.285141  1
  Tm  Tm7  1  0.668263  0.249269  0.710461  1
  Tm  Tm8  1  0.815080  0.928128  0.945785  1
  Tm  Tm9  1  0.316125  0.941357  0.554770  1
  Tm  Tm10  1  0.815427  0.572820  0.946485  1
  Tm  Tm11  1  0.683546  0.056821  0.445096  1
  Tm  Tm12  1  0.191183  0.452576  0.059924  1
  Tm  Tm13  1  0.682965  0.442643  0.445939  1
  Tm  Tm14  1  0.316898  0.558378  0.554672  1
  Sc  Sc15  1  0.036945  0.249551  0.509460  1
  Sc  Sc16  1  0.961370  0.749840  0.487490  1
  Sc  Sc17  1  0.459228  0.751159  0.013860  1
  Sc  Sc18  1  0.519286  0.248471  0.989632  1
  Sc  Sc19  1  0.193282  0.049053  0.059926  1
  Si  Si20  1  0.401437  0.249450  0.538018  1
  Si  Si21  1  0.594090  0.750247  0.460498  1
  Si  Si22  1  0.095024  0.756558  0.040179  1
  Bi  Bi23  1  0.907667  0.248025  0.955158  1
  Bi  Bi24  1  0.062982  0.001369  0.326906  1
  Bi  Bi25  1  0.937806  0.997320  0.670575  1
  Bi  Bi26  1  0.437230  0.994371  0.830075  1
  Bi  Bi27  1  0.937378  0.502003  0.670789  1
  Bi  Bi28  1  0.561200  0.003847  0.171063  1
  Bi  Bi29  1  0.062922  0.498254  0.329410  1
  Bi  Bi30  1  0.563974  0.495762  0.171644  1
  Bi  Bi31  1  0.439019  0.505028  0.829785  1
