# generated using pymatgen
data_Nd3Mg2InPdPb2
_symmetry_space_group_name_H-M   'P 1'
_cell_length_a   7.69706500
_cell_length_b   7.68250952
_cell_length_c   4.65124300
_cell_angle_alpha   90.00000000
_cell_angle_beta   90.00000000
_cell_angle_gamma   120.06269785
_symmetry_Int_Tables_number   1
_chemical_formula_structural   Nd3Mg2InPdPb2
_chemical_formula_sum   'Nd3 Mg2 In1 Pd1 Pb2'
_cell_volume   238.04178293
_cell_formula_units_Z   1
loop_
 _symmetry_equiv_pos_site_id
 _symmetry_equiv_pos_as_xyz
  1  'x, y, z'
loop_
 _atom_site_type_symbol
 _atom_site_label
 _atom_site_symmetry_multiplicity
 _atom_site_fract_x
 _atom_site_fract_y
 _atom_site_fract_z
 _atom_site_occupancy
  Nd  Nd0  1  0.599281  0.000000  0.000000  1
  Nd  Nd1  1  0.001755  0.603948  0.000000  1
  Nd  Nd2  1  0.397807  0.396052  0.000000  1
  Mg  Mg3  1  0.997951  0.226166  0.500000  1
  Mg  Mg4  1  0.771785  0.773834  0.500000  1
  In  In5  1  0.227033  0.000000  0.500000  1
  Pd  Pd6  1  0.996056  0.000000  0.000000  1
  Pb  Pb7  1  0.335728  0.663124  0.500000  1
  Pb  Pb8  1  0.672605  0.336876  0.500000  1
