# generated using pymatgen
data_Y9Ho(Bi2Ir)2
_symmetry_space_group_name_H-M   'P 1'
_cell_length_a   8.02895307
_cell_length_b   9.02693371
_cell_length_c   12.54991328
_cell_angle_alpha   90.00188801
_cell_angle_beta   89.93114799
_cell_angle_gamma   89.95467663
_symmetry_Int_Tables_number   1
_chemical_formula_structural   Y9Ho(Bi2Ir)2
_chemical_formula_sum   'Y18 Ho2 Bi8 Ir4'
_cell_volume   909.57695299
_cell_formula_units_Z   2
loop_
 _symmetry_equiv_pos_site_id
 _symmetry_equiv_pos_as_xyz
  1  'x, y, z'
loop_
 _atom_site_type_symbol
 _atom_site_label
 _atom_site_symmetry_multiplicity
 _atom_site_fract_x
 _atom_site_fract_y
 _atom_site_fract_z
 _atom_site_occupancy
  Y  Y0  1  0.839284  0.749758  0.793636  1
  Y  Y1  1  0.160716  0.250242  0.206364  1
  Y  Y2  1  0.339061  0.250159  0.706438  1
  Y  Y3  1  0.660939  0.749841  0.293562  1
  Y  Y4  1  0.375104  0.749879  0.691836  1
  Y  Y5  1  0.624896  0.250121  0.308164  1
  Y  Y6  1  0.875129  0.250287  0.808330  1
  Y  Y7  1  0.124871  0.749713  0.191670  1
  Y  Y8  1  0.948324  0.749955  0.501703  1
  Y  Y9  1  0.051676  0.250045  0.498297  1
  Y  Y10  1  0.448255  0.250660  0.998243  1
  Y  Y11  1  0.551745  0.749340  0.001757  1
  Y  Y12  1  0.676492  0.041730  0.566508  1
  Y  Y13  1  0.323508  0.958270  0.433492  1
  Y  Y14  1  0.176429  0.958165  0.933531  1
  Y  Y15  1  0.323524  0.541715  0.433457  1
  Y  Y16  1  0.823571  0.041835  0.066469  1
  Y  Y17  1  0.676476  0.458285  0.566543  1
  Ho  Ho18  1  0.825300  0.458511  0.065829  1
  Ho  Ho19  1  0.174700  0.541489  0.934171  1
  Bi  Bi20  1  0.566281  0.491621  0.826676  1
  Bi  Bi21  1  0.433719  0.508379  0.173324  1
  Bi  Bi22  1  0.066663  0.508403  0.673363  1
  Bi  Bi23  1  0.433475  0.991627  0.173207  1
  Bi  Bi24  1  0.933337  0.491597  0.326637  1
  Bi  Bi25  1  0.566525  0.008373  0.826793  1
  Bi  Bi26  1  0.933503  0.008398  0.326695  1
  Bi  Bi27  1  0.066497  0.991602  0.673305  1
  Ir  Ir28  1  0.571494  0.750007  0.508886  1
  Ir  Ir29  1  0.428506  0.249993  0.491114  1
  Ir  Ir30  1  0.070897  0.252046  0.991276  1
  Ir  Ir31  1  0.929103  0.747954  0.008724  1
