# generated using pymatgen
data_CeY(Al3Rh)3
_symmetry_space_group_name_H-M   'P 1'
_cell_length_a   7.59155379
_cell_length_b   7.59095755
_cell_length_c   9.48295500
_cell_angle_alpha   90.00000000
_cell_angle_beta   90.00000000
_cell_angle_gamma   119.41299623
_symmetry_Int_Tables_number   1
_chemical_formula_structural   CeY(Al3Rh)3
_chemical_formula_sum   'Ce2 Y2 Al18 Rh6'
_cell_volume   476.03639281
_cell_formula_units_Z   2
loop_
 _symmetry_equiv_pos_site_id
 _symmetry_equiv_pos_as_xyz
  1  'x, y, z'
loop_
 _atom_site_type_symbol
 _atom_site_label
 _atom_site_symmetry_multiplicity
 _atom_site_fract_x
 _atom_site_fract_y
 _atom_site_fract_z
 _atom_site_occupancy
  Ce  Ce0  1  0.671359  0.996048  0.250000  1
  Ce  Ce1  1  0.328641  0.003952  0.750000  1
  Y  Y2  1  0.994944  0.672386  0.250000  1
  Y  Y3  1  0.005056  0.327614  0.750000  1
  Al  Al4  1  0.002121  0.337217  0.075210  1
  Al  Al5  1  0.997879  0.662783  0.924790  1
  Al  Al6  1  0.997879  0.662783  0.575210  1
  Al  Al7  1  0.334405  0.001567  0.423143  1
  Al  Al8  1  0.002121  0.337217  0.424790  1
  Al  Al9  1  0.665595  0.998433  0.576857  1
  Al  Al10  1  0.665595  0.998433  0.923143  1
  Al  Al11  1  0.334405  0.001567  0.076857  1
  Al  Al12  1  0.333120  0.333979  0.549090  1
  Al  Al13  1  0.666880  0.666021  0.450910  1
  Al  Al14  1  0.666880  0.666021  0.049090  1
  Al  Al15  1  0.333120  0.333979  0.950910  1
  Al  Al16  1  0.128310  0.129951  0.250000  1
  Al  Al17  1  0.871690  0.870049  0.750000  1
  Al  Al18  1  0.339879  0.549309  0.250000  1
  Al  Al19  1  0.660121  0.450691  0.750000  1
  Al  Al20  1  0.550057  0.342018  0.250000  1
  Al  Al21  1  0.449943  0.657982  0.750000  1
  Rh  Rh22  1  0.671421  0.327717  0.000188  1
  Rh  Rh23  1  0.328579  0.672283  0.999812  1
  Rh  Rh24  1  0.328579  0.672283  0.500188  1
  Rh  Rh25  1  0.671421  0.327717  0.499812  1
  Rh  Rh26  1  0.000000  0.000000  0.000000  1
  Rh  Rh27  1  0.000000  0.000000  0.500000  1
