# generated using pymatgen
data_CaMgVO4F
_symmetry_space_group_name_H-M   'P 1'
_cell_length_a   5.69321823
_cell_length_b   5.69321829
_cell_length_c   7.24857870
_cell_angle_alpha   75.85802994
_cell_angle_beta   75.85803084
_cell_angle_gamma   105.83712960
_symmetry_Int_Tables_number   1
_chemical_formula_structural   CaMgVO4F
_chemical_formula_sum   'Ca2 Mg2 V2 O8 F2'
_cell_volume   206.63945053
_cell_formula_units_Z   2
loop_
 _symmetry_equiv_pos_site_id
 _symmetry_equiv_pos_as_xyz
  1  'x, y, z'
loop_
 _atom_site_type_symbol
 _atom_site_label
 _atom_site_symmetry_multiplicity
 _atom_site_fract_x
 _atom_site_fract_y
 _atom_site_fract_z
 _atom_site_occupancy
  Ca  Ca0  1  0.669348  0.330652  0.250000  1
  Ca  Ca1  1  0.330652  0.669348  0.750000  1
  Mg  Mg2  1  0.000000  0.000000  0.000000  1
  Mg  Mg3  1  0.000000  0.000000  0.500000  1
  V  V4  1  0.321060  0.678940  0.250000  1
  V  V5  1  0.678940  0.321060  0.750000  1
  O  O6  1  0.622589  0.740749  0.081404  1
  O  O7  1  0.259251  0.377411  0.418596  1
  O  O8  1  0.901936  0.328534  0.880214  1
  O  O9  1  0.671466  0.098064  0.619786  1
  O  O10  1  0.098064  0.671466  0.119786  1
  O  O11  1  0.328534  0.901936  0.380214  1
  O  O12  1  0.377411  0.259251  0.918596  1
  O  O13  1  0.740749  0.622589  0.581404  1
  F  F14  1  0.918845  0.081155  0.250000  1
  F  F15  1  0.081155  0.918845  0.750000  1
