# generated using pymatgen
data_Dy5Sc5Si20IrPt7
_symmetry_space_group_name_H-M   'P 1'
_cell_length_a   12.52710904
_cell_length_b   12.52751304
_cell_length_c   4.21957500
_cell_angle_alpha   90.00000000
_cell_angle_beta   90.00000000
_cell_angle_gamma   90.00878602
_symmetry_Int_Tables_number   1
_chemical_formula_structural   Dy5Sc5Si20IrPt7
_chemical_formula_sum   'Dy5 Sc5 Si20 Ir1 Pt7'
_cell_volume   662.19275735
_cell_formula_units_Z   1
loop_
 _symmetry_equiv_pos_site_id
 _symmetry_equiv_pos_as_xyz
  1  'x, y, z'
loop_
 _atom_site_type_symbol
 _atom_site_label
 _atom_site_symmetry_multiplicity
 _atom_site_fract_x
 _atom_site_fract_y
 _atom_site_fract_z
 _atom_site_occupancy
  Dy  Dy0  1  0.999792  0.997408  0.000000  1
  Dy  Dy1  1  0.885654  0.386897  0.500000  1
  Dy  Dy2  1  0.113135  0.613995  0.500000  1
  Dy  Dy3  1  0.386832  0.114344  0.500000  1
  Dy  Dy4  1  0.613640  0.885776  0.500000  1
  Sc  Sc5  1  0.500046  0.500351  0.000000  1
  Sc  Sc6  1  0.673740  0.175286  0.500000  1
  Sc  Sc7  1  0.326501  0.824898  0.500000  1
  Sc  Sc8  1  0.175179  0.326695  0.500000  1
  Sc  Sc9  1  0.826032  0.673729  0.500000  1
  Si  Si10  1  0.565193  0.067254  0.000000  1
  Si  Si11  1  0.434793  0.932803  0.000000  1
  Si  Si12  1  0.066459  0.435154  0.000000  1
  Si  Si13  1  0.933316  0.567726  0.000000  1
  Si  Si14  1  0.667679  0.702778  0.000000  1
  Si  Si15  1  0.333019  0.298293  0.000000  1
  Si  Si16  1  0.164144  0.798294  0.000000  1
  Si  Si17  1  0.833403  0.201637  0.000000  1
  Si  Si18  1  0.297595  0.667994  0.000000  1
  Si  Si19  1  0.701998  0.333171  0.000000  1
  Si  Si20  1  0.201701  0.166566  0.000000  1
  Si  Si21  1  0.801262  0.833060  0.000000  1
  Si  Si22  1  0.647979  0.506619  0.500000  1
  Si  Si23  1  0.351795  0.492882  0.500000  1
  Si  Si24  1  0.154282  0.993238  0.500000  1
  Si  Si25  1  0.845529  0.005608  0.500000  1
  Si  Si26  1  0.492981  0.648117  0.500000  1
  Si  Si27  1  0.506959  0.352223  0.500000  1
  Si  Si28  1  0.005633  0.153920  0.500000  1
  Si  Si29  1  0.993440  0.842277  0.500000  1
  Ir  Ir30  1  0.978504  0.754926  0.000000  1
  Pt  Pt31  1  0.741103  0.521146  0.000000  1
  Pt  Pt32  1  0.258806  0.479304  0.000000  1
  Pt  Pt33  1  0.245441  0.978784  0.000000  1
  Pt  Pt34  1  0.754621  0.021555  0.000000  1
  Pt  Pt35  1  0.479293  0.741269  0.000000  1
  Pt  Pt36  1  0.520893  0.259000  0.000000  1
  Pt  Pt37  1  0.021628  0.245020  0.000000  1
