# generated using pymatgen
data_HoTlIn2(SbO4)4
_symmetry_space_group_name_H-M   'P 1'
_cell_length_a   5.34512366
_cell_length_b   7.56095749
_cell_length_c   7.67618678
_cell_angle_alpha   79.70515772
_cell_angle_beta   91.99971856
_cell_angle_gamma   88.87310358
_symmetry_Int_Tables_number   1
_chemical_formula_structural   HoTlIn2(SbO4)4
_chemical_formula_sum   'Ho1 Tl1 In2 Sb4 O16'
_cell_volume   304.94129469
_cell_formula_units_Z   1
loop_
 _symmetry_equiv_pos_site_id
 _symmetry_equiv_pos_as_xyz
  1  'x, y, z'
loop_
 _atom_site_type_symbol
 _atom_site_label
 _atom_site_symmetry_multiplicity
 _atom_site_fract_x
 _atom_site_fract_y
 _atom_site_fract_z
 _atom_site_occupancy
  Ho  Ho0  1  0.743047  0.376728  0.867469  1
  Tl  Tl1  1  0.255319  0.625203  0.135435  1
  In  In2  1  0.774948  0.869470  0.831136  1
  In  In3  1  0.224982  0.131712  0.167677  1
  Sb  Sb4  1  0.748815  0.810711  0.328677  1
  Sb  Sb5  1  0.252157  0.189026  0.673478  1
  Sb  Sb6  1  0.266108  0.689680  0.661883  1
  Sb  Sb7  1  0.730801  0.308505  0.340602  1
  O  O8  1  0.439510  0.892930  0.187370  1
  O  O9  1  0.568599  0.111608  0.808599  1
  O  O10  1  0.984119  0.615173  0.813170  1
  O  O11  1  0.003241  0.387634  0.170617  1
  O  O12  1  0.924085  0.816931  0.100376  1
  O  O13  1  0.076218  0.188343  0.898639  1
  O  O14  1  0.482899  0.670185  0.888268  1
  O  O15  1  0.529061  0.313989  0.114183  1
  O  O16  1  0.601341  0.562215  0.328849  1
  O  O17  1  0.398169  0.436400  0.674999  1
  O  O18  1  0.120976  0.939502  0.681246  1
  O  O19  1  0.884813  0.060524  0.324183  1
  O  O20  1  0.584691  0.808299  0.562954  1
  O  O21  1  0.409624  0.193828  0.437515  1
  O  O22  1  0.075857  0.693727  0.433711  1
  O  O23  1  0.920620  0.307678  0.568964  1
