# generated using pymatgen
data_NaHfZrS4
_symmetry_space_group_name_H-M   'P 1'
_cell_length_a   3.64887800
_cell_length_b   6.30464073
_cell_length_c   7.26313774
_cell_angle_alpha   73.37441530
_cell_angle_beta   90.00000000
_cell_angle_gamma   90.00000000
_symmetry_Int_Tables_number   1
_chemical_formula_structural   NaHfZrS4
_chemical_formula_sum   'Na1 Hf1 Zr1 S4'
_cell_volume   160.10239392
_cell_formula_units_Z   1
loop_
 _symmetry_equiv_pos_site_id
 _symmetry_equiv_pos_as_xyz
  1  'x, y, z'
loop_
 _atom_site_type_symbol
 _atom_site_label
 _atom_site_symmetry_multiplicity
 _atom_site_fract_x
 _atom_site_fract_y
 _atom_site_fract_z
 _atom_site_occupancy
  Na  Na0  1  0.000000  0.500000  0.500000  1
  Hf  Hf1  1  0.500000  0.500000  0.000000  1
  Zr  Zr2  1  0.000000  0.000000  0.000000  1
  S  S3  1  0.500000  0.758347  0.218485  1
  S  S4  1  0.000000  0.265581  0.213962  1
  S  S5  1  0.500000  0.241653  0.781515  1
  S  S6  1  0.000000  0.734419  0.786038  1
