# generated using pymatgen
data_Sm8Mg5CdAu20
_symmetry_space_group_name_H-M   'P 1'
_cell_length_a   8.60878444
_cell_length_b   8.60878433
_cell_length_c   10.18447900
_cell_angle_alpha   90.21111965
_cell_angle_beta   89.78888701
_cell_angle_gamma   108.25140097
_symmetry_Int_Tables_number   1
_chemical_formula_structural   Sm8Mg5CdAu20
_chemical_formula_sum   'Sm8 Mg5 Cd1 Au20'
_cell_volume   716.80417217
_cell_formula_units_Z   1
loop_
 _symmetry_equiv_pos_site_id
 _symmetry_equiv_pos_as_xyz
  1  'x, y, z'
loop_
 _atom_site_type_symbol
 _atom_site_label
 _atom_site_symmetry_multiplicity
 _atom_site_fract_x
 _atom_site_fract_y
 _atom_site_fract_z
 _atom_site_occupancy
  Sm  Sm0  1  0.699756  0.302643  0.001963  1
  Sm  Sm1  1  0.299162  0.697307  0.002651  1
  Sm  Sm2  1  0.802643  0.199756  0.498037  1
  Sm  Sm3  1  0.197307  0.799162  0.497349  1
  Sm  Sm4  1  0.301223  0.304314  0.202570  1
  Sm  Sm5  1  0.695773  0.696293  0.796197  1
  Sm  Sm6  1  0.196293  0.195773  0.703803  1
  Sm  Sm7  1  0.804314  0.801223  0.297430  1
  Mg  Mg8  1  0.986781  0.486781  0.750000  1
  Mg  Mg9  1  0.485313  0.985313  0.750000  1
  Mg  Mg10  1  0.514241  0.014241  0.250000  1
  Mg  Mg11  1  0.998497  0.998534  0.996751  1
  Mg  Mg12  1  0.498534  0.498497  0.503249  1
  Cd  Cd13  1  0.016350  0.516350  0.250000  1
  Au  Au14  1  0.099341  0.098718  0.404618  1
  Au  Au15  1  0.902012  0.902376  0.596588  1
  Au  Au16  1  0.402376  0.402012  0.903412  1
  Au  Au17  1  0.598718  0.599341  0.095382  1
  Au  Au18  1  0.878677  0.157491  0.205450  1
  Au  Au19  1  0.122680  0.836398  0.791557  1
  Au  Au20  1  0.620303  0.333934  0.708309  1
  Au  Au21  1  0.657491  0.378677  0.294550  1
  Au  Au22  1  0.388634  0.665943  0.295245  1
  Au  Au23  1  0.336398  0.622680  0.708443  1
  Au  Au24  1  0.833934  0.120303  0.791691  1
  Au  Au25  1  0.165943  0.888634  0.204755  1
  Au  Au26  1  0.932801  0.656831  0.012963  1
  Au  Au27  1  0.065495  0.342012  0.977583  1
  Au  Au28  1  0.566197  0.847566  0.519005  1
  Au  Au29  1  0.156831  0.432801  0.487037  1
  Au  Au30  1  0.434528  0.151876  0.483250  1
  Au  Au31  1  0.842012  0.565495  0.522417  1
  Au  Au32  1  0.347566  0.066197  0.980995  1
  Au  Au33  1  0.651876  0.934528  0.016750  1
