# generated using pymatgen
data_HoTh3(Sc3Sn4)2
_symmetry_space_group_name_H-M   'P 1'
_cell_length_a   7.85208638
_cell_length_b   7.98830868
_cell_length_c   14.93923531
_cell_angle_alpha   90.01684367
_cell_angle_beta   89.98366867
_cell_angle_gamma   90.12142805
_symmetry_Int_Tables_number   1
_chemical_formula_structural   HoTh3(Sc3Sn4)2
_chemical_formula_sum   'Ho2 Th6 Sc12 Sn16'
_cell_volume   937.05970594
_cell_formula_units_Z   2
loop_
 _symmetry_equiv_pos_site_id
 _symmetry_equiv_pos_as_xyz
  1  'x, y, z'
loop_
 _atom_site_type_symbol
 _atom_site_label
 _atom_site_symmetry_multiplicity
 _atom_site_fract_x
 _atom_site_fract_y
 _atom_site_fract_z
 _atom_site_occupancy
  Ho  Ho0  1  0.487475  0.323795  0.406580  1
  Ho  Ho1  1  0.512525  0.676205  0.593420  1
  Th  Th2  1  0.988662  0.174497  0.095135  1
  Th  Th3  1  0.011338  0.825503  0.904865  1
  Th  Th4  1  0.509110  0.674125  0.906936  1
  Th  Th5  1  0.007692  0.827054  0.591696  1
  Th  Th6  1  0.490890  0.325875  0.093064  1
  Th  Th7  1  0.992308  0.172946  0.408304  1
  Sc  Sc8  1  0.170244  0.499483  0.749522  1
  Sc  Sc9  1  0.829756  0.500517  0.250478  1
  Sc  Sc10  1  0.327972  0.997359  0.250613  1
  Sc  Sc11  1  0.672028  0.002641  0.749387  1
  Sc  Sc12  1  0.339435  0.161831  0.626798  1
  Sc  Sc13  1  0.660565  0.838169  0.373202  1
  Sc  Sc14  1  0.154953  0.659745  0.374144  1
  Sc  Sc15  1  0.656691  0.841259  0.128043  1
  Sc  Sc16  1  0.845047  0.340255  0.625856  1
  Sc  Sc17  1  0.343309  0.158741  0.871957  1
  Sc  Sc18  1  0.838491  0.342526  0.872834  1
  Sc  Sc19  1  0.161509  0.657474  0.127166  1
  Sn  Sn20  1  0.033834  0.130194  0.749864  1
  Sn  Sn21  1  0.966166  0.869806  0.250136  1
  Sn  Sn22  1  0.466523  0.627749  0.251294  1
  Sn  Sn23  1  0.533477  0.372251  0.748706  1
  Sn  Sn24  1  0.316313  0.852617  0.746454  1
  Sn  Sn25  1  0.683687  0.147383  0.253546  1
  Sn  Sn26  1  0.190566  0.355055  0.252169  1
  Sn  Sn27  1  0.809434  0.644945  0.747831  1
  Sn  Sn28  1  0.190824  0.458771  0.544179  1
  Sn  Sn29  1  0.809176  0.541229  0.455821  1
  Sn  Sn30  1  0.322351  0.953188  0.456884  1
  Sn  Sn31  1  0.819208  0.547937  0.044065  1
  Sn  Sn32  1  0.677649  0.046812  0.543116  1
  Sn  Sn33  1  0.180792  0.452063  0.955935  1
  Sn  Sn34  1  0.683606  0.045568  0.956453  1
  Sn  Sn35  1  0.316394  0.954432  0.043547  1
