# generated using pymatgen
data_Ho7Tm2LuPb6
_symmetry_space_group_name_H-M   'P 1'
_cell_length_a   9.00290400
_cell_length_b   9.00290537
_cell_length_c   6.55292200
_cell_angle_alpha   90.00000000
_cell_angle_beta   90.00000000
_cell_angle_gamma   120.00000966
_symmetry_Int_Tables_number   1
_chemical_formula_structural   Ho7Tm2LuPb6
_chemical_formula_sum   'Ho7 Tm2 Lu1 Pb6'
_cell_volume   459.97146716
_cell_formula_units_Z   1
loop_
 _symmetry_equiv_pos_site_id
 _symmetry_equiv_pos_as_xyz
  1  'x, y, z'
loop_
 _atom_site_type_symbol
 _atom_site_label
 _atom_site_symmetry_multiplicity
 _atom_site_fract_x
 _atom_site_fract_y
 _atom_site_fract_z
 _atom_site_occupancy
  Ho  Ho0  1  0.333333  0.666667  0.500000  1
  Ho  Ho1  1  0.237571  0.000088  0.249780  1
  Ho  Ho2  1  0.237571  0.237482  0.750220  1
  Ho  Ho3  1  0.999912  0.762429  0.750220  1
  Ho  Ho4  1  0.999912  0.237482  0.249780  1
  Ho  Ho5  1  0.762518  0.762429  0.249780  1
  Ho  Ho6  1  0.762518  0.000088  0.750220  1
  Tm  Tm7  1  0.333333  0.666667  0.000000  1
  Tm  Tm8  1  0.666667  0.333333  0.500000  1
  Lu  Lu9  1  0.666667  0.333333  0.000000  1
  Pb  Pb10  1  0.605002  0.000878  0.249139  1
  Pb  Pb11  1  0.605002  0.604124  0.750861  1
  Pb  Pb12  1  0.999122  0.394998  0.750861  1
  Pb  Pb13  1  0.999122  0.604124  0.249139  1
  Pb  Pb14  1  0.395876  0.394998  0.249139  1
  Pb  Pb15  1  0.395876  0.000878  0.750861  1
