# generated using pymatgen
data_Er12Fe4SnRh
_symmetry_space_group_name_H-M   'P 1'
_cell_length_a   8.25124614
_cell_length_b   8.25124602
_cell_length_c   8.25124730
_cell_angle_alpha   110.66003146
_cell_angle_beta   110.91207877
_cell_angle_gamma   106.87249474
_symmetry_Int_Tables_number   1
_chemical_formula_structural   Er12Fe4SnRh
_chemical_formula_sum   'Er12 Fe4 Sn1 Rh1'
_cell_volume   431.78528163
_cell_formula_units_Z   1
loop_
 _symmetry_equiv_pos_site_id
 _symmetry_equiv_pos_as_xyz
  1  'x, y, z'
loop_
 _atom_site_type_symbol
 _atom_site_label
 _atom_site_symmetry_multiplicity
 _atom_site_fract_x
 _atom_site_fract_y
 _atom_site_fract_z
 _atom_site_occupancy
  Er  Er0  1  0.312674  0.614659  0.301984  1
  Er  Er1  1  0.687326  0.385342  0.698016  1
  Er  Er2  1  0.312674  0.010690  0.698016  1
  Er  Er3  1  0.687326  0.989310  0.301984  1
  Er  Er4  1  0.412430  0.215737  0.196693  1
  Er  Er5  1  0.587570  0.784263  0.803307  1
  Er  Er6  1  0.019043  0.215737  0.803307  1
  Er  Er7  1  0.980957  0.784263  0.196693  1
  Er  Er8  1  0.185596  0.286718  0.472314  1
  Er  Er9  1  0.814404  0.713282  0.527686  1
  Er  Er10  1  0.185596  0.713282  0.898879  1
  Er  Er11  1  0.814404  0.286718  0.101121  1
  Fe  Fe12  1  0.108417  0.608417  0.500000  1
  Fe  Fe13  1  0.891584  0.391584  0.500000  1
  Fe  Fe14  1  0.383512  0.000000  0.383512  1
  Fe  Fe15  1  0.616488  0.000000  0.616488  1
  Sn  Sn16  1  0.500000  0.500000  0.000000  1
  Rh  Rh17  1  0.000000  0.000000  0.000000  1
