# generated using pymatgen
data_Li12Pr12Te3W5O48
_symmetry_space_group_name_H-M   'P 1'
_cell_length_a   11.01560780
_cell_length_b   11.02380762
_cell_length_c   11.02363650
_cell_angle_alpha   109.48582274
_cell_angle_beta   109.45141033
_cell_angle_gamma   109.45921834
_symmetry_Int_Tables_number   1
_chemical_formula_structural   Li12Pr12Te3W5O48
_chemical_formula_sum   'Li12 Pr12 Te3 W5 O48'
_cell_volume   1030.70708644
_cell_formula_units_Z   1
loop_
 _symmetry_equiv_pos_site_id
 _symmetry_equiv_pos_as_xyz
  1  'x, y, z'
loop_
 _atom_site_type_symbol
 _atom_site_label
 _atom_site_symmetry_multiplicity
 _atom_site_fract_x
 _atom_site_fract_y
 _atom_site_fract_z
 _atom_site_occupancy
  Li  Li0  1  0.875846  0.749830  0.124214  1
  Li  Li1  1  0.248092  0.873461  0.124886  1
  Li  Li2  1  0.874304  0.124018  0.248491  1
  Li  Li3  1  0.374899  0.623547  0.248177  1
  Li  Li4  1  0.749719  0.625780  0.374103  1
  Li  Li5  1  0.625093  0.249927  0.375105  1
  Li  Li6  1  0.374908  0.750072  0.624895  1
  Li  Li7  1  0.250281  0.374220  0.625896  1
  Li  Li8  1  0.125697  0.875982  0.751510  1
  Li  Li9  1  0.625103  0.376454  0.751823  1
  Li  Li10  1  0.124155  0.250170  0.875786  1
  Li  Li11  1  0.751909  0.126540  0.875114  1
  Pr  Pr12  1  0.750143  0.373969  0.126016  1
  Pr  Pr13  1  0.375933  0.249870  0.126065  1
  Pr  Pr14  1  0.625361  0.876446  0.250684  1
  Pr  Pr15  1  0.126342  0.376193  0.252335  1
  Pr  Pr16  1  0.251079  0.125447  0.376727  1
  Pr  Pr17  1  0.125315  0.750983  0.376386  1
  Pr  Pr18  1  0.748919  0.874553  0.623272  1
  Pr  Pr19  1  0.874686  0.249017  0.623615  1
  Pr  Pr20  1  0.374640  0.123556  0.749319  1
  Pr  Pr21  1  0.873659  0.623808  0.747665  1
  Pr  Pr22  1  0.249855  0.626030  0.873981  1
  Pr  Pr23  1  0.624067  0.750129  0.873934  1
  Te  Te24  1  0.999999  0.000000  0.999997  1
  Te  Te25  1  0.499999  0.499995  0.999999  1
  Te  Te26  1  0.000000  0.500000  0.999999  1
  W  W27  1  0.500000  0.000004  0.999999  1
  W  W28  1  0.000000  0.000001  0.500003  1
  W  W29  1  0.500004  0.500002  0.500002  1
  W  W30  1  0.500001  0.000002  0.500002  1
  W  W31  1  0.999999  0.500000  0.500001  1
  O  O32  1  0.907835  0.329672  0.023554  1
  O  O33  1  0.116113  0.193638  0.023432  1
  O  O34  1  0.406903  0.885230  0.078723  1
  O  O35  1  0.670922  0.693695  0.077982  1
  O  O36  1  0.671039  0.977323  0.092461  1
  O  O37  1  0.422186  0.616139  0.092293  1
  O  O38  1  0.922076  0.592522  0.115913  1
  O  O39  1  0.193646  0.022622  0.115554  1
  O  O40  1  0.579069  0.193476  0.171828  1
  O  O41  1  0.592580  0.477202  0.170906  1
  O  O42  1  0.171047  0.578615  0.193943  1
  O  O43  1  0.023357  0.115566  0.194075  1
  O  O44  1  0.384875  0.477691  0.306556  1
  O  O45  1  0.921559  0.328312  0.306760  1
  O  O46  1  0.306474  0.922054  0.329152  1
  O  O47  1  0.022267  0.906869  0.328828  1
  O  O48  1  0.907134  0.578628  0.385036  1
  O  O49  1  0.477799  0.306163  0.385419  1
  O  O50  1  0.521511  0.828273  0.406457  1
  O  O51  1  0.885323  0.078788  0.406939  1
  O  O52  1  0.806231  0.829022  0.421435  1
  O  O53  1  0.614885  0.092833  0.421301  1
  O  O54  1  0.306587  0.385394  0.478520  1
  O  O55  1  0.171603  0.592893  0.478076  1
  O  O56  1  0.693412  0.614606  0.521479  1
  O  O57  1  0.828397  0.407107  0.521924  1
  O  O58  1  0.193769  0.170978  0.578563  1
  O  O59  1  0.385116  0.907167  0.578699  1
  O  O60  1  0.114678  0.921212  0.593059  1
  O  O61  1  0.478489  0.171728  0.593541  1
  O  O62  1  0.522200  0.693836  0.614580  1
  O  O63  1  0.092867  0.421372  0.614964  1
  O  O64  1  0.977733  0.093131  0.671169  1
  O  O65  1  0.693524  0.077945  0.670847  1
  O  O66  1  0.615123  0.522308  0.693442  1
  O  O67  1  0.078442  0.671688  0.693240  1
  O  O68  1  0.976643  0.884434  0.805925  1
  O  O69  1  0.828954  0.421387  0.806060  1
  O  O70  1  0.407420  0.522798  0.829094  1
  O  O71  1  0.420932  0.806523  0.828172  1
  O  O72  1  0.806352  0.977376  0.884446  1
  O  O73  1  0.077924  0.407479  0.884087  1
  O  O74  1  0.577813  0.383862  0.907707  1
  O  O75  1  0.328964  0.022676  0.907540  1
  O  O76  1  0.329080  0.306307  0.922018  1
  O  O77  1  0.593098  0.114770  0.921278  1
  O  O78  1  0.092166  0.670329  0.976446  1
  O  O79  1  0.883886  0.806362  0.976569  1
