# generated using pymatgen
data_Ca2Y3Bi3C
_symmetry_space_group_name_H-M   'P 1'
_cell_length_a   9.17490600
_cell_length_b   9.17490844
_cell_length_c   6.65052700
_cell_angle_alpha   90.00009804
_cell_angle_beta   90.00009604
_cell_angle_gamma   119.99431419
_symmetry_Int_Tables_number   1
_chemical_formula_structural   Ca2Y3Bi3C
_chemical_formula_sum   'Ca4 Y6 Bi6 C2'
_cell_volume   484.85841192
_cell_formula_units_Z   2
loop_
 _symmetry_equiv_pos_site_id
 _symmetry_equiv_pos_as_xyz
  1  'x, y, z'
loop_
 _atom_site_type_symbol
 _atom_site_label
 _atom_site_symmetry_multiplicity
 _atom_site_fract_x
 _atom_site_fract_y
 _atom_site_fract_z
 _atom_site_occupancy
  Ca  Ca0  1  0.666606  0.333392  0.500002  1
  Ca  Ca1  1  0.333392  0.666606  0.500002  1
  Ca  Ca2  1  0.333393  0.666607  0.000000  1
  Ca  Ca3  1  0.666607  0.333393  0.000000  1
  Y  Y4  1  0.792604  0.792604  0.249999  1
  Y  Y5  1  0.207255  0.999900  0.249999  1
  Y  Y6  1  0.999900  0.207255  0.249999  1
  Y  Y7  1  0.207396  0.207396  0.750000  1
  Y  Y8  1  0.792746  0.000102  0.749999  1
  Y  Y9  1  0.000102  0.792746  0.749999  1
  Bi  Bi10  1  0.400954  0.400954  0.249999  1
  Bi  Bi11  1  0.598822  0.000027  0.250003  1
  Bi  Bi12  1  0.000027  0.598822  0.250003  1
  Bi  Bi13  1  0.599047  0.599047  0.750000  1
  Bi  Bi14  1  0.401178  0.999974  0.750003  1
  Bi  Bi15  1  0.999974  0.401178  0.750003  1
  C  C16  1  0.000001  0.000001  0.499995  1
  C  C17  1  0.999998  0.999998  0.999995  1
