# generated using pymatgen
data_YZnGa5Cu6
_symmetry_space_group_name_H-M   'P 1'
_cell_length_a   5.15538101
_cell_length_b   6.61404833
_cell_length_c   6.61404700
_cell_angle_alpha   99.61840186
_cell_angle_beta   112.93769252
_cell_angle_gamma   67.06231782
_symmetry_Int_Tables_number   1
_chemical_formula_structural   YZnGa5Cu6
_chemical_formula_sum   'Y1 Zn1 Ga5 Cu6'
_cell_volume   191.23977346
_cell_formula_units_Z   1
loop_
 _symmetry_equiv_pos_site_id
 _symmetry_equiv_pos_as_xyz
  1  'x, y, z'
loop_
 _atom_site_type_symbol
 _atom_site_label
 _atom_site_symmetry_multiplicity
 _atom_site_fract_x
 _atom_site_fract_y
 _atom_site_fract_z
 _atom_site_occupancy
  Y  Y0  1  0.998943  0.001057  0.998943  1
  Zn  Zn1  1  0.302212  0.197788  0.802212  1
  Ga  Ga2  1  0.653522  0.346478  0.653522  1
  Ga  Ga3  1  0.349805  0.650195  0.349805  1
  Ga  Ga4  1  0.001552  0.346411  0.349515  1
  Ga  Ga5  1  0.001552  0.650485  0.653589  1
  Ga  Ga6  1  0.692157  0.807843  0.192157  1
  Cu  Cu7  1  0.500754  0.998479  0.499319  1
  Cu  Cu8  1  0.000088  0.998479  0.499319  1
  Cu  Cu9  1  0.500754  0.500681  0.001521  1
  Cu  Cu10  1  0.000088  0.500681  0.001521  1
  Cu  Cu11  1  0.499287  0.769029  0.767605  1
  Cu  Cu12  1  0.499287  0.232395  0.230971  1
