# generated using pymatgen
data_SrPrScMnO6
_symmetry_space_group_name_H-M   'P 1'
_cell_length_a   5.61710500
_cell_length_b   5.59875563
_cell_length_c   7.90181241
_cell_angle_alpha   90.25440085
_cell_angle_beta   90.00042498
_cell_angle_gamma   90.00020335
_symmetry_Int_Tables_number   1
_chemical_formula_structural   SrPrScMnO6
_chemical_formula_sum   'Sr2 Pr2 Sc2 Mn2 O12'
_cell_volume   248.50005467
_cell_formula_units_Z   2
loop_
 _symmetry_equiv_pos_site_id
 _symmetry_equiv_pos_as_xyz
  1  'x, y, z'
loop_
 _atom_site_type_symbol
 _atom_site_label
 _atom_site_symmetry_multiplicity
 _atom_site_fract_x
 _atom_site_fract_y
 _atom_site_fract_z
 _atom_site_occupancy
  Sr  Sr0  1  0.520966  0.496650  0.750938  1
  Sr  Sr1  1  0.979029  0.996668  0.250951  1
  Pr  Pr2  1  0.037118  0.011079  0.749743  1
  Pr  Pr3  1  0.462874  0.511054  0.249733  1
  Sc  Sc4  1  0.505734  0.000614  0.000416  1
  Sc  Sc5  1  0.994251  0.500597  0.500411  1
  Mn  Mn6  1  0.999164  0.499853  0.000300  1
  Mn  Mn7  1  0.500924  0.999881  0.500290  1
  O  O8  1  0.990765  0.580668  0.760189  1
  O  O9  1  0.509222  0.080664  0.260189  1
  O  O10  1  0.481087  0.940709  0.739826  1
  O  O11  1  0.018906  0.440713  0.239822  1
  O  O12  1  0.262298  0.280081  0.964072  1
  O  O13  1  0.237711  0.780051  0.464069  1
  O  O14  1  0.774814  0.203767  0.540169  1
  O  O15  1  0.725158  0.703768  0.040168  1
  O  O16  1  0.706091  0.726887  0.459734  1
  O  O17  1  0.793916  0.226878  0.959738  1
  O  O18  1  0.221365  0.759723  0.034616  1
  O  O19  1  0.278606  0.259696  0.534620  1
