# generated using pymatgen
data_YAl2CuSi
_symmetry_space_group_name_H-M   'P 1'
_cell_length_a   4.05719188
_cell_length_b   4.05743662
_cell_length_c   6.02358452
_cell_angle_alpha   70.31822185
_cell_angle_beta   70.31945635
_cell_angle_gamma   90.00000757
_symmetry_Int_Tables_number   1
_chemical_formula_structural   YAl2CuSi
_chemical_formula_sum   'Y1 Al2 Cu1 Si1'
_cell_volume   87.18954296
_cell_formula_units_Z   1
loop_
 _symmetry_equiv_pos_site_id
 _symmetry_equiv_pos_as_xyz
  1  'x, y, z'
loop_
 _atom_site_type_symbol
 _atom_site_label
 _atom_site_symmetry_multiplicity
 _atom_site_fract_x
 _atom_site_fract_y
 _atom_site_fract_z
 _atom_site_occupancy
  Y  Y0  1  0.994293  0.994293  0.011415  1
  Al  Al1  1  0.744882  0.244882  0.510237  1
  Al  Al2  1  0.244933  0.744933  0.510133  1
  Cu  Cu3  1  0.616373  0.616373  0.767255  1
  Si  Si4  1  0.399520  0.399520  0.200960  1
