# generated using pymatgen
data_RbTcAs2Pd
_symmetry_space_group_name_H-M   'P 1'
_cell_length_a   7.72978776
_cell_length_b   7.72978810
_cell_length_c   7.72978747
_cell_angle_alpha   149.16213230
_cell_angle_beta   149.16214106
_cell_angle_gamma   44.17270796
_symmetry_Int_Tables_number   1
_chemical_formula_structural   RbTcAs2Pd
_chemical_formula_sum   'Rb1 Tc1 As2 Pd1'
_cell_volume   121.00893132
_cell_formula_units_Z   1
loop_
 _symmetry_equiv_pos_site_id
 _symmetry_equiv_pos_as_xyz
  1  'x, y, z'
loop_
 _atom_site_type_symbol
 _atom_site_label
 _atom_site_symmetry_multiplicity
 _atom_site_fract_x
 _atom_site_fract_y
 _atom_site_fract_z
 _atom_site_occupancy
  Rb  Rb0  1  0.000000  0.000000  0.000000  1
  Tc  Tc1  1  0.250000  0.750000  0.500000  1
  As  As2  1  0.347537  0.347537  0.000000  1
  As  As3  1  0.652463  0.652463  0.000000  1
  Pd  Pd4  1  0.750000  0.250000  0.500000  1
