# generated using pymatgen
data_DyTm4(RuO6)2
_symmetry_space_group_name_H-M   'P 1'
_cell_length_a   6.77278549
_cell_length_b   6.77278572
_cell_length_c   7.32762442
_cell_angle_alpha   74.16056539
_cell_angle_beta   74.16056329
_cell_angle_gamma   50.47539975
_symmetry_Int_Tables_number   1
_chemical_formula_structural   DyTm4(RuO6)2
_chemical_formula_sum   'Dy1 Tm4 Ru2 O12'
_cell_volume   247.18386506
_cell_formula_units_Z   1
loop_
 _symmetry_equiv_pos_site_id
 _symmetry_equiv_pos_as_xyz
  1  'x, y, z'
loop_
 _atom_site_type_symbol
 _atom_site_label
 _atom_site_symmetry_multiplicity
 _atom_site_fract_x
 _atom_site_fract_y
 _atom_site_fract_z
 _atom_site_occupancy
  Dy  Dy0  1  0.000000  0.000000  0.500000  1
  Tm  Tm1  1  0.302172  0.302172  0.361059  1
  Tm  Tm2  1  0.697828  0.697828  0.638941  1
  Tm  Tm3  1  0.310507  0.310507  0.826582  1
  Tm  Tm4  1  0.689493  0.689493  0.173418  1
  Ru  Ru5  1  0.763247  0.236753  0.000000  1
  Ru  Ru6  1  0.236753  0.763247  0.000000  1
  O  O7  1  0.906698  0.426259  0.915112  1
  O  O8  1  0.426259  0.906698  0.915112  1
  O  O9  1  0.093302  0.573741  0.084888  1
  O  O10  1  0.573741  0.093302  0.084888  1
  O  O11  1  0.097775  0.591755  0.575023  1
  O  O12  1  0.591755  0.097775  0.575023  1
  O  O13  1  0.902225  0.408245  0.424977  1
  O  O14  1  0.408245  0.902225  0.424977  1
  O  O15  1  0.999328  0.999328  0.804930  1
  O  O16  1  0.000672  0.000672  0.195070  1
  O  O17  1  0.500392  0.500392  0.811184  1
  O  O18  1  0.499608  0.499608  0.188816  1
