# generated using pymatgen
data_TbTm5Fe4(Co7P6)2
_symmetry_space_group_name_H-M   'P 1'
_cell_length_a   3.69498900
_cell_length_b   10.55605500
_cell_length_c   12.07834000
_cell_angle_alpha   90.00000000
_cell_angle_beta   90.00000000
_cell_angle_gamma   90.00000000
_symmetry_Int_Tables_number   1
_chemical_formula_structural   TbTm5Fe4(Co7P6)2
_chemical_formula_sum   'Tb1 Tm5 Fe4 Co14 P12'
_cell_volume   471.10969839
_cell_formula_units_Z   1
loop_
 _symmetry_equiv_pos_site_id
 _symmetry_equiv_pos_as_xyz
  1  'x, y, z'
loop_
 _atom_site_type_symbol
 _atom_site_label
 _atom_site_symmetry_multiplicity
 _atom_site_fract_x
 _atom_site_fract_y
 _atom_site_fract_z
 _atom_site_occupancy
  Tb  Tb0  1  0.000000  0.500000  0.522968  1
  Tm  Tm1  1  0.500000  0.000000  0.477074  1
  Tm  Tm2  1  0.500000  0.819631  0.204189  1
  Tm  Tm3  1  0.500000  0.180369  0.204189  1
  Tm  Tm4  1  0.000000  0.680698  0.796155  1
  Tm  Tm5  1  0.000000  0.319302  0.796155  1
  Fe  Fe6  1  0.500000  0.500000  0.155509  1
  Fe  Fe7  1  0.000000  0.000000  0.843563  1
  Fe  Fe8  1  0.000000  0.500000  0.988761  1
  Fe  Fe9  1  0.500000  0.000000  0.011593  1
  Co  Co10  1  0.500000  0.500000  0.702530  1
  Co  Co11  1  0.000000  0.000000  0.298705  1
  Co  Co12  1  0.500000  0.331569  0.994185  1
  Co  Co13  1  0.500000  0.668431  0.994185  1
  Co  Co14  1  0.000000  0.168141  0.005834  1
  Co  Co15  1  0.000000  0.831859  0.005834  1
  Co  Co16  1  0.500000  0.295415  0.430256  1
  Co  Co17  1  0.500000  0.704585  0.430256  1
  Co  Co18  1  0.000000  0.202155  0.569647  1
  Co  Co19  1  0.000000  0.797845  0.569647  1
  Co  Co20  1  0.500000  0.878688  0.709332  1
  Co  Co21  1  0.500000  0.121312  0.709332  1
  Co  Co22  1  0.000000  0.621936  0.290323  1
  Co  Co23  1  0.000000  0.378064  0.290323  1
  P  P24  1  0.500000  0.500000  0.884177  1
  P  P25  1  0.000000  0.000000  0.116350  1
  P  P26  1  0.500000  0.500000  0.341360  1
  P  P27  1  0.000000  0.000000  0.656738  1
  P  P28  1  0.500000  0.309971  0.617693  1
  P  P29  1  0.500000  0.690029  0.617693  1
  P  P30  1  0.000000  0.188476  0.382847  1
  P  P31  1  0.000000  0.811524  0.382847  1
  P  P32  1  0.500000  0.847221  0.892854  1
  P  P33  1  0.500000  0.152779  0.892854  1
  P  P34  1  0.000000  0.653155  0.107021  1
  P  P35  1  0.000000  0.346845  0.107021  1
