# generated using pymatgen
data_YHo9(In2Pt)4
_symmetry_space_group_name_H-M   'P 1'
_cell_length_a   3.60928700
_cell_length_b   8.16265100
_cell_length_c   18.24360300
_cell_angle_alpha   90.00060647
_cell_angle_beta   90.00000000
_cell_angle_gamma   90.00000000
_symmetry_Int_Tables_number   1
_chemical_formula_structural   YHo9(In2Pt)4
_chemical_formula_sum   'Y1 Ho9 In8 Pt4'
_cell_volume   537.48117578
_cell_formula_units_Z   1
loop_
 _symmetry_equiv_pos_site_id
 _symmetry_equiv_pos_as_xyz
  1  'x, y, z'
loop_
 _atom_site_type_symbol
 _atom_site_label
 _atom_site_symmetry_multiplicity
 _atom_site_fract_x
 _atom_site_fract_y
 _atom_site_fract_z
 _atom_site_occupancy
  Y  Y0  1  0.000000  0.000000  0.000000  1
  Ho  Ho1  1  0.000000  0.116981  0.414471  1
  Ho  Ho2  1  0.000000  0.883019  0.585529  1
  Ho  Ho3  1  0.000000  0.383119  0.914423  1
  Ho  Ho4  1  0.000000  0.616881  0.085577  1
  Ho  Ho5  1  0.000000  0.243368  0.220105  1
  Ho  Ho6  1  0.000000  0.756632  0.779895  1
  Ho  Ho7  1  0.000000  0.256627  0.720082  1
  Ho  Ho8  1  0.000000  0.743373  0.279918  1
  Ho  Ho9  1  0.000000  0.500000  0.500000  1
  In  In10  1  0.500000  0.423950  0.350670  1
  In  In11  1  0.500000  0.576050  0.649330  1
  In  In12  1  0.500000  0.076164  0.850563  1
  In  In13  1  0.500000  0.923836  0.149437  1
  In  In14  1  0.500000  0.292740  0.066725  1
  In  In15  1  0.500000  0.707260  0.933275  1
  In  In16  1  0.500000  0.207614  0.566645  1
  In  In17  1  0.500000  0.792386  0.433355  1
  Pt  Pt18  1  0.500000  0.024629  0.303295  1
  Pt  Pt19  1  0.500000  0.975371  0.696705  1
  Pt  Pt20  1  0.500000  0.475385  0.803303  1
  Pt  Pt21  1  0.500000  0.524615  0.196697  1
