# generated using pymatgen
data_Sc8Ti5Si11Ge5Mo7
_symmetry_space_group_name_H-M   'P 1'
_cell_length_a   6.62239544
_cell_length_b   6.80499062
_cell_length_c   12.97697239
_cell_angle_alpha   89.94670508
_cell_angle_beta   89.93910599
_cell_angle_gamma   89.98163992
_symmetry_Int_Tables_number   1
_chemical_formula_structural   Sc8Ti5Si11Ge5Mo7
_chemical_formula_sum   'Sc8 Ti5 Si11 Ge5 Mo7'
_cell_volume   584.81104467
_cell_formula_units_Z   1
loop_
 _symmetry_equiv_pos_site_id
 _symmetry_equiv_pos_as_xyz
  1  'x, y, z'
loop_
 _atom_site_type_symbol
 _atom_site_label
 _atom_site_symmetry_multiplicity
 _atom_site_fract_x
 _atom_site_fract_y
 _atom_site_fract_z
 _atom_site_occupancy
  Sc  Sc0  1  0.501325  0.323896  0.095212  1
  Sc  Sc1  1  0.997088  0.173666  0.403868  1
  Sc  Sc2  1  0.499737  0.673868  0.595471  1
  Sc  Sc3  1  0.999130  0.824657  0.905053  1
  Sc  Sc4  1  0.505781  0.672660  0.905553  1
  Sc  Sc5  1  0.005000  0.826134  0.597232  1
  Sc  Sc6  1  0.497084  0.326441  0.404289  1
  Sc  Sc7  1  0.994650  0.173758  0.095036  1
  Ti  Ti8  1  0.839321  0.332051  0.628765  1
  Ti  Ti9  1  0.339111  0.168016  0.872144  1
  Ti  Ti10  1  0.159935  0.668218  0.127386  1
  Ti  Ti11  1  0.664659  0.832696  0.370881  1
  Ti  Ti12  1  0.166780  0.665328  0.371915  1
  Si  Si13  1  0.826436  0.538569  0.041476  1
  Si  Si14  1  0.672881  0.039620  0.958426  1
  Si  Si15  1  0.173261  0.461271  0.541518  1
  Si  Si16  1  0.534462  0.383795  0.748705  1
  Si  Si17  1  0.033653  0.117735  0.753240  1
  Si  Si18  1  0.467054  0.618359  0.247352  1
  Si  Si19  1  0.964599  0.884530  0.250235  1
  Si  Si20  1  0.797250  0.639156  0.749288  1
  Si  Si21  1  0.298098  0.860180  0.751451  1
  Si  Si22  1  0.205283  0.359399  0.249440  1
  Si  Si23  1  0.701537  0.139403  0.250060  1
  Ge  Ge24  1  0.676050  0.037827  0.541970  1
  Ge  Ge25  1  0.172572  0.462812  0.959084  1
  Ge  Ge26  1  0.327190  0.963072  0.040786  1
  Ge  Ge27  1  0.825855  0.537601  0.459654  1
  Ge  Ge28  1  0.322700  0.960228  0.459625  1
  Mo  Mo29  1  0.673606  0.833903  0.123285  1
  Mo  Mo30  1  0.826819  0.334561  0.875231  1
  Mo  Mo31  1  0.328948  0.169535  0.628815  1
  Mo  Mo32  1  0.661861  0.005133  0.752088  1
  Mo  Mo33  1  0.161888  0.494129  0.749164  1
  Mo  Mo34  1  0.338065  0.992846  0.248983  1
  Mo  Mo35  1  0.840333  0.504948  0.247322  1
