# generated using pymatgen
data_TcMoOs6
_symmetry_space_group_name_H-M   'P 1'
_cell_length_a   5.55351200
_cell_length_b   5.55351246
_cell_length_c   4.35513900
_cell_angle_alpha   90.00000000
_cell_angle_beta   90.00000000
_cell_angle_gamma   119.99999728
_symmetry_Int_Tables_number   1
_chemical_formula_structural   TcMoOs6
_chemical_formula_sum   'Tc1 Mo1 Os6'
_cell_volume   116.32367899
_cell_formula_units_Z   1
loop_
 _symmetry_equiv_pos_site_id
 _symmetry_equiv_pos_as_xyz
  1  'x, y, z'
loop_
 _atom_site_type_symbol
 _atom_site_label
 _atom_site_symmetry_multiplicity
 _atom_site_fract_x
 _atom_site_fract_y
 _atom_site_fract_z
 _atom_site_occupancy
  Tc  Tc0  1  0.666667  0.333333  0.250000  1
  Mo  Mo1  1  0.333333  0.666667  0.750000  1
  Os  Os2  1  0.166004  0.332009  0.250000  1
  Os  Os3  1  0.667991  0.833996  0.250000  1
  Os  Os4  1  0.166004  0.833996  0.250000  1
  Os  Os5  1  0.831915  0.663831  0.750000  1
  Os  Os6  1  0.336169  0.168085  0.750000  1
  Os  Os7  1  0.831915  0.168085  0.750000  1
