# generated using pymatgen
data_EuTcP2Rh
_symmetry_space_group_name_H-M   'P 1'
_cell_length_a   6.09119157
_cell_length_b   6.09119163
_cell_length_c   6.09119225
_cell_angle_alpha   141.02928267
_cell_angle_beta   141.02928144
_cell_angle_gamma   56.29376567
_symmetry_Int_Tables_number   1
_chemical_formula_structural   EuTcP2Rh
_chemical_formula_sum   'Eu1 Tc1 P2 Rh1'
_cell_volume   88.68933809
_cell_formula_units_Z   1
loop_
 _symmetry_equiv_pos_site_id
 _symmetry_equiv_pos_as_xyz
  1  'x, y, z'
loop_
 _atom_site_type_symbol
 _atom_site_label
 _atom_site_symmetry_multiplicity
 _atom_site_fract_x
 _atom_site_fract_y
 _atom_site_fract_z
 _atom_site_occupancy
  Eu  Eu0  1  0.000000  0.000000  0.000000  1
  Tc  Tc1  1  0.750000  0.250000  0.500000  1
  P  P2  1  0.639635  0.639635  0.000000  1
  P  P3  1  0.360365  0.360365  0.000000  1
  Rh  Rh4  1  0.250000  0.750000  0.500000  1
