# generated using pymatgen
data_Ho3ThCdOs
_symmetry_space_group_name_H-M   'P 1'
_cell_length_a   9.70201932
_cell_length_b   9.70201989
_cell_length_c   9.70201900
_cell_angle_alpha   59.99999963
_cell_angle_beta   59.99999767
_cell_angle_gamma   59.99999844
_symmetry_Int_Tables_number   1
_chemical_formula_structural   Ho3ThCdOs
_chemical_formula_sum   'Ho12 Th4 Cd4 Os4'
_cell_volume   645.76039322
_cell_formula_units_Z   4
loop_
 _symmetry_equiv_pos_site_id
 _symmetry_equiv_pos_as_xyz
  1  'x, y, z'
loop_
 _atom_site_type_symbol
 _atom_site_label
 _atom_site_symmetry_multiplicity
 _atom_site_fract_x
 _atom_site_fract_y
 _atom_site_fract_z
 _atom_site_occupancy
  Ho  Ho0  1  0.061970  0.438030  0.438030  1
  Ho  Ho1  1  0.438030  0.061970  0.061970  1
  Ho  Ho2  1  0.438030  0.061970  0.438030  1
  Ho  Ho3  1  0.061970  0.438030  0.061970  1
  Ho  Ho4  1  0.438030  0.438030  0.061970  1
  Ho  Ho5  1  0.061970  0.061970  0.438030  1
  Ho  Ho6  1  0.187097  0.812903  0.812903  1
  Ho  Ho7  1  0.812903  0.187097  0.187097  1
  Ho  Ho8  1  0.812903  0.187097  0.812903  1
  Ho  Ho9  1  0.187097  0.812903  0.187097  1
  Ho  Ho10  1  0.812903  0.812903  0.187097  1
  Ho  Ho11  1  0.187097  0.187097  0.812903  1
  Th  Th12  1  0.597894  0.597894  0.597894  1
  Th  Th13  1  0.597894  0.597894  0.206320  1
  Th  Th14  1  0.597894  0.206320  0.597894  1
  Th  Th15  1  0.206320  0.597894  0.597894  1
  Cd  Cd16  1  0.831600  0.831600  0.831600  1
  Cd  Cd17  1  0.831600  0.831600  0.505201  1
  Cd  Cd18  1  0.831600  0.505201  0.831600  1
  Cd  Cd19  1  0.505201  0.831600  0.831600  1
  Os  Os20  1  0.391987  0.391987  0.391987  1
  Os  Os21  1  0.391987  0.391987  0.824038  1
  Os  Os22  1  0.391987  0.824038  0.391987  1
  Os  Os23  1  0.824038  0.391987  0.391987  1
