# generated using pymatgen
data_CeY15(HoSn4)4
_symmetry_space_group_name_H-M   'P 1'
_cell_length_a   8.04039576
_cell_length_b   8.18021132
_cell_length_c   15.48960100
_cell_angle_alpha   89.97248052
_cell_angle_beta   89.87623571
_cell_angle_gamma   90.15862739
_symmetry_Int_Tables_number   1
_chemical_formula_structural   CeY15(HoSn4)4
_chemical_formula_sum   'Ce1 Y15 Ho4 Sn16'
_cell_volume   1018.77774771
_cell_formula_units_Z   1
loop_
 _symmetry_equiv_pos_site_id
 _symmetry_equiv_pos_as_xyz
  1  'x, y, z'
loop_
 _atom_site_type_symbol
 _atom_site_label
 _atom_site_symmetry_multiplicity
 _atom_site_fract_x
 _atom_site_fract_y
 _atom_site_fract_z
 _atom_site_occupancy
  Ce  Ce0  1  0.017436  0.180975  0.905284  1
  Y  Y1  1  0.366009  0.836074  0.877513  1
  Y  Y2  1  0.867318  0.663649  0.622145  1
  Y  Y3  1  0.632954  0.162556  0.377491  1
  Y  Y4  1  0.133551  0.336754  0.121914  1
  Y  Y5  1  0.633953  0.162233  0.122549  1
  Y  Y6  1  0.133449  0.337552  0.377574  1
  Y  Y7  1  0.365983  0.837896  0.622350  1
  Y  Y8  1  0.865270  0.661811  0.877863  1
  Y  Y9  1  0.522174  0.320674  0.902621  1
  Y  Y10  1  0.020887  0.179733  0.598116  1
  Y  Y11  1  0.479660  0.679427  0.402782  1
  Y  Y12  1  0.980489  0.821109  0.097289  1
  Y  Y13  1  0.480358  0.679342  0.096714  1
  Y  Y14  1  0.979611  0.820767  0.402601  1
  Y  Y15  1  0.520240  0.321586  0.596471  1
  Ho  Ho16  1  0.197484  0.501841  0.749816  1
  Ho  Ho17  1  0.697993  0.996278  0.748976  1
  Ho  Ho18  1  0.802064  0.497340  0.250079  1
  Ho  Ho19  1  0.302170  0.003066  0.250172  1
  Sn  Sn20  1  0.295674  0.036401  0.041533  1
  Sn  Sn21  1  0.793382  0.463809  0.458010  1
  Sn  Sn22  1  0.706867  0.964063  0.541708  1
  Sn  Sn23  1  0.206887  0.534026  0.957251  1
  Sn  Sn24  1  0.705224  0.962152  0.958440  1
  Sn  Sn25  1  0.206194  0.537107  0.541691  1
  Sn  Sn26  1  0.293327  0.037123  0.458309  1
  Sn  Sn27  1  0.794241  0.462821  0.041771  1
  Sn  Sn28  1  0.563352  0.617332  0.749612  1
  Sn  Sn29  1  0.063719  0.884125  0.751686  1
  Sn  Sn30  1  0.435890  0.382726  0.249681  1
  Sn  Sn31  1  0.936000  0.116948  0.250029  1
  Sn  Sn32  1  0.329569  0.148477  0.750281  1
  Sn  Sn33  1  0.828347  0.352095  0.750126  1
  Sn  Sn34  1  0.671224  0.851712  0.249876  1
  Sn  Sn35  1  0.171051  0.648416  0.249674  1
