# generated using pymatgen
data_Ce3Sm5(Si3Pd)4
_symmetry_space_group_name_H-M   'P 1'
_cell_length_a   8.24240600
_cell_length_b   8.24240517
_cell_length_c   8.28727300
_cell_angle_alpha   90.00000000
_cell_angle_beta   90.00000000
_cell_angle_gamma   119.97584586
_symmetry_Int_Tables_number   1
_chemical_formula_structural   Ce3Sm5(Si3Pd)4
_chemical_formula_sum   'Ce3 Sm5 Si12 Pd4'
_cell_volume   487.70352228
_cell_formula_units_Z   1
loop_
 _symmetry_equiv_pos_site_id
 _symmetry_equiv_pos_as_xyz
  1  'x, y, z'
loop_
 _atom_site_type_symbol
 _atom_site_label
 _atom_site_symmetry_multiplicity
 _atom_site_fract_x
 _atom_site_fract_y
 _atom_site_fract_z
 _atom_site_occupancy
  Ce  Ce0  1  0.500022  0.499978  0.750000  1
  Ce  Ce1  1  0.000035  0.999965  0.250000  1
  Ce  Ce2  1  0.999976  0.000024  0.750000  1
  Sm  Sm3  1  0.499859  0.999795  0.250000  1
  Sm  Sm4  1  0.500167  0.000218  0.750000  1
  Sm  Sm5  1  0.000205  0.500141  0.250000  1
  Sm  Sm6  1  0.999782  0.499833  0.750000  1
  Sm  Sm7  1  0.499935  0.500065  0.250000  1
  Si  Si8  1  0.164823  0.330076  0.999592  1
  Si  Si9  1  0.835171  0.669909  0.999638  1
  Si  Si10  1  0.669924  0.835177  0.999592  1
  Si  Si11  1  0.835171  0.669909  0.500362  1
  Si  Si12  1  0.330091  0.164829  0.999638  1
  Si  Si13  1  0.164823  0.330076  0.500408  1
  Si  Si14  1  0.165213  0.834787  0.999759  1
  Si  Si15  1  0.330091  0.164829  0.500362  1
  Si  Si16  1  0.834788  0.165212  0.000087  1
  Si  Si17  1  0.669924  0.835177  0.500408  1
  Si  Si18  1  0.834788  0.165212  0.499913  1
  Si  Si19  1  0.165213  0.834787  0.500241  1
  Pd  Pd20  1  0.333307  0.666693  0.001545  1
  Pd  Pd21  1  0.666693  0.333307  0.001967  1
  Pd  Pd22  1  0.666693  0.333307  0.498033  1
  Pd  Pd23  1  0.333307  0.666693  0.498455  1
