# generated using pymatgen
data_Pa2Zn15Cu2
_symmetry_space_group_name_H-M   'P 1'
_cell_length_a   6.74683433
_cell_length_b   6.74683237
_cell_length_c   6.74257020
_cell_angle_alpha   82.35076970
_cell_angle_beta   82.35076648
_cell_angle_gamma   82.64911060
_symmetry_Int_Tables_number   1
_chemical_formula_structural   Pa2Zn15Cu2
_chemical_formula_sum   'Pa2 Zn15 Cu2'
_cell_volume   299.57803167
_cell_formula_units_Z   1
loop_
 _symmetry_equiv_pos_site_id
 _symmetry_equiv_pos_as_xyz
  1  'x, y, z'
loop_
 _atom_site_type_symbol
 _atom_site_label
 _atom_site_symmetry_multiplicity
 _atom_site_fract_x
 _atom_site_fract_y
 _atom_site_fract_z
 _atom_site_occupancy
  Pa  Pa0  1  0.660333  0.660333  0.659461  1
  Pa  Pa1  1  0.339667  0.339667  0.340539  1
  Zn  Zn2  1  0.350263  0.350263  0.849930  1
  Zn  Zn3  1  0.842835  0.353443  0.349297  1
  Zn  Zn4  1  0.106242  0.106242  0.098668  1
  Zn  Zn5  1  0.893758  0.893758  0.901332  1
  Zn  Zn6  1  0.000000  0.000000  0.500000  1
  Zn  Zn7  1  0.294564  0.705436  0.000000  1
  Zn  Zn8  1  0.701633  0.999936  0.293360  1
  Zn  Zn9  1  0.000064  0.298367  0.706640  1
  Zn  Zn10  1  0.705436  0.294564  0.000000  1
  Zn  Zn11  1  0.298367  0.000064  0.706640  1
  Zn  Zn12  1  0.999936  0.701633  0.293360  1
  Zn  Zn13  1  0.157165  0.646557  0.650703  1
  Zn  Zn14  1  0.649737  0.649737  0.150070  1
  Zn  Zn15  1  0.646557  0.157165  0.650703  1
  Zn  Zn16  1  0.353443  0.842835  0.349297  1
  Cu  Cu17  1  0.000000  0.500000  0.000000  1
  Cu  Cu18  1  0.500000  0.000000  0.000000  1
