# generated using pymatgen
data_Tb2MoWN4
_symmetry_space_group_name_H-M   'P 1'
_cell_length_a   3.22440300
_cell_length_b   5.73778800
_cell_length_c   10.61109300
_cell_angle_alpha   90.00000000
_cell_angle_beta   90.00000000
_cell_angle_gamma   90.00000000
_symmetry_Int_Tables_number   1
_chemical_formula_structural   Tb2MoWN4
_chemical_formula_sum   'Tb4 Mo2 W2 N8'
_cell_volume   196.31520385
_cell_formula_units_Z   2
loop_
 _symmetry_equiv_pos_site_id
 _symmetry_equiv_pos_as_xyz
  1  'x, y, z'
loop_
 _atom_site_type_symbol
 _atom_site_label
 _atom_site_symmetry_multiplicity
 _atom_site_fract_x
 _atom_site_fract_y
 _atom_site_fract_z
 _atom_site_occupancy
  Tb  Tb0  1  0.250000  0.079793  0.854984  1
  Tb  Tb1  1  0.250000  0.579793  0.645016  1
  Tb  Tb2  1  0.750000  0.920878  0.146157  1
  Tb  Tb3  1  0.750000  0.420878  0.353843  1
  Mo  Mo4  1  0.250000  0.433468  0.093908  1
  Mo  Mo5  1  0.250000  0.933468  0.406092  1
  W  W6  1  0.750000  0.565873  0.905215  1
  W  W7  1  0.750000  0.065873  0.594785  1
  N  N8  1  0.250000  0.164140  0.250551  1
  N  N9  1  0.250000  0.664140  0.249449  1
  N  N10  1  0.750000  0.834765  0.750844  1
  N  N11  1  0.750000  0.334765  0.749156  1
  N  N12  1  0.250000  0.757986  0.990792  1
  N  N13  1  0.250000  0.257986  0.509208  1
  N  N14  1  0.750000  0.243096  0.006102  1
  N  N15  1  0.750000  0.743096  0.493898  1
