# generated using pymatgen
data_Tb3Ho5Hf11Si16Os
_symmetry_space_group_name_H-M   'P 1'
_cell_length_a   7.23906287
_cell_length_b   7.24117475
_cell_length_c   13.24070104
_cell_angle_alpha   89.86092887
_cell_angle_beta   90.13132154
_cell_angle_gamma   90.02581721
_symmetry_Int_Tables_number   1
_chemical_formula_structural   Tb3Ho5Hf11Si16Os
_chemical_formula_sum   'Tb3 Ho5 Hf11 Si16 Os1'
_cell_volume   694.06459864
_cell_formula_units_Z   1
loop_
 _symmetry_equiv_pos_site_id
 _symmetry_equiv_pos_as_xyz
  1  'x, y, z'
loop_
 _atom_site_type_symbol
 _atom_site_label
 _atom_site_symmetry_multiplicity
 _atom_site_fract_x
 _atom_site_fract_y
 _atom_site_fract_z
 _atom_site_occupancy
  Tb  Tb0  1  0.494184  0.155785  0.534909  1
  Tb  Tb1  1  0.344000  0.998191  0.788520  1
  Tb  Tb2  1  0.654646  0.005642  0.282473  1
  Ho  Ho3  1  0.998693  0.344464  0.211529  1
  Ho  Ho4  1  0.005208  0.654073  0.717439  1
  Ho  Ho5  1  0.155253  0.494974  0.464978  1
  Ho  Ho6  1  0.501538  0.846904  0.032642  1
  Ho  Ho7  1  0.846921  0.501627  0.967398  1
  Hf  Hf8  1  0.824947  0.824312  0.499985  1
  Hf  Hf9  1  0.323993  0.675131  0.247550  1
  Hf  Hf10  1  0.675630  0.324467  0.752352  1
  Hf  Hf11  1  0.146552  0.997757  0.371682  1
  Hf  Hf12  1  0.853652  0.004198  0.878825  1
  Hf  Hf13  1  0.502884  0.646781  0.625545  1
  Hf  Hf14  1  0.352448  0.496949  0.877137  1
  Hf  Hf15  1  0.496533  0.352545  0.122822  1
  Hf  Hf16  1  0.646890  0.502693  0.374395  1
  Hf  Hf17  1  0.998181  0.146585  0.628244  1
  Hf  Hf18  1  0.004086  0.853355  0.121220  1
  Si  Si19  1  0.358644  0.296203  0.315248  1
  Si  Si20  1  0.641060  0.704384  0.818741  1
  Si  Si21  1  0.204590  0.859821  0.566939  1
  Si  Si22  1  0.136686  0.792653  0.930985  1
  Si  Si23  1  0.794342  0.137730  0.069124  1
  Si  Si24  1  0.861836  0.206046  0.433151  1
  Si  Si25  1  0.294645  0.360621  0.684785  1
  Si  Si26  1  0.705123  0.639640  0.180984  1
  Si  Si27  1  0.292544  0.054859  0.179658  1
  Si  Si28  1  0.704662  0.949699  0.686287  1
  Si  Si29  1  0.448594  0.795805  0.434764  1
  Si  Si30  1  0.205408  0.547371  0.064082  1
  Si  Si31  1  0.548337  0.206123  0.936035  1
  Si  Si32  1  0.797410  0.449722  0.565277  1
  Si  Si33  1  0.054116  0.293869  0.820163  1
  Si  Si34  1  0.950815  0.703120  0.313744  1
  Os  Os35  1  0.174954  0.175904  0.000391  1
