# generated using pymatgen
data_Gd3DyOsI4
_symmetry_space_group_name_H-M   'P 1'
_cell_length_a   11.69390645
_cell_length_b   11.69444883
_cell_length_c   6.21061400
_cell_angle_alpha   90.04880293
_cell_angle_beta   90.04399865
_cell_angle_gamma   89.97011049
_symmetry_Int_Tables_number   1
_chemical_formula_structural   Gd3DyOsI4
_chemical_formula_sum   'Gd6 Dy2 Os2 I8'
_cell_volume   849.32433248
_cell_formula_units_Z   2
loop_
 _symmetry_equiv_pos_site_id
 _symmetry_equiv_pos_as_xyz
  1  'x, y, z'
loop_
 _atom_site_type_symbol
 _atom_site_label
 _atom_site_symmetry_multiplicity
 _atom_site_fract_x
 _atom_site_fract_y
 _atom_site_fract_z
 _atom_site_occupancy
  Gd  Gd0  1  0.805547  0.080271  0.000919  1
  Gd  Gd1  1  0.080292  0.804877  0.500843  1
  Gd  Gd2  1  0.079878  0.194231  0.000935  1
  Gd  Gd3  1  0.194523  0.080208  0.500858  1
  Gd  Gd4  1  0.920092  0.805111  0.999071  1
  Gd  Gd5  1  0.919828  0.194358  0.499082  1
  Dy  Dy6  1  0.191599  0.920958  0.998779  1
  Dy  Dy7  1  0.808301  0.921331  0.498882  1
  Os  Os8  1  0.999856  0.999470  0.250114  1
  Os  Os9  1  0.999540  0.999759  0.749882  1
  I  I10  1  0.654015  0.142795  0.488328  1
  I  I11  1  0.854736  0.655869  0.506831  1
  I  I12  1  0.344786  0.143846  0.993163  1
  I  I13  1  0.144730  0.344956  0.493118  1
  I  I14  1  0.655092  0.855179  0.007118  1
  I  I15  1  0.346630  0.856108  0.512054  1
  I  I16  1  0.144274  0.654341  0.988272  1
  I  I17  1  0.856280  0.346332  0.011749  1
