# generated using pymatgen
data_CePr(CoC2)2
_symmetry_space_group_name_H-M   'P 1'
_cell_length_a   3.78891567
_cell_length_b   3.77481653
_cell_length_c   7.41381875
_cell_angle_alpha   81.82963956
_cell_angle_beta   82.13778513
_cell_angle_gamma   90.06689931
_symmetry_Int_Tables_number   1
_chemical_formula_structural   CePr(CoC2)2
_chemical_formula_sum   'Ce1 Pr1 Co2 C4'
_cell_volume   103.94998366
_cell_formula_units_Z   1
loop_
 _symmetry_equiv_pos_site_id
 _symmetry_equiv_pos_as_xyz
  1  'x, y, z'
loop_
 _atom_site_type_symbol
 _atom_site_label
 _atom_site_symmetry_multiplicity
 _atom_site_fract_x
 _atom_site_fract_y
 _atom_site_fract_z
 _atom_site_occupancy
  Ce  Ce0  1  0.625085  0.488338  0.305908  1
  Pr  Pr1  1  0.485640  0.632115  0.806747  1
  Co  Co2  1  0.069464  0.926443  0.497573  1
  Co  Co3  1  0.931196  0.072250  0.004100  1
  C  C4  1  0.415103  0.049152  0.081757  1
  C  C5  1  0.047922  0.407416  0.579458  1
  C  C6  1  0.153496  0.000657  0.233589  1
  C  C7  1  0.000093  0.151628  0.732870  1
