# generated using pymatgen
data_Sm3Gd(Cl3O)2
_symmetry_space_group_name_H-M   'P 1'
_cell_length_a   8.26336146
_cell_length_b   8.26336147
_cell_length_c   10.62712395
_cell_angle_alpha   61.04877100
_cell_angle_beta   61.04877210
_cell_angle_gamma   28.17064784
_symmetry_Int_Tables_number   1
_chemical_formula_structural   Sm3Gd(Cl3O)2
_chemical_formula_sum   'Sm3 Gd1 Cl6 O2'
_cell_volume   296.86709775
_cell_formula_units_Z   1
loop_
 _symmetry_equiv_pos_site_id
 _symmetry_equiv_pos_as_xyz
  1  'x, y, z'
loop_
 _atom_site_type_symbol
 _atom_site_label
 _atom_site_symmetry_multiplicity
 _atom_site_fract_x
 _atom_site_fract_y
 _atom_site_fract_z
 _atom_site_occupancy
  Sm  Sm0  1  0.136015  0.136015  0.711908  1
  Sm  Sm1  1  0.584581  0.584581  0.049033  1
  Sm  Sm2  1  0.414778  0.414778  0.952550  1
  Gd  Gd3  1  0.864746  0.864746  0.287029  1
  Cl  Cl4  1  0.045532  0.045532  0.261839  1
  Cl  Cl5  1  0.954303  0.954303  0.737934  1
  Cl  Cl6  1  0.664235  0.664235  0.491329  1
  Cl  Cl7  1  0.335765  0.335765  0.508627  1
  Cl  Cl8  1  0.772287  0.772287  0.115520  1
  Cl  Cl9  1  0.227896  0.227896  0.884338  1
  O  O10  1  0.416632  0.416632  0.169080  1
  O  O11  1  0.583230  0.583230  0.830813  1
