# generated using pymatgen
data_Rb4Na2DyLuSb4
_symmetry_space_group_name_H-M   'P 1'
_cell_length_a   11.30324424
_cell_length_b   11.30324347
_cell_length_c   7.46022400
_cell_angle_alpha   90.00000000
_cell_angle_beta   90.00000000
_cell_angle_gamma   98.70896272
_symmetry_Int_Tables_number   1
_chemical_formula_structural   Rb4Na2DyLuSb4
_chemical_formula_sum   'Rb8 Na4 Dy2 Lu2 Sb8'
_cell_volume   942.15346288
_cell_formula_units_Z   2
loop_
 _symmetry_equiv_pos_site_id
 _symmetry_equiv_pos_as_xyz
  1  'x, y, z'
loop_
 _atom_site_type_symbol
 _atom_site_label
 _atom_site_symmetry_multiplicity
 _atom_site_fract_x
 _atom_site_fract_y
 _atom_site_fract_z
 _atom_site_occupancy
  Rb  Rb0  1  0.070896  0.429104  0.250000  1
  Rb  Rb1  1  0.429104  0.070896  0.750000  1
  Rb  Rb2  1  0.928325  0.571675  0.750000  1
  Rb  Rb3  1  0.571675  0.928325  0.250000  1
  Rb  Rb4  1  0.676426  0.324115  0.215785  1
  Rb  Rb5  1  0.823574  0.175885  0.715785  1
  Rb  Rb6  1  0.324115  0.676426  0.784215  1
  Rb  Rb7  1  0.175885  0.823574  0.284215  1
  Na  Na8  1  0.382904  0.382904  0.000000  1
  Na  Na9  1  0.117096  0.117096  0.500000  1
  Na  Na10  1  0.617898  0.617898  0.000000  1
  Na  Na11  1  0.882102  0.882102  0.500000  1
  Dy  Dy12  1  0.130031  0.130031  0.000000  1
  Dy  Dy13  1  0.369969  0.369969  0.500000  1
  Lu  Lu14  1  0.869124  0.869124  0.000000  1
  Lu  Lu15  1  0.630876  0.630876  0.500000  1
  Sb  Sb16  1  0.844373  0.655626  0.250000  1
  Sb  Sb17  1  0.655626  0.844373  0.750000  1
  Sb  Sb18  1  0.152167  0.347832  0.750000  1
  Sb  Sb19  1  0.347832  0.152167  0.250000  1
  Sb  Sb20  1  0.897137  0.098241  0.210749  1
  Sb  Sb21  1  0.602863  0.401759  0.710749  1
  Sb  Sb22  1  0.098241  0.897137  0.789251  1
  Sb  Sb23  1  0.401759  0.602863  0.289251  1
