# generated using pymatgen
data_Ba6YTc3O14
_symmetry_space_group_name_H-M   'P 1'
_cell_length_a   11.34165120
_cell_length_b   11.34165098
_cell_length_c   5.86191700
_cell_angle_alpha   90.00000000
_cell_angle_beta   90.00000000
_cell_angle_gamma   149.94361479
_symmetry_Int_Tables_number   1
_chemical_formula_structural   Ba6YTc3O14
_chemical_formula_sum   'Ba6 Y1 Tc3 O14'
_cell_volume   377.66058374
_cell_formula_units_Z   1
loop_
 _symmetry_equiv_pos_site_id
 _symmetry_equiv_pos_as_xyz
  1  'x, y, z'
loop_
 _atom_site_type_symbol
 _atom_site_label
 _atom_site_symmetry_multiplicity
 _atom_site_fract_x
 _atom_site_fract_y
 _atom_site_fract_z
 _atom_site_occupancy
  Ba  Ba0  1  0.502641  0.497359  0.000000  1
  Ba  Ba1  1  0.002713  0.997287  0.500000  1
  Ba  Ba2  1  0.683619  0.316381  0.000000  1
  Ba  Ba3  1  0.182284  0.817716  0.500000  1
  Ba  Ba4  1  0.813529  0.186471  0.500000  1
  Ba  Ba5  1  0.312966  0.687034  0.000000  1
  Y  Y6  1  0.403092  0.596908  0.500000  1
  Tc  Tc7  1  0.905343  0.094657  0.000000  1
  Tc  Tc8  1  0.095480  0.904520  0.000000  1
  Tc  Tc9  1  0.597237  0.402763  0.500000  1
  O  O10  1  0.669546  0.859710  0.765573  1
  O  O11  1  0.140290  0.330454  0.234427  1
  O  O12  1  0.140290  0.330454  0.765573  1
  O  O13  1  0.669546  0.859710  0.234427  1
  O  O14  1  0.844451  0.652573  0.751152  1
  O  O15  1  0.347427  0.155549  0.248848  1
  O  O16  1  0.347427  0.155549  0.751152  1
  O  O17  1  0.844451  0.652573  0.248848  1
  O  O18  1  0.811712  0.188288  0.000000  1
  O  O19  1  0.300583  0.699417  0.500000  1
  O  O20  1  0.690756  0.309244  0.500000  1
  O  O21  1  0.188048  0.811952  0.000000  1
  O  O22  1  0.506115  0.493885  0.500000  1
  O  O23  1  0.000455  0.999545  0.000000  1
