# generated using pymatgen
data_Tb8Sn(Pd5Pt)4
_symmetry_space_group_name_H-M   'P 1'
_cell_length_a   8.43337200
_cell_length_b   8.42999200
_cell_length_c   8.41979900
_cell_angle_alpha   90.00000000
_cell_angle_beta   90.00000000
_cell_angle_gamma   90.00000000
_symmetry_Int_Tables_number   1
_chemical_formula_structural   Tb8Sn(Pd5Pt)4
_chemical_formula_sum   'Tb8 Sn1 Pd20 Pt4'
_cell_volume   598.59094677
_cell_formula_units_Z   1
loop_
 _symmetry_equiv_pos_site_id
 _symmetry_equiv_pos_as_xyz
  1  'x, y, z'
loop_
 _atom_site_type_symbol
 _atom_site_label
 _atom_site_symmetry_multiplicity
 _atom_site_fract_x
 _atom_site_fract_y
 _atom_site_fract_z
 _atom_site_occupancy
  Tb  Tb0  1  0.252558  0.253529  0.252209  1
  Tb  Tb1  1  0.746906  0.746397  0.747576  1
  Tb  Tb2  1  0.746906  0.746397  0.252424  1
  Tb  Tb3  1  0.747442  0.253529  0.747791  1
  Tb  Tb4  1  0.252558  0.253529  0.747791  1
  Tb  Tb5  1  0.253094  0.746397  0.252424  1
  Tb  Tb6  1  0.253094  0.746397  0.747576  1
  Tb  Tb7  1  0.747442  0.253529  0.252209  1
  Sn  Sn8  1  0.000000  0.000648  0.000000  1
  Pd  Pd9  1  0.000000  0.735113  0.500000  1
  Pd  Pd10  1  0.500000  0.735498  0.000000  1
  Pd  Pd11  1  0.500000  0.999879  0.265478  1
  Pd  Pd12  1  0.265473  0.999844  0.500000  1
  Pd  Pd13  1  0.500000  0.999879  0.734522  1
  Pd  Pd14  1  0.734527  0.999844  0.500000  1
  Pd  Pd15  1  0.000000  0.500304  0.265415  1
  Pd  Pd16  1  0.000000  0.500304  0.734585  1
  Pd  Pd17  1  0.254692  0.500058  0.500000  1
  Pd  Pd18  1  0.745308  0.500058  0.500000  1
  Pd  Pd19  1  0.500000  0.254797  0.500000  1
  Pd  Pd20  1  0.500000  0.745142  0.500000  1
  Pd  Pd21  1  0.500000  0.500205  0.254839  1
  Pd  Pd22  1  0.500000  0.500205  0.745161  1
  Pd  Pd23  1  0.308692  0.999725  0.000000  1
  Pd  Pd24  1  0.691308  0.999725  0.000000  1
  Pd  Pd25  1  0.000000  0.308606  0.000000  1
  Pd  Pd26  1  0.000000  0.691763  0.000000  1
  Pd  Pd27  1  0.000000  0.999583  0.308904  1
  Pd  Pd28  1  0.000000  0.999583  0.691096  1
  Pt  Pt29  1  0.264400  0.500147  0.000000  1
  Pt  Pt30  1  0.735600  0.500147  0.000000  1
  Pt  Pt31  1  0.000000  0.264772  0.500000  1
  Pt  Pt32  1  0.500000  0.264466  0.000000  1
