# generated using pymatgen
data_Tb2NpCo2Si7
_symmetry_space_group_name_H-M   'P 1'
_cell_length_a   3.98021265
_cell_length_b   4.01043300
_cell_length_c   12.39212154
_cell_angle_alpha   90.00000000
_cell_angle_beta   99.24140144
_cell_angle_gamma   90.00000000
_symmetry_Int_Tables_number   1
_chemical_formula_structural   Tb2NpCo2Si7
_chemical_formula_sum   'Tb2 Np1 Co2 Si7'
_cell_volume   195.24025607
_cell_formula_units_Z   1
loop_
 _symmetry_equiv_pos_site_id
 _symmetry_equiv_pos_as_xyz
  1  'x, y, z'
loop_
 _atom_site_type_symbol
 _atom_site_label
 _atom_site_symmetry_multiplicity
 _atom_site_fract_x
 _atom_site_fract_y
 _atom_site_fract_z
 _atom_site_occupancy
  Tb  Tb0  1  0.316945  0.000000  0.633890  1
  Tb  Tb1  1  0.683055  0.000000  0.366110  1
  Np  Np2  1  0.000000  0.500000  0.000000  1
  Co  Co3  1  0.128298  0.500000  0.256598  1
  Co  Co4  1  0.871702  0.500000  0.743402  1
  Si  Si5  1  0.500000  0.000000  0.000000  1
  Si  Si6  1  0.414163  0.500000  0.828324  1
  Si  Si7  1  0.585837  0.500000  0.171676  1
  Si  Si8  1  0.085706  0.000000  0.171412  1
  Si  Si9  1  0.914294  0.000000  0.828588  1
  Si  Si10  1  0.221021  0.500000  0.442043  1
  Si  Si11  1  0.778979  0.500000  0.557957  1
