# generated using pymatgen
data_Er2Ti3FeCo8P7
_symmetry_space_group_name_H-M   'P 1'
_cell_length_a   9.16011024
_cell_length_b   9.17580539
_cell_length_c   3.62589700
_cell_angle_alpha   90.00000000
_cell_angle_beta   90.00000000
_cell_angle_gamma   119.90656311
_symmetry_Int_Tables_number   1
_chemical_formula_structural   Er2Ti3FeCo8P7
_chemical_formula_sum   'Er2 Ti3 Fe1 Co8 P7'
_cell_volume   264.17950469
_cell_formula_units_Z   1
loop_
 _symmetry_equiv_pos_site_id
 _symmetry_equiv_pos_as_xyz
  1  'x, y, z'
loop_
 _atom_site_type_symbol
 _atom_site_label
 _atom_site_symmetry_multiplicity
 _atom_site_fract_x
 _atom_site_fract_y
 _atom_site_fract_z
 _atom_site_occupancy
  Er  Er0  1  0.999641  0.000137  0.000000  1
  Er  Er1  1  0.333598  0.666944  0.500000  1
  Ti  Ti2  1  0.890181  0.448993  0.500000  1
  Ti  Ti3  1  0.550327  0.440602  0.500000  1
  Ti  Ti4  1  0.557994  0.111648  0.500000  1
  Fe  Fe5  1  0.385457  0.171944  0.000000  1
  Co  Co6  1  0.095429  0.699923  0.000000  1
  Co  Co7  1  0.300292  0.396845  0.000000  1
  Co  Co8  1  0.606188  0.904428  0.000000  1
  Co  Co9  1  0.827834  0.213736  0.000000  1
  Co  Co10  1  0.787083  0.614774  0.000000  1
  Co  Co11  1  0.056521  0.281564  0.500000  1
  Co  Co12  1  0.717897  0.774605  0.500000  1
  Co  Co13  1  0.224644  0.941264  0.500000  1
  P  P14  1  0.085706  0.444128  0.000000  1
  P  P15  1  0.556014  0.641462  0.000000  1
  P  P16  1  0.359091  0.915547  0.000000  1
  P  P17  1  0.790969  0.046124  0.500000  1
  P  P18  1  0.954236  0.745383  0.500000  1
  P  P19  1  0.255521  0.206439  0.500000  1
  P  P20  1  0.665379  0.333509  0.000000  1
