# generated using pymatgen
data_Ag3BiIr3RuO14
_symmetry_space_group_name_H-M   'P 1'
_cell_length_a   7.27489981
_cell_length_b   7.21514865
_cell_length_c   7.21514800
_cell_angle_alpha   60.00000298
_cell_angle_beta   60.27132787
_cell_angle_gamma   60.27133216
_symmetry_Int_Tables_number   1
_chemical_formula_structural   Ag3BiIr3RuO14
_chemical_formula_sum   'Ag3 Bi1 Ir3 Ru1 O14'
_cell_volume   268.88807498
_cell_formula_units_Z   1
loop_
 _symmetry_equiv_pos_site_id
 _symmetry_equiv_pos_as_xyz
  1  'x, y, z'
loop_
 _atom_site_type_symbol
 _atom_site_label
 _atom_site_symmetry_multiplicity
 _atom_site_fract_x
 _atom_site_fract_y
 _atom_site_fract_z
 _atom_site_occupancy
  Ag  Ag0  1  0.125000  0.125000  0.625000  1
  Ag  Ag1  1  0.125000  0.625000  0.125000  1
  Ag  Ag2  1  0.125000  0.125000  0.125000  1
  Bi  Bi3  1  0.625000  0.125000  0.125000  1
  Ir  Ir4  1  0.625000  0.625000  0.125000  1
  Ir  Ir5  1  0.625000  0.125000  0.625000  1
  Ir  Ir6  1  0.625000  0.625000  0.625000  1
  Ru  Ru7  1  0.125000  0.625000  0.625000  1
  O  O8  1  0.236075  0.254641  0.254641  1
  O  O9  1  0.013925  0.995359  0.995359  1
  O  O10  1  0.552862  0.954589  0.537959  1
  O  O11  1  0.310648  0.691921  0.305511  1
  O  O12  1  0.552862  0.537959  0.954589  1
  O  O13  1  0.939352  0.558079  0.558079  1
  O  O14  1  0.552862  0.954589  0.954589  1
  O  O15  1  0.939352  0.944489  0.558079  1
  O  O16  1  0.939352  0.558079  0.944489  1
  O  O17  1  0.697138  0.295411  0.295411  1
  O  O18  1  0.310648  0.691921  0.691921  1
  O  O19  1  0.697138  0.295411  0.712041  1
  O  O20  1  0.310648  0.305511  0.691921  1
  O  O21  1  0.697138  0.712041  0.295411  1
