# generated using pymatgen
data_Na3La(NdTe2)4
_symmetry_space_group_name_H-M   'P 1'
_cell_length_a   9.09089742
_cell_length_b   9.09089786
_cell_length_c   9.11107595
_cell_angle_alpha   60.07323088
_cell_angle_beta   60.07322851
_cell_angle_gamma   59.99999583
_symmetry_Int_Tables_number   1
_chemical_formula_structural   Na3La(NdTe2)4
_chemical_formula_sum   'Na3 La1 Nd4 Te8'
_cell_volume   533.02553121
_cell_formula_units_Z   1
loop_
 _symmetry_equiv_pos_site_id
 _symmetry_equiv_pos_as_xyz
  1  'x, y, z'
loop_
 _atom_site_type_symbol
 _atom_site_label
 _atom_site_symmetry_multiplicity
 _atom_site_fract_x
 _atom_site_fract_y
 _atom_site_fract_z
 _atom_site_occupancy
  Na  Na0  1  0.125000  0.625000  0.125000  1
  Na  Na1  1  0.625000  0.125000  0.125000  1
  Na  Na2  1  0.125000  0.125000  0.125000  1
  La  La3  1  0.125000  0.125000  0.625000  1
  Nd  Nd4  1  0.625000  0.125000  0.625000  1
  Nd  Nd5  1  0.625000  0.625000  0.625000  1
  Nd  Nd6  1  0.125000  0.625000  0.625000  1
  Nd  Nd7  1  0.625000  0.625000  0.125000  1
  Te  Te8  1  0.376769  0.870922  0.375539  1
  Te  Te9  1  0.873231  0.379078  0.874461  1
  Te  Te10  1  0.872850  0.872850  0.381451  1
  Te  Te11  1  0.873231  0.873231  0.874461  1
  Te  Te12  1  0.870922  0.376769  0.375539  1
  Te  Te13  1  0.377150  0.377150  0.868549  1
  Te  Te14  1  0.376769  0.376769  0.375539  1
  Te  Te15  1  0.379078  0.873231  0.874461  1
