# generated using pymatgen
data_La2YbThPt4
_symmetry_space_group_name_H-M   'P 1'
_cell_length_a   4.56318100
_cell_length_b   5.81592067
_cell_length_c   7.44656027
_cell_angle_alpha   88.62748710
_cell_angle_beta   90.00000000
_cell_angle_gamma   90.00000000
_symmetry_Int_Tables_number   1
_chemical_formula_structural   La2YbThPt4
_chemical_formula_sum   'La2 Yb1 Th1 Pt4'
_cell_volume   197.56829866
_cell_formula_units_Z   1
loop_
 _symmetry_equiv_pos_site_id
 _symmetry_equiv_pos_as_xyz
  1  'x, y, z'
loop_
 _atom_site_type_symbol
 _atom_site_label
 _atom_site_symmetry_multiplicity
 _atom_site_fract_x
 _atom_site_fract_y
 _atom_site_fract_z
 _atom_site_occupancy
  La  La0  1  0.750000  0.640436  0.323946  1
  La  La1  1  0.750000  0.854743  0.813845  1
  Yb  Yb2  1  0.250000  0.355484  0.684419  1
  Th  Th3  1  0.250000  0.144023  0.180748  1
  Pt  Pt4  1  0.750000  0.155008  0.443155  1
  Pt  Pt5  1  0.250000  0.853069  0.540608  1
  Pt  Pt6  1  0.250000  0.663551  0.049631  1
  Pt  Pt7  1  0.750000  0.333685  0.963647  1
