# generated using pymatgen
data_Ce4Cd2Ir3Pt
_symmetry_space_group_name_H-M   'P 1'
_cell_length_a   7.76297629
_cell_length_b   7.76297629
_cell_length_c   3.71209700
_cell_angle_alpha   90.00000000
_cell_angle_beta   90.00000000
_cell_angle_gamma   90.26201316
_symmetry_Int_Tables_number   1
_chemical_formula_structural   Ce4Cd2Ir3Pt
_chemical_formula_sum   'Ce4 Cd2 Ir3 Pt1'
_cell_volume   223.70273552
_cell_formula_units_Z   1
loop_
 _symmetry_equiv_pos_site_id
 _symmetry_equiv_pos_as_xyz
  1  'x, y, z'
loop_
 _atom_site_type_symbol
 _atom_site_label
 _atom_site_symmetry_multiplicity
 _atom_site_fract_x
 _atom_site_fract_y
 _atom_site_fract_z
 _atom_site_occupancy
  Ce  Ce0  1  0.160478  0.339522  0.500000  1
  Ce  Ce1  1  0.333353  0.823950  0.500000  1
  Ce  Ce2  1  0.829641  0.670359  0.500000  1
  Ce  Ce3  1  0.676050  0.166647  0.500000  1
  Cd  Cd4  1  0.500657  0.499529  0.000000  1
  Cd  Cd5  1  0.000471  0.999343  0.000000  1
  Ir  Ir6  1  0.633949  0.866051  0.000000  1
  Ir  Ir7  1  0.134931  0.635424  0.000000  1
  Ir  Ir8  1  0.864576  0.365069  0.000000  1
  Pt  Pt9  1  0.365895  0.134105  0.000000  1
