# generated using pymatgen
data_Ho13Er3Mg2(InIr2)2
_symmetry_space_group_name_H-M   'P 1'
_cell_length_a   9.63642627
_cell_length_b   9.63668549
_cell_length_c   9.66594660
_cell_angle_alpha   59.88059937
_cell_angle_beta   59.85867209
_cell_angle_gamma   59.72307589
_symmetry_Int_Tables_number   1
_chemical_formula_structural   Ho13Er3Mg2(InIr2)2
_chemical_formula_sum   'Ho13 Er3 Mg2 In2 Ir4'
_cell_volume   632.12197980
_cell_formula_units_Z   1
loop_
 _symmetry_equiv_pos_site_id
 _symmetry_equiv_pos_as_xyz
  1  'x, y, z'
loop_
 _atom_site_type_symbol
 _atom_site_label
 _atom_site_symmetry_multiplicity
 _atom_site_fract_x
 _atom_site_fract_y
 _atom_site_fract_z
 _atom_site_occupancy
  Ho  Ho0  1  0.061276  0.439130  0.061548  1
  Ho  Ho1  1  0.190160  0.810525  0.809836  1
  Ho  Ho2  1  0.061946  0.438610  0.436883  1
  Ho  Ho3  1  0.811324  0.189582  0.190138  1
  Ho  Ho4  1  0.651862  0.651933  0.651560  1
  Ho  Ho5  1  0.810537  0.190181  0.809611  1
  Ho  Ho6  1  0.186891  0.186735  0.814387  1
  Ho  Ho7  1  0.042906  0.652004  0.651937  1
  Ho  Ho8  1  0.439000  0.061224  0.061659  1
  Ho  Ho9  1  0.061157  0.061011  0.438780  1
  Ho  Ho10  1  0.651909  0.042786  0.652186  1
  Ho  Ho11  1  0.807956  0.807783  0.192674  1
  Ho  Ho12  1  0.438473  0.061906  0.436954  1
  Er  Er13  1  0.437218  0.437395  0.062365  1
  Er  Er14  1  0.650985  0.651327  0.045727  1
  Er  Er15  1  0.189698  0.811129  0.190142  1
  Mg  Mg16  1  0.423134  0.423251  0.419663  1
  Mg  Mg17  1  0.423011  0.423007  0.734536  1
  In  In18  1  0.417005  0.747022  0.418099  1
  In  In19  1  0.746986  0.417061  0.418112  1
  Ir  Ir20  1  0.423722  0.856647  0.860228  1
  Ir  Ir21  1  0.857556  0.857603  0.859959  1
  Ir  Ir22  1  0.856710  0.424021  0.859775  1
  Ir  Ir23  1  0.858579  0.858129  0.423240  1
