# generated using pymatgen
data_Dy3Lu(OsO4)4
_symmetry_space_group_name_H-M   'P 1'
_cell_length_a   5.34483039
_cell_length_b   7.41956259
_cell_length_c   7.66433957
_cell_angle_alpha   80.16281397
_cell_angle_beta   86.33478552
_cell_angle_gamma   89.03893618
_symmetry_Int_Tables_number   1
_chemical_formula_structural   Dy3Lu(OsO4)4
_chemical_formula_sum   'Dy3 Lu1 Os4 O16'
_cell_volume   298.85279924
_cell_formula_units_Z   1
loop_
 _symmetry_equiv_pos_site_id
 _symmetry_equiv_pos_as_xyz
  1  'x, y, z'
loop_
 _atom_site_type_symbol
 _atom_site_label
 _atom_site_symmetry_multiplicity
 _atom_site_fract_x
 _atom_site_fract_y
 _atom_site_fract_z
 _atom_site_occupancy
  Dy  Dy0  1  0.304284  0.104009  0.669484  1
  Dy  Dy1  1  0.761027  0.387468  0.379756  1
  Dy  Dy2  1  0.237682  0.612499  0.618373  1
  Lu  Lu3  1  0.695344  0.892829  0.330810  1
  Os  Os4  1  0.784448  0.300735  0.835541  1
  Os  Os5  1  0.213790  0.700573  0.164541  1
  Os  Os6  1  0.254702  0.203293  0.164898  1
  Os  Os7  1  0.743078  0.795339  0.835903  1
  O  O8  1  0.899585  0.800575  0.063413  1
  O  O9  1  0.095986  0.200419  0.939498  1
  O  O10  1  0.355114  0.944035  0.175847  1
  O  O11  1  0.653920  0.055619  0.824406  1
  O  O12  1  0.114791  0.447231  0.177023  1
  O  O13  1  0.885494  0.552094  0.826326  1
  O  O14  1  0.562296  0.294837  0.039502  1
  O  O15  1  0.433652  0.705963  0.959709  1
  O  O16  1  0.007660  0.322831  0.607490  1
  O  O17  1  0.990841  0.683976  0.390915  1
  O  O18  1  0.450102  0.173883  0.386779  1
  O  O19  1  0.555139  0.825579  0.608801  1
  O  O20  1  0.479686  0.620576  0.334134  1
  O  O21  1  0.522392  0.383150  0.664614  1
  O  O22  1  0.947725  0.121962  0.299544  1
  O  O23  1  0.051262  0.870522  0.702693  1
