# generated using pymatgen
data_La7Sm5(SiBr3)4
_symmetry_space_group_name_H-M   'P 1'
_cell_length_a   10.54362670
_cell_length_b   10.47166078
_cell_length_c   10.54362646
_cell_angle_alpha   109.32864818
_cell_angle_beta   109.75340057
_cell_angle_gamma   109.32864260
_symmetry_Int_Tables_number   1
_chemical_formula_structural   La7Sm5(SiBr3)4
_chemical_formula_sum   'La7 Sm5 Si4 Br12'
_cell_volume   896.15607597
_cell_formula_units_Z   1
loop_
 _symmetry_equiv_pos_site_id
 _symmetry_equiv_pos_as_xyz
  1  'x, y, z'
loop_
 _atom_site_type_symbol
 _atom_site_label
 _atom_site_symmetry_multiplicity
 _atom_site_fract_x
 _atom_site_fract_y
 _atom_site_fract_z
 _atom_site_occupancy
  La  La0  1  0.240385  0.481076  0.489405  1
  La  La1  1  0.010595  0.018924  0.259615  1
  La  La2  1  0.010486  0.492177  0.748553  1
  La  La3  1  0.493757  0.242537  0.481117  1
  La  La4  1  0.751447  0.007823  0.489514  1
  La  La5  1  0.018883  0.257463  0.006243  1
  La  La6  1  0.260124  0.750000  0.239876  1
  Sm  Sm7  1  0.485171  0.750000  0.014829  1
  Sm  Sm8  1  0.750165  0.234501  0.263537  1
  Sm  Sm9  1  0.236463  0.265499  0.749835  1
  Sm  Sm10  1  0.470640  0.482862  0.231558  1
  Sm  Sm11  1  0.268442  0.017138  0.029360  1
  Si  Si12  1  0.251005  0.250000  0.248995  1
  Si  Si13  1  0.000384  0.250000  0.499616  1
  Si  Si14  1  0.250086  0.499720  0.998652  1
  Si  Si15  1  0.501348  0.000280  0.249914  1
  Br  Br16  1  0.012227  0.994822  0.748629  1
  Br  Br17  1  0.742757  0.736382  0.239534  1
  Br  Br18  1  0.995734  0.753147  0.990106  1
  Br  Br19  1  0.253087  0.001653  0.512843  1
  Br  Br20  1  0.737622  0.995569  0.994570  1
  Br  Br21  1  0.500042  0.250000  0.999958  1
  Br  Br22  1  0.744834  0.250000  0.755166  1
  Br  Br23  1  0.509894  0.746853  0.504266  1
  Br  Br24  1  0.751371  0.505178  0.487773  1
  Br  Br25  1  0.260466  0.763618  0.757243  1
  Br  Br26  1  0.505430  0.504431  0.762378  1
  Br  Br27  1  0.987157  0.498347  0.246913  1
