# generated using pymatgen
data_Mn5Nb12Si7N4
_symmetry_space_group_name_H-M   'P 1'
_cell_length_a   8.06047613
_cell_length_b   8.06047690
_cell_length_c   8.06047585
_cell_angle_alpha   60.21354736
_cell_angle_beta   60.21354188
_cell_angle_gamma   60.21354374
_symmetry_Int_Tables_number   1
_chemical_formula_structural   Mn5Nb12Si7N4
_chemical_formula_sum   'Mn5 Nb12 Si7 N4'
_cell_volume   372.10189479
_cell_formula_units_Z   1
loop_
 _symmetry_equiv_pos_site_id
 _symmetry_equiv_pos_as_xyz
  1  'x, y, z'
loop_
 _atom_site_type_symbol
 _atom_site_label
 _atom_site_symmetry_multiplicity
 _atom_site_fract_x
 _atom_site_fract_y
 _atom_site_fract_z
 _atom_site_occupancy
  Mn  Mn0  1  0.131732  0.622495  0.622495  1
  Mn  Mn1  1  0.622495  0.131732  0.622495  1
  Mn  Mn2  1  0.622495  0.622495  0.131732  1
  Mn  Mn3  1  0.623824  0.623824  0.623824  1
  Mn  Mn4  1  0.824983  0.824983  0.824983  1
  Nb  Nb5  1  0.802634  0.802634  0.197299  1
  Nb  Nb6  1  0.196310  0.196310  0.803553  1
  Nb  Nb7  1  0.802634  0.197299  0.802634  1
  Nb  Nb8  1  0.196310  0.803553  0.196310  1
  Nb  Nb9  1  0.197299  0.802634  0.802634  1
  Nb  Nb10  1  0.803553  0.196310  0.196310  1
  Nb  Nb11  1  0.446708  0.446708  0.054298  1
  Nb  Nb12  1  0.053952  0.053952  0.447127  1
  Nb  Nb13  1  0.446708  0.054298  0.446708  1
  Nb  Nb14  1  0.053952  0.447127  0.053952  1
  Nb  Nb15  1  0.054298  0.446708  0.446708  1
  Nb  Nb16  1  0.447127  0.053952  0.053952  1
  Si  Si17  1  0.752517  0.416263  0.416263  1
  Si  Si18  1  0.416263  0.752517  0.416263  1
  Si  Si19  1  0.416263  0.416263  0.752517  1
  Si  Si20  1  0.415656  0.415656  0.415656  1
  Si  Si21  1  0.504665  0.834191  0.834191  1
  Si  Si22  1  0.834191  0.504665  0.834191  1
  Si  Si23  1  0.834191  0.834191  0.504665  1
  N  N24  1  0.628487  0.123085  0.123085  1
  N  N25  1  0.123085  0.628487  0.123085  1
  N  N26  1  0.123085  0.123085  0.628487  1
  N  N27  1  0.124583  0.124583  0.124583  1
