# generated using pymatgen
data_Lu8Ti6Nb5Si16Mo
_symmetry_space_group_name_H-M   'P 1'
_cell_length_a   6.80597177
_cell_length_b   6.96669938
_cell_length_c   13.22982101
_cell_angle_alpha   90.03731405
_cell_angle_beta   89.93989716
_cell_angle_gamma   89.91548676
_symmetry_Int_Tables_number   1
_chemical_formula_structural   Lu8Ti6Nb5Si16Mo
_chemical_formula_sum   'Lu8 Ti6 Nb5 Si16 Mo1'
_cell_volume   627.29290982
_cell_formula_units_Z   1
loop_
 _symmetry_equiv_pos_site_id
 _symmetry_equiv_pos_as_xyz
  1  'x, y, z'
loop_
 _atom_site_type_symbol
 _atom_site_label
 _atom_site_symmetry_multiplicity
 _atom_site_fract_x
 _atom_site_fract_y
 _atom_site_fract_z
 _atom_site_occupancy
  Lu  Lu0  1  0.503194  0.327351  0.096240  1
  Lu  Lu1  1  0.001637  0.173312  0.403754  1
  Lu  Lu2  1  0.496407  0.673092  0.595704  1
  Lu  Lu3  1  0.997528  0.827214  0.902853  1
  Lu  Lu4  1  0.497663  0.671929  0.902508  1
  Lu  Lu5  1  0.998782  0.827791  0.595927  1
  Lu  Lu6  1  0.501861  0.326526  0.405938  1
  Lu  Lu7  1  0.003027  0.173428  0.096324  1
  Ti  Ti8  1  0.836291  0.324754  0.624777  1
  Ti  Ti9  1  0.334651  0.174348  0.873596  1
  Ti  Ti10  1  0.164401  0.675460  0.126531  1
  Ti  Ti11  1  0.662089  0.826526  0.374410  1
  Ti  Ti12  1  0.163486  0.676363  0.375026  1
  Ti  Ti13  1  0.663256  0.824005  0.126944  1
  Nb  Nb14  1  0.836301  0.323926  0.872292  1
  Nb  Nb15  1  0.663425  0.008858  0.748856  1
  Nb  Nb16  1  0.163693  0.491444  0.749048  1
  Nb  Nb17  1  0.336325  0.993257  0.250179  1
  Nb  Nb18  1  0.837324  0.508717  0.250654  1
  Si  Si19  1  0.659504  0.036640  0.541196  1
  Si  Si20  1  0.163492  0.463812  0.960105  1
  Si  Si21  1  0.339031  0.963152  0.040682  1
  Si  Si22  1  0.838893  0.536483  0.459070  1
  Si  Si23  1  0.335630  0.963086  0.460969  1
  Si  Si24  1  0.838366  0.538540  0.041324  1
  Si  Si25  1  0.661710  0.034690  0.960015  1
  Si  Si26  1  0.164408  0.460897  0.541106  1
  Si  Si27  1  0.538374  0.377138  0.747897  1
  Si  Si28  1  0.042602  0.120747  0.748290  1
  Si  Si29  1  0.459270  0.623450  0.250624  1
  Si  Si30  1  0.959607  0.876970  0.250719  1
  Si  Si31  1  0.794333  0.628775  0.748447  1
  Si  Si32  1  0.295830  0.871999  0.750061  1
  Si  Si33  1  0.206215  0.372409  0.250813  1
  Si  Si34  1  0.705326  0.128652  0.249937  1
  Mo  Mo35  1  0.336068  0.174261  0.627186  1
