# generated using pymatgen
data_Er8Lu12Ga7Si9
_symmetry_space_group_name_H-M   'P 1'
_cell_length_a   7.32318780
_cell_length_b   7.57420903
_cell_length_c   14.58143900
_cell_angle_alpha   90.00223912
_cell_angle_beta   89.89713150
_cell_angle_gamma   90.00438391
_symmetry_Int_Tables_number   1
_chemical_formula_structural   Er8Lu12Ga7Si9
_chemical_formula_sum   'Er8 Lu12 Ga7 Si9'
_cell_volume   808.79254937
_cell_formula_units_Z   1
loop_
 _symmetry_equiv_pos_site_id
 _symmetry_equiv_pos_as_xyz
  1  'x, y, z'
loop_
 _atom_site_type_symbol
 _atom_site_label
 _atom_site_symmetry_multiplicity
 _atom_site_fract_x
 _atom_site_fract_y
 _atom_site_fract_z
 _atom_site_occupancy
  Er  Er0  1  0.015381  0.176061  0.098659  1
  Er  Er1  1  0.985667  0.820328  0.901381  1
  Er  Er2  1  0.485473  0.679368  0.901796  1
  Er  Er3  1  0.986611  0.821469  0.599844  1
  Er  Er4  1  0.513518  0.320539  0.098863  1
  Er  Er5  1  0.012829  0.177993  0.399888  1
  Er  Er6  1  0.513063  0.321085  0.399612  1
  Er  Er7  1  0.487016  0.678706  0.599482  1
  Lu  Lu8  1  0.163632  0.507966  0.750005  1
  Lu  Lu9  1  0.837158  0.492869  0.249662  1
  Lu  Lu10  1  0.336703  0.007433  0.249402  1
  Lu  Lu11  1  0.662545  0.993262  0.749733  1
  Lu  Lu12  1  0.329178  0.174044  0.624297  1
  Lu  Lu13  1  0.669767  0.826137  0.375192  1
  Lu  Lu14  1  0.170050  0.673932  0.375217  1
  Lu  Lu15  1  0.669911  0.824236  0.124681  1
  Lu  Lu16  1  0.829868  0.326099  0.624436  1
  Lu  Lu17  1  0.329120  0.174885  0.876895  1
  Lu  Lu18  1  0.828402  0.326796  0.876198  1
  Lu  Lu19  1  0.172276  0.676100  0.123390  1
  Ga  Ga20  1  0.160919  0.467677  0.539505  1
  Ga  Ga21  1  0.838675  0.532369  0.460064  1
  Ga  Ga22  1  0.338596  0.966969  0.460176  1
  Ga  Ga23  1  0.839343  0.533667  0.040373  1
  Ga  Ga24  1  0.660937  0.032875  0.539294  1
  Ga  Ga25  1  0.160410  0.466673  0.960898  1
  Ga  Ga26  1  0.660375  0.034326  0.961421  1
  Si  Si27  1  0.031881  0.105492  0.751208  1
  Si  Si28  1  0.967655  0.893185  0.249334  1
  Si  Si29  1  0.466997  0.605228  0.249135  1
  Si  Si30  1  0.532599  0.393913  0.750333  1
  Si  Si31  1  0.280218  0.873513  0.751220  1
  Si  Si32  1  0.719845  0.126942  0.248682  1
  Si  Si33  1  0.218895  0.371802  0.248969  1
  Si  Si34  1  0.780381  0.627793  0.750605  1
  Si  Si35  1  0.344104  0.968268  0.040147  1
