# generated using pymatgen
data_CsZnPdF5
_symmetry_space_group_name_H-M   'P 1'
_cell_length_a   7.42469375
_cell_length_b   7.42469413
_cell_length_c   7.42469424
_cell_angle_alpha   126.13914099
_cell_angle_beta   118.11869167
_cell_angle_gamma   86.50003792
_symmetry_Int_Tables_number   1
_chemical_formula_structural   CsZnPdF5
_chemical_formula_sum   'Cs2 Zn2 Pd2 F10'
_cell_volume   277.68232237
_cell_formula_units_Z   2
loop_
 _symmetry_equiv_pos_site_id
 _symmetry_equiv_pos_as_xyz
  1  'x, y, z'
loop_
 _atom_site_type_symbol
 _atom_site_label
 _atom_site_symmetry_multiplicity
 _atom_site_fract_x
 _atom_site_fract_y
 _atom_site_fract_z
 _atom_site_occupancy
  Cs  Cs0  1  0.869074  0.619074  0.250000  1
  Cs  Cs1  1  0.130926  0.380926  0.750000  1
  Zn  Zn2  1  0.000000  0.000000  0.000000  1
  Zn  Zn3  1  0.500000  0.000000  0.500000  1
  Pd  Pd4  1  0.500000  0.000000  0.000000  1
  Pd  Pd5  1  0.500000  0.500000  0.500000  1
  F  F6  1  0.442019  0.650856  0.334789  1
  F  F7  1  0.557981  0.892771  0.208837  1
  F  F8  1  0.183932  0.349144  0.291163  1
  F  F9  1  0.816068  0.107229  0.165211  1
  F  F10  1  0.557981  0.349144  0.665211  1
  F  F11  1  0.442019  0.107229  0.791163  1
  F  F12  1  0.820346  0.070346  0.750000  1
  F  F13  1  0.179654  0.929654  0.250000  1
  F  F14  1  0.183932  0.892771  0.834789  1
  F  F15  1  0.816068  0.650856  0.708837  1
