# generated using pymatgen
data_Ce4Fe2B6Au
_symmetry_space_group_name_H-M   'P 1'
_cell_length_a   5.24319743
_cell_length_b   5.24319702
_cell_length_c   8.27725120
_cell_angle_alpha   71.53511795
_cell_angle_beta   71.53511997
_cell_angle_gamma   59.99999143
_symmetry_Int_Tables_number   1
_chemical_formula_structural   Ce4Fe2B6Au
_chemical_formula_sum   'Ce4 Fe2 B6 Au1'
_cell_volume   183.41310109
_cell_formula_units_Z   1
loop_
 _symmetry_equiv_pos_site_id
 _symmetry_equiv_pos_as_xyz
  1  'x, y, z'
loop_
 _atom_site_type_symbol
 _atom_site_label
 _atom_site_symmetry_multiplicity
 _atom_site_fract_x
 _atom_site_fract_y
 _atom_site_fract_z
 _atom_site_occupancy
  Ce  Ce0  1  0.255799  0.255799  0.232602  1
  Ce  Ce1  1  0.744201  0.744201  0.767398  1
  Ce  Ce2  1  0.411044  0.411044  0.766869  1
  Ce  Ce3  1  0.588956  0.588956  0.233132  1
  Fe  Fe4  1  0.116537  0.116537  0.650391  1
  Fe  Fe5  1  0.883463  0.883463  0.349609  1
  B  B6  1  0.168299  0.831701  0.500000  1
  B  B7  1  0.831701  0.500000  0.500000  1
  B  B8  1  0.500000  0.168299  0.500000  1
  B  B9  1  0.168299  0.500000  0.500000  1
  B  B10  1  0.500000  0.831701  0.500000  1
  B  B11  1  0.831701  0.168299  0.500000  1
  Au  Au12  1  0.000000  0.000000  0.000000  1
