# generated using pymatgen
data_LiGd3S4
_symmetry_space_group_name_H-M   'P 1'
_cell_length_a   3.94035600
_cell_length_b   5.57702800
_cell_length_c   7.86792300
_cell_angle_alpha   90.00000000
_cell_angle_beta   90.00000000
_cell_angle_gamma   90.00000000
_symmetry_Int_Tables_number   1
_chemical_formula_structural   LiGd3S4
_chemical_formula_sum   'Li1 Gd3 S4'
_cell_volume   172.90135103
_cell_formula_units_Z   1
loop_
 _symmetry_equiv_pos_site_id
 _symmetry_equiv_pos_as_xyz
  1  'x, y, z'
loop_
 _atom_site_type_symbol
 _atom_site_label
 _atom_site_symmetry_multiplicity
 _atom_site_fract_x
 _atom_site_fract_y
 _atom_site_fract_z
 _atom_site_occupancy
  Li  Li0  1  0.000000  0.000000  0.000000  1
  Gd  Gd1  1  0.500000  0.500000  0.248562  1
  Gd  Gd2  1  0.000000  0.000000  0.500000  1
  Gd  Gd3  1  0.500000  0.500000  0.751438  1
  S  S4  1  0.000000  0.500000  0.500000  1
  S  S5  1  0.500000  0.000000  0.755562  1
  S  S6  1  0.000000  0.500000  0.000000  1
  S  S7  1  0.500000  0.000000  0.244438  1
