# generated using pymatgen
data_Tb5Co16(P4Os)3
_symmetry_space_group_name_H-M   'P 1'
_cell_length_a   12.02793000
_cell_length_b   12.02793006
_cell_length_c   3.72756000
_cell_angle_alpha   90.00000000
_cell_angle_beta   90.00000000
_cell_angle_gamma   119.99999985
_symmetry_Int_Tables_number   1
_chemical_formula_structural   Tb5Co16(P4Os)3
_chemical_formula_sum   'Tb5 Co16 P12 Os3'
_cell_volume   467.02170067
_cell_formula_units_Z   1
loop_
 _symmetry_equiv_pos_site_id
 _symmetry_equiv_pos_as_xyz
  1  'x, y, z'
loop_
 _atom_site_type_symbol
 _atom_site_label
 _atom_site_symmetry_multiplicity
 _atom_site_fract_x
 _atom_site_fract_y
 _atom_site_fract_z
 _atom_site_occupancy
  Tb  Tb0  1  0.666667  0.333333  0.000000  1
  Tb  Tb1  1  0.333333  0.666667  0.000000  1
  Tb  Tb2  1  0.815002  0.815002  0.500000  1
  Tb  Tb3  1  0.184998  0.000000  0.500000  1
  Tb  Tb4  1  0.000000  0.184998  0.500000  1
  Co  Co5  1  0.874765  0.359537  0.500000  1
  Co  Co6  1  0.640463  0.515228  0.500000  1
  Co  Co7  1  0.484772  0.125235  0.500000  1
  Co  Co8  1  0.359537  0.874765  0.500000  1
  Co  Co9  1  0.515228  0.640463  0.500000  1
  Co  Co10  1  0.125235  0.484772  0.500000  1
  Co  Co11  1  0.803152  0.179942  0.000000  1
  Co  Co12  1  0.820058  0.623210  0.000000  1
  Co  Co13  1  0.376790  0.196848  0.000000  1
  Co  Co14  1  0.179942  0.803152  0.000000  1
  Co  Co15  1  0.623210  0.820058  0.000000  1
  Co  Co16  1  0.196848  0.376790  0.000000  1
  Co  Co17  1  0.283735  0.283735  0.500000  1
  Co  Co18  1  0.716265  0.000000  0.500000  1
  Co  Co19  1  0.000000  0.716265  0.500000  1
  Co  Co20  1  0.000000  0.000000  0.000000  1
  P  P21  1  0.687813  0.166043  0.500000  1
  P  P22  1  0.833957  0.521770  0.500000  1
  P  P23  1  0.478230  0.312187  0.500000  1
  P  P24  1  0.166043  0.687813  0.500000  1
  P  P25  1  0.521770  0.833957  0.500000  1
  P  P26  1  0.312187  0.478230  0.500000  1
  P  P27  1  0.179795  0.179795  0.000000  1
  P  P28  1  0.820205  0.000000  0.000000  1
  P  P29  1  0.000000  0.820205  0.000000  1
  P  P30  1  0.636965  0.636965  0.000000  1
  P  P31  1  0.363035  0.000000  0.000000  1
  P  P32  1  0.000000  0.363035  0.000000  1
  Os  Os33  1  0.446015  0.446015  0.000000  1
  Os  Os34  1  0.553985  0.000000  0.000000  1
  Os  Os35  1  0.000000  0.553985  0.000000  1
