# generated using pymatgen
data_AcErZn4CdSn
_symmetry_space_group_name_H-M   'P 1'
_cell_length_a   8.75766053
_cell_length_b   8.75766112
_cell_length_c   9.33062000
_cell_angle_alpha   90.00000000
_cell_angle_beta   90.00000000
_cell_angle_gamma   150.16766785
_symmetry_Int_Tables_number   1
_chemical_formula_structural   AcErZn4CdSn
_chemical_formula_sum   'Ac2 Er2 Zn8 Cd2 Sn2'
_cell_volume   355.99838054
_cell_formula_units_Z   2
loop_
 _symmetry_equiv_pos_site_id
 _symmetry_equiv_pos_as_xyz
  1  'x, y, z'
loop_
 _atom_site_type_symbol
 _atom_site_label
 _atom_site_symmetry_multiplicity
 _atom_site_fract_x
 _atom_site_fract_y
 _atom_site_fract_z
 _atom_site_occupancy
  Ac  Ac0  1  0.000000  0.000000  0.500000  1
  Ac  Ac1  1  0.000000  0.000000  0.000000  1
  Er  Er2  1  0.206500  0.793500  0.250000  1
  Er  Er3  1  0.793500  0.206500  0.750000  1
  Zn  Zn4  1  0.810258  0.189742  0.389309  1
  Zn  Zn5  1  0.189742  0.810258  0.610691  1
  Zn  Zn6  1  0.810258  0.189742  0.110691  1
  Zn  Zn7  1  0.189742  0.810258  0.889309  1
  Zn  Zn8  1  0.665142  0.334858  0.480036  1
  Zn  Zn9  1  0.334858  0.665142  0.519964  1
  Zn  Zn10  1  0.665142  0.334858  0.019964  1
  Zn  Zn11  1  0.334858  0.665142  0.980036  1
  Cd  Cd12  1  0.397220  0.602780  0.250000  1
  Cd  Cd13  1  0.602780  0.397220  0.750000  1
  Sn  Sn14  1  0.569122  0.430878  0.250000  1
  Sn  Sn15  1  0.430878  0.569122  0.750000  1
