# generated using pymatgen
data_Pa4Ga4Ge2Os7
_symmetry_space_group_name_H-M   'P 1'
_cell_length_a   7.28215529
_cell_length_b   7.28215552
_cell_length_c   7.28226399
_cell_angle_alpha   109.54508875
_cell_angle_beta   109.54509032
_cell_angle_gamma   109.32297675
_symmetry_Int_Tables_number   1
_chemical_formula_structural   Pa4Ga4Ge2Os7
_chemical_formula_sum   'Pa4 Ga4 Ge2 Os7'
_cell_volume   297.27986514
_cell_formula_units_Z   1
loop_
 _symmetry_equiv_pos_site_id
 _symmetry_equiv_pos_as_xyz
  1  'x, y, z'
loop_
 _atom_site_type_symbol
 _atom_site_label
 _atom_site_symmetry_multiplicity
 _atom_site_fract_x
 _atom_site_fract_y
 _atom_site_fract_z
 _atom_site_occupancy
  Pa  Pa0  1  0.001235  0.001235  0.507411  1
  Pa  Pa1  1  0.001536  0.501536  0.003071  1
  Pa  Pa2  1  0.501536  0.001536  0.003071  1
  Pa  Pa3  1  0.506177  0.506177  0.507411  1
  Ga  Ga4  1  0.693634  0.693634  0.004716  1
  Ga  Ga5  1  0.302817  0.002688  0.305505  1
  Ga  Ga6  1  0.002688  0.302817  0.305505  1
  Ga  Ga7  1  0.311082  0.311082  0.004716  1
  Ge  Ge8  1  0.685961  0.002641  0.688601  1
  Ge  Ge9  1  0.002641  0.685961  0.688601  1
  Os  Os10  1  0.749334  0.249334  0.498668  1
  Os  Os11  1  0.751325  0.499112  0.250437  1
  Os  Os12  1  0.499286  0.251183  0.750469  1
  Os  Os13  1  0.251183  0.499286  0.750469  1
  Os  Os14  1  0.249334  0.749334  0.498668  1
  Os  Os15  1  0.499112  0.751325  0.250437  1
  Os  Os16  1  0.991121  0.991121  0.982242  1
