# generated using pymatgen
data_Pr3Y2(In2Pd)2
_symmetry_space_group_name_H-M   'P 1'
_cell_length_a   3.73450100
_cell_length_b   8.35081100
_cell_length_c   18.63307600
_cell_angle_alpha   90.00000000
_cell_angle_beta   90.00000000
_cell_angle_gamma   90.00000000
_symmetry_Int_Tables_number   1
_chemical_formula_structural   Pr3Y2(In2Pd)2
_chemical_formula_sum   'Pr6 Y4 In8 Pd4'
_cell_volume   581.09319561
_cell_formula_units_Z   2
loop_
 _symmetry_equiv_pos_site_id
 _symmetry_equiv_pos_as_xyz
  1  'x, y, z'
loop_
 _atom_site_type_symbol
 _atom_site_label
 _atom_site_symmetry_multiplicity
 _atom_site_fract_x
 _atom_site_fract_y
 _atom_site_fract_z
 _atom_site_occupancy
  Pr  Pr0  1  0.500000  0.237701  0.785419  1
  Pr  Pr1  1  0.500000  0.762299  0.214581  1
  Pr  Pr2  1  0.500000  0.262299  0.285419  1
  Pr  Pr3  1  0.500000  0.737701  0.714581  1
  Pr  Pr4  1  0.500000  0.000000  0.000000  1
  Pr  Pr5  1  0.500000  0.500000  0.500000  1
  Y  Y6  1  0.500000  0.120801  0.584947  1
  Y  Y7  1  0.500000  0.879199  0.415053  1
  Y  Y8  1  0.500000  0.379199  0.084947  1
  Y  Y9  1  0.500000  0.620801  0.915053  1
  In  In10  1  0.000000  0.088681  0.152717  1
  In  In11  1  0.000000  0.911319  0.847283  1
  In  In12  1  0.000000  0.411319  0.652717  1
  In  In13  1  0.000000  0.588681  0.347283  1
  In  In14  1  0.000000  0.193762  0.436719  1
  In  In15  1  0.000000  0.806238  0.563281  1
  In  In16  1  0.000000  0.306238  0.936719  1
  In  In17  1  0.000000  0.693762  0.063281  1
  Pd  Pd18  1  0.000000  0.025388  0.693541  1
  Pd  Pd19  1  0.000000  0.974612  0.306459  1
  Pd  Pd20  1  0.000000  0.474612  0.193541  1
  Pd  Pd21  1  0.000000  0.525388  0.806459  1
