# generated using pymatgen
data_Ba6Ho2Fe2O13
_symmetry_space_group_name_H-M   'P 1'
_cell_length_a   11.61752250
_cell_length_b   11.61752275
_cell_length_c   5.84613200
_cell_angle_alpha   90.00000000
_cell_angle_beta   90.00000000
_cell_angle_gamma   150.78992386
_symmetry_Int_Tables_number   1
_chemical_formula_structural   Ba6Ho2Fe2O13
_chemical_formula_sum   'Ba6 Ho2 Fe2 O13'
_cell_volume   385.05893854
_cell_formula_units_Z   1
loop_
 _symmetry_equiv_pos_site_id
 _symmetry_equiv_pos_as_xyz
  1  'x, y, z'
loop_
 _atom_site_type_symbol
 _atom_site_label
 _atom_site_symmetry_multiplicity
 _atom_site_fract_x
 _atom_site_fract_y
 _atom_site_fract_z
 _atom_site_occupancy
  Ba  Ba0  1  0.500000  0.500000  0.000000  1
  Ba  Ba1  1  0.000000  0.000000  0.500000  1
  Ba  Ba2  1  0.185402  0.814598  0.500000  1
  Ba  Ba3  1  0.685621  0.314379  0.000000  1
  Ba  Ba4  1  0.314379  0.685621  0.000000  1
  Ba  Ba5  1  0.814598  0.185402  0.500000  1
  Ho  Ho6  1  0.903097  0.096903  0.000000  1
  Ho  Ho7  1  0.096903  0.903097  0.000000  1
  Fe  Fe8  1  0.393455  0.606545  0.500000  1
  Fe  Fe9  1  0.606545  0.393455  0.500000  1
  O  O10  1  0.634639  0.818015  0.726156  1
  O  O11  1  0.181985  0.365361  0.273844  1
  O  O12  1  0.818015  0.634639  0.726156  1
  O  O13  1  0.365361  0.181985  0.273844  1
  O  O14  1  0.181985  0.365361  0.726156  1
  O  O15  1  0.634639  0.818015  0.273844  1
  O  O16  1  0.365361  0.181985  0.726156  1
  O  O17  1  0.818015  0.634639  0.273844  1
  O  O18  1  0.306003  0.693997  0.500000  1
  O  O19  1  0.803827  0.196173  0.000000  1
  O  O20  1  0.196173  0.803827  0.000000  1
  O  O21  1  0.693997  0.306003  0.500000  1
  O  O22  1  0.000000  0.000000  0.000000  1
