# generated using pymatgen
data_Tb20Cd6NiOs
_symmetry_space_group_name_H-M   'P 1'
_cell_length_a   9.61753400
_cell_length_b   9.61753457
_cell_length_c   9.90659600
_cell_angle_alpha   90.00000000
_cell_angle_beta   90.00000000
_cell_angle_gamma   119.99999116
_symmetry_Int_Tables_number   1
_chemical_formula_structural   Tb20Cd6NiOs
_chemical_formula_sum   'Tb20 Cd6 Ni1 Os1'
_cell_volume   793.56518999
_cell_formula_units_Z   1
loop_
 _symmetry_equiv_pos_site_id
 _symmetry_equiv_pos_as_xyz
  1  'x, y, z'
loop_
 _atom_site_type_symbol
 _atom_site_label
 _atom_site_symmetry_multiplicity
 _atom_site_fract_x
 _atom_site_fract_y
 _atom_site_fract_z
 _atom_site_occupancy
  Tb  Tb0  1  0.000000  0.000000  0.499675  1
  Tb  Tb1  1  0.000000  0.000000  0.000325  1
  Tb  Tb2  1  0.540765  0.459235  0.250000  1
  Tb  Tb3  1  0.540765  0.081528  0.250000  1
  Tb  Tb4  1  0.918472  0.459235  0.250000  1
  Tb  Tb5  1  0.457040  0.542960  0.750000  1
  Tb  Tb6  1  0.457040  0.914080  0.750000  1
  Tb  Tb7  1  0.085920  0.542960  0.750000  1
  Tb  Tb8  1  0.209419  0.790581  0.440395  1
  Tb  Tb9  1  0.209419  0.418840  0.440395  1
  Tb  Tb10  1  0.581160  0.790581  0.440395  1
  Tb  Tb11  1  0.788697  0.211303  0.562524  1
  Tb  Tb12  1  0.788697  0.577394  0.562524  1
  Tb  Tb13  1  0.422606  0.211303  0.562524  1
  Tb  Tb14  1  0.788697  0.211303  0.937476  1
  Tb  Tb15  1  0.788697  0.577394  0.937476  1
  Tb  Tb16  1  0.422606  0.211303  0.937476  1
  Tb  Tb17  1  0.209419  0.790581  0.059605  1
  Tb  Tb18  1  0.209419  0.418840  0.059605  1
  Tb  Tb19  1  0.581160  0.790581  0.059605  1
  Cd  Cd20  1  0.885429  0.114571  0.250000  1
  Cd  Cd21  1  0.885429  0.770858  0.250000  1
  Cd  Cd22  1  0.229142  0.114571  0.250000  1
  Cd  Cd23  1  0.114253  0.885747  0.750000  1
  Cd  Cd24  1  0.114253  0.228507  0.750000  1
  Cd  Cd25  1  0.771493  0.885747  0.750000  1
  Ni  Ni26  1  0.666667  0.333333  0.750000  1
  Os  Os27  1  0.333333  0.666667  0.250000  1
