# generated using pymatgen
data_U3BePt5
_symmetry_space_group_name_H-M   'P 1'
_cell_length_a   8.21015641
_cell_length_b   8.21015696
_cell_length_c   8.21015748
_cell_angle_alpha   129.30363093
_cell_angle_beta   126.50905217
_cell_angle_gamma   76.79830515
_symmetry_Int_Tables_number   1
_chemical_formula_structural   U3BePt5
_chemical_formula_sum   'U6 Be2 Pt10'
_cell_volume   334.24785916
_cell_formula_units_Z   2
loop_
 _symmetry_equiv_pos_site_id
 _symmetry_equiv_pos_as_xyz
  1  'x, y, z'
loop_
 _atom_site_type_symbol
 _atom_site_label
 _atom_site_symmetry_multiplicity
 _atom_site_fract_x
 _atom_site_fract_y
 _atom_site_fract_z
 _atom_site_occupancy
  U  U0  1  0.271222  0.555655  0.722777  1
  U  U1  1  0.728778  0.451555  0.284433  1
  U  U2  1  0.332877  0.055655  0.284433  1
  U  U3  1  0.667123  0.951555  0.722777  1
  U  U4  1  0.109149  0.752545  0.361694  1
  U  U5  1  0.890851  0.252545  0.643397  1
  Be  Be6  1  0.715780  0.756345  0.972125  1
  Be  Be7  1  0.284220  0.256345  0.040565  1
  Pt  Pt8  1  0.046891  0.904807  0.737415  1
  Pt  Pt9  1  0.953110  0.690524  0.857917  1
  Pt  Pt10  1  0.667393  0.404807  0.857917  1
  Pt  Pt11  1  0.332607  0.190524  0.737415  1
  Pt  Pt12  1  0.954040  0.102644  0.269957  1
  Pt  Pt13  1  0.045960  0.315917  0.148604  1
  Pt  Pt14  1  0.332687  0.602644  0.148604  1
  Pt  Pt15  1  0.667313  0.815917  0.269957  1
  Pt  Pt16  1  0.500648  0.505207  0.505855  1
  Pt  Pt17  1  0.499352  0.005207  0.004559  1
