# generated using pymatgen
data_La6Pd5Rh2Au
_symmetry_space_group_name_H-M   'P 1'
_cell_length_a   8.15815598
_cell_length_b   8.16778774
_cell_length_c   8.17630300
_cell_angle_alpha   114.20502728
_cell_angle_beta   114.32023463
_cell_angle_gamma   114.13861640
_symmetry_Int_Tables_number   1
_chemical_formula_structural   La6Pd5Rh2Au
_chemical_formula_sum   'La6 Pd5 Rh2 Au1'
_cell_volume   325.50351199
_cell_formula_units_Z   1
loop_
 _symmetry_equiv_pos_site_id
 _symmetry_equiv_pos_as_xyz
  1  'x, y, z'
loop_
 _atom_site_type_symbol
 _atom_site_label
 _atom_site_symmetry_multiplicity
 _atom_site_fract_x
 _atom_site_fract_y
 _atom_site_fract_z
 _atom_site_occupancy
  La  La0  1  0.406002  0.039155  0.279629  1
  La  La1  1  0.035273  0.287133  0.399586  1
  La  La2  1  0.287742  0.404309  0.042922  1
  La  La3  1  0.597246  0.958351  0.715026  1
  La  La4  1  0.951946  0.710095  0.601362  1
  La  La5  1  0.723189  0.606844  0.963350  1
  Pd  Pd6  1  0.054089  0.557189  0.219457  1
  Pd  Pd7  1  0.562196  0.223106  0.056824  1
  Pd  Pd8  1  0.777126  0.945557  0.440242  1
  Pd  Pd9  1  0.943329  0.436537  0.776273  1
  Pd  Pd10  1  0.438546  0.773020  0.940770  1
  Rh  Rh11  1  0.004126  0.006051  0.005753  1
  Rh  Rh12  1  0.497223  0.499297  0.499826  1
  Au  Au13  1  0.221966  0.053355  0.558980  1
