# generated using pymatgen
data_DyY5Ho10(CdPt)4
_symmetry_space_group_name_H-M   'P 1'
_cell_length_a   9.67884642
_cell_length_b   9.68080387
_cell_length_c   9.68080416
_cell_angle_alpha   59.98970271
_cell_angle_beta   60.00668372
_cell_angle_gamma   60.00668566
_symmetry_Int_Tables_number   1
_chemical_formula_structural   DyY5Ho10(CdPt)4
_chemical_formula_sum   'Dy1 Y5 Ho10 Cd4 Pt4'
_cell_volume   641.41854813
_cell_formula_units_Z   1
loop_
 _symmetry_equiv_pos_site_id
 _symmetry_equiv_pos_as_xyz
  1  'x, y, z'
loop_
 _atom_site_type_symbol
 _atom_site_label
 _atom_site_symmetry_multiplicity
 _atom_site_fract_x
 _atom_site_fract_y
 _atom_site_fract_z
 _atom_site_occupancy
  Dy  Dy0  1  0.935860  0.564140  0.564140  1
  Y  Y1  1  0.564132  0.935868  0.935868  1
  Y  Y2  1  0.564186  0.935822  0.564135  1
  Y  Y3  1  0.935857  0.564135  0.935822  1
  Y  Y4  1  0.564186  0.564135  0.935822  1
  Y  Y5  1  0.935857  0.935822  0.564135  1
  Ho  Ho6  1  0.352224  0.352274  0.352274  1
  Ho  Ho7  1  0.352262  0.352241  0.943235  1
  Ho  Ho8  1  0.352262  0.943235  0.352241  1
  Ho  Ho9  1  0.943230  0.352274  0.352274  1
  Ho  Ho10  1  0.810741  0.189259  0.189259  1
  Ho  Ho11  1  0.189272  0.810728  0.810728  1
  Ho  Ho12  1  0.189238  0.810736  0.189285  1
  Ho  Ho13  1  0.810741  0.189285  0.810736  1
  Ho  Ho14  1  0.189238  0.189285  0.810736  1
  Ho  Ho15  1  0.810741  0.810736  0.189285  1
  Cd  Cd16  1  0.581778  0.581788  0.581788  1
  Cd  Cd17  1  0.581772  0.581774  0.254681  1
  Cd  Cd18  1  0.581772  0.254681  0.581774  1
  Cd  Cd19  1  0.254646  0.581788  0.581788  1
  Pt  Pt20  1  0.143296  0.143296  0.143296  1
  Pt  Pt21  1  0.143299  0.143298  0.570106  1
  Pt  Pt22  1  0.143299  0.570106  0.143298  1
  Pt  Pt23  1  0.570113  0.143296  0.143296  1
