# generated using pymatgen
data_Ca5U5O18
_symmetry_space_group_name_H-M   'P 1'
_cell_length_a   6.89447340
_cell_length_b   7.54281428
_cell_length_c   8.48661869
_cell_angle_alpha   98.99509507
_cell_angle_beta   98.77765786
_cell_angle_gamma   107.70963087
_symmetry_Int_Tables_number   1
_chemical_formula_structural   Ca5U5O18
_chemical_formula_sum   'Ca5 U5 O18'
_cell_volume   405.74555547
_cell_formula_units_Z   1
loop_
 _symmetry_equiv_pos_site_id
 _symmetry_equiv_pos_as_xyz
  1  'x, y, z'
loop_
 _atom_site_type_symbol
 _atom_site_label
 _atom_site_symmetry_multiplicity
 _atom_site_fract_x
 _atom_site_fract_y
 _atom_site_fract_z
 _atom_site_occupancy
  Ca  Ca0  1  0.795720  0.103178  0.579288  1
  Ca  Ca1  1  0.594132  0.698380  0.196209  1
  Ca  Ca2  1  0.405868  0.301620  0.803791  1
  Ca  Ca3  1  0.204280  0.896822  0.420712  1
  Ca  Ca4  1  0.000000  0.500000  0.000000  1
  U  U5  1  0.000000  0.000000  0.000000  1
  U  U6  1  0.788787  0.578108  0.588241  1
  U  U7  1  0.626689  0.203359  0.192944  1
  U  U8  1  0.373311  0.796641  0.807056  1
  U  U9  1  0.211213  0.421892  0.411759  1
  O  O10  1  0.819634  0.793736  0.470390  1
  O  O11  1  0.005474  0.247961  0.168298  1
  O  O12  1  0.674192  0.414610  0.065453  1
  O  O13  1  0.457356  0.000087  0.679832  1
  O  O14  1  0.862015  0.343151  0.422007  1
  O  O15  1  0.504461  0.401756  0.345995  1
  O  O16  1  0.253050  0.620706  0.279416  1
  O  O17  1  0.990094  0.836063  0.163304  1
  O  O18  1  0.660291  0.930736  0.001050  1
  O  O19  1  0.339709  0.069264  0.998950  1
  O  O20  1  0.009906  0.163937  0.836696  1
  O  O21  1  0.746950  0.379294  0.720584  1
  O  O22  1  0.495539  0.598244  0.654005  1
  O  O23  1  0.137985  0.656849  0.577993  1
  O  O24  1  0.542644  0.999913  0.320168  1
  O  O25  1  0.325808  0.585390  0.934547  1
  O  O26  1  0.994526  0.752039  0.831702  1
  O  O27  1  0.180366  0.206264  0.529610  1
