# generated using pymatgen
data_Pr5Er11Cd4TcPt3
_symmetry_space_group_name_H-M   'P 1'
_cell_length_a   9.78199623
_cell_length_b   9.76704445
_cell_length_c   9.76704328
_cell_angle_alpha   59.45742276
_cell_angle_beta   59.55898609
_cell_angle_gamma   59.55898077
_symmetry_Int_Tables_number   1
_chemical_formula_structural   Pr5Er11Cd4TcPt3
_chemical_formula_sum   'Pr5 Er11 Cd4 Tc1 Pt3'
_cell_volume   652.71374374
_cell_formula_units_Z   1
loop_
 _symmetry_equiv_pos_site_id
 _symmetry_equiv_pos_as_xyz
  1  'x, y, z'
loop_
 _atom_site_type_symbol
 _atom_site_label
 _atom_site_symmetry_multiplicity
 _atom_site_fract_x
 _atom_site_fract_y
 _atom_site_fract_z
 _atom_site_occupancy
  Pr  Pr0  1  0.548625  0.944523  0.944523  1
  Pr  Pr1  1  0.566865  0.933232  0.563191  1
  Pr  Pr2  1  0.940919  0.555632  0.934950  1
  Pr  Pr3  1  0.566865  0.563191  0.933232  1
  Pr  Pr4  1  0.940919  0.934950  0.555632  1
  Er  Er5  1  0.352739  0.350364  0.350364  1
  Er  Er6  1  0.346610  0.353216  0.956383  1
  Er  Er7  1  0.346610  0.956383  0.353216  1
  Er  Er8  1  0.950214  0.349340  0.349340  1
  Er  Er9  1  0.819640  0.183946  0.183946  1
  Er  Er10  1  0.184858  0.813245  0.813245  1
  Er  Er11  1  0.184683  0.816300  0.188301  1
  Er  Er12  1  0.811514  0.185612  0.810731  1
  Er  Er13  1  0.184683  0.188301  0.816300  1
  Er  Er14  1  0.811514  0.810731  0.185612  1
  Er  Er15  1  0.943524  0.554457  0.554457  1
  Cd  Cd16  1  0.583715  0.577402  0.577402  1
  Cd  Cd17  1  0.578931  0.578472  0.260632  1
  Cd  Cd18  1  0.578931  0.260632  0.578472  1
  Cd  Cd19  1  0.259074  0.578020  0.578020  1
  Tc  Tc20  1  0.144877  0.143176  0.143176  1
  Pt  Pt21  1  0.139784  0.150107  0.574686  1
  Pt  Pt22  1  0.139784  0.574686  0.150107  1
  Pt  Pt23  1  0.574120  0.144082  0.144082  1
