# generated using pymatgen
data_Ac3Cd2HgPtAu2
_symmetry_space_group_name_H-M   'P 1'
_cell_length_a   8.28919801
_cell_length_b   8.21482498
_cell_length_c   4.16577900
_cell_angle_alpha   90.00000000
_cell_angle_beta   90.00000000
_cell_angle_gamma   120.20193923
_symmetry_Int_Tables_number   1
_chemical_formula_structural   Ac3Cd2HgPtAu2
_chemical_formula_sum   'Ac3 Cd2 Hg1 Pt1 Au2'
_cell_volume   245.16041702
_cell_formula_units_Z   1
loop_
 _symmetry_equiv_pos_site_id
 _symmetry_equiv_pos_as_xyz
  1  'x, y, z'
loop_
 _atom_site_type_symbol
 _atom_site_label
 _atom_site_symmetry_multiplicity
 _atom_site_fract_x
 _atom_site_fract_y
 _atom_site_fract_z
 _atom_site_occupancy
  Ac  Ac0  1  0.419948  0.013269  0.000000  1
  Ac  Ac1  1  0.599226  0.590063  0.000000  1
  Ac  Ac2  1  0.983301  0.397049  0.000000  1
  Cd  Cd3  1  0.252791  0.253625  0.500000  1
  Cd  Cd4  1  0.004099  0.748680  0.500000  1
  Hg  Hg5  1  0.741288  0.996426  0.500000  1
  Pt  Pt6  1  0.665233  0.342510  0.500000  1
  Au  Au7  1  0.323395  0.658074  0.500000  1
  Au  Au8  1  0.010720  0.000305  0.000000  1
