# generated using pymatgen
data_NdCd3Ir2(RhO7)2
_symmetry_space_group_name_H-M   'P 1'
_cell_length_a   7.32944918
_cell_length_b   7.33074049
_cell_length_c   7.32945008
_cell_angle_alpha   59.14893877
_cell_angle_beta   59.15004896
_cell_angle_gamma   59.14893814
_symmetry_Int_Tables_number   1
_chemical_formula_structural   NdCd3Ir2(RhO7)2
_chemical_formula_sum   'Nd1 Cd3 Ir2 Rh2 O14'
_cell_volume   273.06933298
_cell_formula_units_Z   1
loop_
 _symmetry_equiv_pos_site_id
 _symmetry_equiv_pos_as_xyz
  1  'x, y, z'
loop_
 _atom_site_type_symbol
 _atom_site_label
 _atom_site_symmetry_multiplicity
 _atom_site_fract_x
 _atom_site_fract_y
 _atom_site_fract_z
 _atom_site_occupancy
  Nd  Nd0  1  0.125000  0.125000  0.125000  1
  Cd  Cd1  1  0.625000  0.125000  0.125000  1
  Cd  Cd2  1  0.125000  0.625000  0.125000  1
  Cd  Cd3  1  0.125000  0.125000  0.625000  1
  Ir  Ir4  1  0.625000  0.125000  0.625000  1
  Ir  Ir5  1  0.625000  0.625000  0.625000  1
  Rh  Rh6  1  0.125000  0.625000  0.625000  1
  Rh  Rh7  1  0.625000  0.625000  0.125000  1
  O  O8  1  0.692449  0.702511  0.305862  1
  O  O9  1  0.299152  0.293753  0.701064  1
  O  O10  1  0.693326  0.305709  0.693326  1
  O  O11  1  0.292954  0.706424  0.292954  1
  O  O12  1  0.305862  0.702511  0.692449  1
  O  O13  1  0.701064  0.293753  0.299152  1
  O  O14  1  0.557551  0.547489  0.944138  1
  O  O15  1  0.950848  0.956247  0.548936  1
  O  O16  1  0.556674  0.944291  0.556674  1
  O  O17  1  0.957046  0.543576  0.957046  1
  O  O18  1  0.944138  0.547489  0.557551  1
  O  O19  1  0.548936  0.956247  0.950848  1
  O  O20  1  0.255882  0.254410  0.255882  1
  O  O21  1  0.994118  0.995590  0.994118  1
