# generated using pymatgen
data_Zr10Be2InSb5
_symmetry_space_group_name_H-M   'P 1'
_cell_length_a   8.60454903
_cell_length_b   8.60454736
_cell_length_c   5.80757600
_cell_angle_alpha   90.00000000
_cell_angle_beta   90.00000000
_cell_angle_gamma   119.99023924
_symmetry_Int_Tables_number   1
_chemical_formula_structural   Zr10Be2InSb5
_chemical_formula_sum   'Zr10 Be2 In1 Sb5'
_cell_volume   372.41261488
_cell_formula_units_Z   1
loop_
 _symmetry_equiv_pos_site_id
 _symmetry_equiv_pos_as_xyz
  1  'x, y, z'
loop_
 _atom_site_type_symbol
 _atom_site_label
 _atom_site_symmetry_multiplicity
 _atom_site_fract_x
 _atom_site_fract_y
 _atom_site_fract_z
 _atom_site_occupancy
  Zr  Zr0  1  0.252362  0.252362  0.750000  1
  Zr  Zr1  1  0.748786  0.748786  0.250000  1
  Zr  Zr2  1  0.746613  0.000986  0.750000  1
  Zr  Zr3  1  0.999745  0.253597  0.250000  1
  Zr  Zr4  1  0.331561  0.667262  0.500520  1
  Zr  Zr5  1  0.667262  0.331561  0.500520  1
  Zr  Zr6  1  0.000986  0.746613  0.750000  1
  Zr  Zr7  1  0.331561  0.667262  0.999480  1
  Zr  Zr8  1  0.253597  0.999745  0.250000  1
  Zr  Zr9  1  0.667262  0.331561  0.999480  1
  Be  Be10  1  0.999151  0.999151  0.500834  1
  Be  Be11  1  0.999151  0.999151  0.999166  1
  In  In12  1  0.610646  0.610646  0.750000  1
  Sb  Sb13  1  0.389668  0.000019  0.750000  1
  Sb  Sb14  1  0.610132  0.998896  0.250000  1
  Sb  Sb15  1  0.392601  0.392601  0.250000  1
  Sb  Sb16  1  0.000019  0.389668  0.750000  1
  Sb  Sb17  1  0.998896  0.610132  0.250000  1
