# generated using pymatgen
data_Er4SnPt11
_symmetry_space_group_name_H-M   'P 1'
_cell_length_a   4.18835200
_cell_length_b   5.83190604
_cell_length_c   11.61812611
_cell_angle_alpha   87.31899785
_cell_angle_beta   90.00000000
_cell_angle_gamma   90.00000000
_symmetry_Int_Tables_number   1
_chemical_formula_structural   Er4SnPt11
_chemical_formula_sum   'Er4 Sn1 Pt11'
_cell_volume   283.47460326
_cell_formula_units_Z   1
loop_
 _symmetry_equiv_pos_site_id
 _symmetry_equiv_pos_as_xyz
  1  'x, y, z'
loop_
 _atom_site_type_symbol
 _atom_site_label
 _atom_site_symmetry_multiplicity
 _atom_site_fract_x
 _atom_site_fract_y
 _atom_site_fract_z
 _atom_site_occupancy
  Er  Er0  1  0.500000  0.754797  0.376261  1
  Er  Er1  1  0.500000  0.716843  0.860390  1
  Er  Er2  1  0.500000  0.283157  0.139610  1
  Er  Er3  1  0.500000  0.245203  0.623739  1
  Sn  Sn4  1  0.000000  0.000000  0.000000  1
  Pt  Pt5  1  0.000000  0.014569  0.249697  1
  Pt  Pt6  1  0.000000  0.985431  0.750303  1
  Pt  Pt7  1  0.000000  0.500000  0.000000  1
  Pt  Pt8  1  0.000000  0.500000  0.500000  1
  Pt  Pt9  1  0.000000  0.516116  0.250071  1
  Pt  Pt10  1  0.000000  0.483884  0.749929  1
  Pt  Pt11  1  0.500000  0.253741  0.378019  1
  Pt  Pt12  1  0.500000  0.227523  0.882308  1
  Pt  Pt13  1  0.500000  0.772477  0.117692  1
  Pt  Pt14  1  0.500000  0.746259  0.621981  1
  Pt  Pt15  1  0.000000  0.000000  0.500000  1
