# generated using pymatgen
data_HoLu7Ta7Ti5Si16
_symmetry_space_group_name_H-M   'P 1'
_cell_length_a   6.98330478
_cell_length_b   6.99279724
_cell_length_c   12.86106754
_cell_angle_alpha   90.03899045
_cell_angle_beta   90.04634389
_cell_angle_gamma   89.98607198
_symmetry_Int_Tables_number   1
_chemical_formula_structural   HoLu7Ta7Ti5Si16
_chemical_formula_sum   'Ho1 Lu7 Ta7 Ti5 Si16'
_cell_volume   628.04201203
_cell_formula_units_Z   1
loop_
 _symmetry_equiv_pos_site_id
 _symmetry_equiv_pos_as_xyz
  1  'x, y, z'
loop_
 _atom_site_type_symbol
 _atom_site_label
 _atom_site_symmetry_multiplicity
 _atom_site_fract_x
 _atom_site_fract_y
 _atom_site_fract_z
 _atom_site_occupancy
  Ho  Ho0  1  0.997105  0.659920  0.032860  1
  Lu  Lu1  1  0.342159  0.001464  0.466928  1
  Lu  Lu2  1  0.498707  0.842632  0.716794  1
  Lu  Lu3  1  0.500744  0.157087  0.217279  1
  Lu  Lu4  1  0.840880  0.499853  0.283161  1
  Lu  Lu5  1  0.159569  0.500717  0.782058  1
  Lu  Lu6  1  0.657229  0.998321  0.967183  1
  Lu  Lu7  1  0.001583  0.342046  0.532492  1
  Ta  Ta8  1  0.328511  0.328684  0.000261  1
  Ta  Ta9  1  0.171935  0.827665  0.250658  1
  Ta  Ta10  1  0.828652  0.171996  0.749676  1
  Ta  Ta11  1  0.671312  0.669977  0.500395  1
  Ta  Ta12  1  0.152199  0.006526  0.872939  1
  Ta  Ta13  1  0.492278  0.651686  0.123584  1
  Ta  Ta14  1  0.507054  0.348960  0.623988  1
  Ti  Ti15  1  0.651963  0.492434  0.875600  1
  Ti  Ti16  1  0.348408  0.506955  0.376567  1
  Ti  Ti17  1  0.847938  0.993454  0.373894  1
  Ti  Ti18  1  0.007174  0.151796  0.126207  1
  Ti  Ti19  1  0.992472  0.847376  0.626439  1
  Si  Si20  1  0.204740  0.133213  0.680453  1
  Si  Si21  1  0.367985  0.704443  0.930614  1
  Si  Si22  1  0.634341  0.294731  0.431244  1
  Si  Si23  1  0.704459  0.362421  0.068347  1
  Si  Si24  1  0.294711  0.636839  0.567806  1
  Si  Si25  1  0.795976  0.868408  0.183677  1
  Si  Si26  1  0.133458  0.203510  0.318236  1
  Si  Si27  1  0.863031  0.794887  0.817771  1
  Si  Si28  1  0.293833  0.955671  0.064526  1
  Si  Si29  1  0.545938  0.794670  0.315097  1
  Si  Si30  1  0.455181  0.206379  0.814058  1
  Si  Si31  1  0.797415  0.546551  0.686279  1
  Si  Si32  1  0.204304  0.451983  0.187575  1
  Si  Si33  1  0.708355  0.044931  0.562936  1
  Si  Si34  1  0.953178  0.295420  0.936047  1
  Si  Si35  1  0.045225  0.706396  0.436363  1
