# generated using pymatgen
data_Ta4MnNb2B4Ru9
_symmetry_space_group_name_H-M   'P 1'
_cell_length_a   9.39016676
_cell_length_b   9.39016662
_cell_length_c   3.02188000
_cell_angle_alpha   90.00000000
_cell_angle_beta   90.00000000
_cell_angle_gamma   90.34868810
_symmetry_Int_Tables_number   1
_chemical_formula_structural   Ta4MnNb2B4Ru9
_chemical_formula_sum   'Ta4 Mn1 Nb2 B4 Ru9'
_cell_volume   266.45003140
_cell_formula_units_Z   1
loop_
 _symmetry_equiv_pos_site_id
 _symmetry_equiv_pos_as_xyz
  1  'x, y, z'
loop_
 _atom_site_type_symbol
 _atom_site_label
 _atom_site_symmetry_multiplicity
 _atom_site_fract_x
 _atom_site_fract_y
 _atom_site_fract_z
 _atom_site_occupancy
  Ta  Ta0  1  0.332075  0.832075  0.000000  1
  Ta  Ta1  1  0.667925  0.167925  0.000000  1
  Ta  Ta2  1  0.500000  0.500000  0.000000  1
  Ta  Ta3  1  0.000000  0.000000  0.000000  1
  Mn  Mn4  1  0.500000  0.000000  0.500000  1
  Nb  Nb5  1  0.822522  0.677478  0.000000  1
  Nb  Nb6  1  0.177478  0.322522  0.000000  1
  B  B7  1  0.612233  0.887767  0.000000  1
  B  B8  1  0.387767  0.112233  0.000000  1
  B  B9  1  0.122199  0.622199  0.000000  1
  B  B10  1  0.877801  0.377801  0.000000  1
  Ru  Ru11  1  0.569711  0.721541  0.500000  1
  Ru  Ru12  1  0.430289  0.278459  0.500000  1
  Ru  Ru13  1  0.072771  0.782699  0.500000  1
  Ru  Ru14  1  0.927229  0.217301  0.500000  1
  Ru  Ru15  1  0.282699  0.572771  0.500000  1
  Ru  Ru16  1  0.717301  0.427229  0.500000  1
  Ru  Ru17  1  0.221541  0.069711  0.500000  1
  Ru  Ru18  1  0.778459  0.930289  0.500000  1
  Ru  Ru19  1  0.000000  0.500000  0.500000  1
