# generated using pymatgen
data_Er2ScGa5
_symmetry_space_group_name_H-M   'P 1'
_cell_length_a   5.98712500
_cell_length_b   9.47152900
_cell_length_c   11.33200800
_cell_angle_alpha   90.00000000
_cell_angle_beta   90.00000000
_cell_angle_gamma   90.00000000
_symmetry_Int_Tables_number   1
_chemical_formula_structural   Er2ScGa5
_chemical_formula_sum   'Er8 Sc4 Ga20'
_cell_volume   642.60676208
_cell_formula_units_Z   4
loop_
 _symmetry_equiv_pos_site_id
 _symmetry_equiv_pos_as_xyz
  1  'x, y, z'
loop_
 _atom_site_type_symbol
 _atom_site_label
 _atom_site_symmetry_multiplicity
 _atom_site_fract_x
 _atom_site_fract_y
 _atom_site_fract_z
 _atom_site_occupancy
  Er  Er0  1  0.891322  0.510484  0.352294  1
  Er  Er1  1  0.608678  0.989516  0.852294  1
  Er  Er2  1  0.108678  0.010484  0.647706  1
  Er  Er3  1  0.391322  0.489516  0.147706  1
  Er  Er4  1  0.108678  0.489516  0.647706  1
  Er  Er5  1  0.391322  0.010484  0.147706  1
  Er  Er6  1  0.891322  0.989516  0.352294  1
  Er  Er7  1  0.608678  0.510484  0.852294  1
  Sc  Sc8  1  0.849390  0.750000  0.074934  1
  Sc  Sc9  1  0.650610  0.750000  0.574934  1
  Sc  Sc10  1  0.150610  0.250000  0.925066  1
  Sc  Sc11  1  0.349390  0.250000  0.425066  1
  Ga  Ga12  1  0.876929  0.050137  0.089576  1
  Ga  Ga13  1  0.623071  0.449863  0.589576  1
  Ga  Ga14  1  0.123071  0.550137  0.910424  1
  Ga  Ga15  1  0.376929  0.949863  0.410424  1
  Ga  Ga16  1  0.123071  0.949863  0.910424  1
  Ga  Ga17  1  0.376929  0.550137  0.410424  1
  Ga  Ga18  1  0.876929  0.449863  0.089576  1
  Ga  Ga19  1  0.623071  0.050137  0.589576  1
  Ga  Ga20  1  0.166210  0.750000  0.248578  1
  Ga  Ga21  1  0.333790  0.750000  0.748578  1
  Ga  Ga22  1  0.833790  0.250000  0.751422  1
  Ga  Ga23  1  0.666210  0.250000  0.251422  1
  Ga  Ga24  1  0.379002  0.750000  0.005263  1
  Ga  Ga25  1  0.120998  0.750000  0.505263  1
  Ga  Ga26  1  0.620998  0.250000  0.994737  1
  Ga  Ga27  1  0.879002  0.250000  0.494737  1
  Ga  Ga28  1  0.605548  0.750000  0.296687  1
  Ga  Ga29  1  0.894452  0.750000  0.796687  1
  Ga  Ga30  1  0.394452  0.250000  0.703313  1
  Ga  Ga31  1  0.105548  0.250000  0.203313  1
