# generated using pymatgen
data_YEr4In2Bi
_symmetry_space_group_name_H-M   'P 1'
_cell_length_a   8.99292277
_cell_length_b   8.99234024
_cell_length_c   6.57404700
_cell_angle_alpha   90.00000000
_cell_angle_beta   90.00000000
_cell_angle_gamma   119.99785567
_symmetry_Int_Tables_number   1
_chemical_formula_structural   YEr4In2Bi
_chemical_formula_sum   'Y2 Er8 In4 Bi2'
_cell_volume   460.41176703
_cell_formula_units_Z   2
loop_
 _symmetry_equiv_pos_site_id
 _symmetry_equiv_pos_as_xyz
  1  'x, y, z'
loop_
 _atom_site_type_symbol
 _atom_site_label
 _atom_site_symmetry_multiplicity
 _atom_site_fract_x
 _atom_site_fract_y
 _atom_site_fract_z
 _atom_site_occupancy
  Y  Y0  1  0.769350  0.760897  0.750000  1
  Y  Y1  1  0.230650  0.991547  0.750000  1
  Er  Er2  1  0.670840  0.338047  0.006768  1
  Er  Er3  1  0.329160  0.667208  0.006768  1
  Er  Er4  1  0.329160  0.667208  0.493232  1
  Er  Er5  1  0.670840  0.338047  0.493232  1
  Er  Er6  1  0.000000  0.241923  0.750000  1
  Er  Er7  1  0.236825  0.237455  0.250000  1
  Er  Er8  1  0.763175  0.000631  0.250000  1
  Er  Er9  1  0.000000  0.761347  0.250000  1
  In  In10  1  0.000000  0.597038  0.750000  1
  In  In11  1  0.604930  0.606888  0.250000  1
  In  In12  1  0.395070  0.001959  0.250000  1
  In  In13  1  0.000000  0.395784  0.250000  1
  Bi  Bi14  1  0.395067  0.394544  0.750000  1
  Bi  Bi15  1  0.604933  0.999477  0.750000  1
