# generated using pymatgen
data_NbFeCl8
_symmetry_space_group_name_H-M   'P 1'
_cell_length_a   9.92948600
_cell_length_b   9.92948588
_cell_length_c   8.74168900
_cell_angle_alpha   90.00000000
_cell_angle_beta   90.00000000
_cell_angle_gamma   128.38548831
_symmetry_Int_Tables_number   1
_chemical_formula_structural   NbFeCl8
_chemical_formula_sum   'Nb2 Fe2 Cl16'
_cell_volume   675.58852260
_cell_formula_units_Z   2
loop_
 _symmetry_equiv_pos_site_id
 _symmetry_equiv_pos_as_xyz
  1  'x, y, z'
loop_
 _atom_site_type_symbol
 _atom_site_label
 _atom_site_symmetry_multiplicity
 _atom_site_fract_x
 _atom_site_fract_y
 _atom_site_fract_z
 _atom_site_occupancy
  Nb  Nb0  1  0.885666  0.114334  0.250000  1
  Nb  Nb1  1  0.114334  0.885666  0.750000  1
  Fe  Fe2  1  0.314435  0.685565  0.750000  1
  Fe  Fe3  1  0.685565  0.314435  0.250000  1
  Cl  Cl4  1  0.378450  0.621550  0.541467  1
  Cl  Cl5  1  0.621550  0.378450  0.458533  1
  Cl  Cl6  1  0.424714  0.968240  0.750000  1
  Cl  Cl7  1  0.968240  0.424714  0.250000  1
  Cl  Cl8  1  0.575286  0.031760  0.250000  1
  Cl  Cl9  1  0.031760  0.575286  0.750000  1
  Cl  Cl10  1  0.239171  0.170153  0.750000  1
  Cl  Cl11  1  0.170153  0.239171  0.250000  1
  Cl  Cl12  1  0.760829  0.829847  0.250000  1
  Cl  Cl13  1  0.829847  0.760829  0.750000  1
  Cl  Cl14  1  0.133624  0.866376  0.486970  1
  Cl  Cl15  1  0.866376  0.133624  0.513030  1
  Cl  Cl16  1  0.866376  0.133624  0.986970  1
  Cl  Cl17  1  0.133624  0.866376  0.013030  1
  Cl  Cl18  1  0.378450  0.621550  0.958533  1
  Cl  Cl19  1  0.621550  0.378450  0.041467  1
