# generated using pymatgen
data_TiNb8PbS16
_symmetry_space_group_name_H-M   'P 1'
_cell_length_a   6.72815500
_cell_length_b   6.72815425
_cell_length_c   13.66512400
_cell_angle_alpha   90.00000000
_cell_angle_beta   90.00000000
_cell_angle_gamma   120.00000859
_symmetry_Int_Tables_number   1
_chemical_formula_structural   TiNb8PbS16
_chemical_formula_sum   'Ti1 Nb8 Pb1 S16'
_cell_volume   535.71782729
_cell_formula_units_Z   1
loop_
 _symmetry_equiv_pos_site_id
 _symmetry_equiv_pos_as_xyz
  1  'x, y, z'
loop_
 _atom_site_type_symbol
 _atom_site_label
 _atom_site_symmetry_multiplicity
 _atom_site_fract_x
 _atom_site_fract_y
 _atom_site_fract_z
 _atom_site_occupancy
  Ti  Ti0  1  0.000000  0.000000  0.000000  1
  Nb  Nb1  1  0.000000  0.000000  0.225361  1
  Nb  Nb2  1  0.000000  0.000000  0.774639  1
  Nb  Nb3  1  0.504648  0.495352  0.224209  1
  Nb  Nb4  1  0.504648  0.009297  0.224209  1
  Nb  Nb5  1  0.990703  0.495352  0.224209  1
  Nb  Nb6  1  0.495352  0.504648  0.775791  1
  Nb  Nb7  1  0.495352  0.990703  0.775791  1
  Nb  Nb8  1  0.009297  0.504648  0.775791  1
  Pb  Pb9  1  0.000000  0.000000  0.500000  1
  S  S10  1  0.333333  0.666667  0.891426  1
  S  S11  1  0.666667  0.333333  0.108574  1
  S  S12  1  0.666667  0.333333  0.341215  1
  S  S13  1  0.333333  0.666667  0.658785  1
  S  S14  1  0.168781  0.831219  0.339022  1
  S  S15  1  0.168781  0.337561  0.339022  1
  S  S16  1  0.662439  0.831219  0.339022  1
  S  S17  1  0.831219  0.168781  0.660978  1
  S  S18  1  0.831219  0.662439  0.660978  1
  S  S19  1  0.337561  0.168781  0.660978  1
  S  S20  1  0.833700  0.166300  0.890456  1
  S  S21  1  0.833700  0.667400  0.890456  1
  S  S22  1  0.332600  0.166300  0.890456  1
  S  S23  1  0.166300  0.833700  0.109544  1
  S  S24  1  0.166300  0.332600  0.109544  1
  S  S25  1  0.667400  0.833700  0.109544  1
