# generated using pymatgen
data_SrEr3(Ga8Pd3)3
_symmetry_space_group_name_H-M   'P 1'
_cell_length_a   7.50320636
_cell_length_b   7.59880354
_cell_length_c   13.55898092
_cell_angle_alpha   84.74890932
_cell_angle_beta   79.71375646
_cell_angle_gamma   60.59232963
_symmetry_Int_Tables_number   1
_chemical_formula_structural   SrEr3(Ga8Pd3)3
_chemical_formula_sum   'Sr1 Er3 Ga24 Pd9'
_cell_volume   662.62844498
_cell_formula_units_Z   1
loop_
 _symmetry_equiv_pos_site_id
 _symmetry_equiv_pos_as_xyz
  1  'x, y, z'
loop_
 _atom_site_type_symbol
 _atom_site_label
 _atom_site_symmetry_multiplicity
 _atom_site_fract_x
 _atom_site_fract_y
 _atom_site_fract_z
 _atom_site_occupancy
  Sr  Sr0  1  0.394287  0.168963  0.811284  1
  Er  Er1  1  0.602317  0.831543  0.190493  1
  Er  Er2  1  0.732027  0.495391  0.813582  1
  Er  Er3  1  0.266752  0.503332  0.189971  1
  Ga  Ga4  1  0.690955  0.829420  0.945245  1
  Ga  Ga5  1  0.311120  0.167150  0.065567  1
  Ga  Ga6  1  0.145266  0.835349  0.554750  1
  Ga  Ga7  1  0.856588  0.165117  0.440494  1
  Ga  Ga8  1  0.479732  0.167383  0.551414  1
  Ga  Ga9  1  0.522175  0.833217  0.442928  1
  Ga  Ga10  1  0.221030  0.165003  0.321848  1
  Ga  Ga11  1  0.785882  0.831519  0.670828  1
  Ga  Ga12  1  0.437577  0.509264  0.669650  1
  Ga  Ga13  1  0.564581  0.495218  0.324014  1
  Ga  Ga14  1  0.104027  0.161772  0.667585  1
  Ga  Ga15  1  0.893203  0.838102  0.324779  1
  Ga  Ga16  1  0.354804  0.503063  0.946606  1
  Ga  Ga17  1  0.640540  0.502901  0.061897  1
  Ga  Ga18  1  0.014099  0.166335  0.951962  1
  Ga  Ga19  1  0.979053  0.830246  0.058672  1
  Ga  Ga20  1  0.188675  0.498878  0.442818  1
  Ga  Ga21  1  0.812694  0.501046  0.553672  1
  Ga  Ga22  1  0.731615  0.165732  0.182030  1
  Ga  Ga23  1  0.275493  0.816445  0.818230  1
  Ga  Ga24  1  0.043964  0.640054  0.817695  1
  Ga  Ga25  1  0.936663  0.373063  0.183514  1
  Ga  Ga26  1  0.868176  0.047194  0.816857  1
  Ga  Ga27  1  0.142585  0.958750  0.184069  1
  Pd  Pd28  1  0.117319  0.496293  0.637203  1
  Pd  Pd29  1  0.885382  0.502959  0.359776  1
  Pd  Pd30  1  0.658460  0.167221  0.002124  1
  Pd  Pd31  1  0.339331  0.833365  0.003964  1
  Pd  Pd32  1  0.542856  0.166370  0.358377  1
  Pd  Pd33  1  0.458674  0.835721  0.637434  1
  Pd  Pd34  1  0.776693  0.172758  0.635380  1
  Pd  Pd35  1  0.223314  0.826283  0.360446  1
  Pd  Pd36  1  0.002092  0.497580  0.002843  1
