# generated using pymatgen
data_Li2LaPrZn15
_symmetry_space_group_name_H-M   'P 1'
_cell_length_a   6.89767387
_cell_length_b   6.89767482
_cell_length_c   6.89767450
_cell_angle_alpha   83.95202422
_cell_angle_beta   83.95202086
_cell_angle_gamma   83.95204456
_symmetry_Int_Tables_number   1
_chemical_formula_structural   Li2LaPrZn15
_chemical_formula_sum   'Li2 La1 Pr1 Zn15'
_cell_volume   323.05621688
_cell_formula_units_Z   1
loop_
 _symmetry_equiv_pos_site_id
 _symmetry_equiv_pos_as_xyz
  1  'x, y, z'
loop_
 _atom_site_type_symbol
 _atom_site_label
 _atom_site_symmetry_multiplicity
 _atom_site_fract_x
 _atom_site_fract_y
 _atom_site_fract_z
 _atom_site_occupancy
  Li  Li0  1  0.901345  0.901345  0.901345  1
  Li  Li1  1  0.099061  0.099061  0.099061  1
  La  La2  1  0.661064  0.661064  0.661064  1
  Pr  Pr3  1  0.339086  0.339086  0.339086  1
  Zn  Zn4  1  0.000260  0.000260  0.500064  1
  Zn  Zn5  1  0.500064  0.000260  0.000260  1
  Zn  Zn6  1  0.000260  0.500064  0.000260  1
  Zn  Zn7  1  0.708143  0.291049  0.000588  1
  Zn  Zn8  1  0.000588  0.708143  0.291049  1
  Zn  Zn9  1  0.291049  0.000588  0.708143  1
  Zn  Zn10  1  0.000588  0.291049  0.708143  1
  Zn  Zn11  1  0.708143  0.000588  0.291049  1
  Zn  Zn12  1  0.291049  0.708143  0.000588  1
  Zn  Zn13  1  0.348253  0.348253  0.841344  1
  Zn  Zn14  1  0.841344  0.348253  0.348253  1
  Zn  Zn15  1  0.348253  0.841344  0.348253  1
  Zn  Zn16  1  0.651081  0.651081  0.159290  1
  Zn  Zn17  1  0.159290  0.651081  0.651081  1
  Zn  Zn18  1  0.651081  0.159290  0.651081  1
