# generated using pymatgen
data_Cs2Yb(BrCl)2
_symmetry_space_group_name_H-M   'P 1'
_cell_length_a   9.93413144
_cell_length_b   9.93413161
_cell_length_c   9.93413161
_cell_angle_alpha   148.27378563
_cell_angle_beta   148.27378560
_cell_angle_gamma   45.48136328
_symmetry_Int_Tables_number   1
_chemical_formula_structural   Cs2Yb(BrCl)2
_chemical_formula_sum   'Cs2 Yb1 Br2 Cl2'
_cell_volume   270.21592978
_cell_formula_units_Z   1
loop_
 _symmetry_equiv_pos_site_id
 _symmetry_equiv_pos_as_xyz
  1  'x, y, z'
loop_
 _atom_site_type_symbol
 _atom_site_label
 _atom_site_symmetry_multiplicity
 _atom_site_fract_x
 _atom_site_fract_y
 _atom_site_fract_z
 _atom_site_occupancy
  Cs  Cs0  1  0.639722  0.639722  0.000000  1
  Cs  Cs1  1  0.360278  0.360278  0.000000  1
  Yb  Yb2  1  0.000000  0.000000  0.000000  1
  Br  Br3  1  0.842111  0.842111  0.000000  1
  Br  Br4  1  0.157889  0.157889  0.000000  1
  Cl  Cl5  1  0.500000  0.000000  0.500000  1
  Cl  Cl6  1  0.000000  0.500000  0.500000  1
