# generated using pymatgen
data_Ho9Tm(Zn2Bi)2
_symmetry_space_group_name_H-M   'P 1'
_cell_length_a   8.59958246
_cell_length_b   8.59958273
_cell_length_c   8.59958215
_cell_angle_alpha   123.42002097
_cell_angle_beta   123.42002644
_cell_angle_gamma   84.17185566
_symmetry_Int_Tables_number   1
_chemical_formula_structural   Ho9Tm(Zn2Bi)2
_chemical_formula_sum   'Ho9 Tm1 Zn4 Bi2'
_cell_volume   424.04756560
_cell_formula_units_Z   1
loop_
 _symmetry_equiv_pos_site_id
 _symmetry_equiv_pos_as_xyz
  1  'x, y, z'
loop_
 _atom_site_type_symbol
 _atom_site_label
 _atom_site_symmetry_multiplicity
 _atom_site_fract_x
 _atom_site_fract_y
 _atom_site_fract_z
 _atom_site_occupancy
  Ho  Ho0  1  0.500000  0.500000  0.000000  1
  Ho  Ho1  1  0.794002  0.293821  0.803704  1
  Ho  Ho2  1  0.205998  0.706179  0.196296  1
  Ho  Ho3  1  0.490117  0.990298  0.196296  1
  Ho  Ho4  1  0.293821  0.490117  0.499819  1
  Ho  Ho5  1  0.009702  0.205998  0.499819  1
  Ho  Ho6  1  0.509883  0.009702  0.803704  1
  Ho  Ho7  1  0.706179  0.509883  0.500181  1
  Ho  Ho8  1  0.990298  0.794002  0.500181  1
  Tm  Tm9  1  0.000000  0.000000  0.000000  1
  Zn  Zn10  1  0.139672  0.641271  0.780942  1
  Zn  Zn11  1  0.860328  0.358729  0.219058  1
  Zn  Zn12  1  0.641271  0.860328  0.501599  1
  Zn  Zn13  1  0.358729  0.139672  0.498401  1
  Bi  Bi14  1  0.249435  0.249435  0.000000  1
  Bi  Bi15  1  0.750565  0.750565  0.000000  1
