# generated using pymatgen
data_BiAsI18
_symmetry_space_group_name_H-M   'P 1'
_cell_length_a   10.31225404
_cell_length_b   10.34376834
_cell_length_c   10.30625483
_cell_angle_alpha   88.41863776
_cell_angle_beta   88.51537888
_cell_angle_gamma   88.29803931
_symmetry_Int_Tables_number   1
_chemical_formula_structural   BiAsI18
_chemical_formula_sum   'Bi1 As1 I18'
_cell_volume   1098.09330474
_cell_formula_units_Z   1
loop_
 _symmetry_equiv_pos_site_id
 _symmetry_equiv_pos_as_xyz
  1  'x, y, z'
loop_
 _atom_site_type_symbol
 _atom_site_label
 _atom_site_symmetry_multiplicity
 _atom_site_fract_x
 _atom_site_fract_y
 _atom_site_fract_z
 _atom_site_occupancy
  Bi  Bi0  1  0.000000  0.000000  0.000000  1
  As  As1  1  0.500000  0.500000  0.500000  1
  I  I2  1  0.780750  0.467115  0.500507  1
  I  I3  1  0.499224  0.779785  0.466310  1
  I  I4  1  0.467320  0.500429  0.780859  1
  I  I5  1  0.219250  0.532885  0.499493  1
  I  I6  1  0.500776  0.220215  0.533690  1
  I  I7  1  0.532680  0.499571  0.219141  1
  I  I8  1  0.892662  0.381436  0.747155  1
  I  I9  1  0.745257  0.891172  0.381603  1
  I  I10  1  0.381918  0.746084  0.892670  1
  I  I11  1  0.107338  0.618564  0.252845  1
  I  I12  1  0.254743  0.108828  0.618397  1
  I  I13  1  0.618082  0.253916  0.107330  1
  I  I14  1  0.015629  0.976215  0.698131  1
  I  I15  1  0.698559  0.015224  0.974164  1
  I  I16  1  0.974517  0.699411  0.013166  1
  I  I17  1  0.984371  0.023785  0.301869  1
  I  I18  1  0.301441  0.984776  0.025836  1
  I  I19  1  0.025483  0.300589  0.986834  1
