# generated using pymatgen
data_NdTmRu2F14
_symmetry_space_group_name_H-M   'P 1'
_cell_length_a   5.68077688
_cell_length_b   5.97669527
_cell_length_c   8.43603932
_cell_angle_alpha   104.06114694
_cell_angle_beta   90.07833718
_cell_angle_gamma   89.92967519
_symmetry_Int_Tables_number   1
_chemical_formula_structural   NdTmRu2F14
_chemical_formula_sum   'Nd1 Tm1 Ru2 F14'
_cell_volume   277.84024012
_cell_formula_units_Z   1
loop_
 _symmetry_equiv_pos_site_id
 _symmetry_equiv_pos_as_xyz
  1  'x, y, z'
loop_
 _atom_site_type_symbol
 _atom_site_label
 _atom_site_symmetry_multiplicity
 _atom_site_fract_x
 _atom_site_fract_y
 _atom_site_fract_z
 _atom_site_occupancy
  Nd  Nd0  1  0.203773  0.356658  0.313301  1
  Tm  Tm1  1  0.702938  0.645074  0.705956  1
  Ru  Ru2  1  0.705026  0.819001  0.220656  1
  Ru  Ru3  1  0.206344  0.174977  0.773981  1
  F  F4  1  0.920134  0.499645  0.502329  1
  F  F5  1  0.440963  0.532154  0.522504  1
  F  F6  1  0.442022  0.928030  0.762883  1
  F  F7  1  0.893880  0.097782  0.230946  1
  F  F8  1  0.950230  0.941852  0.751783  1
  F  F9  1  0.418774  0.009748  0.231185  1
  F  F10  1  0.971844  0.425282  0.794307  1
  F  F11  1  0.513713  0.538465  0.202083  1
  F  F12  1  0.704492  0.764051  0.985171  1
  F  F13  1  0.198273  0.220970  0.005424  1
  F  F14  1  0.706379  0.885983  0.449352  1
  F  F15  1  0.209675  0.127479  0.542261  1
  F  F16  1  0.468305  0.398838  0.796474  1
  F  F17  1  0.995956  0.634011  0.209404  1
