# generated using pymatgen
data_K(SnS2)4
_symmetry_space_group_name_H-M   'P 1'
_cell_length_a   9.18061283
_cell_length_b   9.18061253
_cell_length_c   9.18061207
_cell_angle_alpha   48.29492907
_cell_angle_beta   48.29493339
_cell_angle_gamma   48.29493218
_symmetry_Int_Tables_number   1
_chemical_formula_structural   K(SnS2)4
_chemical_formula_sum   'K1 Sn4 S8'
_cell_volume   395.37440427
_cell_formula_units_Z   1
loop_
 _symmetry_equiv_pos_site_id
 _symmetry_equiv_pos_as_xyz
  1  'x, y, z'
loop_
 _atom_site_type_symbol
 _atom_site_label
 _atom_site_symmetry_multiplicity
 _atom_site_fract_x
 _atom_site_fract_y
 _atom_site_fract_z
 _atom_site_occupancy
  K  K0  1  0.500000  0.500000  0.500000  1
  Sn  Sn1  1  0.000000  0.500000  0.500000  1
  Sn  Sn2  1  0.500000  0.000000  0.500000  1
  Sn  Sn3  1  0.500000  0.500000  0.000000  1
  Sn  Sn4  1  0.000000  0.000000  0.000000  1
  S  S5  1  0.279979  0.768661  0.768661  1
  S  S6  1  0.231339  0.231339  0.720021  1
  S  S7  1  0.720021  0.231339  0.231339  1
  S  S8  1  0.231339  0.720021  0.231339  1
  S  S9  1  0.272532  0.272532  0.272532  1
  S  S10  1  0.727468  0.727468  0.727468  1
  S  S11  1  0.768661  0.279979  0.768661  1
  S  S12  1  0.768661  0.768661  0.279979  1
