# generated using pymatgen
data_Hf7Zr3ZnGaSb6
_symmetry_space_group_name_H-M   'P 1'
_cell_length_a   8.64666204
_cell_length_b   8.64269250
_cell_length_c   5.81292202
_cell_angle_alpha   89.99481273
_cell_angle_beta   90.01036978
_cell_angle_gamma   120.01519450
_symmetry_Int_Tables_number   1
_chemical_formula_structural   Hf7Zr3ZnGaSb6
_chemical_formula_sum   'Hf7 Zr3 Zn1 Ga1 Sb6'
_cell_volume   376.14574408
_cell_formula_units_Z   1
loop_
 _symmetry_equiv_pos_site_id
 _symmetry_equiv_pos_as_xyz
  1  'x, y, z'
loop_
 _atom_site_type_symbol
 _atom_site_label
 _atom_site_symmetry_multiplicity
 _atom_site_fract_x
 _atom_site_fract_y
 _atom_site_fract_z
 _atom_site_occupancy
  Hf  Hf0  1  0.000489  0.731094  0.748802  1
  Hf  Hf1  1  0.269395  0.268906  0.748802  1
  Hf  Hf2  1  0.268183  0.000000  0.251186  1
  Hf  Hf3  1  0.332734  0.666581  0.500287  1
  Hf  Hf4  1  0.665913  0.333430  0.999670  1
  Hf  Hf5  1  0.666155  0.333419  0.500287  1
  Hf  Hf6  1  0.332482  0.666570  0.999670  1
  Zr  Zr7  1  0.731337  0.730893  0.251027  1
  Zr  Zr8  1  0.730401  0.000000  0.749049  1
  Zr  Zr9  1  0.000444  0.269107  0.251027  1
  Zn  Zn10  1  0.001687  0.000000  0.501313  1
  Ga  Ga11  1  0.001461  0.000000  0.998775  1
  Sb  Sb12  1  0.387404  0.000000  0.749245  1
  Sb  Sb13  1  0.388391  0.387611  0.250821  1
  Sb  Sb14  1  0.000780  0.612389  0.250821  1
  Sb  Sb15  1  0.000419  0.388714  0.749269  1
  Sb  Sb16  1  0.611705  0.611286  0.749269  1
  Sb  Sb17  1  0.610619  0.000000  0.250680  1
