# generated using pymatgen
data_K3Cu2P2Au
_symmetry_space_group_name_H-M   'P 1'
_cell_length_a   7.42528621
_cell_length_b   7.42528593
_cell_length_c   7.50141274
_cell_angle_alpha   47.04385628
_cell_angle_beta   47.04385395
_cell_angle_gamma   45.53724036
_symmetry_Int_Tables_number   1
_chemical_formula_structural   K3Cu2P2Au
_chemical_formula_sum   'K3 Cu2 P2 Au1'
_cell_volume   198.85648682
_cell_formula_units_Z   1
loop_
 _symmetry_equiv_pos_site_id
 _symmetry_equiv_pos_as_xyz
  1  'x, y, z'
loop_
 _atom_site_type_symbol
 _atom_site_label
 _atom_site_symmetry_multiplicity
 _atom_site_fract_x
 _atom_site_fract_y
 _atom_site_fract_z
 _atom_site_occupancy
  K  K0  1  0.905355  0.905355  0.915275  1
  K  K1  1  0.500000  0.500000  0.500000  1
  K  K2  1  0.094645  0.094645  0.084725  1
  Cu  Cu3  1  0.000000  0.500000  0.500000  1
  Cu  Cu4  1  0.500000  0.000000  0.500000  1
  P  P5  1  0.242124  0.242124  0.279599  1
  P  P6  1  0.757876  0.757876  0.720401  1
  Au  Au7  1  0.500000  0.500000  0.000000  1
