# generated using pymatgen
data_Lu12Co4TcPb
_symmetry_space_group_name_H-M   'P 1'
_cell_length_a   8.10890988
_cell_length_b   8.10890904
_cell_length_c   8.10891025
_cell_angle_alpha   111.71591051
_cell_angle_beta   110.79480187
_cell_angle_gamma   105.96041472
_symmetry_Int_Tables_number   1
_chemical_formula_structural   Lu12Co4TcPb
_chemical_formula_sum   'Lu12 Co4 Tc1 Pb1'
_cell_volume   409.27995235
_cell_formula_units_Z   1
loop_
 _symmetry_equiv_pos_site_id
 _symmetry_equiv_pos_as_xyz
  1  'x, y, z'
loop_
 _atom_site_type_symbol
 _atom_site_label
 _atom_site_symmetry_multiplicity
 _atom_site_fract_x
 _atom_site_fract_y
 _atom_site_fract_z
 _atom_site_occupancy
  Lu  Lu0  1  0.420176  0.222853  0.197321  1
  Lu  Lu1  1  0.579824  0.777147  0.802679  1
  Lu  Lu2  1  0.025532  0.222853  0.802679  1
  Lu  Lu3  1  0.974468  0.777147  0.197321  1
  Lu  Lu4  1  0.181776  0.276354  0.458131  1
  Lu  Lu5  1  0.818224  0.723646  0.541869  1
  Lu  Lu6  1  0.181776  0.723646  0.905423  1
  Lu  Lu7  1  0.818224  0.276354  0.094577  1
  Lu  Lu8  1  0.312108  0.618843  0.306735  1
  Lu  Lu9  1  0.687892  0.381157  0.693265  1
  Lu  Lu10  1  0.312108  0.005372  0.693265  1
  Lu  Lu11  1  0.687892  0.994628  0.306735  1
  Co  Co12  1  0.374776  0.000000  0.374776  1
  Co  Co13  1  0.625224  0.000000  0.625224  1
  Co  Co14  1  0.112418  0.612418  0.500000  1
  Co  Co15  1  0.887582  0.387582  0.500000  1
  Tc  Tc16  1  0.000000  0.000000  0.000000  1
  Pb  Pb17  1  0.500000  0.500000  0.000000  1
