# generated using pymatgen
data_Sr2LiPuO6
_symmetry_space_group_name_H-M   'P 1'
_cell_length_a   5.81974833
_cell_length_b   5.81974936
_cell_length_c   5.81974821
_cell_angle_alpha   120.46199607
_cell_angle_beta   120.46199692
_cell_angle_gamma   89.20165155
_symmetry_Int_Tables_number   1
_chemical_formula_structural   Sr2LiPuO6
_chemical_formula_sum   'Sr2 Li1 Pu1 O6'
_cell_volume   138.39123925
_cell_formula_units_Z   1
loop_
 _symmetry_equiv_pos_site_id
 _symmetry_equiv_pos_as_xyz
  1  'x, y, z'
loop_
 _atom_site_type_symbol
 _atom_site_label
 _atom_site_symmetry_multiplicity
 _atom_site_fract_x
 _atom_site_fract_y
 _atom_site_fract_z
 _atom_site_occupancy
  Sr  Sr0  1  0.250000  0.750000  0.500000  1
  Sr  Sr1  1  0.750000  0.250000  0.500000  1
  Li  Li2  1  0.500000  0.500000  0.000000  1
  Pu  Pu3  1  0.000000  0.000000  0.000000  1
  O  O4  1  0.705438  0.816394  0.521833  1
  O  O5  1  0.294562  0.183606  0.478167  1
  O  O6  1  0.816394  0.294562  0.110956  1
  O  O7  1  0.183606  0.705438  0.889044  1
  O  O8  1  0.242748  0.242748  0.000000  1
  O  O9  1  0.757252  0.757252  0.000000  1
