# generated using pymatgen
data_Ho3Hg3Rh2
_symmetry_space_group_name_H-M   'P 1'
_cell_length_a   7.59195600
_cell_length_b   7.59195671
_cell_length_c   3.60014700
_cell_angle_alpha   90.00000000
_cell_angle_beta   90.00000000
_cell_angle_gamma   120.00000563
_symmetry_Int_Tables_number   1
_chemical_formula_structural   Ho3Hg3Rh2
_chemical_formula_sum   'Ho3 Hg3 Rh2'
_cell_volume   179.70420787
_cell_formula_units_Z   1
loop_
 _symmetry_equiv_pos_site_id
 _symmetry_equiv_pos_as_xyz
  1  'x, y, z'
loop_
 _atom_site_type_symbol
 _atom_site_label
 _atom_site_symmetry_multiplicity
 _atom_site_fract_x
 _atom_site_fract_y
 _atom_site_fract_z
 _atom_site_occupancy
  Ho  Ho0  1  0.579520  0.000000  0.499999  1
  Ho  Ho1  1  0.420479  0.420479  0.499999  1
  Ho  Ho2  1  0.000000  0.579520  0.499999  1
  Hg  Hg3  1  0.233789  0.000000  0.000000  1
  Hg  Hg4  1  0.000000  0.233788  0.000000  1
  Hg  Hg5  1  0.766211  0.766211  0.000000  1
  Rh  Rh6  1  0.666666  0.333334  0.000000  1
  Rh  Rh7  1  0.333334  0.666667  0.000000  1
