# generated using pymatgen
data_Pr11In9(NiAu)2
_symmetry_space_group_name_H-M   'P 1'
_cell_length_a   13.65541443
_cell_length_b   13.65284354
_cell_length_c   3.80639500
_cell_angle_alpha   90.00000000
_cell_angle_beta   90.00000000
_cell_angle_gamma   111.46907262
_symmetry_Int_Tables_number   1
_chemical_formula_structural   Pr11In9(NiAu)2
_chemical_formula_sum   'Pr11 In9 Ni2 Au2'
_cell_volume   660.40754212
_cell_formula_units_Z   1
loop_
 _symmetry_equiv_pos_site_id
 _symmetry_equiv_pos_as_xyz
  1  'x, y, z'
loop_
 _atom_site_type_symbol
 _atom_site_label
 _atom_site_symmetry_multiplicity
 _atom_site_fract_x
 _atom_site_fract_y
 _atom_site_fract_z
 _atom_site_occupancy
  Pr  Pr0  1  0.500000  0.500000  0.500000  1
  Pr  Pr1  1  0.816773  0.803569  0.500000  1
  Pr  Pr2  1  0.183227  0.196431  0.500000  1
  Pr  Pr3  1  0.566042  0.915618  0.500000  1
  Pr  Pr4  1  0.433958  0.084382  0.500000  1
  Pr  Pr5  1  0.918981  0.573420  0.500000  1
  Pr  Pr6  1  0.081019  0.426580  0.500000  1
  Pr  Pr7  1  0.117516  0.864001  0.500000  1
  Pr  Pr8  1  0.882484  0.135999  0.500000  1
  Pr  Pr9  1  0.338512  0.658122  0.500000  1
  Pr  Pr10  1  0.661488  0.341878  0.500000  1
  In  In11  1  0.336123  0.864996  0.000000  1
  In  In12  1  0.663877  0.135004  0.000000  1
  In  In13  1  0.867418  0.339371  0.000000  1
  In  In14  1  0.132582  0.660629  0.000000  1
  In  In15  1  0.576234  0.718037  0.000000  1
  In  In16  1  0.423766  0.281963  0.000000  1
  In  In17  1  0.720187  0.576699  0.000000  1
  In  In18  1  0.279813  0.423301  0.000000  1
  In  In19  1  0.000000  0.000000  0.000000  1
  Ni  Ni20  1  0.949045  0.743126  0.000000  1
  Ni  Ni21  1  0.050955  0.256874  0.000000  1
  Au  Au22  1  0.751551  0.950747  0.000000  1
  Au  Au23  1  0.248449  0.049253  0.000000  1
