# generated using pymatgen
data_Yb5Pr7(YSi2)8
_symmetry_space_group_name_H-M   'P 1'
_cell_length_a   7.50677700
_cell_length_b   7.86457172
_cell_length_c   14.98723515
_cell_angle_alpha   90.12078137
_cell_angle_beta   90.16352596
_cell_angle_gamma   89.95846995
_symmetry_Int_Tables_number   1
_chemical_formula_structural   Yb5Pr7(YSi2)8
_chemical_formula_sum   'Yb5 Pr7 Y8 Si16'
_cell_volume   884.80438771
_cell_formula_units_Z   1
loop_
 _symmetry_equiv_pos_site_id
 _symmetry_equiv_pos_as_xyz
  1  'x, y, z'
loop_
 _atom_site_type_symbol
 _atom_site_label
 _atom_site_symmetry_multiplicity
 _atom_site_fract_x
 _atom_site_fract_y
 _atom_site_fract_z
 _atom_site_occupancy
  Yb  Yb0  1  0.970701  0.818480  0.097535  1
  Yb  Yb1  1  0.354318  0.013146  0.749464  1
  Yb  Yb2  1  0.853654  0.487137  0.749681  1
  Yb  Yb3  1  0.142622  0.515555  0.248890  1
  Yb  Yb4  1  0.649424  0.984387  0.248830  1
  Pr  Pr5  1  0.969923  0.818103  0.403662  1
  Pr  Pr6  1  0.469931  0.682543  0.100627  1
  Pr  Pr7  1  0.530502  0.318433  0.599781  1
  Pr  Pr8  1  0.031320  0.183318  0.898998  1
  Pr  Pr9  1  0.030087  0.181505  0.599895  1
  Pr  Pr10  1  0.531455  0.318814  0.900811  1
  Pr  Pr11  1  0.468200  0.682014  0.400193  1
  Y  Y12  1  0.315978  0.178416  0.123261  1
  Y  Y13  1  0.817785  0.316843  0.376977  1
  Y  Y14  1  0.183158  0.682470  0.877942  1
  Y  Y15  1  0.682826  0.818322  0.622994  1
  Y  Y16  1  0.317132  0.181791  0.376234  1
  Y  Y17  1  0.817304  0.319039  0.122984  1
  Y  Y18  1  0.182389  0.682225  0.623170  1
  Y  Y19  1  0.683287  0.819030  0.876924  1
  Si  Si20  1  0.855083  0.530730  0.535860  1
  Si  Si21  1  0.358574  0.971133  0.962369  1
  Si  Si22  1  0.644197  0.031216  0.463964  1
  Si  Si23  1  0.146247  0.467020  0.036227  1
  Si  Si24  1  0.144456  0.468869  0.463620  1
  Si  Si25  1  0.642791  0.031009  0.037021  1
  Si  Si26  1  0.354914  0.969747  0.535941  1
  Si  Si27  1  0.857042  0.530151  0.962742  1
  Si  Si28  1  0.975589  0.891112  0.751051  1
  Si  Si29  1  0.474718  0.609592  0.750295  1
  Si  Si30  1  0.522739  0.392688  0.250488  1
  Si  Si31  1  0.024632  0.109848  0.250240  1
  Si  Si32  1  0.242380  0.388707  0.750330  1
  Si  Si33  1  0.742554  0.111113  0.749650  1
  Si  Si34  1  0.256692  0.887207  0.250448  1
  Si  Si35  1  0.755396  0.608286  0.250900  1
