# generated using pymatgen
data_Ho3U2P12Ru19
_symmetry_space_group_name_H-M   'P 1'
_cell_length_a   12.58202600
_cell_length_b   12.57372247
_cell_length_c   3.94221000
_cell_angle_alpha   90.00000000
_cell_angle_beta   90.00000000
_cell_angle_gamma   120.02184785
_symmetry_Int_Tables_number   1
_chemical_formula_structural   Ho3U2P12Ru19
_chemical_formula_sum   'Ho3 U2 P12 Ru19'
_cell_volume   539.99430793
_cell_formula_units_Z   1
loop_
 _symmetry_equiv_pos_site_id
 _symmetry_equiv_pos_as_xyz
  1  'x, y, z'
loop_
 _atom_site_type_symbol
 _atom_site_label
 _atom_site_symmetry_multiplicity
 _atom_site_fract_x
 _atom_site_fract_y
 _atom_site_fract_z
 _atom_site_occupancy
  Ho  Ho0  1  0.190343  0.000000  0.500000  1
  Ho  Ho1  1  0.668682  0.335148  0.000000  1
  Ho  Ho2  1  0.333532  0.664852  0.000000  1
  U  U3  1  0.002399  0.184581  0.500000  1
  U  U4  1  0.817818  0.815419  0.500000  1
  P  P5  1  0.005914  0.820475  0.000000  1
  P  P6  1  0.185438  0.179525  0.000000  1
  P  P7  1  0.814738  0.000000  0.000000  1
  P  P8  1  0.691237  0.170945  0.500000  1
  P  P9  1  0.828346  0.521479  0.500000  1
  P  P10  1  0.479642  0.307567  0.500000  1
  P  P11  1  0.172074  0.692433  0.500000  1
  P  P12  1  0.520292  0.829055  0.500000  1
  P  P13  1  0.306868  0.478521  0.500000  1
  P  P14  1  0.998506  0.374074  0.000000  1
  P  P15  1  0.624432  0.625926  0.000000  1
  P  P16  1  0.373617  0.000000  0.000000  1
  Ru  Ru17  1  0.995328  0.554102  0.000000  1
  Ru  Ru18  1  0.441226  0.445898  0.000000  1
  Ru  Ru19  1  0.556424  0.000000  0.000000  1
  Ru  Ru20  1  0.998307  0.717655  0.500000  1
  Ru  Ru21  1  0.280651  0.282345  0.500000  1
  Ru  Ru22  1  0.717832  0.000000  0.500000  1
  Ru  Ru23  1  0.813085  0.183626  0.000000  1
  Ru  Ru24  1  0.816317  0.632654  0.000000  1
  Ru  Ru25  1  0.378435  0.194152  0.000000  1
  Ru  Ru26  1  0.184284  0.805848  0.000000  1
  Ru  Ru27  1  0.629458  0.816374  0.000000  1
  Ru  Ru28  1  0.183664  0.367346  0.000000  1
  Ru  Ru29  1  0.871470  0.363655  0.500000  1
  Ru  Ru30  1  0.634877  0.510101  0.500000  1
  Ru  Ru31  1  0.491527  0.126017  0.500000  1
  Ru  Ru32  1  0.365510  0.873983  0.500000  1
  Ru  Ru33  1  0.507815  0.636345  0.500000  1
  Ru  Ru34  1  0.124777  0.489899  0.500000  1
  Ru  Ru35  1  0.995134  0.000000  0.000000  1
