# generated using pymatgen
data_La2Gd5Tm13Sn16
_symmetry_space_group_name_H-M   'P 1'
_cell_length_a   8.04623589
_cell_length_b   8.21906674
_cell_length_c   15.48004900
_cell_angle_alpha   90.03778326
_cell_angle_beta   90.30351204
_cell_angle_gamma   89.70887159
_symmetry_Int_Tables_number   1
_chemical_formula_structural   La2Gd5Tm13Sn16
_chemical_formula_sum   'La2 Gd5 Tm13 Sn16'
_cell_volume   1023.70732852
_cell_formula_units_Z   1
loop_
 _symmetry_equiv_pos_site_id
 _symmetry_equiv_pos_as_xyz
  1  'x, y, z'
loop_
 _atom_site_type_symbol
 _atom_site_label
 _atom_site_symmetry_multiplicity
 _atom_site_fract_x
 _atom_site_fract_y
 _atom_site_fract_z
 _atom_site_occupancy
  La  La0  1  0.510697  0.323082  0.593320  1
  La  La1  1  0.012196  0.177983  0.906797  1
  Gd  Gd2  1  0.015178  0.178216  0.597124  1
  Gd  Gd3  1  0.487075  0.679193  0.402461  1
  Gd  Gd4  1  0.985539  0.819393  0.096409  1
  Gd  Gd5  1  0.483170  0.676885  0.096738  1
  Gd  Gd6  1  0.985242  0.822845  0.402894  1
  Tm  Tm7  1  0.358121  0.835229  0.876926  1
  Tm  Tm8  1  0.855637  0.664699  0.623786  1
  Tm  Tm9  1  0.643871  0.161991  0.374639  1
  Tm  Tm10  1  0.141131  0.338707  0.123157  1
  Tm  Tm11  1  0.640927  0.163766  0.124381  1
  Tm  Tm12  1  0.143531  0.336131  0.375012  1
  Tm  Tm13  1  0.357285  0.837312  0.624439  1
  Tm  Tm14  1  0.860143  0.662393  0.878133  1
  Tm  Tm15  1  0.519889  0.323534  0.902681  1
  Tm  Tm16  1  0.191270  0.502778  0.751235  1
  Tm  Tm17  1  0.690506  0.996823  0.750887  1
  Tm  Tm18  1  0.808632  0.498458  0.249082  1
  Tm  Tm19  1  0.309262  0.001770  0.249509  1
  Sn  Sn20  1  0.308186  0.037924  0.043677  1
  Sn  Sn21  1  0.809615  0.459904  0.456597  1
  Sn  Sn22  1  0.697114  0.959782  0.541436  1
  Sn  Sn23  1  0.205238  0.538137  0.958233  1
  Sn  Sn24  1  0.690285  0.958224  0.959893  1
  Sn  Sn25  1  0.188462  0.544281  0.540519  1
  Sn  Sn26  1  0.303917  0.038950  0.457692  1
  Sn  Sn27  1  0.796925  0.459534  0.041697  1
  Sn  Sn28  1  0.555922  0.623254  0.751319  1
  Sn  Sn29  1  0.054885  0.875497  0.750170  1
  Sn  Sn30  1  0.444472  0.377812  0.249549  1
  Sn  Sn31  1  0.945766  0.123457  0.248471  1
  Sn  Sn32  1  0.325552  0.146577  0.752934  1
  Sn  Sn33  1  0.821912  0.355616  0.749480  1
  Sn  Sn34  1  0.676541  0.853420  0.249093  1
  Sn  Sn35  1  0.175909  0.646439  0.249631  1
