# generated using pymatgen
data_ErTm2Ag3PtPb2
_symmetry_space_group_name_H-M   'P 1'
_cell_length_a   8.20760154
_cell_length_b   8.20050688
_cell_length_c   3.63073500
_cell_angle_alpha   90.00000000
_cell_angle_beta   90.00000000
_cell_angle_gamma   119.98704644
_symmetry_Int_Tables_number   1
_chemical_formula_structural   ErTm2Ag3PtPb2
_chemical_formula_sum   'Er1 Tm2 Ag3 Pt1 Pb2'
_cell_volume   211.66001294
_cell_formula_units_Z   1
loop_
 _symmetry_equiv_pos_site_id
 _symmetry_equiv_pos_as_xyz
  1  'x, y, z'
loop_
 _atom_site_type_symbol
 _atom_site_label
 _atom_site_symmetry_multiplicity
 _atom_site_fract_x
 _atom_site_fract_y
 _atom_site_fract_z
 _atom_site_occupancy
  Er  Er0  1  0.582375  0.953397  0.500000  1
  Tm  Tm1  1  0.370980  0.419187  0.500000  1
  Tm  Tm2  1  0.048277  0.628895  0.500000  1
  Ag  Ag3  1  0.704907  0.705386  0.000000  1
  Ag  Ag4  1  0.001064  0.295010  0.000000  1
  Ag  Ag5  1  0.293206  0.998749  0.000000  1
  Pt  Pt6  1  0.332957  0.666301  0.000000  1
  Pb  Pb7  1  0.999450  0.000058  0.500000  1
  Pb  Pb8  1  0.666783  0.333018  0.000000  1
