# generated using pymatgen
data_Ac2HoMg3AgGe2
_symmetry_space_group_name_H-M   'P 1'
_cell_length_a   7.68750022
_cell_length_b   7.68749842
_cell_length_c   4.52758500
_cell_angle_alpha   90.00000000
_cell_angle_beta   90.00000000
_cell_angle_gamma   119.74986872
_symmetry_Int_Tables_number   1
_chemical_formula_structural   Ac2HoMg3AgGe2
_chemical_formula_sum   'Ac2 Ho1 Mg3 Ag1 Ge2'
_cell_volume   232.30392648
_cell_formula_units_Z   1
loop_
 _symmetry_equiv_pos_site_id
 _symmetry_equiv_pos_as_xyz
  1  'x, y, z'
loop_
 _atom_site_type_symbol
 _atom_site_label
 _atom_site_symmetry_multiplicity
 _atom_site_fract_x
 _atom_site_fract_y
 _atom_site_fract_z
 _atom_site_occupancy
  Ac  Ac0  1  0.577395  0.996429  0.500000  1
  Ac  Ac1  1  0.996429  0.577395  0.500000  1
  Ho  Ho2  1  0.419493  0.419493  0.500000  1
  Mg  Mg3  1  0.751131  0.751131  0.000000  1
  Mg  Mg4  1  0.240997  0.009732  0.000000  1
  Mg  Mg5  1  0.009732  0.240997  0.000000  1
  Ag  Ag6  1  0.013206  0.013206  0.500000  1
  Ge  Ge7  1  0.650968  0.340648  0.000000  1
  Ge  Ge8  1  0.340648  0.650968  0.000000  1
