# generated using pymatgen
data_Yb2DyTh(Al8Pt3)3
_symmetry_space_group_name_H-M   'P 1'
_cell_length_a   7.55423773
_cell_length_b   7.57509885
_cell_length_c   13.22737388
_cell_angle_alpha   84.55496510
_cell_angle_beta   79.07809715
_cell_angle_gamma   59.93476008
_symmetry_Int_Tables_number   1
_chemical_formula_structural   Yb2DyTh(Al8Pt3)3
_chemical_formula_sum   'Yb2 Dy1 Th1 Al24 Pt9'
_cell_volume   643.21854336
_cell_formula_units_Z   1
loop_
 _symmetry_equiv_pos_site_id
 _symmetry_equiv_pos_as_xyz
  1  'x, y, z'
loop_
 _atom_site_type_symbol
 _atom_site_label
 _atom_site_symmetry_multiplicity
 _atom_site_fract_x
 _atom_site_fract_y
 _atom_site_fract_z
 _atom_site_occupancy
  Yb  Yb0  1  0.605916  0.831174  0.193290  1
  Yb  Yb1  1  0.733674  0.499206  0.807554  1
  Dy  Dy2  1  0.266460  0.501481  0.192890  1
  Th  Th3  1  0.394951  0.167352  0.807444  1
  Al  Al4  1  0.686993  0.830611  0.947622  1
  Al  Al5  1  0.315139  0.166088  0.058012  1
  Al  Al6  1  0.147122  0.832421  0.560310  1
  Al  Al7  1  0.853673  0.167837  0.438130  1
  Al  Al8  1  0.480753  0.166386  0.556670  1
  Al  Al9  1  0.520532  0.832575  0.440438  1
  Al  Al10  1  0.217467  0.164755  0.329778  1
  Al  Al11  1  0.787581  0.830275  0.667409  1
  Al  Al12  1  0.438614  0.510625  0.667572  1
  Al  Al13  1  0.562868  0.494204  0.329460  1
  Al  Al14  1  0.106260  0.160404  0.666038  1
  Al  Al15  1  0.889688  0.839942  0.331011  1
  Al  Al16  1  0.351869  0.502775  0.946765  1
  Al  Al17  1  0.646805  0.501064  0.055534  1
  Al  Al18  1  0.011841  0.167616  0.956692  1
  Al  Al19  1  0.984011  0.831714  0.047833  1
  Al  Al20  1  0.186026  0.499835  0.440885  1
  Al  Al21  1  0.813400  0.500774  0.558602  1
  Al  Al22  1  0.733294  0.165977  0.183327  1
  Al  Al23  1  0.263980  0.833819  0.816821  1
  Al  Al24  1  0.059747  0.634412  0.815680  1
  Al  Al25  1  0.939113  0.368852  0.184610  1
  Al  Al26  1  0.858416  0.040117  0.816523  1
  Al  Al27  1  0.143597  0.957514  0.183902  1
  Pt  Pt28  1  0.121730  0.491463  0.638117  1
  Pt  Pt29  1  0.880364  0.507100  0.361841  1
  Pt  Pt30  1  0.657194  0.171356  0.999872  1
  Pt  Pt31  1  0.342232  0.829587  0.000041  1
  Pt  Pt32  1  0.537925  0.167155  0.361499  1
  Pt  Pt33  1  0.461299  0.834650  0.637885  1
  Pt  Pt34  1  0.778129  0.174140  0.636886  1
  Pt  Pt35  1  0.220045  0.825632  0.363137  1
  Pt  Pt36  1  0.001291  0.499110  0.999921  1
