# generated using pymatgen
data_Y4ReSi4Ru
_symmetry_space_group_name_H-M   'P 1'
_cell_length_a   5.77130695
_cell_length_b   5.77130594
_cell_length_c   10.06046932
_cell_angle_alpha   116.54885050
_cell_angle_beta   116.54884559
_cell_angle_gamma   42.98223697
_symmetry_Int_Tables_number   1
_chemical_formula_structural   Y4ReSi4Ru
_chemical_formula_sum   'Y4 Re1 Si4 Ru1'
_cell_volume   200.37381286
_cell_formula_units_Z   1
loop_
 _symmetry_equiv_pos_site_id
 _symmetry_equiv_pos_as_xyz
  1  'x, y, z'
loop_
 _atom_site_type_symbol
 _atom_site_label
 _atom_site_symmetry_multiplicity
 _atom_site_fract_x
 _atom_site_fract_y
 _atom_site_fract_z
 _atom_site_occupancy
  Y  Y0  1  0.004715  0.004715  0.177655  1
  Y  Y1  1  0.815010  0.815010  0.391410  1
  Y  Y2  1  0.186771  0.186771  0.610083  1
  Y  Y3  1  0.992345  0.992345  0.820871  1
  Re  Re4  1  0.272737  0.272737  0.128855  1
  Si  Si5  1  0.645118  0.645118  0.059811  1
  Si  Si6  1  0.501732  0.501732  0.377609  1
  Si  Si7  1  0.499123  0.499123  0.624418  1
  Si  Si8  1  0.353196  0.353196  0.936700  1
  Ru  Ru9  1  0.729253  0.729253  0.872590  1
