# generated using pymatgen
data_LaNd5(BePd5)2
_symmetry_space_group_name_H-M   'P 1'
_cell_length_a   8.28658965
_cell_length_b   8.28659103
_cell_length_c   8.28659226
_cell_angle_alpha   126.26893181
_cell_angle_beta   125.26507244
_cell_angle_gamma   80.27403748
_symmetry_Int_Tables_number   1
_chemical_formula_structural   LaNd5(BePd5)2
_chemical_formula_sum   'La1 Nd5 Be2 Pd10'
_cell_volume   361.47557602
_cell_formula_units_Z   1
loop_
 _symmetry_equiv_pos_site_id
 _symmetry_equiv_pos_as_xyz
  1  'x, y, z'
loop_
 _atom_site_type_symbol
 _atom_site_label
 _atom_site_symmetry_multiplicity
 _atom_site_fract_x
 _atom_site_fract_y
 _atom_site_fract_z
 _atom_site_occupancy
  La  La0  1  0.600275  0.750000  0.850275  1
  Nd  Nd1  1  0.824823  0.052123  0.772701  1
  Nd  Nd2  1  0.220576  0.447877  0.772701  1
  Nd  Nd3  1  0.177008  0.948457  0.228550  1
  Nd  Nd4  1  0.402032  0.250000  0.152032  1
  Nd  Nd5  1  0.780095  0.551543  0.228550  1
  Be  Be6  1  0.204036  0.750000  0.454036  1
  Be  Be7  1  0.793349  0.250000  0.543349  1
  Pd  Pd8  1  0.827496  0.586506  0.640830  1
  Pd  Pd9  1  0.554325  0.313334  0.640830  1
  Pd  Pd10  1  0.444689  0.087132  0.758090  1
  Pd  Pd11  1  0.827496  0.186666  0.240991  1
  Pd  Pd12  1  0.170957  0.412868  0.357556  1
  Pd  Pd13  1  0.444689  0.686599  0.357556  1
  Pd  Pd14  1  0.554325  0.913494  0.240991  1
  Pd  Pd15  1  0.170957  0.813401  0.758090  1
  Pd  Pd16  1  0.001437  0.002311  0.503748  1
  Pd  Pd17  1  0.001437  0.497689  0.999126  1
