# generated using pymatgen
data_Eu3Ag(Pt2O7)2
_symmetry_space_group_name_H-M   'P 1'
_cell_length_a   7.27898872
_cell_length_b   7.27898775
_cell_length_c   7.27898868
_cell_angle_alpha   61.06258281
_cell_angle_beta   61.06258879
_cell_angle_gamma   61.06258029
_symmetry_Int_Tables_number   1
_chemical_formula_structural   Eu3Ag(Pt2O7)2
_chemical_formula_sum   'Eu3 Ag1 Pt4 O14'
_cell_volume   279.23250904
_cell_formula_units_Z   1
loop_
 _symmetry_equiv_pos_site_id
 _symmetry_equiv_pos_as_xyz
  1  'x, y, z'
loop_
 _atom_site_type_symbol
 _atom_site_label
 _atom_site_symmetry_multiplicity
 _atom_site_fract_x
 _atom_site_fract_y
 _atom_site_fract_z
 _atom_site_occupancy
  Eu  Eu0  1  0.625000  0.625000  0.125000  1
  Eu  Eu1  1  0.625000  0.125000  0.625000  1
  Eu  Eu2  1  0.125000  0.625000  0.625000  1
  Ag  Ag3  1  0.625000  0.625000  0.625000  1
  Pt  Pt4  1  0.125000  0.125000  0.625000  1
  Pt  Pt5  1  0.125000  0.625000  0.125000  1
  Pt  Pt6  1  0.625000  0.125000  0.125000  1
  Pt  Pt7  1  0.125000  0.125000  0.125000  1
  O  O8  1  0.507328  0.507328  0.507328  1
  O  O9  1  0.742672  0.742672  0.742672  1
  O  O10  1  0.453947  0.052105  0.453947  1
  O  O11  1  0.212279  0.789766  0.212279  1
  O  O12  1  0.453947  0.453947  0.052105  1
  O  O13  1  0.052105  0.453947  0.453947  1
  O  O14  1  0.460234  0.037721  0.037721  1
  O  O15  1  0.037721  0.037721  0.460234  1
  O  O16  1  0.037721  0.460234  0.037721  1
  O  O17  1  0.789766  0.212279  0.212279  1
  O  O18  1  0.197895  0.796053  0.796053  1
  O  O19  1  0.796053  0.197895  0.796053  1
  O  O20  1  0.212279  0.212279  0.789766  1
  O  O21  1  0.796053  0.796053  0.197895  1
