# generated using pymatgen
data_Ca3Hg3Pd2Au
_symmetry_space_group_name_H-M   'P 1'
_cell_length_a   7.75211400
_cell_length_b   7.75211430
_cell_length_c   4.18369900
_cell_angle_alpha   90.00000000
_cell_angle_beta   90.00000000
_cell_angle_gamma   119.99999873
_symmetry_Int_Tables_number   1
_chemical_formula_structural   Ca3Hg3Pd2Au
_chemical_formula_sum   'Ca3 Hg3 Pd2 Au1'
_cell_volume   217.73657467
_cell_formula_units_Z   1
loop_
 _symmetry_equiv_pos_site_id
 _symmetry_equiv_pos_as_xyz
  1  'x, y, z'
loop_
 _atom_site_type_symbol
 _atom_site_label
 _atom_site_symmetry_multiplicity
 _atom_site_fract_x
 _atom_site_fract_y
 _atom_site_fract_z
 _atom_site_occupancy
  Ca  Ca0  1  0.599904  0.006732  0.500000  1
  Ca  Ca1  1  0.406828  0.400096  0.500000  1
  Ca  Ca2  1  0.993268  0.593172  0.500000  1
  Hg  Hg3  1  0.748987  0.739059  0.000000  1
  Hg  Hg4  1  0.990072  0.251013  0.000000  1
  Hg  Hg5  1  0.260941  0.009928  0.000000  1
  Pd  Pd6  1  0.000000  0.000000  0.500000  1
  Pd  Pd7  1  0.666667  0.333333  0.000000  1
  Au  Au8  1  0.333333  0.666667  0.000000  1
