# generated using pymatgen
data_Eu4(Al8Pt3)3
_symmetry_space_group_name_H-M   'P 1'
_cell_length_a   7.52259013
_cell_length_b   7.57305130
_cell_length_c   13.46697966
_cell_angle_alpha   84.57345209
_cell_angle_beta   79.12307486
_cell_angle_gamma   59.93531853
_symmetry_Int_Tables_number   1
_chemical_formula_structural   Eu4(Al8Pt3)3
_chemical_formula_sum   'Eu4 Al24 Pt9'
_cell_volume   652.05251766
_cell_formula_units_Z   1
loop_
 _symmetry_equiv_pos_site_id
 _symmetry_equiv_pos_as_xyz
  1  'x, y, z'
loop_
 _atom_site_type_symbol
 _atom_site_label
 _atom_site_symmetry_multiplicity
 _atom_site_fract_x
 _atom_site_fract_y
 _atom_site_fract_z
 _atom_site_occupancy
  Eu  Eu0  1  0.393976  0.168772  0.808104  1
  Eu  Eu1  1  0.606024  0.831228  0.191896  1
  Eu  Eu2  1  0.733530  0.498725  0.808384  1
  Eu  Eu3  1  0.266470  0.501275  0.191616  1
  Al  Al4  1  0.685842  0.833858  0.947472  1
  Al  Al5  1  0.314158  0.166142  0.052528  1
  Al  Al6  1  0.147787  0.831629  0.558598  1
  Al  Al7  1  0.852213  0.168371  0.441402  1
  Al  Al8  1  0.480046  0.166382  0.557305  1
  Al  Al9  1  0.519954  0.833618  0.442695  1
  Al  Al10  1  0.215747  0.165092  0.331312  1
  Al  Al11  1  0.784253  0.834908  0.668688  1
  Al  Al12  1  0.437086  0.507667  0.668276  1
  Al  Al13  1  0.562914  0.492333  0.331724  1
  Al  Al14  1  0.110275  0.158604  0.667161  1
  Al  Al15  1  0.889725  0.841396  0.332839  1
  Al  Al16  1  0.350336  0.501035  0.947914  1
  Al  Al17  1  0.649664  0.498965  0.052086  1
  Al  Al18  1  0.014536  0.166305  0.956246  1
  Al  Al19  1  0.985464  0.833695  0.043754  1
  Al  Al20  1  0.185668  0.499225  0.442435  1
  Al  Al21  1  0.814332  0.500775  0.557565  1
  Al  Al22  1  0.734922  0.164080  0.182872  1
  Al  Al23  1  0.265078  0.835920  0.817128  1
  Al  Al24  1  0.062072  0.632051  0.815868  1
  Al  Al25  1  0.937928  0.367949  0.184132  1
  Al  Al26  1  0.857061  0.040129  0.816350  1
  Al  Al27  1  0.142939  0.959871  0.183651  1
  Pt  Pt28  1  0.121032  0.494284  0.636216  1
  Pt  Pt29  1  0.878968  0.505716  0.363784  1
  Pt  Pt30  1  0.658684  0.170289  0.999938  1
  Pt  Pt31  1  0.341316  0.829711  0.000062  1
  Pt  Pt32  1  0.538959  0.167123  0.363788  1
  Pt  Pt33  1  0.461041  0.832877  0.636212  1
  Pt  Pt34  1  0.781863  0.172381  0.634878  1
  Pt  Pt35  1  0.218137  0.827619  0.365122  1
  Pt  Pt36  1  0.000000  0.500000  0.000000  1
