# generated using pymatgen
data_Ca6YbPr13Sn16
_symmetry_space_group_name_H-M   'P 1'
_cell_length_a   8.08344716
_cell_length_b   8.55978155
_cell_length_c   16.17887701
_cell_angle_alpha   90.01967327
_cell_angle_beta   89.99152833
_cell_angle_gamma   90.00052544
_symmetry_Int_Tables_number   1
_chemical_formula_structural   Ca6YbPr13Sn16
_chemical_formula_sum   'Ca6 Yb1 Pr13 Sn16'
_cell_volume   1119.45754628
_cell_formula_units_Z   1
loop_
 _symmetry_equiv_pos_site_id
 _symmetry_equiv_pos_as_xyz
  1  'x, y, z'
loop_
 _atom_site_type_symbol
 _atom_site_label
 _atom_site_symmetry_multiplicity
 _atom_site_fract_x
 _atom_site_fract_y
 _atom_site_fract_z
 _atom_site_occupancy
  Ca  Ca0  1  0.832009  0.670893  0.622699  1
  Ca  Ca1  1  0.669566  0.169584  0.377318  1
  Ca  Ca2  1  0.163089  0.498655  0.749952  1
  Ca  Ca3  1  0.661835  0.002425  0.749915  1
  Ca  Ca4  1  0.836785  0.502580  0.251580  1
  Ca  Ca5  1  0.337571  0.994647  0.250889  1
  Yb  Yb6  1  0.330450  0.829315  0.876869  1
  Pr  Pr7  1  0.166025  0.325830  0.123355  1
  Pr  Pr8  1  0.666392  0.172266  0.124305  1
  Pr  Pr9  1  0.165980  0.326558  0.375858  1
  Pr  Pr10  1  0.335413  0.827095  0.624804  1
  Pr  Pr11  1  0.834958  0.674815  0.874727  1
  Pr  Pr12  1  0.490630  0.315827  0.904372  1
  Pr  Pr13  1  0.990870  0.187289  0.596344  1
  Pr  Pr14  1  0.510707  0.685114  0.404508  1
  Pr  Pr15  1  0.008488  0.814644  0.095476  1
  Pr  Pr16  1  0.508876  0.683469  0.095701  1
  Pr  Pr17  1  0.005924  0.816104  0.404949  1
  Pr  Pr18  1  0.493196  0.315834  0.595020  1
  Pr  Pr19  1  0.990115  0.185485  0.902882  1
  Sn  Sn20  1  0.327699  0.033288  0.038366  1
  Sn  Sn21  1  0.827834  0.465827  0.461073  1
  Sn  Sn22  1  0.673734  0.965976  0.539714  1
  Sn  Sn23  1  0.174004  0.536122  0.960855  1
  Sn  Sn24  1  0.671007  0.963019  0.961739  1
  Sn  Sn25  1  0.173567  0.537633  0.537719  1
  Sn  Sn26  1  0.328480  0.036093  0.462296  1
  Sn  Sn27  1  0.825501  0.463258  0.036779  1
  Sn  Sn28  1  0.532545  0.604072  0.750352  1
  Sn  Sn29  1  0.032993  0.898779  0.749880  1
  Sn  Sn30  1  0.468458  0.397656  0.249584  1
  Sn  Sn31  1  0.968085  0.103177  0.250665  1
  Sn  Sn32  1  0.288870  0.141474  0.749656  1
  Sn  Sn33  1  0.788103  0.359394  0.750609  1
  Sn  Sn34  1  0.710257  0.857027  0.249234  1
  Sn  Sn35  1  0.209985  0.638773  0.249958  1
