# generated using pymatgen
data_Tb4HoEr11(CdNi)4
_symmetry_space_group_name_H-M   'P 1'
_cell_length_a   9.49506345
_cell_length_b   9.49506333
_cell_length_c   9.49673800
_cell_angle_alpha   59.99416546
_cell_angle_beta   59.99416587
_cell_angle_gamma   60.04278256
_symmetry_Int_Tables_number   1
_chemical_formula_structural   Tb4HoEr11(CdNi)4
_chemical_formula_sum   'Tb4 Ho1 Er11 Cd4 Ni4'
_cell_volume   605.55987373
_cell_formula_units_Z   1
loop_
 _symmetry_equiv_pos_site_id
 _symmetry_equiv_pos_as_xyz
  1  'x, y, z'
loop_
 _atom_site_type_symbol
 _atom_site_label
 _atom_site_symmetry_multiplicity
 _atom_site_fract_x
 _atom_site_fract_y
 _atom_site_fract_z
 _atom_site_occupancy
  Tb  Tb0  1  0.598930  0.598930  0.597705  1
  Tb  Tb1  1  0.598930  0.598930  0.204436  1
  Tb  Tb2  1  0.602188  0.198116  0.599849  1
  Tb  Tb3  1  0.198116  0.602188  0.599849  1
  Ho  Ho4  1  0.186667  0.186667  0.813333  1
  Er  Er5  1  0.063186  0.438224  0.436743  1
  Er  Er6  1  0.438224  0.063186  0.061847  1
  Er  Er7  1  0.438224  0.063186  0.436743  1
  Er  Er8  1  0.063186  0.438224  0.061847  1
  Er  Er9  1  0.438612  0.438612  0.061388  1
  Er  Er10  1  0.063976  0.063976  0.436024  1
  Er  Er11  1  0.185759  0.814434  0.814210  1
  Er  Er12  1  0.814434  0.185759  0.185599  1
  Er  Er13  1  0.814434  0.185759  0.814210  1
  Er  Er14  1  0.185759  0.814434  0.185599  1
  Er  Er15  1  0.815786  0.815786  0.184214  1
  Cd  Cd16  1  0.830298  0.830298  0.833610  1
  Cd  Cd17  1  0.830298  0.830298  0.505795  1
  Cd  Cd18  1  0.829413  0.504511  0.833038  1
  Cd  Cd19  1  0.504511  0.829413  0.833038  1
  Ni  Ni20  1  0.391768  0.391768  0.394188  1
  Ni  Ni21  1  0.391768  0.391768  0.822275  1
  Ni  Ni22  1  0.390256  0.825282  0.392231  1
  Ni  Ni23  1  0.825282  0.390256  0.392231  1
