# generated using pymatgen
data_Na2Ag(CO3)2
_symmetry_space_group_name_H-M   'P 1'
_cell_length_a   6.28200420
_cell_length_b   6.83817956
_cell_length_c   9.87971627
_cell_angle_alpha   98.38214751
_cell_angle_beta   71.48718666
_cell_angle_gamma   117.32837301
_symmetry_Int_Tables_number   1
_chemical_formula_structural   Na2Ag(CO3)2
_chemical_formula_sum   'Na4 Ag2 C4 O12'
_cell_volume   357.52871731
_cell_formula_units_Z   2
loop_
 _symmetry_equiv_pos_site_id
 _symmetry_equiv_pos_as_xyz
  1  'x, y, z'
loop_
 _atom_site_type_symbol
 _atom_site_label
 _atom_site_symmetry_multiplicity
 _atom_site_fract_x
 _atom_site_fract_y
 _atom_site_fract_z
 _atom_site_occupancy
  Na  Na0  1  0.711016  0.448648  0.161594  1
  Na  Na1  1  0.122428  0.948660  0.338473  1
  Na  Na2  1  0.512185  0.051421  0.661605  1
  Na  Na3  1  0.424050  0.551499  0.838429  1
  Ag  Ag4  1  0.959280  0.999942  0.999846  1
  Ag  Ag5  1  0.209298  0.499967  0.500161  1
  C  C6  1  0.164850  0.441181  0.206955  1
  C  C7  1  0.621444  0.941145  0.293063  1
  C  C8  1  0.973097  0.058775  0.707090  1
  C  C9  1  0.930235  0.558759  0.792836  1
  O  O10  1  0.187550  0.380128  0.074508  1
  O  O11  1  0.566904  0.059050  0.233315  1
  O  O12  1  0.796429  0.877979  0.219456  1
  O  O13  1  0.266173  0.377899  0.280585  1
  O  O14  1  0.050411  0.558883  0.266771  1
  O  O15  1  0.511980  0.880121  0.425521  1
  O  O16  1  0.056957  0.119712  0.574657  1
  O  O17  1  0.758089  0.441222  0.732885  1
  O  O18  1  0.168547  0.621991  0.719431  1
  O  O19  1  0.137976  0.121992  0.780539  1
  O  O20  1  0.740997  0.941210  0.767034  1
  O  O21  1  0.881860  0.619818  0.925246  1
