# generated using pymatgen
data_Ca2Ni7As7Rh5
_symmetry_space_group_name_H-M   'P 1'
_cell_length_a   9.66989788
_cell_length_b   9.69677245
_cell_length_c   3.83963700
_cell_angle_alpha   90.00000000
_cell_angle_beta   90.00000000
_cell_angle_gamma   119.70775514
_symmetry_Int_Tables_number   1
_chemical_formula_structural   Ca2Ni7As7Rh5
_chemical_formula_sum   'Ca2 Ni7 As7 Rh5'
_cell_volume   312.70966721
_cell_formula_units_Z   1
loop_
 _symmetry_equiv_pos_site_id
 _symmetry_equiv_pos_as_xyz
  1  'x, y, z'
loop_
 _atom_site_type_symbol
 _atom_site_label
 _atom_site_symmetry_multiplicity
 _atom_site_fract_x
 _atom_site_fract_y
 _atom_site_fract_z
 _atom_site_occupancy
  Ca  Ca0  1  0.997631  0.999897  0.000000  1
  Ca  Ca1  1  0.667630  0.334896  0.500000  1
  Ni  Ni2  1  0.389384  0.289265  0.000000  1
  Ni  Ni3  1  0.904800  0.612914  0.000000  1
  Ni  Ni4  1  0.711623  0.098070  0.000000  1
  Ni  Ni5  1  0.606601  0.786500  0.000000  1
  Ni  Ni6  1  0.174989  0.388073  0.000000  1
  Ni  Ni7  1  0.217825  0.827068  0.000000  1
  Ni  Ni8  1  0.455723  0.875262  0.500000  1
  As  As9  1  0.619662  0.543158  0.000000  1
  As  As10  1  0.924033  0.380031  0.000000  1
  As  As11  1  0.460490  0.076681  0.000000  1
  As  As12  1  0.731561  0.955889  0.500000  1
  As  As13  1  0.220078  0.260325  0.500000  1
  As  As14  1  0.043193  0.783975  0.500000  1
  As  As15  1  0.331610  0.666120  0.000000  1
  Rh  Rh16  1  0.764180  0.714033  0.500000  1
  Rh  Rh17  1  0.948840  0.233456  0.500000  1
  Rh  Rh18  1  0.291095  0.049929  0.500000  1
  Rh  Rh19  1  0.418514  0.544231  0.500000  1
  Rh  Rh20  1  0.120539  0.580227  0.500000  1
