# generated using pymatgen
data_InFe2SbO6
_symmetry_space_group_name_H-M   'P 1'
_cell_length_a   6.27659305
_cell_length_b   6.34587859
_cell_length_c   6.32899062
_cell_angle_alpha   90.02558611
_cell_angle_beta   90.30160288
_cell_angle_gamma   89.90215184
_symmetry_Int_Tables_number   1
_chemical_formula_structural   InFe2SbO6
_chemical_formula_sum   'In2 Fe4 Sb2 O12'
_cell_volume   252.08296062
_cell_formula_units_Z   2
loop_
 _symmetry_equiv_pos_site_id
 _symmetry_equiv_pos_as_xyz
  1  'x, y, z'
loop_
 _atom_site_type_symbol
 _atom_site_label
 _atom_site_symmetry_multiplicity
 _atom_site_fract_x
 _atom_site_fract_y
 _atom_site_fract_z
 _atom_site_occupancy
  In  In0  1  0.057235  0.748320  0.563282  1
  In  In1  1  0.744881  0.567340  0.053470  1
  Fe  Fe2  1  0.555821  0.053852  0.741680  1
  Fe  Fe3  1  0.942068  0.250033  0.437573  1
  Fe  Fe4  1  0.259244  0.429262  0.949806  1
  Fe  Fe5  1  0.441886  0.957296  0.256835  1
  Sb  Sb6  1  0.495777  0.495770  0.499288  1
  Sb  Sb7  1  0.001739  0.005683  0.000766  1
  O  O8  1  0.047194  0.696639  0.912892  1
  O  O9  1  0.699103  0.911869  0.049653  1
  O  O10  1  0.906080  0.040968  0.696222  1
  O  O11  1  0.954896  0.302157  0.101248  1
  O  O12  1  0.300800  0.095097  0.945993  1
  O  O13  1  0.101880  0.956634  0.298516  1
  O  O14  1  0.801048  0.572053  0.418252  1
  O  O15  1  0.572551  0.423365  0.800792  1
  O  O16  1  0.418597  0.798092  0.567600  1
  O  O17  1  0.192950  0.427752  0.574455  1
  O  O18  1  0.427785  0.569915  0.196900  1
  O  O19  1  0.578464  0.197901  0.434776  1
