# generated using pymatgen
data_Dy3TmAl12(GaIr)6
_symmetry_space_group_name_H-M   'P 1'
_cell_length_a   7.52201804
_cell_length_b   7.52418380
_cell_length_c   9.56655700
_cell_angle_alpha   90.00000000
_cell_angle_beta   90.00000000
_cell_angle_gamma   119.63571497
_symmetry_Int_Tables_number   1
_chemical_formula_structural   Dy3TmAl12(GaIr)6
_chemical_formula_sum   'Dy3 Tm1 Al12 Ga6 Ir6'
_cell_volume   470.61155343
_cell_formula_units_Z   1
loop_
 _symmetry_equiv_pos_site_id
 _symmetry_equiv_pos_as_xyz
  1  'x, y, z'
loop_
 _atom_site_type_symbol
 _atom_site_label
 _atom_site_symmetry_multiplicity
 _atom_site_fract_x
 _atom_site_fract_y
 _atom_site_fract_z
 _atom_site_occupancy
  Dy  Dy0  1  0.996569  0.670090  0.250000  1
  Dy  Dy1  1  0.003545  0.329870  0.750000  1
  Dy  Dy2  1  0.670052  0.996523  0.250000  1
  Tm  Tm3  1  0.329822  0.003489  0.750000  1
  Al  Al4  1  0.001954  0.334680  0.072649  1
  Al  Al5  1  0.998640  0.665951  0.926912  1
  Al  Al6  1  0.998640  0.665951  0.573088  1
  Al  Al7  1  0.334684  0.001941  0.427917  1
  Al  Al8  1  0.001954  0.334680  0.427351  1
  Al  Al9  1  0.664662  0.998039  0.573122  1
  Al  Al10  1  0.664662  0.998039  0.926878  1
  Al  Al11  1  0.334684  0.001941  0.072083  1
  Al  Al12  1  0.334173  0.333577  0.555747  1
  Al  Al13  1  0.665874  0.665869  0.444784  1
  Al  Al14  1  0.665874  0.665869  0.055216  1
  Al  Al15  1  0.334173  0.333577  0.944253  1
  Ga  Ga16  1  0.129153  0.129080  0.250000  1
  Ga  Ga17  1  0.871818  0.871365  0.750000  1
  Ga  Ga18  1  0.338769  0.547154  0.250000  1
  Ga  Ga19  1  0.660537  0.451875  0.750000  1
  Ga  Ga20  1  0.546988  0.338609  0.250000  1
  Ga  Ga21  1  0.452639  0.661752  0.750000  1
  Ir  Ir22  1  0.671443  0.328039  0.999711  1
  Ir  Ir23  1  0.328222  0.671878  0.999711  1
  Ir  Ir24  1  0.328222  0.671878  0.500289  1
  Ir  Ir25  1  0.671443  0.328039  0.500289  1
  Ir  Ir26  1  0.000401  0.000123  0.999670  1
  Ir  Ir27  1  0.000401  0.000123  0.500330  1
