# generated using pymatgen
data_Na12MnFe3S8(O4F)8
_symmetry_space_group_name_H-M   'P 1'
_cell_length_a   6.73968800
_cell_length_b   8.94933400
_cell_length_c   14.24180400
_cell_angle_alpha   90.00000000
_cell_angle_beta   90.00000000
_cell_angle_gamma   90.00000000
_symmetry_Int_Tables_number   1
_chemical_formula_structural   Na12MnFe3S8(O4F)8
_chemical_formula_sum   'Na12 Mn1 Fe3 S8 O32 F8'
_cell_volume   859.00464766
_cell_formula_units_Z   1
loop_
 _symmetry_equiv_pos_site_id
 _symmetry_equiv_pos_as_xyz
  1  'x, y, z'
loop_
 _atom_site_type_symbol
 _atom_site_label
 _atom_site_symmetry_multiplicity
 _atom_site_fract_x
 _atom_site_fract_y
 _atom_site_fract_z
 _atom_site_occupancy
  Na  Na0  1  0.521791  0.663485  0.904611  1
  Na  Na1  1  0.020595  0.833002  0.595998  1
  Na  Na2  1  0.479405  0.166998  0.595998  1
  Na  Na3  1  0.978209  0.336515  0.904611  1
  Na  Na4  1  0.479867  0.334706  0.093734  1
  Na  Na5  1  0.979525  0.165521  0.404508  1
  Na  Na6  1  0.520475  0.834479  0.404508  1
  Na  Na7  1  0.020133  0.665294  0.093734  1
  Na  Na8  1  0.750000  0.000000  0.048237  1
  Na  Na9  1  0.250000  0.500000  0.452160  1
  Na  Na10  1  0.250000  0.000000  0.950584  1
  Na  Na11  1  0.750000  0.500000  0.548329  1
  Mn  Mn12  1  0.750000  0.000000  0.803020  1
  Fe  Fe13  1  0.250000  0.500000  0.695767  1
  Fe  Fe14  1  0.250000  0.000000  0.194112  1
  Fe  Fe15  1  0.750000  0.500000  0.305781  1
  S  S16  1  0.006240  0.689171  0.856482  1
  S  S17  1  0.505320  0.807607  0.643936  1
  S  S18  1  0.994680  0.192393  0.643936  1
  S  S19  1  0.493760  0.310829  0.856482  1
  S  S20  1  0.996467  0.306692  0.143304  1
  S  S21  1  0.496282  0.193054  0.357072  1
  S  S22  1  0.003718  0.806946  0.357072  1
  S  S23  1  0.503533  0.693308  0.143304  1
  O  O24  1  0.442639  0.450588  0.800692  1
  O  O25  1  0.946005  0.053926  0.702485  1
  O  O26  1  0.553995  0.946074  0.702485  1
  O  O27  1  0.057361  0.549412  0.800692  1
  O  O28  1  0.551968  0.557128  0.202168  1
  O  O29  1  0.051784  0.943176  0.298154  1
  O  O30  1  0.448216  0.056824  0.298154  1
  O  O31  1  0.948032  0.442872  0.202168  1
  O  O32  1  0.188418  0.763451  0.888692  1
  O  O33  1  0.687528  0.735139  0.611816  1
  O  O34  1  0.812472  0.264861  0.611816  1
  O  O35  1  0.311582  0.236549  0.888692  1
  O  O36  1  0.813762  0.233692  0.111473  1
  O  O37  1  0.313413  0.265585  0.389028  1
  O  O38  1  0.186587  0.734415  0.389028  1
  O  O39  1  0.686238  0.766308  0.111473  1
  O  O40  1  0.882267  0.639028  0.936287  1
  O  O41  1  0.382114  0.862213  0.565424  1
  O  O42  1  0.117886  0.137787  0.565424  1
  O  O43  1  0.617733  0.360972  0.936287  1
  O  O44  1  0.120234  0.358391  0.064239  1
  O  O45  1  0.620163  0.141330  0.436193  1
  O  O46  1  0.879837  0.858670  0.436193  1
  O  O47  1  0.379766  0.641609  0.064239  1
  O  O48  1  0.385393  0.706102  0.705801  1
  O  O49  1  0.889510  0.786559  0.792000  1
  O  O50  1  0.610490  0.213441  0.792000  1
  O  O51  1  0.114607  0.293898  0.705801  1
  O  O52  1  0.615586  0.296107  0.294953  1
  O  O53  1  0.115960  0.203764  0.205535  1
  O  O54  1  0.384040  0.796236  0.205535  1
  O  O55  1  0.884414  0.703893  0.294953  1
  F  F56  1  0.580479  0.928339  0.900725  1
  F  F57  1  0.077412  0.572481  0.595839  1
  F  F58  1  0.422588  0.427519  0.595839  1
  F  F59  1  0.919521  0.071661  0.900725  1
  F  F60  1  0.423579  0.071810  0.094833  1
  F  F61  1  0.923121  0.427227  0.405029  1
  F  F62  1  0.576879  0.572773  0.405029  1
  F  F63  1  0.076421  0.928190  0.094833  1
