# generated using pymatgen
data_Zr5InCuBi2
_symmetry_space_group_name_H-M   'P 1'
_cell_length_a   8.76437303
_cell_length_b   8.76437311
_cell_length_c   5.94669700
_cell_angle_alpha   90.00000000
_cell_angle_beta   90.00000000
_cell_angle_gamma   119.71540070
_symmetry_Int_Tables_number   1
_chemical_formula_structural   Zr5InCuBi2
_chemical_formula_sum   'Zr10 In2 Cu2 Bi4'
_cell_volume   396.72219502
_cell_formula_units_Z   2
loop_
 _symmetry_equiv_pos_site_id
 _symmetry_equiv_pos_as_xyz
  1  'x, y, z'
loop_
 _atom_site_type_symbol
 _atom_site_label
 _atom_site_symmetry_multiplicity
 _atom_site_fract_x
 _atom_site_fract_y
 _atom_site_fract_z
 _atom_site_occupancy
  Zr  Zr0  1  0.734190  0.006956  0.250000  1
  Zr  Zr1  1  0.006956  0.734190  0.250000  1
  Zr  Zr2  1  0.267572  0.267572  0.250000  1
  Zr  Zr3  1  0.246194  0.998002  0.750000  1
  Zr  Zr4  1  0.998002  0.246194  0.750000  1
  Zr  Zr5  1  0.749685  0.749685  0.750000  1
  Zr  Zr6  1  0.331604  0.666803  0.494969  1
  Zr  Zr7  1  0.666803  0.331604  0.494969  1
  Zr  Zr8  1  0.666803  0.331604  0.005031  1
  Zr  Zr9  1  0.331604  0.666803  0.005031  1
  In  In10  1  0.382677  0.001509  0.250000  1
  In  In11  1  0.001509  0.382677  0.250000  1
  Cu  Cu12  1  0.001418  0.001418  0.471940  1
  Cu  Cu13  1  0.001418  0.001418  0.028060  1
  Bi  Bi14  1  0.620784  0.620784  0.250000  1
  Bi  Bi15  1  0.604734  0.998962  0.750000  1
  Bi  Bi16  1  0.998962  0.604734  0.750000  1
  Bi  Bi17  1  0.389083  0.389083  0.750000  1
