# generated using pymatgen
data_Yb2ErTm(B4Ru)4
_symmetry_space_group_name_H-M   'P 1'
_cell_length_a   3.53383100
_cell_length_b   5.94252429
_cell_length_c   11.48926032
_cell_angle_alpha   90.00967433
_cell_angle_beta   90.00000000
_cell_angle_gamma   90.00000000
_symmetry_Int_Tables_number   1
_chemical_formula_structural   Yb2ErTm(B4Ru)4
_chemical_formula_sum   'Yb2 Er1 Tm1 B16 Ru4'
_cell_volume   241.27304486
_cell_formula_units_Z   1
loop_
 _symmetry_equiv_pos_site_id
 _symmetry_equiv_pos_as_xyz
  1  'x, y, z'
loop_
 _atom_site_type_symbol
 _atom_site_label
 _atom_site_symmetry_multiplicity
 _atom_site_fract_x
 _atom_site_fract_y
 _atom_site_fract_z
 _atom_site_occupancy
  Yb  Yb0  1  0.000000  0.370484  0.649750  1
  Yb  Yb1  1  0.000000  0.129507  0.149917  1
  Er  Er2  1  0.000000  0.871110  0.849591  1
  Tm  Tm3  1  0.000000  0.628889  0.349719  1
  B  B4  1  0.500000  0.788215  0.185822  1
  B  B5  1  0.500000  0.211115  0.814841  1
  B  B6  1  0.500000  0.289431  0.314891  1
  B  B7  1  0.500000  0.711801  0.685510  1
  B  B8  1  0.500000  0.864456  0.030923  1
  B  B9  1  0.500000  0.135508  0.969544  1
  B  B10  1  0.500000  0.364613  0.469435  1
  B  B11  1  0.500000  0.635401  0.530564  1
  B  B12  1  0.500000  0.887812  0.453016  1
  B  B13  1  0.500000  0.113710  0.547350  1
  B  B14  1  0.500000  0.386328  0.047535  1
  B  B15  1  0.500000  0.611927  0.953252  1
  B  B16  1  0.500000  0.974906  0.307961  1
  B  B17  1  0.500000  0.023035  0.691981  1
  B  B18  1  0.500000  0.477128  0.192360  1
  B  B19  1  0.500000  0.524542  0.807922  1
  Ru  Ru20  1  0.000000  0.638250  0.090414  1
  Ru  Ru21  1  0.000000  0.361642  0.909136  1
  Ru  Ru22  1  0.000000  0.138729  0.408866  1
  Ru  Ru23  1  0.000000  0.861461  0.589700  1
