# generated using pymatgen
data_TaAlPt6
_symmetry_space_group_name_H-M   'P 1'
_cell_length_a   5.61960878
_cell_length_b   5.61960803
_cell_length_c   3.95104600
_cell_angle_alpha   90.00000000
_cell_angle_beta   90.00000000
_cell_angle_gamma   89.52737819
_symmetry_Int_Tables_number   1
_chemical_formula_structural   TaAlPt6
_chemical_formula_sum   'Ta1 Al1 Pt6'
_cell_volume   124.76978230
_cell_formula_units_Z   1
loop_
 _symmetry_equiv_pos_site_id
 _symmetry_equiv_pos_as_xyz
  1  'x, y, z'
loop_
 _atom_site_type_symbol
 _atom_site_label
 _atom_site_symmetry_multiplicity
 _atom_site_fract_x
 _atom_site_fract_y
 _atom_site_fract_z
 _atom_site_occupancy
  Ta  Ta0  1  0.000000  0.000000  0.500000  1
  Al  Al1  1  0.500000  0.500000  0.500000  1
  Pt  Pt2  1  0.748361  0.251639  0.000000  1
  Pt  Pt3  1  0.251639  0.748361  0.000000  1
  Pt  Pt4  1  0.243631  0.243631  0.000000  1
  Pt  Pt5  1  0.756369  0.756369  0.000000  1
  Pt  Pt6  1  0.000000  0.500000  0.500000  1
  Pt  Pt7  1  0.500000  0.000000  0.500000  1
