# generated using pymatgen
data_PmCl7
_symmetry_space_group_name_H-M   'P 1'
_cell_length_a   5.44020393
_cell_length_b   4.14196726
_cell_length_c   15.01494010
_cell_angle_alpha   116.79330350
_cell_angle_beta   92.03502803
_cell_angle_gamma   91.39935059
_symmetry_Int_Tables_number   1
_chemical_formula_structural   PmCl7
_chemical_formula_sum   'Pm1 Cl7'
_cell_volume   301.50924345
_cell_formula_units_Z   1
loop_
 _symmetry_equiv_pos_site_id
 _symmetry_equiv_pos_as_xyz
  1  'x, y, z'
loop_
 _atom_site_type_symbol
 _atom_site_label
 _atom_site_symmetry_multiplicity
 _atom_site_fract_x
 _atom_site_fract_y
 _atom_site_fract_z
 _atom_site_occupancy
  Pm  Pm0  1  0.147941  0.813837  0.897666  1
  Cl  Cl1  1  0.164169  0.534954  0.031516  1
  Cl  Cl2  1  0.151054  0.290976  0.363551  1
  Cl  Cl3  1  0.469902  0.021717  0.495876  1
  Cl  Cl4  1  0.707146  0.410504  0.592920  1
  Cl  Cl5  1  0.887593  0.342146  0.274680  1
  Cl  Cl6  1  0.128614  0.092637  0.762290  1
  Cl  Cl7  1  0.648346  0.836275  0.902465  1
