# generated using pymatgen
data_Th3Zn2TcAu3
_symmetry_space_group_name_H-M   'P 1'
_cell_length_a   3.85917400
_cell_length_b   7.93239416
_cell_length_c   7.67780900
_cell_angle_alpha   120.79079399
_cell_angle_beta   90.00000000
_cell_angle_gamma   90.00000000
_symmetry_Int_Tables_number   1
_chemical_formula_structural   Th3Zn2TcAu3
_chemical_formula_sum   'Th3 Zn2 Tc1 Au3'
_cell_volume   201.90655936
_cell_formula_units_Z   1
loop_
 _symmetry_equiv_pos_site_id
 _symmetry_equiv_pos_as_xyz
  1  'x, y, z'
loop_
 _atom_site_type_symbol
 _atom_site_label
 _atom_site_symmetry_multiplicity
 _atom_site_fract_x
 _atom_site_fract_y
 _atom_site_fract_z
 _atom_site_occupancy
  Th  Th0  1  0.000000  0.423051  0.022565  1
  Th  Th1  1  0.000000  0.611636  0.594829  1
  Th  Th2  1  0.000000  0.966690  0.384662  1
  Zn  Zn3  1  0.500000  0.266536  0.261296  1
  Zn  Zn4  1  0.500000  0.001746  0.738728  1
  Tc  Tc5  1  0.500000  0.660020  0.349990  1
  Au  Au6  1  0.500000  0.313279  0.651268  1
  Au  Au7  1  0.000000  0.027207  0.004955  1
  Au  Au8  1  0.500000  0.729935  0.991707  1
