# generated using pymatgen
data_Rb(V3S4)4
_symmetry_space_group_name_H-M   'P 1'
_cell_length_a   9.79279125
_cell_length_b   9.79279174
_cell_length_c   9.24269515
_cell_angle_alpha   61.71508883
_cell_angle_beta   61.71508885
_cell_angle_gamma   38.43691849
_symmetry_Int_Tables_number   1
_chemical_formula_structural   Rb(V3S4)4
_chemical_formula_sum   'Rb1 V12 S16'
_cell_volume   476.60732290
_cell_formula_units_Z   1
loop_
 _symmetry_equiv_pos_site_id
 _symmetry_equiv_pos_as_xyz
  1  'x, y, z'
loop_
 _atom_site_type_symbol
 _atom_site_label
 _atom_site_symmetry_multiplicity
 _atom_site_fract_x
 _atom_site_fract_y
 _atom_site_fract_z
 _atom_site_occupancy
  Rb  Rb0  1  0.374907  0.374907  0.999473  1
  V  V1  1  0.933019  0.933019  0.510981  1
  V  V2  1  0.432884  0.432884  0.515261  1
  V  V3  1  0.131031  0.131031  0.373807  1
  V  V4  1  0.632731  0.632731  0.368214  1
  V  V5  1  0.059017  0.059017  0.116097  1
  V  V6  1  0.562071  0.562071  0.114592  1
  V  V7  1  0.065457  0.569246  0.491801  1
  V  V8  1  0.569246  0.065457  0.491801  1
  V  V9  1  0.876212  0.364678  0.623564  1
  V  V10  1  0.364678  0.876212  0.623564  1
  V  V11  1  0.931765  0.441990  0.885209  1
  V  V12  1  0.441990  0.931765  0.885209  1
  S  S13  1  0.526908  0.526908  0.641901  1
  S  S14  1  0.022266  0.022266  0.650954  1
  S  S15  1  0.700574  0.700574  0.053824  1
  S  S16  1  0.195475  0.195475  0.055614  1
  S  S17  1  0.402907  0.402907  0.302646  1
  S  S18  1  0.901434  0.901434  0.296749  1
  S  S19  1  0.478663  0.978472  0.347062  1
  S  S20  1  0.978472  0.478663  0.347062  1
  S  S21  1  0.298414  0.799136  0.945482  1
  S  S22  1  0.799136  0.298414  0.945482  1
  S  S23  1  0.600183  0.095677  0.706758  1
  S  S24  1  0.095677  0.600183  0.706758  1
  S  S25  1  0.707637  0.707637  0.666021  1
  S  S26  1  0.208693  0.208693  0.667752  1
  S  S27  1  0.291530  0.792025  0.333181  1
  S  S28  1  0.792025  0.291530  0.333181  1
