# generated using pymatgen
data_La4Al18(IrPt)3
_symmetry_space_group_name_H-M   'P 1'
_cell_length_a   7.69954242
_cell_length_b   7.69954311
_cell_length_c   9.63033054
_cell_angle_alpha   89.98088354
_cell_angle_beta   89.98088198
_cell_angle_gamma   119.53386508
_symmetry_Int_Tables_number   1
_chemical_formula_structural   La4Al18(IrPt)3
_chemical_formula_sum   'La4 Al18 Ir3 Pt3'
_cell_volume   496.73231598
_cell_formula_units_Z   1
loop_
 _symmetry_equiv_pos_site_id
 _symmetry_equiv_pos_as_xyz
  1  'x, y, z'
loop_
 _atom_site_type_symbol
 _atom_site_label
 _atom_site_symmetry_multiplicity
 _atom_site_fract_x
 _atom_site_fract_y
 _atom_site_fract_z
 _atom_site_occupancy
  La  La0  1  0.995612  0.670449  0.250247  1
  La  La1  1  0.003196  0.328479  0.749971  1
  La  La2  1  0.671521  0.996804  0.250029  1
  La  La3  1  0.329551  0.004388  0.749753  1
  Al  Al4  1  0.136330  0.135366  0.250534  1
  Al  Al5  1  0.864634  0.863670  0.749466  1
  Al  Al6  1  0.007915  0.338984  0.075005  1
  Al  Al7  1  0.999512  0.665082  0.925492  1
  Al  Al8  1  0.997446  0.661122  0.572814  1
  Al  Al9  1  0.338878  0.002554  0.427186  1
  Al  Al10  1  0.003281  0.338659  0.426821  1
  Al  Al11  1  0.661341  0.996719  0.573179  1
  Al  Al12  1  0.661016  0.992085  0.924995  1
  Al  Al13  1  0.334918  0.000488  0.074508  1
  Al  Al14  1  0.337565  0.337657  0.547921  1
  Al  Al15  1  0.662343  0.662435  0.452079  1
  Al  Al16  1  0.660743  0.663949  0.052658  1
  Al  Al17  1  0.336051  0.339257  0.947342  1
  Al  Al18  1  0.341260  0.547648  0.250613  1
  Al  Al19  1  0.659448  0.455339  0.746703  1
  Al  Al20  1  0.544661  0.340552  0.253297  1
  Al  Al21  1  0.452352  0.658740  0.749387  1
  Ir  Ir22  1  0.329138  0.670862  0.000000  1
  Ir  Ir23  1  0.329414  0.670586  0.500000  1
  Ir  Ir24  1  0.670950  0.329050  0.500000  1
  Pt  Pt25  1  0.670910  0.329090  0.000000  1
  Pt  Pt26  1  0.999856  0.000144  0.000000  1
  Pt  Pt27  1  0.000159  0.999841  0.500000  1
