# generated using pymatgen
data_CaY6SBr12
_symmetry_space_group_name_H-M   'P 1'
_cell_length_a   9.14816276
_cell_length_b   9.13863261
_cell_length_c   9.13314300
_cell_angle_alpha   106.83611276
_cell_angle_beta   106.88834899
_cell_angle_gamma   106.83061746
_symmetry_Int_Tables_number   1
_chemical_formula_structural   CaY6SBr12
_chemical_formula_sum   'Ca1 Y6 S1 Br12'
_cell_volume   638.44359787
_cell_formula_units_Z   1
loop_
 _symmetry_equiv_pos_site_id
 _symmetry_equiv_pos_as_xyz
  1  'x, y, z'
loop_
 _atom_site_type_symbol
 _atom_site_label
 _atom_site_symmetry_multiplicity
 _atom_site_fract_x
 _atom_site_fract_y
 _atom_site_fract_z
 _atom_site_occupancy
  Ca  Ca0  1  0.500000  0.500000  0.500000  1
  Y  Y1  1  0.306694  0.099237  0.024384  1
  Y  Y2  1  0.024317  0.306997  0.099371  1
  Y  Y3  1  0.099476  0.024433  0.307229  1
  Y  Y4  1  0.900524  0.975567  0.692772  1
  Y  Y5  1  0.975683  0.693004  0.900630  1
  Y  Y6  1  0.693307  0.900763  0.975617  1
  S  S7  1  0.000000  0.000000  0.000000  1
  Br  Br8  1  0.681968  0.223080  0.071530  1
  Br  Br9  1  0.372098  0.451572  0.149960  1
  Br  Br10  1  0.071556  0.681861  0.223306  1
  Br  Br11  1  0.777149  0.928587  0.318176  1
  Br  Br12  1  0.451600  0.150124  0.372672  1
  Br  Br13  1  0.150513  0.372608  0.452035  1
  Br  Br14  1  0.849487  0.627393  0.547965  1
  Br  Br15  1  0.548400  0.849877  0.627328  1
  Br  Br16  1  0.222852  0.071414  0.681824  1
  Br  Br17  1  0.928444  0.318139  0.776695  1
  Br  Br18  1  0.627903  0.548428  0.850040  1
  Br  Br19  1  0.318033  0.776920  0.928470  1
