# generated using pymatgen
data_Ca3YLu4(B6Os)4
_symmetry_space_group_name_H-M   'P 1'
_cell_length_a   3.61443600
_cell_length_b   9.10736199
_cell_length_c   11.51171100
_cell_angle_alpha   89.94474200
_cell_angle_beta   90.00000000
_cell_angle_gamma   90.00000000
_symmetry_Int_Tables_number   1
_chemical_formula_structural   Ca3YLu4(B6Os)4
_chemical_formula_sum   'Ca3 Y1 Lu4 B24 Os4'
_cell_volume   378.94206214
_cell_formula_units_Z   1
loop_
 _symmetry_equiv_pos_site_id
 _symmetry_equiv_pos_as_xyz
  1  'x, y, z'
loop_
 _atom_site_type_symbol
 _atom_site_label
 _atom_site_symmetry_multiplicity
 _atom_site_fract_x
 _atom_site_fract_y
 _atom_site_fract_z
 _atom_site_occupancy
  Ca  Ca0  1  0.000000  0.323531  0.414720  1
  Ca  Ca1  1  0.000000  0.676366  0.585076  1
  Ca  Ca2  1  0.000000  0.822173  0.085829  1
  Y  Y3  1  0.000000  0.176569  0.914782  1
  Lu  Lu4  1  0.000000  0.942117  0.367831  1
  Lu  Lu5  1  0.000000  0.057220  0.630514  1
  Lu  Lu6  1  0.000000  0.443719  0.131484  1
  Lu  Lu7  1  0.000000  0.557920  0.869180  1
  B  B8  1  0.500000  0.553528  0.432618  1
  B  B9  1  0.500000  0.445512  0.568540  1
  B  B10  1  0.500000  0.054584  0.066858  1
  B  B11  1  0.500000  0.945842  0.932848  1
  B  B12  1  0.500000  0.750126  0.416937  1
  B  B13  1  0.500000  0.249675  0.583387  1
  B  B14  1  0.500000  0.250505  0.081876  1
  B  B15  1  0.500000  0.750319  0.917590  1
  B  B16  1  0.500000  0.792022  0.264161  1
  B  B17  1  0.500000  0.207486  0.736182  1
  B  B18  1  0.500000  0.292338  0.234125  1
  B  B19  1  0.500000  0.708918  0.765469  1
  B  B20  1  0.500000  0.630372  0.185347  1
  B  B21  1  0.500000  0.369240  0.815922  1
  B  B22  1  0.500000  0.130563  0.313606  1
  B  B23  1  0.500000  0.870045  0.685053  1
  B  B24  1  0.500000  0.982777  0.211180  1
  B  B25  1  0.500000  0.017307  0.787857  1
  B  B26  1  0.500000  0.483224  0.287793  1
  B  B27  1  0.500000  0.516256  0.713133  1
  B  B28  1  0.500000  0.597618  0.026828  1
  B  B29  1  0.500000  0.401560  0.973122  1
  B  B30  1  0.500000  0.095931  0.473234  1
  B  B31  1  0.500000  0.904148  0.525889  1
  Os  Os32  1  0.000000  0.639653  0.319675  1
  Os  Os33  1  0.000000  0.358730  0.682342  1
  Os  Os34  1  0.000000  0.139660  0.179508  1
  Os  Os35  1  0.000000  0.862448  0.819508  1
