# generated using pymatgen
data_LaTh3(GePd)4
_symmetry_space_group_name_H-M   'P 1'
_cell_length_a   7.75015579
_cell_length_b   4.45909000
_cell_length_c   7.63199400
_cell_angle_alpha   90.00000000
_cell_angle_beta   89.82346573
_cell_angle_gamma   90.00000000
_symmetry_Int_Tables_number   1
_chemical_formula_structural   LaTh3(GePd)4
_chemical_formula_sum   'La1 Th3 Ge4 Pd4'
_cell_volume   263.75009775
_cell_formula_units_Z   1
loop_
 _symmetry_equiv_pos_site_id
 _symmetry_equiv_pos_as_xyz
  1  'x, y, z'
loop_
 _atom_site_type_symbol
 _atom_site_label
 _atom_site_symmetry_multiplicity
 _atom_site_fract_x
 _atom_site_fract_y
 _atom_site_fract_z
 _atom_site_occupancy
  La  La0  1  0.499553  0.250001  0.768714  1
  Th  Th1  1  0.501912  0.750001  0.229301  1
  Th  Th2  1  0.002508  0.750001  0.267958  1
  Th  Th3  1  0.997407  0.250001  0.734340  1
  Ge  Ge4  1  0.791705  0.250001  0.087726  1
  Ge  Ge5  1  0.291790  0.250001  0.414409  1
  Ge  Ge6  1  0.756828  0.750001  0.584005  1
  Ge  Ge7  1  0.244547  0.750001  0.914318  1
  Pd  Pd8  1  0.209137  0.250001  0.084917  1
  Pd  Pd9  1  0.707547  0.250001  0.415661  1
  Pd  Pd10  1  0.243533  0.750001  0.574834  1
  Pd  Pd11  1  0.753532  0.750001  0.923813  1
