# generated using pymatgen
data_YHo11TcOs3
_symmetry_space_group_name_H-M   'P 1'
_cell_length_a   6.26779963
_cell_length_b   7.39589705
_cell_length_c   9.01544200
_cell_angle_alpha   90.00000000
_cell_angle_beta   90.00000000
_cell_angle_gamma   89.94520440
_symmetry_Int_Tables_number   1
_chemical_formula_structural   YHo11TcOs3
_chemical_formula_sum   'Y1 Ho11 Tc1 Os3'
_cell_volume   417.91964559
_cell_formula_units_Z   1
loop_
 _symmetry_equiv_pos_site_id
 _symmetry_equiv_pos_as_xyz
  1  'x, y, z'
loop_
 _atom_site_type_symbol
 _atom_site_label
 _atom_site_symmetry_multiplicity
 _atom_site_fract_x
 _atom_site_fract_y
 _atom_site_fract_z
 _atom_site_occupancy
  Y  Y0  1  0.872583  0.539424  0.250000  1
  Ho  Ho1  1  0.335571  0.675068  0.062504  1
  Ho  Ho2  1  0.166040  0.175038  0.437416  1
  Ho  Ho3  1  0.666775  0.324074  0.562837  1
  Ho  Ho4  1  0.834220  0.825386  0.936724  1
  Ho  Ho5  1  0.666775  0.324074  0.937163  1
  Ho  Ho6  1  0.834220  0.825386  0.563276  1
  Ho  Ho7  1  0.335571  0.675068  0.437496  1
  Ho  Ho8  1  0.166040  0.175038  0.062584  1
  Ho  Ho9  1  0.626293  0.040162  0.250000  1
  Ho  Ho10  1  0.130616  0.459305  0.750000  1
  Ho  Ho11  1  0.369004  0.959940  0.750000  1
  Tc  Tc12  1  0.038640  0.885208  0.250000  1
  Os  Os13  1  0.458437  0.382253  0.250000  1
  Os  Os14  1  0.960474  0.117788  0.750000  1
  Os  Os15  1  0.538739  0.616786  0.750000  1
