# generated using pymatgen
data_Ho16CdHg3Rh4
_symmetry_space_group_name_H-M   'P 1'
_cell_length_a   9.56251892
_cell_length_b   9.56284893
_cell_length_c   9.56251800
_cell_angle_alpha   60.00113782
_cell_angle_beta   59.99999627
_cell_angle_gamma   60.00114106
_symmetry_Int_Tables_number   1
_chemical_formula_structural   Ho16CdHg3Rh4
_chemical_formula_sum   'Ho16 Cd1 Hg3 Rh4'
_cell_volume   618.33572294
_cell_formula_units_Z   1
loop_
 _symmetry_equiv_pos_site_id
 _symmetry_equiv_pos_as_xyz
  1  'x, y, z'
loop_
 _atom_site_type_symbol
 _atom_site_label
 _atom_site_symmetry_multiplicity
 _atom_site_fract_x
 _atom_site_fract_y
 _atom_site_fract_z
 _atom_site_occupancy
  Ho  Ho0  1  0.936429  0.936939  0.563316  1
  Ho  Ho1  1  0.562560  0.564604  0.936418  1
  Ho  Ho2  1  0.689423  0.689414  0.310582  1
  Ho  Ho3  1  0.148587  0.554239  0.148587  1
  Ho  Ho4  1  0.688809  0.311512  0.688809  1
  Ho  Ho5  1  0.149535  0.148908  0.149535  1
  Ho  Ho6  1  0.552022  0.148908  0.149535  1
  Ho  Ho7  1  0.688809  0.311512  0.310869  1
  Ho  Ho8  1  0.149535  0.148908  0.552022  1
  Ho  Ho9  1  0.310582  0.689414  0.310582  1
  Ho  Ho10  1  0.310582  0.689414  0.689423  1
  Ho  Ho11  1  0.936418  0.564604  0.562560  1
  Ho  Ho12  1  0.936418  0.564604  0.936418  1
  Ho  Ho13  1  0.563316  0.936939  0.563316  1
  Ho  Ho14  1  0.563316  0.936939  0.936429  1
  Ho  Ho15  1  0.310869  0.311512  0.688809  1
  Cd  Cd16  1  0.919349  0.241954  0.919349  1
  Hg  Hg17  1  0.914802  0.916426  0.253970  1
  Hg  Hg18  1  0.253970  0.916426  0.914802  1
  Hg  Hg19  1  0.914802  0.916426  0.914802  1
  Rh  Rh20  1  0.357069  0.357356  0.928505  1
  Rh  Rh21  1  0.357222  0.928333  0.357222  1
  Rh  Rh22  1  0.928505  0.357356  0.357069  1
  Rh  Rh23  1  0.357069  0.357356  0.357069  1
