# generated using pymatgen
data_UTa5Cl30
_symmetry_space_group_name_H-M   'P 1'
_cell_length_a   13.93126649
_cell_length_b   13.93126690
_cell_length_c   6.56755606
_cell_angle_alpha   88.47920211
_cell_angle_beta   88.47919955
_cell_angle_gamma   86.96039161
_symmetry_Int_Tables_number   1
_chemical_formula_structural   UTa5Cl30
_chemical_formula_sum   'U1 Ta5 Cl30'
_cell_volume   1271.98759928
_cell_formula_units_Z   1
loop_
 _symmetry_equiv_pos_site_id
 _symmetry_equiv_pos_as_xyz
  1  'x, y, z'
loop_
 _atom_site_type_symbol
 _atom_site_label
 _atom_site_symmetry_multiplicity
 _atom_site_fract_x
 _atom_site_fract_y
 _atom_site_fract_z
 _atom_site_occupancy
  U  U0  1  0.103402  0.896598  0.000000  1
  Ta  Ta1  1  0.771283  0.562720  0.524793  1
  Ta  Ta2  1  0.437280  0.228717  0.475207  1
  Ta  Ta3  1  0.228728  0.438069  0.476079  1
  Ta  Ta4  1  0.561931  0.771272  0.523921  1
  Ta  Ta5  1  0.890092  0.109908  0.000000  1
  Cl  Cl6  1  0.667146  0.479746  0.738820  1
  Cl  Cl7  1  0.520254  0.332854  0.261180  1
  Cl  Cl8  1  0.332935  0.519597  0.260745  1
  Cl  Cl9  1  0.480403  0.667065  0.739255  1
  Cl  Cl10  1  0.794978  0.437183  0.309984  1
  Cl  Cl11  1  0.562817  0.205022  0.690016  1
  Cl  Cl12  1  0.943638  0.956719  0.212295  1
  Cl  Cl13  1  0.043281  0.056362  0.787705  1
  Cl  Cl14  1  0.762840  0.134431  0.219103  1
  Cl  Cl15  1  0.865569  0.237160  0.780897  1
  Cl  Cl16  1  0.243884  0.865056  0.768551  1
  Cl  Cl17  1  0.134944  0.756116  0.231449  1
  Cl  Cl18  1  0.813614  0.003597  0.801648  1
  Cl  Cl19  1  0.996403  0.186386  0.198352  1
  Cl  Cl20  1  0.199067  0.997849  0.213734  1
  Cl  Cl21  1  0.002151  0.800933  0.786266  1
  Cl  Cl22  1  0.713298  0.712841  0.719109  1
  Cl  Cl23  1  0.287159  0.286702  0.280891  1
  Cl  Cl24  1  0.538975  0.896558  0.738734  1
  Cl  Cl25  1  0.103442  0.461025  0.261266  1
  Cl  Cl26  1  0.461404  0.103355  0.260921  1
  Cl  Cl27  1  0.896645  0.538596  0.739079  1
  Cl  Cl28  1  0.666932  0.853671  0.310177  1
  Cl  Cl29  1  0.146329  0.333068  0.689823  1
  Cl  Cl30  1  0.333626  0.146175  0.690585  1
  Cl  Cl31  1  0.853825  0.666374  0.309415  1
  Cl  Cl32  1  0.620645  0.620751  0.329676  1
  Cl  Cl33  1  0.379249  0.379355  0.670324  1
  Cl  Cl34  1  0.437053  0.795220  0.309604  1
  Cl  Cl35  1  0.204780  0.562947  0.690396  1
