# generated using pymatgen
data_Tb4Pr(RhO6)2
_symmetry_space_group_name_H-M   'P 1'
_cell_length_a   6.94970109
_cell_length_b   6.94970073
_cell_length_c   7.40166934
_cell_angle_alpha   74.60821983
_cell_angle_beta   74.60821675
_cell_angle_gamma   50.90680986
_symmetry_Int_Tables_number   1
_chemical_formula_structural   Tb4Pr(RhO6)2
_chemical_formula_sum   'Tb4 Pr1 Rh2 O12'
_cell_volume   265.19663652
_cell_formula_units_Z   1
loop_
 _symmetry_equiv_pos_site_id
 _symmetry_equiv_pos_as_xyz
  1  'x, y, z'
loop_
 _atom_site_type_symbol
 _atom_site_label
 _atom_site_symmetry_multiplicity
 _atom_site_fract_x
 _atom_site_fract_y
 _atom_site_fract_z
 _atom_site_occupancy
  Tb  Tb0  1  0.303802  0.303802  0.359052  1
  Tb  Tb1  1  0.696198  0.696198  0.640948  1
  Tb  Tb2  1  0.306680  0.306680  0.832422  1
  Tb  Tb3  1  0.693320  0.693320  0.167578  1
  Pr  Pr4  1  0.000000  0.000000  0.500000  1
  Rh  Rh5  1  0.752470  0.247530  0.000000  1
  Rh  Rh6  1  0.247530  0.752470  0.000000  1
  O  O7  1  0.899421  0.429437  0.918203  1
  O  O8  1  0.429437  0.899421  0.918203  1
  O  O9  1  0.100579  0.570563  0.081797  1
  O  O10  1  0.570563  0.100579  0.081797  1
  O  O11  1  0.096098  0.587422  0.578969  1
  O  O12  1  0.587422  0.096098  0.578969  1
  O  O13  1  0.903902  0.412578  0.421031  1
  O  O14  1  0.412578  0.903902  0.421031  1
  O  O15  1  0.000718  0.000718  0.823115  1
  O  O16  1  0.999282  0.999282  0.176885  1
  O  O17  1  0.499678  0.499678  0.811990  1
  O  O18  1  0.500322  0.500322  0.188010  1
