# generated using pymatgen
data_Nd2Lu6Co3Si12Rh
_symmetry_space_group_name_H-M   'P 1'
_cell_length_a   8.04438500
_cell_length_b   8.04437233
_cell_length_c   8.00598800
_cell_angle_alpha   90.00005698
_cell_angle_beta   89.99991453
_cell_angle_gamma   120.00003978
_symmetry_Int_Tables_number   1
_chemical_formula_structural   Nd2Lu6Co3Si12Rh
_chemical_formula_sum   'Nd2 Lu6 Co3 Si12 Rh1'
_cell_volume   448.67348319
_cell_formula_units_Z   1
loop_
 _symmetry_equiv_pos_site_id
 _symmetry_equiv_pos_as_xyz
  1  'x, y, z'
loop_
 _atom_site_type_symbol
 _atom_site_label
 _atom_site_symmetry_multiplicity
 _atom_site_fract_x
 _atom_site_fract_y
 _atom_site_fract_z
 _atom_site_occupancy
  Nd  Nd0  1  0.000132  0.000066  0.250923  1
  Nd  Nd1  1  0.999781  0.999890  0.748491  1
  Lu  Lu2  1  0.506181  0.493805  0.251661  1
  Lu  Lu3  1  0.506183  0.012376  0.251660  1
  Lu  Lu4  1  0.987499  0.493749  0.251662  1
  Lu  Lu5  1  0.496461  0.503432  0.750614  1
  Lu  Lu6  1  0.496460  0.993028  0.750614  1
  Lu  Lu7  1  0.006841  0.503420  0.750629  1
  Co  Co8  1  0.333170  0.666585  0.462633  1
  Co  Co9  1  0.667122  0.333561  0.535878  1
  Co  Co10  1  0.666479  0.333239  0.964396  1
  Si  Si11  1  0.174349  0.825620  0.502481  1
  Si  Si12  1  0.174348  0.348728  0.502481  1
  Si  Si13  1  0.651310  0.825655  0.502555  1
  Si  Si14  1  0.826422  0.173677  0.498410  1
  Si  Si15  1  0.826422  0.652744  0.498411  1
  Si  Si16  1  0.347363  0.173682  0.498384  1
  Si  Si17  1  0.825804  0.174025  0.002285  1
  Si  Si18  1  0.825804  0.651778  0.002285  1
  Si  Si19  1  0.348079  0.174039  0.002337  1
  Si  Si20  1  0.168311  0.831608  0.995575  1
  Si  Si21  1  0.168311  0.336701  0.995575  1
  Si  Si22  1  0.663302  0.831650  0.995534  1
  Rh  Rh23  1  0.333868  0.666936  0.034526  1
