# generated using pymatgen
data_DyHoMg2(PaNi2)2
_symmetry_space_group_name_H-M   'P 1'
_cell_length_a   7.47320973
_cell_length_b   7.47321054
_cell_length_c   3.53627600
_cell_angle_alpha   90.00000000
_cell_angle_beta   90.00000000
_cell_angle_gamma   93.14083931
_symmetry_Int_Tables_number   1
_chemical_formula_structural   DyHoMg2(PaNi2)2
_chemical_formula_sum   'Dy1 Ho1 Mg2 Pa2 Ni4'
_cell_volume   197.20035151
_cell_formula_units_Z   1
loop_
 _symmetry_equiv_pos_site_id
 _symmetry_equiv_pos_as_xyz
  1  'x, y, z'
loop_
 _atom_site_type_symbol
 _atom_site_label
 _atom_site_symmetry_multiplicity
 _atom_site_fract_x
 _atom_site_fract_y
 _atom_site_fract_z
 _atom_site_occupancy
  Dy  Dy0  1  0.831383  0.668617  0.500000  1
  Ho  Ho1  1  0.168623  0.331377  0.500000  1
  Mg  Mg2  1  0.000103  0.000154  0.000000  1
  Mg  Mg3  1  0.499846  0.499897  0.000000  1
  Pa  Pa4  1  0.670012  0.170075  0.500000  1
  Pa  Pa5  1  0.329925  0.829988  0.500000  1
  Ni  Ni6  1  0.140458  0.640191  0.000000  1
  Ni  Ni7  1  0.859809  0.359542  0.000000  1
  Ni  Ni8  1  0.618098  0.881902  0.000000  1
  Ni  Ni9  1  0.381743  0.118257  0.000000  1
