# generated using pymatgen
data_Lu4Cu(AsRu)6
_symmetry_space_group_name_H-M   'P 1'
_cell_length_a   7.16090760
_cell_length_b   7.16090663
_cell_length_c   7.16090775
_cell_angle_alpha   109.44495528
_cell_angle_beta   109.44495235
_cell_angle_gamma   109.52376978
_symmetry_Int_Tables_number   1
_chemical_formula_structural   Lu4Cu(AsRu)6
_chemical_formula_sum   'Lu4 Cu1 As6 Ru6'
_cell_volume   282.67147185
_cell_formula_units_Z   1
loop_
 _symmetry_equiv_pos_site_id
 _symmetry_equiv_pos_as_xyz
  1  'x, y, z'
loop_
 _atom_site_type_symbol
 _atom_site_label
 _atom_site_symmetry_multiplicity
 _atom_site_fract_x
 _atom_site_fract_y
 _atom_site_fract_z
 _atom_site_occupancy
  Lu  Lu0  1  0.002081  0.997919  0.500000  1
  Lu  Lu1  1  0.002081  0.502081  0.004163  1
  Lu  Lu2  1  0.497919  0.997919  0.995837  1
  Lu  Lu3  1  0.497919  0.502081  0.500000  1
  Cu  Cu4  1  0.750000  0.250000  0.500000  1
  As  As5  1  0.683554  0.683554  0.000000  1
  As  As6  1  0.310735  0.996818  0.313917  1
  As  As7  1  0.003182  0.317099  0.313917  1
  As  As8  1  0.316446  0.316446  0.000000  1
  As  As9  1  0.682901  0.996818  0.686083  1
  As  As10  1  0.003182  0.689265  0.686083  1
  Ru  Ru11  1  0.749743  0.497909  0.251834  1
  Ru  Ru12  1  0.502091  0.250257  0.748166  1
  Ru  Ru13  1  0.246075  0.497909  0.748166  1
  Ru  Ru14  1  0.250000  0.750000  0.500000  1
  Ru  Ru15  1  0.502091  0.753925  0.251834  1
  Ru  Ru16  1  0.000000  0.000000  0.000000  1
