# generated using pymatgen
data_HoPa2(FeGe)3
_symmetry_space_group_name_H-M   'P 1'
_cell_length_a   6.82638300
_cell_length_b   6.76886837
_cell_length_c   3.85440700
_cell_angle_alpha   90.00000000
_cell_angle_beta   90.00000000
_cell_angle_gamma   119.72167945
_symmetry_Int_Tables_number   1
_chemical_formula_structural   HoPa2(FeGe)3
_chemical_formula_sum   'Ho1 Pa2 Fe3 Ge3'
_cell_volume   154.67000556
_cell_formula_units_Z   1
loop_
 _symmetry_equiv_pos_site_id
 _symmetry_equiv_pos_as_xyz
  1  'x, y, z'
loop_
 _atom_site_type_symbol
 _atom_site_label
 _atom_site_symmetry_multiplicity
 _atom_site_fract_x
 _atom_site_fract_y
 _atom_site_fract_z
 _atom_site_occupancy
  Ho  Ho0  1  0.000000  0.589622  0.499999  1
  Pa  Pa1  1  0.583639  0.000861  0.499999  1
  Pa  Pa2  1  0.416360  0.417221  0.499999  1
  Fe  Fe3  1  0.634825  0.303883  0.000000  1
  Fe  Fe4  1  0.365175  0.669059  0.000000  1
  Fe  Fe5  1  0.000000  0.018014  0.499999  1
  Ge  Ge6  1  0.234524  0.989247  0.000000  1
  Ge  Ge7  1  0.000000  0.257366  0.000000  1
  Ge  Ge8  1  0.765476  0.754723  0.000000  1
