# generated using pymatgen
data_CaLa8YbSn8
_symmetry_space_group_name_H-M   'P 1'
_cell_length_a   8.24243700
_cell_length_b   8.62021300
_cell_length_c   16.45689300
_cell_angle_alpha   90.00000000
_cell_angle_beta   90.00000000
_cell_angle_gamma   90.00000000
_symmetry_Int_Tables_number   1
_chemical_formula_structural   CaLa8YbSn8
_chemical_formula_sum   'Ca2 La16 Yb2 Sn16'
_cell_volume   1169.28796285
_cell_formula_units_Z   2
loop_
 _symmetry_equiv_pos_site_id
 _symmetry_equiv_pos_as_xyz
  1  'x, y, z'
loop_
 _atom_site_type_symbol
 _atom_site_label
 _atom_site_symmetry_multiplicity
 _atom_site_fract_x
 _atom_site_fract_y
 _atom_site_fract_z
 _atom_site_occupancy
  Ca  Ca0  1  0.817573  0.505627  0.750000  1
  Ca  Ca1  1  0.317573  0.994373  0.750000  1
  La  La2  1  0.649968  0.173513  0.623428  1
  La  La3  1  0.149968  0.326487  0.876572  1
  La  La4  1  0.350179  0.826140  0.123638  1
  La  La5  1  0.850179  0.673860  0.376362  1
  La  La6  1  0.350179  0.826140  0.376362  1
  La  La7  1  0.850179  0.673860  0.123638  1
  La  La8  1  0.649968  0.173513  0.876572  1
  La  La9  1  0.149968  0.326487  0.623428  1
  La  La10  1  0.494970  0.682816  0.597249  1
  La  La11  1  0.994970  0.817184  0.902751  1
  La  La12  1  0.504937  0.317106  0.097392  1
  La  La13  1  0.004937  0.182894  0.402608  1
  La  La14  1  0.504937  0.317106  0.402608  1
  La  La15  1  0.004937  0.182894  0.097392  1
  La  La16  1  0.494970  0.682816  0.902751  1
  La  La17  1  0.994970  0.817184  0.597249  1
  Yb  Yb18  1  0.182518  0.494797  0.250000  1
  Yb  Yb19  1  0.682518  0.005203  0.250000  1
  Sn  Sn20  1  0.684883  0.966448  0.462495  1
  Sn  Sn21  1  0.184883  0.533552  0.037505  1
  Sn  Sn22  1  0.315104  0.033473  0.962636  1
  Sn  Sn23  1  0.815104  0.466527  0.537364  1
  Sn  Sn24  1  0.315104  0.033473  0.537364  1
  Sn  Sn25  1  0.815104  0.466527  0.962636  1
  Sn  Sn26  1  0.684883  0.966448  0.037505  1
  Sn  Sn27  1  0.184883  0.533552  0.462495  1
  Sn  Sn28  1  0.448979  0.396451  0.750000  1
  Sn  Sn29  1  0.948979  0.103549  0.750000  1
  Sn  Sn30  1  0.550905  0.603422  0.250000  1
  Sn  Sn31  1  0.050905  0.896578  0.250000  1
  Sn  Sn32  1  0.690967  0.859942  0.750000  1
  Sn  Sn33  1  0.190967  0.640058  0.750000  1
  Sn  Sn34  1  0.308977  0.140204  0.250000  1
  Sn  Sn35  1  0.808977  0.359796  0.250000  1
