# generated using pymatgen
data_Pr7NdSc11Si16Ag
_symmetry_space_group_name_H-M   'P 1'
_cell_length_a   7.19714642
_cell_length_b   7.55535935
_cell_length_c   14.26284609
_cell_angle_alpha   90.01305530
_cell_angle_beta   90.00092191
_cell_angle_gamma   90.15808478
_symmetry_Int_Tables_number   1
_chemical_formula_structural   Pr7NdSc11Si16Ag
_chemical_formula_sum   'Pr7 Nd1 Sc11 Si16 Ag1'
_cell_volume   775.56820142
_cell_formula_units_Z   1
loop_
 _symmetry_equiv_pos_site_id
 _symmetry_equiv_pos_as_xyz
  1  'x, y, z'
loop_
 _atom_site_type_symbol
 _atom_site_label
 _atom_site_symmetry_multiplicity
 _atom_site_fract_x
 _atom_site_fract_y
 _atom_site_fract_z
 _atom_site_occupancy
  Pr  Pr0  1  0.511493  0.329350  0.402186  1
  Pr  Pr1  1  0.490691  0.681713  0.898799  1
  Pr  Pr2  1  0.490588  0.681744  0.601085  1
  Pr  Pr3  1  0.980308  0.827437  0.601471  1
  Pr  Pr4  1  0.980304  0.827498  0.898372  1
  Pr  Pr5  1  0.511385  0.329440  0.097869  1
  Pr  Pr6  1  0.012302  0.173279  0.097584  1
  Nd  Nd7  1  0.012231  0.173856  0.402039  1
  Sc  Sc8  1  0.335055  0.172586  0.625416  1
  Sc  Sc9  1  0.671884  0.822328  0.374115  1
  Sc  Sc10  1  0.171371  0.676944  0.375555  1
  Sc  Sc11  1  0.827145  0.315535  0.874488  1
  Sc  Sc12  1  0.827431  0.315388  0.625449  1
  Sc  Sc13  1  0.840924  0.501903  0.250164  1
  Sc  Sc14  1  0.340249  0.997931  0.250116  1
  Sc  Sc15  1  0.335300  0.172579  0.874484  1
  Sc  Sc16  1  0.171482  0.676785  0.124562  1
  Sc  Sc17  1  0.671847  0.822248  0.126079  1
  Sc  Sc18  1  0.158213  0.494868  0.749941  1
  Si  Si19  1  0.278213  0.883850  0.749978  1
  Si  Si20  1  0.467047  0.623827  0.250036  1
  Si  Si21  1  0.042855  0.124238  0.749976  1
  Si  Si22  1  0.531451  0.385698  0.749970  1
  Si  Si23  1  0.152582  0.464274  0.540511  1
  Si  Si24  1  0.967241  0.874764  0.250300  1
  Si  Si25  1  0.711144  0.116917  0.250393  1
  Si  Si26  1  0.850121  0.536593  0.037925  1
  Si  Si27  1  0.349134  0.963236  0.039170  1
  Si  Si28  1  0.152764  0.464999  0.959219  1
  Si  Si29  1  0.653571  0.041174  0.531688  1
  Si  Si30  1  0.348176  0.963773  0.460637  1
  Si  Si31  1  0.850407  0.535769  0.461901  1
  Si  Si32  1  0.791312  0.595899  0.749986  1
  Si  Si33  1  0.209637  0.384575  0.250357  1
  Si  Si34  1  0.653107  0.040975  0.968178  1
  Ag  Ag35  1  0.651036  0.006027  0.750002  1
