# generated using pymatgen
data_NdY3(Lu3Si4)2
_symmetry_space_group_name_H-M   'P 1'
_cell_length_a   7.58642100
_cell_length_b   7.58411160
_cell_length_c   13.88662100
_cell_angle_alpha   90.00000000
_cell_angle_beta   90.00000000
_cell_angle_gamma   90.06308941
_symmetry_Int_Tables_number   1
_chemical_formula_structural   NdY3(Lu3Si4)2
_chemical_formula_sum   'Nd2 Y6 Lu12 Si16'
_cell_volume   798.98380049
_cell_formula_units_Z   2
loop_
 _symmetry_equiv_pos_site_id
 _symmetry_equiv_pos_as_xyz
  1  'x, y, z'
loop_
 _atom_site_type_symbol
 _atom_site_label
 _atom_site_symmetry_multiplicity
 _atom_site_fract_x
 _atom_site_fract_y
 _atom_site_fract_z
 _atom_site_occupancy
  Nd  Nd0  1  0.994401  0.352387  0.210901  1
  Nd  Nd1  1  0.005599  0.647613  0.710901  1
  Y  Y2  1  0.148009  0.495767  0.461876  1
  Y  Y3  1  0.504378  0.853583  0.038510  1
  Y  Y4  1  0.851991  0.504233  0.961876  1
  Y  Y5  1  0.495622  0.146417  0.538510  1
  Y  Y6  1  0.353277  0.994602  0.789050  1
  Y  Y7  1  0.646723  0.005398  0.289050  1
  Lu  Lu8  1  0.179698  0.178068  0.999960  1
  Lu  Lu9  1  0.820302  0.821932  0.499960  1
  Lu  Lu10  1  0.320628  0.680360  0.250169  1
  Lu  Lu11  1  0.679372  0.319640  0.750169  1
  Lu  Lu12  1  0.143858  0.007137  0.376652  1
  Lu  Lu13  1  0.856142  0.992863  0.876652  1
  Lu  Lu14  1  0.495757  0.642915  0.625905  1
  Lu  Lu15  1  0.357150  0.503992  0.874045  1
  Lu  Lu16  1  0.504243  0.357085  0.125905  1
  Lu  Lu17  1  0.642850  0.496008  0.374045  1
  Lu  Lu18  1  0.005760  0.143988  0.623533  1
  Lu  Lu19  1  0.994240  0.856012  0.123533  1
  Si  Si20  1  0.354564  0.294777  0.317569  1
  Si  Si21  1  0.645436  0.705223  0.817569  1
  Si  Si22  1  0.208400  0.854596  0.564864  1
  Si  Si23  1  0.148348  0.794618  0.934002  1
  Si  Si24  1  0.791600  0.145404  0.064864  1
  Si  Si25  1  0.851652  0.205382  0.434002  1
  Si  Si26  1  0.296592  0.350380  0.683235  1
  Si  Si27  1  0.703408  0.649620  0.183235  1
  Si  Si28  1  0.295735  0.053980  0.187533  1
  Si  Si29  1  0.704265  0.946020  0.687533  1
  Si  Si30  1  0.444610  0.795561  0.437277  1
  Si  Si31  1  0.207245  0.558087  0.061450  1
  Si  Si32  1  0.555390  0.204439  0.937277  1
  Si  Si33  1  0.792755  0.441913  0.561450  1
  Si  Si34  1  0.057150  0.291290  0.813469  1
  Si  Si35  1  0.942850  0.708710  0.313469  1
