# generated using pymatgen
data_Li4SmTm3Si8
_symmetry_space_group_name_H-M   'P 1'
_cell_length_a   3.77862400
_cell_length_b   7.61666290
_cell_length_c   10.10417873
_cell_angle_alpha   89.89352858
_cell_angle_beta   90.00000000
_cell_angle_gamma   90.00000000
_symmetry_Int_Tables_number   1
_chemical_formula_structural   Li4SmTm3Si8
_chemical_formula_sum   'Li4 Sm1 Tm3 Si8'
_cell_volume   290.80286672
_cell_formula_units_Z   1
loop_
 _symmetry_equiv_pos_site_id
 _symmetry_equiv_pos_as_xyz
  1  'x, y, z'
loop_
 _atom_site_type_symbol
 _atom_site_label
 _atom_site_symmetry_multiplicity
 _atom_site_fract_x
 _atom_site_fract_y
 _atom_site_fract_z
 _atom_site_occupancy
  Li  Li0  1  0.250000  0.992543  0.393602  1
  Li  Li1  1  0.750000  0.013322  0.608521  1
  Li  Li2  1  0.250000  0.486456  0.106274  1
  Li  Li3  1  0.750000  0.512156  0.895287  1
  Sm  Sm4  1  0.750000  0.361231  0.362919  1
  Tm  Tm5  1  0.250000  0.133005  0.862258  1
  Tm  Tm6  1  0.750000  0.861902  0.135919  1
  Tm  Tm7  1  0.250000  0.637914  0.636815  1
  Si  Si8  1  0.750000  0.259730  0.061670  1
  Si  Si9  1  0.250000  0.733943  0.933334  1
  Si  Si10  1  0.750000  0.771257  0.433474  1
  Si  Si11  1  0.250000  0.234700  0.572499  1
  Si  Si12  1  0.750000  0.842538  0.818159  1
  Si  Si13  1  0.250000  0.151075  0.176207  1
  Si  Si14  1  0.750000  0.345932  0.684710  1
  Si  Si15  1  0.250000  0.662294  0.318353  1
