# generated using pymatgen
data_Ba6LaCe(Ir2O9)2
_symmetry_space_group_name_H-M   'P 1'
_cell_length_a   5.99608613
_cell_length_b   5.99609504
_cell_length_c   14.97282100
_cell_angle_alpha   89.99972621
_cell_angle_beta   89.99941166
_cell_angle_gamma   120.00073574
_symmetry_Int_Tables_number   1
_chemical_formula_structural   Ba6LaCe(Ir2O9)2
_chemical_formula_sum   'Ba6 La1 Ce1 Ir4 O18'
_cell_volume   466.19478882
_cell_formula_units_Z   1
loop_
 _symmetry_equiv_pos_site_id
 _symmetry_equiv_pos_as_xyz
  1  'x, y, z'
loop_
 _atom_site_type_symbol
 _atom_site_label
 _atom_site_symmetry_multiplicity
 _atom_site_fract_x
 _atom_site_fract_y
 _atom_site_fract_z
 _atom_site_occupancy
  Ba  Ba0  1  0.666681  0.333328  0.900718  1
  Ba  Ba1  1  0.333339  0.666685  0.398351  1
  Ba  Ba2  1  0.333337  0.666660  0.099315  1
  Ba  Ba3  1  0.666669  0.333330  0.601417  1
  Ba  Ba4  1  0.000009  0.000010  0.749701  1
  Ba  Ba5  1  0.000006  0.999995  0.250321  1
  La  La6  1  0.000004  0.000008  0.499993  1
  Ce  Ce7  1  0.000011  0.999991  0.000008  1
  Ir  Ir8  1  0.666670  0.333319  0.162927  1
  Ir  Ir9  1  0.333330  0.666666  0.670043  1
  Ir  Ir10  1  0.333347  0.666669  0.837091  1
  Ir  Ir11  1  0.666679  0.333346  0.329954  1
  O  O12  1  0.175451  0.824609  0.913834  1
  O  O13  1  0.821295  0.178744  0.406256  1
  O  O14  1  0.175417  0.350774  0.913811  1
  O  O15  1  0.649265  0.824596  0.913798  1
  O  O16  1  0.357408  0.178734  0.406234  1
  O  O17  1  0.821303  0.642638  0.406222  1
  O  O18  1  0.350737  0.175360  0.086220  1
  O  O19  1  0.824601  0.649223  0.086203  1
  O  O20  1  0.824596  0.175366  0.086193  1
  O  O21  1  0.178732  0.821292  0.593768  1
  O  O22  1  0.178686  0.357382  0.593797  1
  O  O23  1  0.642598  0.821267  0.593787  1
  O  O24  1  0.015268  0.507680  0.754016  1
  O  O25  1  0.984766  0.492356  0.245999  1
  O  O26  1  0.492341  0.507616  0.754009  1
  O  O27  1  0.492349  0.984740  0.754010  1
  O  O28  1  0.507665  0.015240  0.246008  1
  O  O29  1  0.507644  0.492379  0.245997  1
