# generated using pymatgen
data_Tb10DyTm(Si2Ni)4
_symmetry_space_group_name_H-M   'P 1'
_cell_length_a   4.12815300
_cell_length_b   11.30172924
_cell_length_c   11.30559024
_cell_angle_alpha   90.16158774
_cell_angle_beta   90.00000000
_cell_angle_gamma   90.00000000
_symmetry_Int_Tables_number   1
_chemical_formula_structural   Tb10DyTm(Si2Ni)4
_chemical_formula_sum   'Tb10 Dy1 Tm1 Si8 Ni4'
_cell_volume   527.46323870
_cell_formula_units_Z   1
loop_
 _symmetry_equiv_pos_site_id
 _symmetry_equiv_pos_as_xyz
  1  'x, y, z'
loop_
 _atom_site_type_symbol
 _atom_site_label
 _atom_site_symmetry_multiplicity
 _atom_site_fract_x
 _atom_site_fract_y
 _atom_site_fract_z
 _atom_site_occupancy
  Tb  Tb0  1  0.250000  0.059702  0.882860  1
  Tb  Tb1  1  0.250000  0.439606  0.382019  1
  Tb  Tb2  1  0.750000  0.940875  0.117464  1
  Tb  Tb3  1  0.750000  0.559053  0.617107  1
  Tb  Tb4  1  0.250000  0.124993  0.557402  1
  Tb  Tb5  1  0.250000  0.374920  0.058741  1
  Tb  Tb6  1  0.750000  0.875754  0.441720  1
  Tb  Tb7  1  0.750000  0.624495  0.941833  1
  Tb  Tb8  1  0.250000  0.804499  0.713712  1
  Tb  Tb9  1  0.250000  0.695569  0.213795  1
  Dy  Dy10  1  0.750000  0.304333  0.785746  1
  Tm  Tm11  1  0.750000  0.194476  0.285278  1
  Si  Si12  1  0.250000  0.813018  0.974326  1
  Si  Si13  1  0.250000  0.686860  0.474360  1
  Si  Si14  1  0.750000  0.186634  0.026643  1
  Si  Si15  1  0.750000  0.312842  0.524410  1
  Si  Si16  1  0.250000  0.493946  0.803247  1
  Si  Si17  1  0.250000  0.007303  0.303571  1
  Si  Si18  1  0.750000  0.505359  0.196759  1
  Si  Si19  1  0.750000  0.995104  0.696740  1
  Ni  Ni20  1  0.250000  0.365421  0.630140  1
  Ni  Ni21  1  0.250000  0.135246  0.131792  1
  Ni  Ni22  1  0.750000  0.633771  0.370090  1
  Ni  Ni23  1  0.750000  0.866221  0.870244  1
