# generated using pymatgen
data_DyTl2In3(TeO6)3
_symmetry_space_group_name_H-M   'P 1'
_cell_length_a   9.10636072
_cell_length_b   9.10636221
_cell_length_c   5.06613897
_cell_angle_alpha   90.06168014
_cell_angle_beta   89.93832207
_cell_angle_gamma   120.08292727
_symmetry_Int_Tables_number   1
_chemical_formula_structural   DyTl2In3(TeO6)3
_chemical_formula_sum   'Dy1 Tl2 In3 Te3 O18'
_cell_volume   363.52446902
_cell_formula_units_Z   1
loop_
 _symmetry_equiv_pos_site_id
 _symmetry_equiv_pos_as_xyz
  1  'x, y, z'
loop_
 _atom_site_type_symbol
 _atom_site_label
 _atom_site_symmetry_multiplicity
 _atom_site_fract_x
 _atom_site_fract_y
 _atom_site_fract_z
 _atom_site_occupancy
  Dy  Dy0  1  0.377731  0.377731  0.000000  1
  Tl  Tl1  1  0.623980  0.000156  0.000474  1
  Tl  Tl2  1  0.000156  0.623980  0.999526  1
  In  In3  1  0.288937  0.000701  0.498810  1
  In  In4  1  0.000701  0.288937  0.501190  1
  In  In5  1  0.710750  0.710750  0.500000  1
  Te  Te6  1  0.999396  0.999396  0.000000  1
  Te  Te7  1  0.333413  0.667119  0.503641  1
  Te  Te8  1  0.667119  0.333413  0.496359  1
  O  O9  1  0.087432  0.884688  0.781412  1
  O  O10  1  0.117290  0.204476  0.786187  1
  O  O11  1  0.796527  0.912151  0.781630  1
  O  O12  1  0.204476  0.117290  0.213813  1
  O  O13  1  0.912151  0.796527  0.218370  1
  O  O14  1  0.884688  0.087432  0.218588  1
  O  O15  1  0.461142  0.593179  0.718404  1
  O  O16  1  0.404269  0.869695  0.720433  1
  O  O17  1  0.131471  0.534759  0.723857  1
  O  O18  1  0.869695  0.404269  0.279567  1
  O  O19  1  0.534759  0.131471  0.276143  1
  O  O20  1  0.593179  0.461142  0.281596  1
  O  O21  1  0.226255  0.765813  0.287730  1
  O  O22  1  0.236710  0.461144  0.289422  1
  O  O23  1  0.538711  0.772105  0.283508  1
  O  O24  1  0.461144  0.236710  0.710578  1
  O  O25  1  0.772105  0.538711  0.716492  1
  O  O26  1  0.765813  0.226255  0.712270  1
