# generated using pymatgen
data_Tb5Sm3(HgPt)2
_symmetry_space_group_name_H-M   'P 1'
_cell_length_a   9.75577303
_cell_length_b   9.75577380
_cell_length_c   9.75577300
_cell_angle_alpha   59.99999932
_cell_angle_beta   59.99999672
_cell_angle_gamma   60.00000041
_symmetry_Int_Tables_number   1
_chemical_formula_structural   Tb5Sm3(HgPt)2
_chemical_formula_sum   'Tb10 Sm6 Hg4 Pt4'
_cell_volume   656.55344868
_cell_formula_units_Z   2
loop_
 _symmetry_equiv_pos_site_id
 _symmetry_equiv_pos_as_xyz
  1  'x, y, z'
loop_
 _atom_site_type_symbol
 _atom_site_label
 _atom_site_symmetry_multiplicity
 _atom_site_fract_x
 _atom_site_fract_y
 _atom_site_fract_z
 _atom_site_occupancy
  Tb  Tb0  1  0.352522  0.352522  0.352522  1
  Tb  Tb1  1  0.352522  0.352522  0.942433  1
  Tb  Tb2  1  0.352522  0.942433  0.352522  1
  Tb  Tb3  1  0.942433  0.352522  0.352522  1
  Tb  Tb4  1  0.809976  0.190024  0.190024  1
  Tb  Tb5  1  0.190024  0.809976  0.809976  1
  Tb  Tb6  1  0.190024  0.809976  0.190024  1
  Tb  Tb7  1  0.809976  0.190024  0.809976  1
  Tb  Tb8  1  0.190024  0.190024  0.809976  1
  Tb  Tb9  1  0.809976  0.809976  0.190024  1
  Sm  Sm10  1  0.937453  0.562547  0.562547  1
  Sm  Sm11  1  0.562547  0.937453  0.937453  1
  Sm  Sm12  1  0.562547  0.937453  0.562547  1
  Sm  Sm13  1  0.937453  0.562547  0.937453  1
  Sm  Sm14  1  0.562547  0.562547  0.937453  1
  Sm  Sm15  1  0.937453  0.937453  0.562547  1
  Hg  Hg16  1  0.584604  0.584604  0.584604  1
  Hg  Hg17  1  0.584604  0.584604  0.246188  1
  Hg  Hg18  1  0.584604  0.246188  0.584604  1
  Hg  Hg19  1  0.246188  0.584604  0.584604  1
  Pt  Pt20  1  0.143590  0.143590  0.143590  1
  Pt  Pt21  1  0.143590  0.143590  0.569228  1
  Pt  Pt22  1  0.143590  0.569228  0.143590  1
  Pt  Pt23  1  0.569228  0.143590  0.143590  1
