# generated using pymatgen
data_Dy3B7Ru
_symmetry_space_group_name_H-M   'P 1'
_cell_length_a   8.07339726
_cell_length_b   8.07339816
_cell_length_c   9.33832500
_cell_angle_alpha   90.00000000
_cell_angle_beta   90.00000000
_cell_angle_gamma   154.80769906
_symmetry_Int_Tables_number   1
_chemical_formula_structural   Dy3B7Ru
_chemical_formula_sum   'Dy6 B14 Ru2'
_cell_volume   259.08494402
_cell_formula_units_Z   2
loop_
 _symmetry_equiv_pos_site_id
 _symmetry_equiv_pos_as_xyz
  1  'x, y, z'
loop_
 _atom_site_type_symbol
 _atom_site_label
 _atom_site_symmetry_multiplicity
 _atom_site_fract_x
 _atom_site_fract_y
 _atom_site_fract_z
 _atom_site_occupancy
  Dy  Dy0  1  0.756202  0.243798  0.250000  1
  Dy  Dy1  1  0.243798  0.756202  0.750000  1
  Dy  Dy2  1  0.894076  0.105924  0.560649  1
  Dy  Dy3  1  0.105924  0.894076  0.439351  1
  Dy  Dy4  1  0.105924  0.894076  0.060649  1
  Dy  Dy5  1  0.894076  0.105924  0.939351  1
  B  B6  1  0.541929  0.458071  0.250000  1
  B  B7  1  0.458071  0.541929  0.750000  1
  B  B8  1  0.521009  0.478991  0.903709  1
  B  B9  1  0.478991  0.521009  0.096291  1
  B  B10  1  0.478991  0.521009  0.403709  1
  B  B11  1  0.521009  0.478991  0.596291  1
  B  B12  1  0.631724  0.368276  0.849216  1
  B  B13  1  0.368276  0.631724  0.150784  1
  B  B14  1  0.727224  0.272776  0.966091  1
  B  B15  1  0.272776  0.727224  0.033909  1
  B  B16  1  0.272776  0.727224  0.466091  1
  B  B17  1  0.727224  0.272776  0.533909  1
  B  B18  1  0.631724  0.368276  0.650784  1
  B  B19  1  0.368276  0.631724  0.349216  1
  Ru  Ru20  1  0.945739  0.054261  0.250000  1
  Ru  Ru21  1  0.054261  0.945739  0.750000  1
