# generated using pymatgen
data_NbP2IO8
_symmetry_space_group_name_H-M   'P 1'
_cell_length_a   5.26935338
_cell_length_b   5.26880150
_cell_length_c   9.02724985
_cell_angle_alpha   78.50567048
_cell_angle_beta   78.49400716
_cell_angle_gamma   60.77908984
_symmetry_Int_Tables_number   1
_chemical_formula_structural   NbP2IO8
_chemical_formula_sum   'Nb1 P2 I1 O8'
_cell_volume   212.80915700
_cell_formula_units_Z   1
loop_
 _symmetry_equiv_pos_site_id
 _symmetry_equiv_pos_as_xyz
  1  'x, y, z'
loop_
 _atom_site_type_symbol
 _atom_site_label
 _atom_site_symmetry_multiplicity
 _atom_site_fract_x
 _atom_site_fract_y
 _atom_site_fract_z
 _atom_site_occupancy
  Nb  Nb0  1  0.000000  0.000000  0.500000  1
  P  P1  1  0.702738  0.702665  0.306485  1
  P  P2  1  0.297262  0.297335  0.693515  1
  I  I3  1  0.000000  0.000000  0.000000  1
  O  O4  1  0.764103  0.764126  0.135764  1
  O  O5  1  0.836374  0.367761  0.357598  1
  O  O6  1  0.367872  0.836026  0.357683  1
  O  O7  1  0.828578  0.828625  0.398306  1
  O  O8  1  0.171422  0.171375  0.601693  1
  O  O9  1  0.632127  0.163973  0.642316  1
  O  O10  1  0.163625  0.632238  0.642401  1
  O  O11  1  0.235897  0.235874  0.864236  1
