# generated using pymatgen
data_Yb10Si5Sb
_symmetry_space_group_name_H-M   'P 1'
_cell_length_a   7.70233470
_cell_length_b   7.70233444
_cell_length_c   9.10608191
_cell_angle_alpha   115.01924797
_cell_angle_beta   115.01924611
_cell_angle_gamma   89.99999663
_symmetry_Int_Tables_number   1
_chemical_formula_structural   Yb10Si5Sb
_chemical_formula_sum   'Yb10 Si5 Sb1'
_cell_volume   432.94834427
_cell_formula_units_Z   1
loop_
 _symmetry_equiv_pos_site_id
 _symmetry_equiv_pos_as_xyz
  1  'x, y, z'
loop_
 _atom_site_type_symbol
 _atom_site_label
 _atom_site_symmetry_multiplicity
 _atom_site_fract_x
 _atom_site_fract_y
 _atom_site_fract_z
 _atom_site_occupancy
  Yb  Yb0  1  0.504545  0.504545  0.009091  1
  Yb  Yb1  1  0.995455  0.995455  0.990909  1
  Yb  Yb2  1  0.970962  0.824512  0.279815  1
  Yb  Yb3  1  0.308854  0.455304  0.279815  1
  Yb  Yb4  1  0.824512  0.308854  0.279815  1
  Yb  Yb5  1  0.455304  0.970962  0.279815  1
  Yb  Yb6  1  0.044696  0.191146  0.720185  1
  Yb  Yb7  1  0.675488  0.529038  0.720185  1
  Yb  Yb8  1  0.191146  0.675488  0.720185  1
  Yb  Yb9  1  0.529038  0.044696  0.720185  1
  Si  Si10  1  0.250000  0.250000  0.500000  1
  Si  Si11  1  0.613428  0.886572  0.000000  1
  Si  Si12  1  0.386572  0.113428  0.000000  1
  Si  Si13  1  0.886572  0.386572  0.000000  1
  Si  Si14  1  0.113428  0.613428  0.000000  1
  Sb  Sb15  1  0.750000  0.750000  0.500000  1
