# generated using pymatgen
data_PrNd9Sn20Pd5Rh3
_symmetry_space_group_name_H-M   'P 1'
_cell_length_a   14.29589138
_cell_length_b   14.30386414
_cell_length_c   4.64975300
_cell_angle_alpha   90.00000000
_cell_angle_beta   90.00000000
_cell_angle_gamma   90.01819418
_symmetry_Int_Tables_number   1
_chemical_formula_structural   PrNd9Sn20Pd5Rh3
_chemical_formula_sum   'Pr1 Nd9 Sn20 Pd5 Rh3'
_cell_volume   950.81161348
_cell_formula_units_Z   1
loop_
 _symmetry_equiv_pos_site_id
 _symmetry_equiv_pos_as_xyz
  1  'x, y, z'
loop_
 _atom_site_type_symbol
 _atom_site_label
 _atom_site_symmetry_multiplicity
 _atom_site_fract_x
 _atom_site_fract_y
 _atom_site_fract_z
 _atom_site_occupancy
  Pr  Pr0  1  0.609029  0.890748  0.500000  1
  Nd  Nd1  1  0.500678  0.497345  0.000000  1
  Nd  Nd2  1  0.000953  0.999876  0.000000  1
  Nd  Nd3  1  0.678252  0.180177  0.500000  1
  Nd  Nd4  1  0.320089  0.821393  0.500000  1
  Nd  Nd5  1  0.177402  0.320031  0.500000  1
  Nd  Nd6  1  0.822142  0.679316  0.500000  1
  Nd  Nd7  1  0.892319  0.390311  0.500000  1
  Nd  Nd8  1  0.106976  0.609909  0.500000  1
  Nd  Nd9  1  0.391905  0.110084  0.500000  1
  Sn  Sn10  1  0.567629  0.071922  0.000000  1
  Sn  Sn11  1  0.431998  0.932215  0.000000  1
  Sn  Sn12  1  0.067348  0.428901  0.000000  1
  Sn  Sn13  1  0.932815  0.571163  0.000000  1
  Sn  Sn14  1  0.653911  0.700172  0.000000  1
  Sn  Sn15  1  0.347439  0.297981  0.000000  1
  Sn  Sn16  1  0.151509  0.798581  0.000000  1
  Sn  Sn17  1  0.847965  0.201369  0.000000  1
  Sn  Sn18  1  0.299519  0.653857  0.000000  1
  Sn  Sn19  1  0.698211  0.345952  0.000000  1
  Sn  Sn20  1  0.197744  0.153961  0.000000  1
  Sn  Sn21  1  0.802683  0.846773  0.000000  1
  Sn  Sn22  1  0.662460  0.501266  0.500000  1
  Sn  Sn23  1  0.338057  0.495982  0.500000  1
  Sn  Sn24  1  0.161978  0.997547  0.500000  1
  Sn  Sn25  1  0.838352  0.003352  0.500000  1
  Sn  Sn26  1  0.497366  0.661487  0.500000  1
  Sn  Sn27  1  0.504047  0.336026  0.500000  1
  Sn  Sn28  1  0.004398  0.163401  0.500000  1
  Sn  Sn29  1  0.995400  0.836238  0.500000  1
  Pd  Pd30  1  0.746077  0.529720  0.000000  1
  Pd  Pd31  1  0.253952  0.470240  0.000000  1
  Pd  Pd32  1  0.245718  0.970064  0.000000  1
  Pd  Pd33  1  0.753778  0.029756  0.000000  1
  Pd  Pd34  1  0.469814  0.746223  0.000000  1
  Rh  Rh35  1  0.530412  0.256642  0.000000  1
  Rh  Rh36  1  0.030399  0.244052  0.000000  1
  Rh  Rh37  1  0.969269  0.755969  0.000000  1
