# generated using pymatgen
data_AcBi9(MoO8)3
_symmetry_space_group_name_H-M   'P 1'
_cell_length_a   12.26589704
_cell_length_b   12.31685650
_cell_length_c   8.87315100
_cell_angle_alpha   84.98846498
_cell_angle_beta   85.19733187
_cell_angle_gamma   27.26003724
_symmetry_Int_Tables_number   1
_chemical_formula_structural   AcBi9(MoO8)3
_chemical_formula_sum   'Ac1 Bi9 Mo3 O24'
_cell_volume   611.60185516
_cell_formula_units_Z   1
loop_
 _symmetry_equiv_pos_site_id
 _symmetry_equiv_pos_as_xyz
  1  'x, y, z'
loop_
 _atom_site_type_symbol
 _atom_site_label
 _atom_site_symmetry_multiplicity
 _atom_site_fract_x
 _atom_site_fract_y
 _atom_site_fract_z
 _atom_site_occupancy
  Ac  Ac0  1  0.452834  0.475768  0.296188  1
  Bi  Bi1  1  0.599061  0.786876  0.455670  1
  Bi  Bi2  1  0.530137  0.543812  0.669462  1
  Bi  Bi3  1  0.195531  0.275318  0.192512  1
  Bi  Bi4  1  0.061387  0.086210  0.418937  1
  Bi  Bi5  1  0.209835  0.402678  0.548087  1
  Bi  Bi6  1  0.124724  0.176410  0.750256  1
  Bi  Bi7  1  0.917128  0.930227  0.585330  1
  Bi  Bi8  1  0.821630  0.874098  0.254773  1
  Bi  Bi9  1  0.729742  0.794559  0.813866  1
  Mo  Mo10  1  0.329055  0.420132  0.926562  1
  Mo  Mo11  1  0.002215  0.002424  0.996364  1
  Mo  Mo12  1  0.564936  0.685783  0.071477  1
  O  O13  1  0.896620  0.756515  0.651563  1
  O  O14  1  0.383666  0.964081  0.010259  1
  O  O15  1  0.239005  0.104451  0.355060  1
  O  O16  1  0.229920  0.894412  0.919746  1
  O  O17  1  0.720389  0.283261  0.503931  1
  O  O18  1  0.002108  0.543483  0.353843  1
  O  O19  1  0.223432  0.777305  0.503635  1
  O  O20  1  0.837313  0.203379  0.147506  1
  O  O21  1  0.727277  0.496065  0.912915  1
  O  O22  1  0.515881  0.273193  0.088429  1
  O  O23  1  0.468527  0.189796  0.829946  1
  O  O24  1  0.292850  0.563143  0.783085  1
  O  O25  1  0.659109  0.126370  0.406818  1
  O  O26  1  0.790994  0.546750  0.180385  1
  O  O27  1  0.422734  0.713471  0.209081  1
  O  O28  1  0.861264  0.353240  0.591337  1
  O  O29  1  0.132981  0.760472  0.079202  1
  O  O30  1  0.355302  0.862544  0.581825  1
  O  O31  1  0.979460  0.471843  0.693509  1
  O  O32  1  0.125177  0.648749  0.417866  1
  O  O33  1  0.521166  0.026331  0.313662  1
  O  O34  1  0.814072  0.145253  0.843317  1
  O  O35  1  0.049142  0.606789  0.991588  1
  O  O36  1  0.457978  0.990230  0.652005  1
