# generated using pymatgen
data_NdCuRuO5
_symmetry_space_group_name_H-M   'P 1'
_cell_length_a   5.60733700
_cell_length_b   7.94543000
_cell_length_c   8.80303100
_cell_angle_alpha   90.00000000
_cell_angle_beta   90.00000000
_cell_angle_gamma   90.00000000
_symmetry_Int_Tables_number   1
_chemical_formula_structural   NdCuRuO5
_chemical_formula_sum   'Nd4 Cu4 Ru4 O20'
_cell_volume   392.19883110
_cell_formula_units_Z   4
loop_
 _symmetry_equiv_pos_site_id
 _symmetry_equiv_pos_as_xyz
  1  'x, y, z'
loop_
 _atom_site_type_symbol
 _atom_site_label
 _atom_site_symmetry_multiplicity
 _atom_site_fract_x
 _atom_site_fract_y
 _atom_site_fract_z
 _atom_site_occupancy
  Nd  Nd0  1  0.000000  0.351429  0.670627  1
  Nd  Nd1  1  0.000000  0.648571  0.329373  1
  Nd  Nd2  1  0.000000  0.851429  0.829373  1
  Nd  Nd3  1  0.000000  0.148571  0.170627  1
  Cu  Cu4  1  0.500000  0.064819  0.851325  1
  Cu  Cu5  1  0.500000  0.935181  0.148675  1
  Cu  Cu6  1  0.500000  0.564819  0.648675  1
  Cu  Cu7  1  0.500000  0.435181  0.351325  1
  Ru  Ru8  1  0.283201  0.500000  0.000000  1
  Ru  Ru9  1  0.716799  0.000000  0.500000  1
  Ru  Ru10  1  0.716799  0.500000  0.000000  1
  Ru  Ru11  1  0.283201  0.000000  0.500000  1
  O  O12  1  0.250136  0.909970  0.289538  1
  O  O13  1  0.250136  0.090030  0.710462  1
  O  O14  1  0.749864  0.409970  0.210462  1
  O  O15  1  0.749864  0.590030  0.789538  1
  O  O16  1  0.749864  0.090030  0.710462  1
  O  O17  1  0.749864  0.909970  0.289538  1
  O  O18  1  0.250136  0.590030  0.789538  1
  O  O19  1  0.250136  0.409970  0.210462  1
  O  O20  1  0.500000  0.327099  0.931918  1
  O  O21  1  0.500000  0.672901  0.068082  1
  O  O22  1  0.500000  0.827099  0.568082  1
  O  O23  1  0.500000  0.172901  0.431918  1
  O  O24  1  0.266335  0.000000  0.000000  1
  O  O25  1  0.733665  0.500000  0.500000  1
  O  O26  1  0.733665  0.000000  0.000000  1
  O  O27  1  0.266335  0.500000  0.500000  1
  O  O28  1  0.000000  0.155754  0.447495  1
  O  O29  1  0.000000  0.844246  0.552505  1
  O  O30  1  0.000000  0.655754  0.052505  1
  O  O31  1  0.000000  0.344246  0.947495  1
