# generated using pymatgen
data_SrFe3CoAs12
_symmetry_space_group_name_H-M   'P 1'
_cell_length_a   7.26674124
_cell_length_b   7.26674086
_cell_length_c   7.26674204
_cell_angle_alpha   109.42673357
_cell_angle_beta   109.42673113
_cell_angle_gamma   109.42672765
_symmetry_Int_Tables_number   1
_chemical_formula_structural   SrFe3CoAs12
_chemical_formula_sum   'Sr1 Fe3 Co1 As12'
_cell_volume   295.87654011
_cell_formula_units_Z   1
loop_
 _symmetry_equiv_pos_site_id
 _symmetry_equiv_pos_as_xyz
  1  'x, y, z'
loop_
 _atom_site_type_symbol
 _atom_site_label
 _atom_site_symmetry_multiplicity
 _atom_site_fract_x
 _atom_site_fract_y
 _atom_site_fract_z
 _atom_site_occupancy
  Sr  Sr0  1  0.000000  0.000000  0.000000  1
  Fe  Fe1  1  0.500000  0.000000  0.000000  1
  Fe  Fe2  1  0.000000  0.500000  0.000000  1
  Fe  Fe3  1  0.000000  0.000000  0.500000  1
  Co  Co4  1  0.500000  0.500000  0.500000  1
  As  As5  1  0.845747  0.655967  0.499559  1
  As  As6  1  0.154253  0.344033  0.500441  1
  As  As7  1  0.156495  0.655759  0.812066  1
  As  As8  1  0.843505  0.344241  0.187934  1
  As  As9  1  0.655967  0.499559  0.845747  1
  As  As10  1  0.344033  0.500441  0.154253  1
  As  As11  1  0.655759  0.812066  0.156495  1
  As  As12  1  0.344241  0.187934  0.843505  1
  As  As13  1  0.499559  0.845747  0.655967  1
  As  As14  1  0.500441  0.154253  0.344033  1
  As  As15  1  0.187934  0.843505  0.344241  1
  As  As16  1  0.812066  0.156495  0.655759  1
