# generated using pymatgen
data_Ce2Re3Os
_symmetry_space_group_name_H-M   'P 1'
_cell_length_a   5.27537600
_cell_length_b   5.27537632
_cell_length_c   9.49672700
_cell_angle_alpha   90.00000000
_cell_angle_beta   90.00000000
_cell_angle_gamma   119.99999799
_symmetry_Int_Tables_number   1
_chemical_formula_structural   Ce2Re3Os
_chemical_formula_sum   'Ce4 Re6 Os2'
_cell_volume   228.88190468
_cell_formula_units_Z   2
loop_
 _symmetry_equiv_pos_site_id
 _symmetry_equiv_pos_as_xyz
  1  'x, y, z'
loop_
 _atom_site_type_symbol
 _atom_site_label
 _atom_site_symmetry_multiplicity
 _atom_site_fract_x
 _atom_site_fract_y
 _atom_site_fract_z
 _atom_site_occupancy
  Ce  Ce0  1  0.333333  0.666667  0.441543  1
  Ce  Ce1  1  0.666667  0.333333  0.558457  1
  Ce  Ce2  1  0.666667  0.333333  0.941543  1
  Ce  Ce3  1  0.333333  0.666667  0.058457  1
  Re  Re4  1  0.830623  0.169377  0.250000  1
  Re  Re5  1  0.830623  0.661246  0.250000  1
  Re  Re6  1  0.338754  0.169377  0.250000  1
  Re  Re7  1  0.169377  0.830623  0.750000  1
  Re  Re8  1  0.169377  0.338754  0.750000  1
  Re  Re9  1  0.661246  0.830623  0.750000  1
  Os  Os10  1  0.000000  0.000000  0.500000  1
  Os  Os11  1  0.000000  0.000000  0.000000  1
