# generated using pymatgen
data_YbHoTc3Ge4
_symmetry_space_group_name_H-M   'P 1'
_cell_length_a   8.26781300
_cell_length_b   5.67865753
_cell_length_c   7.01207217
_cell_angle_alpha   76.11842333
_cell_angle_beta   90.00000000
_cell_angle_gamma   90.00000000
_symmetry_Int_Tables_number   1
_chemical_formula_structural   YbHoTc3Ge4
_chemical_formula_sum   'Yb2 Ho2 Tc6 Ge8'
_cell_volume   319.60211106
_cell_formula_units_Z   2
loop_
 _symmetry_equiv_pos_site_id
 _symmetry_equiv_pos_as_xyz
  1  'x, y, z'
loop_
 _atom_site_type_symbol
 _atom_site_label
 _atom_site_symmetry_multiplicity
 _atom_site_fract_x
 _atom_site_fract_y
 _atom_site_fract_z
 _atom_site_occupancy
  Yb  Yb0  1  0.552763  0.072627  0.246098  1
  Yb  Yb1  1  0.052763  0.427373  0.753902  1
  Ho  Ho2  1  0.445170  0.921185  0.756840  1
  Ho  Ho3  1  0.945170  0.578815  0.243160  1
  Tc  Tc4  1  0.207427  0.128546  0.112134  1
  Tc  Tc5  1  0.707427  0.371454  0.887866  1
  Tc  Tc6  1  0.792136  0.903269  0.884394  1
  Tc  Tc7  1  0.292136  0.596731  0.115606  1
  Tc  Tc8  1  0.001374  0.999729  0.503054  1
  Tc  Tc9  1  0.501374  0.500271  0.496946  1
  Ge  Ge10  1  0.903798  0.120573  0.134505  1
  Ge  Ge11  1  0.403798  0.379427  0.865495  1
  Ge  Ge12  1  0.098855  0.880789  0.875621  1
  Ge  Ge13  1  0.598855  0.619211  0.124379  1
  Ge  Ge14  1  0.745725  0.223779  0.567742  1
  Ge  Ge15  1  0.245725  0.276221  0.432258  1
  Ge  Ge16  1  0.252753  0.781757  0.414624  1
  Ge  Ge17  1  0.752753  0.718243  0.585376  1
