# generated using pymatgen
data_BaSr2YbCN4
_symmetry_space_group_name_H-M   'P 1'
_cell_length_a   3.82165000
_cell_length_b   12.36302000
_cell_length_c   14.67816800
_cell_angle_alpha   90.00000000
_cell_angle_beta   90.00000000
_cell_angle_gamma   90.00000000
_symmetry_Int_Tables_number   1
_chemical_formula_structural   BaSr2YbCN4
_chemical_formula_sum   'Ba4 Sr8 Yb4 C4 N16'
_cell_volume   693.50139067
_cell_formula_units_Z   4
loop_
 _symmetry_equiv_pos_site_id
 _symmetry_equiv_pos_as_xyz
  1  'x, y, z'
loop_
 _atom_site_type_symbol
 _atom_site_label
 _atom_site_symmetry_multiplicity
 _atom_site_fract_x
 _atom_site_fract_y
 _atom_site_fract_z
 _atom_site_occupancy
  Ba  Ba0  1  0.750000  0.892788  0.393116  1
  Ba  Ba1  1  0.250000  0.107212  0.606884  1
  Ba  Ba2  1  0.250000  0.607212  0.893116  1
  Ba  Ba3  1  0.750000  0.392788  0.106884  1
  Sr  Sr4  1  0.750000  0.651623  0.255862  1
  Sr  Sr5  1  0.250000  0.348377  0.744138  1
  Sr  Sr6  1  0.250000  0.848377  0.755862  1
  Sr  Sr7  1  0.750000  0.151623  0.244138  1
  Sr  Sr8  1  0.750000  0.881780  0.963523  1
  Sr  Sr9  1  0.250000  0.118220  0.036477  1
  Sr  Sr10  1  0.250000  0.618220  0.463523  1
  Sr  Sr11  1  0.750000  0.381780  0.536477  1
  Yb  Yb12  1  0.750000  0.604770  0.672030  1
  Yb  Yb13  1  0.250000  0.395230  0.327970  1
  Yb  Yb14  1  0.250000  0.895230  0.172030  1
  Yb  Yb15  1  0.750000  0.104770  0.827970  1
  C  C16  1  0.750000  0.831488  0.590481  1
  C  C17  1  0.250000  0.168512  0.409519  1
  C  C18  1  0.250000  0.668512  0.090481  1
  C  C19  1  0.750000  0.331488  0.909519  1
  N  N20  1  0.750000  0.742557  0.550571  1
  N  N21  1  0.250000  0.257443  0.449429  1
  N  N22  1  0.250000  0.757443  0.050571  1
  N  N23  1  0.750000  0.242557  0.949429  1
  N  N24  1  0.750000  0.921720  0.627403  1
  N  N25  1  0.250000  0.078280  0.372597  1
  N  N26  1  0.250000  0.578280  0.127403  1
  N  N27  1  0.750000  0.421720  0.872597  1
  N  N28  1  0.750000  0.500317  0.376780  1
  N  N29  1  0.250000  0.499683  0.623220  1
  N  N30  1  0.250000  0.999683  0.876780  1
  N  N31  1  0.750000  0.000317  0.123220  1
  N  N32  1  0.750000  0.716753  0.809006  1
  N  N33  1  0.250000  0.283247  0.190994  1
  N  N34  1  0.250000  0.783247  0.309006  1
  N  N35  1  0.750000  0.216753  0.690994  1
