# generated using pymatgen
data_LaTb5(SiPd5)2
_symmetry_space_group_name_H-M   'P 1'
_cell_length_a   8.30083573
_cell_length_b   8.30083672
_cell_length_c   8.30083697
_cell_angle_alpha   127.51034808
_cell_angle_beta   125.91125987
_cell_angle_gamma   78.72979476
_symmetry_Int_Tables_number   1
_chemical_formula_structural   LaTb5(SiPd5)2
_chemical_formula_sum   'La1 Tb5 Si2 Pd10'
_cell_volume   355.63644649
_cell_formula_units_Z   1
loop_
 _symmetry_equiv_pos_site_id
 _symmetry_equiv_pos_as_xyz
  1  'x, y, z'
loop_
 _atom_site_type_symbol
 _atom_site_label
 _atom_site_symmetry_multiplicity
 _atom_site_fract_x
 _atom_site_fract_y
 _atom_site_fract_z
 _atom_site_occupancy
  La  La0  1  0.618711  0.750000  0.868711  1
  Tb  Tb1  1  0.825156  0.050552  0.774604  1
  Tb  Tb2  1  0.224052  0.449448  0.774604  1
  Tb  Tb3  1  0.178271  0.951578  0.226693  1
  Tb  Tb4  1  0.389544  0.250000  0.139544  1
  Tb  Tb5  1  0.775116  0.548422  0.226693  1
  Si  Si6  1  0.211835  0.750000  0.461835  1
  Si  Si7  1  0.782045  0.250000  0.532045  1
  Pd  Pd8  1  0.834738  0.598307  0.640623  1
  Pd  Pd9  1  0.542316  0.305885  0.640623  1
  Pd  Pd10  1  0.452831  0.099422  0.764727  1
  Pd  Pd11  1  0.834738  0.194115  0.236431  1
  Pd  Pd12  1  0.165306  0.400578  0.353409  1
  Pd  Pd13  1  0.452831  0.688104  0.353409  1
  Pd  Pd14  1  0.542316  0.901693  0.236431  1
  Pd  Pd15  1  0.165306  0.811896  0.764727  1
  Pd  Pd16  1  0.002444  0.005160  0.507604  1
  Pd  Pd17  1  0.002444  0.494840  0.997284  1
