# generated using pymatgen
data_Lu2U(Co3B2)3
_symmetry_space_group_name_H-M   'P 1'
_cell_length_a   5.75806845
_cell_length_b   5.75563884
_cell_length_c   5.75721943
_cell_angle_alpha   94.68857193
_cell_angle_beta   94.69622646
_cell_angle_gamma   94.69437945
_symmetry_Int_Tables_number   1
_chemical_formula_structural   Lu2U(Co3B2)3
_chemical_formula_sum   'Lu2 U1 Co9 B6'
_cell_volume   188.77089437
_cell_formula_units_Z   1
loop_
 _symmetry_equiv_pos_site_id
 _symmetry_equiv_pos_as_xyz
  1  'x, y, z'
loop_
 _atom_site_type_symbol
 _atom_site_label
 _atom_site_symmetry_multiplicity
 _atom_site_fract_x
 _atom_site_fract_y
 _atom_site_fract_z
 _atom_site_occupancy
  Lu  Lu0  1  0.668817  0.668647  0.668749  1
  Lu  Lu1  1  0.331183  0.331353  0.331251  1
  U  U2  1  0.000000  0.000000  0.000000  1
  Co  Co3  1  0.000000  0.000000  0.500000  1
  Co  Co4  1  0.500000  0.000000  0.000000  1
  Co  Co5  1  0.000000  0.500000  0.000000  1
  Co  Co6  1  0.693780  0.190656  0.693582  1
  Co  Co7  1  0.693811  0.693592  0.190626  1
  Co  Co8  1  0.190653  0.693663  0.693681  1
  Co  Co9  1  0.306220  0.809344  0.306418  1
  Co  Co10  1  0.306189  0.306408  0.809374  1
  Co  Co11  1  0.809347  0.306337  0.306319  1
  B  B12  1  0.627551  0.372536  0.000096  1
  B  B13  1  0.999970  0.627551  0.372423  1
  B  B14  1  0.372476  0.999934  0.627458  1
  B  B15  1  0.000030  0.372449  0.627577  1
  B  B16  1  0.627524  0.000066  0.372542  1
  B  B17  1  0.372449  0.627464  0.999904  1
