# generated using pymatgen
data_Tm7ScTi8(Ge4Mo)4
_symmetry_space_group_name_H-M   'P 1'
_cell_length_a   6.87397845
_cell_length_b   7.03234382
_cell_length_c   13.35247421
_cell_angle_alpha   90.00986387
_cell_angle_beta   89.99727343
_cell_angle_gamma   89.96012147
_symmetry_Int_Tables_number   1
_chemical_formula_structural   Tm7ScTi8(Ge4Mo)4
_chemical_formula_sum   'Tm7 Sc1 Ti8 Ge16 Mo4'
_cell_volume   645.46083862
_cell_formula_units_Z   1
loop_
 _symmetry_equiv_pos_site_id
 _symmetry_equiv_pos_as_xyz
  1  'x, y, z'
loop_
 _atom_site_type_symbol
 _atom_site_label
 _atom_site_symmetry_multiplicity
 _atom_site_fract_x
 _atom_site_fract_y
 _atom_site_fract_z
 _atom_site_occupancy
  Tm  Tm0  1  0.496032  0.675436  0.595449  1
  Tm  Tm1  1  0.997054  0.824995  0.904456  1
  Tm  Tm2  1  0.503908  0.325325  0.095630  1
  Tm  Tm3  1  0.003442  0.174387  0.406006  1
  Tm  Tm4  1  0.502664  0.324972  0.405788  1
  Tm  Tm5  1  0.003614  0.175263  0.095672  1
  Tm  Tm6  1  0.496272  0.675493  0.903134  1
  Sc  Sc7  1  0.994640  0.822766  0.596207  1
  Ti  Ti8  1  0.663206  0.167146  0.626865  1
  Ti  Ti9  1  0.161711  0.332423  0.871021  1
  Ti  Ti10  1  0.337394  0.832206  0.127646  1
  Ti  Ti11  1  0.837487  0.669162  0.373100  1
  Ti  Ti12  1  0.338019  0.832132  0.372687  1
  Ti  Ti13  1  0.837676  0.667635  0.128090  1
  Ti  Ti14  1  0.664292  0.167139  0.871516  1
  Ti  Ti15  1  0.163345  0.332186  0.627229  1
  Ge  Ge16  1  0.674379  0.957031  0.458666  1
  Ge  Ge17  1  0.173267  0.542689  0.042715  1
  Ge  Ge18  1  0.327673  0.043488  0.956652  1
  Ge  Ge19  1  0.828815  0.461160  0.543928  1
  Ge  Ge20  1  0.320644  0.038470  0.543937  1
  Ge  Ge21  1  0.826641  0.457224  0.956833  1
  Ge  Ge22  1  0.672967  0.957080  0.042902  1
  Ge  Ge23  1  0.171648  0.545295  0.458511  1
  Ge  Ge24  1  0.465242  0.375222  0.749411  1
  Ge  Ge25  1  0.965888  0.121767  0.748060  1
  Ge  Ge26  1  0.535199  0.624382  0.250393  1
  Ge  Ge27  1  0.035262  0.875670  0.250339  1
  Ge  Ge28  1  0.698915  0.859901  0.748398  1
  Ge  Ge29  1  0.192788  0.642394  0.747374  1
  Ge  Ge30  1  0.304376  0.139792  0.250505  1
  Ge  Ge31  1  0.804405  0.360640  0.250926  1
  Mo  Mo32  1  0.837100  0.487834  0.749485  1
  Mo  Mo33  1  0.337008  0.011134  0.749269  1
  Mo  Mo34  1  0.163327  0.512181  0.250511  1
  Mo  Mo35  1  0.663701  0.987980  0.250688  1
