# generated using pymatgen
data_Sc2Al9Ni2Rh
_symmetry_space_group_name_H-M   'P 1'
_cell_length_a   7.37347733
_cell_length_b   7.37347767
_cell_length_c   9.17605900
_cell_angle_alpha   90.00000000
_cell_angle_beta   90.00000000
_cell_angle_gamma   119.12622012
_symmetry_Int_Tables_number   1
_chemical_formula_structural   Sc2Al9Ni2Rh
_chemical_formula_sum   'Sc4 Al18 Ni4 Rh2'
_cell_volume   435.80124896
_cell_formula_units_Z   2
loop_
 _symmetry_equiv_pos_site_id
 _symmetry_equiv_pos_as_xyz
  1  'x, y, z'
loop_
 _atom_site_type_symbol
 _atom_site_label
 _atom_site_symmetry_multiplicity
 _atom_site_fract_x
 _atom_site_fract_y
 _atom_site_fract_z
 _atom_site_occupancy
  Sc  Sc0  1  0.993865  0.673371  0.250000  1
  Sc  Sc1  1  0.006135  0.326629  0.750000  1
  Sc  Sc2  1  0.673371  0.993865  0.250000  1
  Sc  Sc3  1  0.326629  0.006135  0.750000  1
  Al  Al4  1  0.993762  0.337990  0.076515  1
  Al  Al5  1  0.006238  0.662010  0.923485  1
  Al  Al6  1  0.006238  0.662010  0.576515  1
  Al  Al7  1  0.337990  0.993762  0.423485  1
  Al  Al8  1  0.993762  0.337990  0.423485  1
  Al  Al9  1  0.662010  0.006238  0.576515  1
  Al  Al10  1  0.662010  0.006238  0.923485  1
  Al  Al11  1  0.337990  0.993762  0.076515  1
  Al  Al12  1  0.340834  0.561634  0.250000  1
  Al  Al13  1  0.659166  0.438366  0.750000  1
  Al  Al14  1  0.561634  0.340834  0.250000  1
  Al  Al15  1  0.438366  0.659166  0.750000  1
  Al  Al16  1  0.332952  0.332952  0.553631  1
  Al  Al17  1  0.667048  0.667048  0.446369  1
  Al  Al18  1  0.667048  0.667048  0.053631  1
  Al  Al19  1  0.332952  0.332952  0.946369  1
  Al  Al20  1  0.129033  0.129033  0.250000  1
  Al  Al21  1  0.870967  0.870967  0.750000  1
  Ni  Ni22  1  0.670910  0.329090  0.000000  1
  Ni  Ni23  1  0.329090  0.670910  0.000000  1
  Ni  Ni24  1  0.329090  0.670910  0.500000  1
  Ni  Ni25  1  0.670910  0.329090  0.500000  1
  Rh  Rh26  1  0.000000  0.000000  0.000000  1
  Rh  Rh27  1  0.000000  0.000000  0.500000  1
