# generated using pymatgen
data_DyHo2Sc2(In2Pt)2
_symmetry_space_group_name_H-M   'P 1'
_cell_length_a   3.58760500
_cell_length_b   7.96339700
_cell_length_c   17.84813100
_cell_angle_alpha   90.00000000
_cell_angle_beta   90.00000000
_cell_angle_gamma   90.00000000
_symmetry_Int_Tables_number   1
_chemical_formula_structural   DyHo2Sc2(In2Pt)2
_chemical_formula_sum   'Dy2 Ho4 Sc4 In8 Pt4'
_cell_volume   509.91258722
_cell_formula_units_Z   2
loop_
 _symmetry_equiv_pos_site_id
 _symmetry_equiv_pos_as_xyz
  1  'x, y, z'
loop_
 _atom_site_type_symbol
 _atom_site_label
 _atom_site_symmetry_multiplicity
 _atom_site_fract_x
 _atom_site_fract_y
 _atom_site_fract_z
 _atom_site_occupancy
  Dy  Dy0  1  0.000000  0.000000  0.000000  1
  Dy  Dy1  1  0.000000  0.500000  0.500000  1
  Ho  Ho2  1  0.000000  0.242232  0.217390  1
  Ho  Ho3  1  0.000000  0.757768  0.782610  1
  Ho  Ho4  1  0.000000  0.257768  0.717390  1
  Ho  Ho5  1  0.000000  0.742232  0.282610  1
  Sc  Sc6  1  0.000000  0.117555  0.414254  1
  Sc  Sc7  1  0.000000  0.882445  0.585746  1
  Sc  Sc8  1  0.000000  0.382445  0.914254  1
  Sc  Sc9  1  0.000000  0.617555  0.085746  1
  In  In10  1  0.500000  0.414578  0.351161  1
  In  In11  1  0.500000  0.585422  0.648839  1
  In  In12  1  0.500000  0.085422  0.851161  1
  In  In13  1  0.500000  0.914578  0.148839  1
  In  In14  1  0.500000  0.305514  0.060847  1
  In  In15  1  0.500000  0.694486  0.939153  1
  In  In16  1  0.500000  0.194486  0.560847  1
  In  In17  1  0.500000  0.805514  0.439153  1
  Pt  Pt18  1  0.500000  0.030698  0.307707  1
  Pt  Pt19  1  0.500000  0.969302  0.692293  1
  Pt  Pt20  1  0.500000  0.469302  0.807707  1
  Pt  Pt21  1  0.500000  0.530698  0.192293  1
