# generated using pymatgen
data_Tm5Bi2Ir
_symmetry_space_group_name_H-M   'P 1'
_cell_length_a   7.87432500
_cell_length_b   8.96809500
_cell_length_c   12.42061400
_cell_angle_alpha   90.00000000
_cell_angle_beta   90.00000000
_cell_angle_gamma   90.00000000
_symmetry_Int_Tables_number   1
_chemical_formula_structural   Tm5Bi2Ir
_chemical_formula_sum   'Tm20 Bi8 Ir4'
_cell_volume   877.11512695
_cell_formula_units_Z   4
loop_
 _symmetry_equiv_pos_site_id
 _symmetry_equiv_pos_as_xyz
  1  'x, y, z'
loop_
 _atom_site_type_symbol
 _atom_site_label
 _atom_site_symmetry_multiplicity
 _atom_site_fract_x
 _atom_site_fract_y
 _atom_site_fract_z
 _atom_site_occupancy
  Tm  Tm0  1  0.661286  0.750000  0.706779  1
  Tm  Tm1  1  0.338714  0.250000  0.293221  1
  Tm  Tm2  1  0.161286  0.250000  0.793221  1
  Tm  Tm3  1  0.838714  0.750000  0.206779  1
  Tm  Tm4  1  0.127442  0.750000  0.811148  1
  Tm  Tm5  1  0.872558  0.250000  0.188852  1
  Tm  Tm6  1  0.627442  0.250000  0.688852  1
  Tm  Tm7  1  0.372558  0.750000  0.311148  1
  Tm  Tm8  1  0.556302  0.750000  0.998023  1
  Tm  Tm9  1  0.443698  0.250000  0.001977  1
  Tm  Tm10  1  0.056302  0.250000  0.501977  1
  Tm  Tm11  1  0.943698  0.750000  0.498023  1
  Tm  Tm12  1  0.827042  0.458613  0.932035  1
  Tm  Tm13  1  0.172958  0.541387  0.067965  1
  Tm  Tm14  1  0.327042  0.541387  0.567965  1
  Tm  Tm15  1  0.172958  0.958613  0.067965  1
  Tm  Tm16  1  0.672958  0.458613  0.432035  1
  Tm  Tm17  1  0.827042  0.041387  0.932035  1
  Tm  Tm18  1  0.672958  0.041387  0.432035  1
  Tm  Tm19  1  0.327042  0.958613  0.567965  1
  Bi  Bi20  1  0.937102  0.007477  0.672844  1
  Bi  Bi21  1  0.062898  0.992523  0.327156  1
  Bi  Bi22  1  0.437102  0.992523  0.827156  1
  Bi  Bi23  1  0.062898  0.507477  0.327156  1
  Bi  Bi24  1  0.562898  0.007477  0.172844  1
  Bi  Bi25  1  0.937102  0.492523  0.672844  1
  Bi  Bi26  1  0.562898  0.492523  0.172844  1
  Bi  Bi27  1  0.437102  0.507477  0.827156  1
  Ir  Ir28  1  0.929325  0.750000  0.992155  1
  Ir  Ir29  1  0.070675  0.250000  0.007845  1
  Ir  Ir30  1  0.429325  0.250000  0.507845  1
  Ir  Ir31  1  0.570675  0.750000  0.492155  1
