# generated using pymatgen
data_CoSb3(PO4)6
_symmetry_space_group_name_H-M   'P 1'
_cell_length_a   8.36670219
_cell_length_b   8.36670266
_cell_length_c   8.92188200
_cell_angle_alpha   62.03794284
_cell_angle_beta   62.03794111
_cell_angle_gamma   59.99999089
_symmetry_Int_Tables_number   1
_chemical_formula_structural   CoSb3(PO4)6
_chemical_formula_sum   'Co1 Sb3 P6 O24'
_cell_volume   454.73931998
_cell_formula_units_Z   1
loop_
 _symmetry_equiv_pos_site_id
 _symmetry_equiv_pos_as_xyz
  1  'x, y, z'
loop_
 _atom_site_type_symbol
 _atom_site_label
 _atom_site_symmetry_multiplicity
 _atom_site_fract_x
 _atom_site_fract_y
 _atom_site_fract_z
 _atom_site_occupancy
  Co  Co0  1  0.849387  0.849387  0.451842  1
  Sb  Sb1  1  0.149556  0.149556  0.551330  1
  Sb  Sb2  1  0.356178  0.356178  0.931465  1
  Sb  Sb3  1  0.642842  0.642842  0.071477  1
  P  P4  1  0.748577  0.035934  0.742098  1
  P  P5  1  0.035934  0.473393  0.742098  1
  P  P6  1  0.473393  0.748577  0.742098  1
  P  P7  1  0.544627  0.240046  0.254676  1
  P  P8  1  0.960651  0.544627  0.254676  1
  P  P9  1  0.240046  0.960651  0.254676  1
  O  O10  1  0.294529  0.115847  0.072473  1
  O  O11  1  0.517151  0.294529  0.072473  1
  O  O12  1  0.957942  0.018198  0.705696  1
  O  O13  1  0.115847  0.517151  0.072473  1
  O  O14  1  0.607414  0.238864  0.766266  1
  O  O15  1  0.718505  0.016986  0.597335  1
  O  O16  1  0.018198  0.318163  0.705696  1
  O  O17  1  0.238864  0.387454  0.766266  1
  O  O18  1  0.387454  0.607414  0.766266  1
  O  O19  1  0.339829  0.283467  0.399066  1
  O  O20  1  0.683033  0.034065  0.299288  1
  O  O21  1  0.977640  0.339829  0.399066  1
  O  O22  1  0.016986  0.667174  0.597335  1
  O  O23  1  0.318163  0.957942  0.705696  1
  O  O24  1  0.667174  0.718505  0.597335  1
  O  O25  1  0.619494  0.388793  0.233378  1
  O  O26  1  0.758335  0.619494  0.233378  1
  O  O27  1  0.983613  0.683033  0.299288  1
  O  O28  1  0.283467  0.977640  0.399066  1
  O  O29  1  0.388793  0.758335  0.233378  1
  O  O30  1  0.881746  0.483577  0.927685  1
  O  O31  1  0.034065  0.983613  0.299288  1
  O  O32  1  0.483577  0.706992  0.927685  1
  O  O33  1  0.706992  0.881746  0.927685  1
