# generated using pymatgen
data_Tm5GaBiAu
_symmetry_space_group_name_H-M   'P 1'
_cell_length_a   8.61571450
_cell_length_b   8.61571472
_cell_length_c   8.64024889
_cell_angle_alpha   124.71213003
_cell_angle_beta   124.71213274
_cell_angle_gamma   81.82769824
_symmetry_Int_Tables_number   1
_chemical_formula_structural   Tm5GaBiAu
_chemical_formula_sum   'Tm10 Ga2 Bi2 Au2'
_cell_volume   417.34969240
_cell_formula_units_Z   2
loop_
 _symmetry_equiv_pos_site_id
 _symmetry_equiv_pos_as_xyz
  1  'x, y, z'
loop_
 _atom_site_type_symbol
 _atom_site_label
 _atom_site_symmetry_multiplicity
 _atom_site_fract_x
 _atom_site_fract_y
 _atom_site_fract_z
 _atom_site_occupancy
  Tm  Tm0  1  0.500000  0.500000  0.000000  1
  Tm  Tm1  1  0.000000  0.000000  0.000000  1
  Tm  Tm2  1  0.511486  0.011486  0.805003  1
  Tm  Tm3  1  0.206483  0.706483  0.194997  1
  Tm  Tm4  1  0.014745  0.203921  0.500000  1
  Tm  Tm5  1  0.703921  0.514745  0.500000  1
  Tm  Tm6  1  0.488514  0.988514  0.194997  1
  Tm  Tm7  1  0.793517  0.293517  0.805003  1
  Tm  Tm8  1  0.985255  0.796079  0.500000  1
  Tm  Tm9  1  0.296079  0.485255  0.500000  1
  Ga  Ga10  1  0.140782  0.640782  0.781564  1
  Ga  Ga11  1  0.859218  0.359218  0.218436  1
  Bi  Bi12  1  0.250000  0.250000  0.000000  1
  Bi  Bi13  1  0.750000  0.750000  0.000000  1
  Au  Au14  1  0.637923  0.862077  0.500000  1
  Au  Au15  1  0.362077  0.137923  0.500000  1
