# generated using pymatgen
data_Li4Nd2HoTmSi6
_symmetry_space_group_name_H-M   'P 1'
_cell_length_a   9.31312725
_cell_length_b   9.31312745
_cell_length_c   6.80897800
_cell_angle_alpha   90.00000000
_cell_angle_beta   90.00000000
_cell_angle_gamma   153.31281654
_symmetry_Int_Tables_number   1
_chemical_formula_structural   Li4Nd2HoTmSi6
_chemical_formula_sum   'Li4 Nd2 Ho1 Tm1 Si6'
_cell_volume   265.23729224
_cell_formula_units_Z   1
loop_
 _symmetry_equiv_pos_site_id
 _symmetry_equiv_pos_as_xyz
  1  'x, y, z'
loop_
 _atom_site_type_symbol
 _atom_site_label
 _atom_site_symmetry_multiplicity
 _atom_site_fract_x
 _atom_site_fract_y
 _atom_site_fract_z
 _atom_site_occupancy
  Li  Li0  1  0.190958  0.809042  0.059759  1
  Li  Li1  1  0.190958  0.809042  0.440241  1
  Li  Li2  1  0.808882  0.191118  0.939894  1
  Li  Li3  1  0.808882  0.191118  0.560106  1
  Nd  Nd4  1  0.554323  0.445677  0.250000  1
  Nd  Nd5  1  0.445906  0.554094  0.750000  1
  Ho  Ho6  1  0.344560  0.655440  0.250000  1
  Tm  Tm7  1  0.655339  0.344661  0.750000  1
  Si  Si8  1  0.723970  0.276030  0.250000  1
  Si  Si9  1  0.275693  0.724307  0.750000  1
  Si  Si10  1  0.059857  0.940143  0.924851  1
  Si  Si11  1  0.940408  0.059592  0.074889  1
  Si  Si12  1  0.940408  0.059592  0.425111  1
  Si  Si13  1  0.059857  0.940143  0.575149  1
