# generated using pymatgen
data_PrSm3(AuO3)4
_symmetry_space_group_name_H-M   'P 1'
_cell_length_a   3.96386262
_cell_length_b   5.67291200
_cell_length_c   13.03024600
_cell_angle_alpha   89.99993940
_cell_angle_beta   89.92258150
_cell_angle_gamma   90.00010092
_symmetry_Int_Tables_number   1
_chemical_formula_structural   PrSm3(AuO3)4
_chemical_formula_sum   'Pr1 Sm3 Au4 O12'
_cell_volume   293.00623314
_cell_formula_units_Z   1
loop_
 _symmetry_equiv_pos_site_id
 _symmetry_equiv_pos_as_xyz
  1  'x, y, z'
loop_
 _atom_site_type_symbol
 _atom_site_label
 _atom_site_symmetry_multiplicity
 _atom_site_fract_x
 _atom_site_fract_y
 _atom_site_fract_z
 _atom_site_occupancy
  Pr  Pr0  1  0.734501  0.750000  0.578613  1
  Sm  Sm1  1  0.264220  0.750001  0.078423  1
  Sm  Sm2  1  0.259512  0.250000  0.420097  1
  Sm  Sm3  1  0.739829  0.250000  0.923181  1
  Au  Au4  1  0.069621  0.749999  0.831954  1
  Au  Au5  1  0.064258  0.250001  0.670409  1
  Au  Au6  1  0.934575  0.250000  0.169382  1
  Au  Au7  1  0.932470  0.750000  0.329184  1
  O  O8  1  0.190540  0.500173  0.249347  1
  O  O9  1  0.812652  0.001677  0.752884  1
  O  O10  1  0.812651  0.498321  0.752883  1
  O  O11  1  0.190538  0.999830  0.249346  1
  O  O12  1  0.744419  0.499382  0.076037  1
  O  O13  1  0.740755  0.498771  0.421291  1
  O  O14  1  0.259249  0.999122  0.925231  1
  O  O15  1  0.252896  0.006202  0.574589  1
  O  O16  1  0.740755  0.001227  0.421291  1
  O  O17  1  0.744417  0.000620  0.076037  1
  O  O18  1  0.252895  0.493799  0.574589  1
  O  O19  1  0.259248  0.500876  0.925232  1
