# generated using pymatgen
data_Cs6HoLuBr12
_symmetry_space_group_name_H-M   'P 1'
_cell_length_a   9.99106347
_cell_length_b   9.99354547
_cell_length_c   8.28857200
_cell_angle_alpha   90.00000000
_cell_angle_beta   90.00000000
_cell_angle_gamma   90.06212206
_symmetry_Int_Tables_number   1
_chemical_formula_structural   Cs6HoLuBr12
_chemical_formula_sum   'Cs6 Ho1 Lu1 Br12'
_cell_volume   827.58149229
_cell_formula_units_Z   1
loop_
 _symmetry_equiv_pos_site_id
 _symmetry_equiv_pos_as_xyz
  1  'x, y, z'
loop_
 _atom_site_type_symbol
 _atom_site_label
 _atom_site_symmetry_multiplicity
 _atom_site_fract_x
 _atom_site_fract_y
 _atom_site_fract_z
 _atom_site_occupancy
  Cs  Cs0  1  0.000000  0.000000  0.500000  1
  Cs  Cs1  1  0.000000  0.000000  0.000000  1
  Cs  Cs2  1  0.236181  0.580874  0.500000  1
  Cs  Cs3  1  0.763819  0.419126  0.500000  1
  Cs  Cs4  1  0.419355  0.235336  0.000000  1
  Cs  Cs5  1  0.580645  0.764664  0.000000  1
  Ho  Ho6  1  0.000000  0.500000  0.000000  1
  Lu  Lu7  1  0.500000  0.000000  0.500000  1
  Br  Br8  1  0.688636  0.055070  0.736603  1
  Br  Br9  1  0.311364  0.944930  0.736603  1
  Br  Br10  1  0.944027  0.691875  0.240475  1
  Br  Br11  1  0.055973  0.308125  0.240475  1
  Br  Br12  1  0.311364  0.944930  0.263397  1
  Br  Br13  1  0.688636  0.055070  0.263397  1
  Br  Br14  1  0.055973  0.308125  0.759525  1
  Br  Br15  1  0.944027  0.691875  0.759525  1
  Br  Br16  1  0.569451  0.733614  0.500000  1
  Br  Br17  1  0.430549  0.266386  0.500000  1
  Br  Br18  1  0.271079  0.570813  0.000000  1
  Br  Br19  1  0.728921  0.429187  0.000000  1
