# generated using pymatgen
data_Pr3Ho(WO6)2
_symmetry_space_group_name_H-M   'P 1'
_cell_length_a   5.40934700
_cell_length_b   9.39952853
_cell_length_c   10.28776923
_cell_angle_alpha   90.75679421
_cell_angle_beta   90.00000000
_cell_angle_gamma   90.00000000
_symmetry_Int_Tables_number   1
_chemical_formula_structural   Pr3Ho(WO6)2
_chemical_formula_sum   'Pr6 Ho2 W4 O24'
_cell_volume   523.03920144
_cell_formula_units_Z   2
loop_
 _symmetry_equiv_pos_site_id
 _symmetry_equiv_pos_as_xyz
  1  'x, y, z'
loop_
 _atom_site_type_symbol
 _atom_site_label
 _atom_site_symmetry_multiplicity
 _atom_site_fract_x
 _atom_site_fract_y
 _atom_site_fract_z
 _atom_site_occupancy
  Pr  Pr0  1  0.478103  0.602148  0.535656  1
  Pr  Pr1  1  0.978103  0.897852  0.464344  1
  Pr  Pr2  1  0.520843  0.104704  0.964210  1
  Pr  Pr3  1  0.020843  0.395296  0.035790  1
  Pr  Pr4  1  0.968200  0.783266  0.867705  1
  Pr  Pr5  1  0.468200  0.716734  0.132295  1
  Ho  Ho6  1  0.040643  0.280931  0.625390  1
  Ho  Ho7  1  0.540643  0.219069  0.374610  1
  W  W8  1  0.459544  0.003858  0.647076  1
  W  W9  1  0.959544  0.496142  0.352924  1
  W  W10  1  0.541562  0.492742  0.846576  1
  W  W11  1  0.041562  0.007258  0.153424  1
  O  O12  1  0.258159  0.097932  0.506068  1
  O  O13  1  0.758159  0.402068  0.493932  1
  O  O14  1  0.750752  0.587241  0.987120  1
  O  O15  1  0.250752  0.912759  0.012880  1
  O  O16  1  0.731182  0.118152  0.567282  1
  O  O17  1  0.231182  0.381848  0.432718  1
  O  O18  1  0.276410  0.610738  0.931732  1
  O  O19  1  0.776410  0.889262  0.068268  1
  O  O20  1  0.189271  0.871091  0.677426  1
  O  O21  1  0.689271  0.628909  0.322574  1
  O  O22  1  0.811134  0.362521  0.809535  1
  O  O23  1  0.311134  0.137479  0.190465  1
  O  O24  1  0.178634  0.861630  0.261207  1
  O  O25  1  0.678634  0.638370  0.738793  1
  O  O26  1  0.803004  0.356401  0.242766  1
  O  O27  1  0.303004  0.143599  0.757234  1
  O  O28  1  0.822751  0.055669  0.291565  1
  O  O29  1  0.322751  0.444331  0.708435  1
  O  O30  1  0.167635  0.544422  0.212307  1
  O  O31  1  0.667635  0.955578  0.787693  1
  O  O32  1  0.933641  0.149926  0.026984  1
  O  O33  1  0.433641  0.350074  0.973016  1
  O  O34  1  0.068531  0.646859  0.474987  1
  O  O35  1  0.568531  0.853141  0.525013  1
