# generated using pymatgen
data_Er2Hg(P3Pd10)2
_symmetry_space_group_name_H-M   'P 1'
_cell_length_a   8.64772255
_cell_length_b   8.64772205
_cell_length_c   8.64772200
_cell_angle_alpha   59.99999252
_cell_angle_beta   59.99999447
_cell_angle_gamma   59.99999658
_symmetry_Int_Tables_number   1
_chemical_formula_structural   Er2Hg(P3Pd10)2
_chemical_formula_sum   'Er2 Hg1 P6 Pd20'
_cell_volume   457.28835058
_cell_formula_units_Z   1
loop_
 _symmetry_equiv_pos_site_id
 _symmetry_equiv_pos_as_xyz
  1  'x, y, z'
loop_
 _atom_site_type_symbol
 _atom_site_label
 _atom_site_symmetry_multiplicity
 _atom_site_fract_x
 _atom_site_fract_y
 _atom_site_fract_z
 _atom_site_occupancy
  Er  Er0  1  0.000000  0.000000  0.000000  1
  Er  Er1  1  0.250000  0.250000  0.250000  1
  Hg  Hg2  1  0.750000  0.750000  0.750000  1
  P  P3  1  0.734317  0.265683  0.265683  1
  P  P4  1  0.734317  0.734317  0.265683  1
  P  P5  1  0.734317  0.265683  0.734317  1
  P  P6  1  0.265683  0.734317  0.265683  1
  P  P7  1  0.265683  0.734317  0.734317  1
  P  P8  1  0.265683  0.265683  0.734317  1
  Pd  Pd9  1  0.341840  0.002188  0.002188  1
  Pd  Pd10  1  0.002188  0.653784  0.341840  1
  Pd  Pd11  1  0.341840  0.002188  0.653784  1
  Pd  Pd12  1  0.002188  0.653784  0.002188  1
  Pd  Pd13  1  0.653784  0.341840  0.002188  1
  Pd  Pd14  1  0.616953  0.616953  0.149141  1
  Pd  Pd15  1  0.384477  0.846571  0.384477  1
  Pd  Pd16  1  0.149141  0.616953  0.616953  1
  Pd  Pd17  1  0.653784  0.002188  0.341840  1
  Pd  Pd18  1  0.002188  0.341840  0.653784  1
  Pd  Pd19  1  0.653784  0.002188  0.002188  1
  Pd  Pd20  1  0.002188  0.002188  0.341840  1
  Pd  Pd21  1  0.616953  0.149141  0.616953  1
  Pd  Pd22  1  0.341840  0.653784  0.002188  1
  Pd  Pd23  1  0.384477  0.384477  0.384477  1
  Pd  Pd24  1  0.616953  0.616953  0.616953  1
  Pd  Pd25  1  0.384477  0.384477  0.846571  1
  Pd  Pd26  1  0.002188  0.002188  0.653784  1
  Pd  Pd27  1  0.846571  0.384477  0.384477  1
  Pd  Pd28  1  0.002188  0.341840  0.002188  1
