# generated using pymatgen
data_Hf4Mn6Fe2Si7As
_symmetry_space_group_name_H-M   'P 1'
_cell_length_a   5.05913100
_cell_length_b   7.11329164
_cell_length_c   7.48976207
_cell_angle_alpha   89.89957524
_cell_angle_beta   90.00000000
_cell_angle_gamma   90.00000000
_symmetry_Int_Tables_number   1
_chemical_formula_structural   Hf4Mn6Fe2Si7As
_chemical_formula_sum   'Hf4 Mn6 Fe2 Si7 As1'
_cell_volume   269.53420940
_cell_formula_units_Z   1
loop_
 _symmetry_equiv_pos_site_id
 _symmetry_equiv_pos_as_xyz
  1  'x, y, z'
loop_
 _atom_site_type_symbol
 _atom_site_label
 _atom_site_symmetry_multiplicity
 _atom_site_fract_x
 _atom_site_fract_y
 _atom_site_fract_z
 _atom_site_occupancy
  Hf  Hf0  1  0.750000  0.906679  0.249093  1
  Hf  Hf1  1  0.250000  0.097277  0.749000  1
  Hf  Hf2  1  0.750000  0.402375  0.751907  1
  Hf  Hf3  1  0.250000  0.595894  0.248268  1
  Mn  Mn4  1  0.750000  0.509755  0.112456  1
  Mn  Mn5  1  0.250000  0.489579  0.886248  1
  Mn  Mn6  1  0.001619  0.751806  0.619094  1
  Mn  Mn7  1  0.498228  0.248561  0.382020  1
  Mn  Mn8  1  0.001772  0.248561  0.382020  1
  Mn  Mn9  1  0.498381  0.751806  0.619094  1
  Fe  Fe10  1  0.750000  0.010898  0.884895  1
  Fe  Fe11  1  0.250000  0.988826  0.115567  1
  Si  Si12  1  0.250000  0.448576  0.586635  1
  Si  Si13  1  0.750000  0.049680  0.583969  1
  Si  Si14  1  0.250000  0.949911  0.415814  1
  Si  Si15  1  0.999390  0.750786  0.949949  1
  Si  Si16  1  0.498722  0.248693  0.048900  1
  Si  Si17  1  0.001278  0.248693  0.048900  1
  Si  Si18  1  0.500610  0.750786  0.949949  1
  As  As19  1  0.750000  0.550858  0.416219  1
