# generated using pymatgen
data_Lu2AlB2IrRu4
_symmetry_space_group_name_H-M   'P 1'
_cell_length_a   9.54253931
_cell_length_b   9.52847828
_cell_length_c   3.06705500
_cell_angle_alpha   90.00000000
_cell_angle_beta   90.00000000
_cell_angle_gamma   90.16000504
_symmetry_Int_Tables_number   1
_chemical_formula_structural   Lu2AlB2IrRu4
_chemical_formula_sum   'Lu4 Al2 B4 Ir2 Ru8'
_cell_volume   278.87358305
_cell_formula_units_Z   2
loop_
 _symmetry_equiv_pos_site_id
 _symmetry_equiv_pos_as_xyz
  1  'x, y, z'
loop_
 _atom_site_type_symbol
 _atom_site_label
 _atom_site_symmetry_multiplicity
 _atom_site_fract_x
 _atom_site_fract_y
 _atom_site_fract_z
 _atom_site_occupancy
  Lu  Lu0  1  0.676946  0.176085  0.000000  1
  Lu  Lu1  1  0.323054  0.823915  0.000000  1
  Lu  Lu2  1  0.173935  0.324818  0.000000  1
  Lu  Lu3  1  0.826065  0.675182  0.000000  1
  Al  Al4  1  0.000000  0.000000  0.000000  1
  Al  Al5  1  0.500000  0.500000  0.000000  1
  B  B6  1  0.123118  0.623702  0.000000  1
  B  B7  1  0.876882  0.376298  0.000000  1
  B  B8  1  0.624334  0.879648  0.000000  1
  B  B9  1  0.375666  0.120352  0.000000  1
  Ir  Ir10  1  0.569170  0.714928  0.500000  1
  Ir  Ir11  1  0.430830  0.285072  0.500000  1
  Ru  Ru12  1  0.216460  0.068986  0.500000  1
  Ru  Ru13  1  0.783540  0.931014  0.500000  1
  Ru  Ru14  1  0.069107  0.784108  0.500000  1
  Ru  Ru15  1  0.716189  0.431620  0.500000  1
  Ru  Ru16  1  0.930893  0.215892  0.500000  1
  Ru  Ru17  1  0.283811  0.568380  0.500000  1
  Ru  Ru18  1  0.500000  0.000000  0.500000  1
  Ru  Ru19  1  0.000000  0.500000  0.500000  1
