# generated using pymatgen
data_Tb7Y11Sc2(Cd3Ru)2
_symmetry_space_group_name_H-M   'P 1'
_cell_length_a   9.57945642
_cell_length_b   9.57945566
_cell_length_c   9.81460295
_cell_angle_alpha   89.93753946
_cell_angle_beta   90.06245907
_cell_angle_gamma   120.00086183
_symmetry_Int_Tables_number   1
_chemical_formula_structural   Tb7Y11Sc2(Cd3Ru)2
_chemical_formula_sum   'Tb7 Y11 Sc2 Cd6 Ru2'
_cell_volume   779.97547706
_cell_formula_units_Z   1
loop_
 _symmetry_equiv_pos_site_id
 _symmetry_equiv_pos_as_xyz
  1  'x, y, z'
loop_
 _atom_site_type_symbol
 _atom_site_label
 _atom_site_symmetry_multiplicity
 _atom_site_fract_x
 _atom_site_fract_y
 _atom_site_fract_z
 _atom_site_occupancy
  Tb  Tb0  1  0.208449  0.791551  0.440447  1
  Tb  Tb1  1  0.208397  0.416878  0.440515  1
  Tb  Tb2  1  0.583122  0.791603  0.440515  1
  Tb  Tb3  1  0.791652  0.208348  0.559425  1
  Tb  Tb4  1  0.791510  0.583182  0.559435  1
  Tb  Tb5  1  0.416818  0.208490  0.559435  1
  Tb  Tb6  1  0.791453  0.208547  0.940435  1
  Y  Y7  1  0.791894  0.583932  0.941180  1
  Y  Y8  1  0.416068  0.208106  0.941180  1
  Y  Y9  1  0.208168  0.791832  0.058915  1
  Y  Y10  1  0.208174  0.416382  0.058912  1
  Y  Y11  1  0.583618  0.791826  0.058912  1
  Y  Y12  1  0.541033  0.458967  0.250063  1
  Y  Y13  1  0.540970  0.082080  0.250034  1
  Y  Y14  1  0.917920  0.459030  0.250034  1
  Y  Y15  1  0.458988  0.541012  0.749976  1
  Y  Y16  1  0.458956  0.917911  0.749961  1
  Y  Y17  1  0.082089  0.541044  0.749961  1
  Sc  Sc18  1  0.000029  0.999971  0.500200  1
  Sc  Sc19  1  0.000055  0.999945  0.999965  1
  Cd  Cd20  1  0.889306  0.110694  0.249801  1
  Cd  Cd21  1  0.889259  0.778463  0.249632  1
  Cd  Cd22  1  0.221537  0.110741  0.249632  1
  Cd  Cd23  1  0.110726  0.889274  0.750356  1
  Cd  Cd24  1  0.110821  0.221478  0.750271  1
  Cd  Cd25  1  0.778522  0.889179  0.750271  1
  Ru  Ru26  1  0.333346  0.666654  0.251959  1
  Ru  Ru27  1  0.667117  0.332883  0.748576  1
