# generated using pymatgen
data_Sr2Yb(HoSi2)2
_symmetry_space_group_name_H-M   'P 1'
_cell_length_a   7.59007500
_cell_length_b   7.96867300
_cell_length_c   15.47070000
_cell_angle_alpha   90.00000000
_cell_angle_beta   90.00000000
_cell_angle_gamma   90.00000000
_symmetry_Int_Tables_number   1
_chemical_formula_structural   Sr2Yb(HoSi2)2
_chemical_formula_sum   'Sr8 Yb4 Ho8 Si16'
_cell_volume   935.71165187
_cell_formula_units_Z   4
loop_
 _symmetry_equiv_pos_site_id
 _symmetry_equiv_pos_as_xyz
  1  'x, y, z'
loop_
 _atom_site_type_symbol
 _atom_site_label
 _atom_site_symmetry_multiplicity
 _atom_site_fract_x
 _atom_site_fract_y
 _atom_site_fract_z
 _atom_site_occupancy
  Sr  Sr0  1  0.973863  0.821293  0.402971  1
  Sr  Sr1  1  0.473863  0.678707  0.097029  1
  Sr  Sr2  1  0.526137  0.321293  0.597029  1
  Sr  Sr3  1  0.026137  0.178707  0.902971  1
  Sr  Sr4  1  0.026137  0.178707  0.597029  1
  Sr  Sr5  1  0.526137  0.321293  0.902971  1
  Sr  Sr6  1  0.473863  0.678707  0.402971  1
  Sr  Sr7  1  0.973863  0.821293  0.097029  1
  Yb  Yb8  1  0.355157  0.014504  0.750000  1
  Yb  Yb9  1  0.855157  0.485496  0.750000  1
  Yb  Yb10  1  0.144843  0.514504  0.250000  1
  Yb  Yb11  1  0.644843  0.985496  0.250000  1
  Ho  Ho12  1  0.315764  0.178544  0.121846  1
  Ho  Ho13  1  0.815764  0.321456  0.378154  1
  Ho  Ho14  1  0.184236  0.678544  0.878154  1
  Ho  Ho15  1  0.684236  0.821456  0.621846  1
  Ho  Ho16  1  0.315764  0.178544  0.378154  1
  Ho  Ho17  1  0.815764  0.321456  0.121846  1
  Ho  Ho18  1  0.184236  0.678544  0.621846  1
  Ho  Ho19  1  0.684236  0.821456  0.878154  1
  Si  Si20  1  0.862896  0.537441  0.538284  1
  Si  Si21  1  0.362896  0.962559  0.961716  1
  Si  Si22  1  0.637104  0.037441  0.461716  1
  Si  Si23  1  0.137104  0.462559  0.038284  1
  Si  Si24  1  0.137104  0.462559  0.461716  1
  Si  Si25  1  0.637104  0.037441  0.038284  1
  Si  Si26  1  0.362896  0.962559  0.538284  1
  Si  Si27  1  0.862896  0.537441  0.961716  1
  Si  Si28  1  0.975156  0.876318  0.750000  1
  Si  Si29  1  0.475156  0.623682  0.750000  1
  Si  Si30  1  0.524844  0.376318  0.250000  1
  Si  Si31  1  0.024844  0.123682  0.250000  1
  Si  Si32  1  0.246859  0.405608  0.750000  1
  Si  Si33  1  0.746859  0.094392  0.750000  1
  Si  Si34  1  0.253141  0.905608  0.250000  1
  Si  Si35  1  0.753141  0.594392  0.250000  1
