# generated using pymatgen
data_Yb4Al3Re2Os3
_symmetry_space_group_name_H-M   'P 1'
_cell_length_a   5.45829298
_cell_length_b   5.34192962
_cell_length_c   8.74730700
_cell_angle_alpha   90.00000000
_cell_angle_beta   90.00000000
_cell_angle_gamma   119.29724704
_symmetry_Int_Tables_number   1
_chemical_formula_structural   Yb4Al3Re2Os3
_chemical_formula_sum   'Yb4 Al3 Re2 Os3'
_cell_volume   222.42933716
_cell_formula_units_Z   1
loop_
 _symmetry_equiv_pos_site_id
 _symmetry_equiv_pos_as_xyz
  1  'x, y, z'
loop_
 _atom_site_type_symbol
 _atom_site_label
 _atom_site_symmetry_multiplicity
 _atom_site_fract_x
 _atom_site_fract_y
 _atom_site_fract_z
 _atom_site_occupancy
  Yb  Yb0  1  0.328868  0.664435  0.437492  1
  Yb  Yb1  1  0.671236  0.335617  0.560915  1
  Yb  Yb2  1  0.671236  0.335617  0.939085  1
  Yb  Yb3  1  0.328868  0.664435  0.062508  1
  Al  Al4  1  0.337694  0.168847  0.250000  1
  Al  Al5  1  0.187466  0.846203  0.750000  1
  Al  Al6  1  0.187466  0.341263  0.750000  1
  Re  Re7  1  0.837099  0.174973  0.250000  1
  Re  Re8  1  0.837099  0.662126  0.250000  1
  Os  Os9  1  0.965817  0.982909  0.501392  1
  Os  Os10  1  0.965817  0.982909  0.998608  1
  Os  Os11  1  0.681334  0.840667  0.750000  1
