# generated using pymatgen
data_Sm2Ga2Ir5
_symmetry_space_group_name_H-M   'P 1'
_cell_length_a   5.54709958
_cell_length_b   5.54709940
_cell_length_c   12.54913980
_cell_angle_alpha   77.23132769
_cell_angle_beta   77.23133937
_cell_angle_gamma   59.99999875
_symmetry_Int_Tables_number   1
_chemical_formula_structural   Sm2Ga2Ir5
_chemical_formula_sum   'Sm4 Ga4 Ir10'
_cell_volume   323.33449570
_cell_formula_units_Z   2
loop_
 _symmetry_equiv_pos_site_id
 _symmetry_equiv_pos_as_xyz
  1  'x, y, z'
loop_
 _atom_site_type_symbol
 _atom_site_label
 _atom_site_symmetry_multiplicity
 _atom_site_fract_x
 _atom_site_fract_y
 _atom_site_fract_z
 _atom_site_occupancy
  Sm  Sm0  1  0.951270  0.951270  0.146190  1
  Sm  Sm1  1  0.048730  0.048730  0.853810  1
  Sm  Sm2  1  0.852660  0.852660  0.442020  1
  Sm  Sm3  1  0.147340  0.147340  0.557980  1
  Ga  Ga4  1  0.720541  0.720541  0.838377  1
  Ga  Ga5  1  0.279459  0.279459  0.161623  1
  Ga  Ga6  1  0.611238  0.611238  0.166287  1
  Ga  Ga7  1  0.388762  0.388762  0.833713  1
  Ir  Ir8  1  0.500000  0.500000  0.500000  1
  Ir  Ir9  1  0.000000  0.500000  0.000000  1
  Ir  Ir10  1  0.500000  0.000000  0.000000  1
  Ir  Ir11  1  0.500000  0.500000  0.000000  1
  Ir  Ir12  1  0.387433  0.387433  0.329036  1
  Ir  Ir13  1  0.896098  0.387433  0.329036  1
  Ir  Ir14  1  0.387433  0.896098  0.329036  1
  Ir  Ir15  1  0.612567  0.612567  0.670964  1
  Ir  Ir16  1  0.103902  0.612567  0.670964  1
  Ir  Ir17  1  0.612567  0.103902  0.670964  1
