# generated using pymatgen
data_Ho6Zn18AsIr5
_symmetry_space_group_name_H-M   'P 1'
_cell_length_a   8.98864776
_cell_length_b   8.98864598
_cell_length_c   8.98864700
_cell_angle_alpha   60.01337276
_cell_angle_beta   60.01337195
_cell_angle_gamma   60.01337648
_symmetry_Int_Tables_number   1
_chemical_formula_structural   Ho6Zn18AsIr5
_chemical_formula_sum   'Ho6 Zn18 As1 Ir5'
_cell_volume   513.68823518
_cell_formula_units_Z   1
loop_
 _symmetry_equiv_pos_site_id
 _symmetry_equiv_pos_as_xyz
  1  'x, y, z'
loop_
 _atom_site_type_symbol
 _atom_site_label
 _atom_site_symmetry_multiplicity
 _atom_site_fract_x
 _atom_site_fract_y
 _atom_site_fract_z
 _atom_site_occupancy
  Ho  Ho0  1  0.715500  0.277969  0.277969  1
  Ho  Ho1  1  0.284500  0.722031  0.722031  1
  Ho  Ho2  1  0.277969  0.715500  0.277969  1
  Ho  Ho3  1  0.722031  0.284500  0.722031  1
  Ho  Ho4  1  0.277969  0.277969  0.715500  1
  Ho  Ho5  1  0.722031  0.722031  0.284500  1
  Zn  Zn6  1  0.123226  0.123226  0.625419  1
  Zn  Zn7  1  0.123226  0.625419  0.123226  1
  Zn  Zn8  1  0.876774  0.876774  0.374581  1
  Zn  Zn9  1  0.876774  0.374581  0.876774  1
  Zn  Zn10  1  0.625419  0.123226  0.123226  1
  Zn  Zn11  1  0.374581  0.876774  0.876774  1
  Zn  Zn12  1  0.500000  0.000000  0.000000  1
  Zn  Zn13  1  0.000000  0.500000  0.000000  1
  Zn  Zn14  1  0.000000  0.000000  0.500000  1
  Zn  Zn15  1  0.330505  0.330505  0.330505  1
  Zn  Zn16  1  0.669495  0.669495  0.669495  1
  Zn  Zn17  1  0.329389  0.329389  0.003137  1
  Zn  Zn18  1  0.329389  0.003137  0.329389  1
  Zn  Zn19  1  0.670611  0.670611  0.996863  1
  Zn  Zn20  1  0.670611  0.996863  0.670611  1
  Zn  Zn21  1  0.003137  0.329389  0.329389  1
  Zn  Zn22  1  0.996863  0.670611  0.670611  1
  Zn  Zn23  1  0.000000  0.000000  0.000000  1
  As  As24  1  0.500000  0.500000  0.500000  1
  Ir  Ir25  1  0.121021  0.121021  0.121021  1
  Ir  Ir26  1  0.878979  0.878979  0.878979  1
  Ir  Ir27  1  0.000000  0.500000  0.500000  1
  Ir  Ir28  1  0.500000  0.000000  0.500000  1
  Ir  Ir29  1  0.500000  0.500000  0.000000  1
