# generated using pymatgen
data_Pa6Sn8(PdPt)3
_symmetry_space_group_name_H-M   'P 1'
_cell_length_a   8.48367181
_cell_length_b   8.48224063
_cell_length_c   8.48223900
_cell_angle_alpha   109.49304140
_cell_angle_beta   109.70501049
_cell_angle_gamma   109.20916008
_symmetry_Int_Tables_number   1
_chemical_formula_structural   Pa6Sn8(PdPt)3
_chemical_formula_sum   'Pa6 Sn8 Pd3 Pt3'
_cell_volume   469.90653836
_cell_formula_units_Z   1
loop_
 _symmetry_equiv_pos_site_id
 _symmetry_equiv_pos_as_xyz
  1  'x, y, z'
loop_
 _atom_site_type_symbol
 _atom_site_label
 _atom_site_symmetry_multiplicity
 _atom_site_fract_x
 _atom_site_fract_y
 _atom_site_fract_z
 _atom_site_occupancy
  Pa  Pa0  1  0.871933  0.247208  0.122470  1
  Pa  Pa1  1  0.628067  0.750537  0.375275  1
  Pa  Pa2  1  0.250000  0.127947  0.877947  1
  Pa  Pa3  1  0.750000  0.372536  0.622536  1
  Pa  Pa4  1  0.122073  0.874746  0.249397  1
  Pa  Pa5  1  0.377927  0.627324  0.752673  1
  Sn  Sn6  1  0.677457  0.499590  0.997415  1
  Sn  Sn7  1  0.496305  0.996596  0.673819  1
  Sn  Sn8  1  0.003695  0.677514  0.500290  1
  Sn  Sn9  1  0.822543  0.819959  0.822133  1
  Sn  Sn10  1  0.496231  0.999177  0.177068  1
  Sn  Sn11  1  0.177182  0.503100  0.000336  1
  Sn  Sn12  1  0.003769  0.180836  0.502946  1
  Sn  Sn13  1  0.322818  0.323153  0.325917  1
  Pd  Pd14  1  0.374984  0.248924  0.626063  1
  Pd  Pd15  1  0.125016  0.751079  0.873942  1
  Pd  Pd16  1  0.250000  0.623105  0.373105  1
  Pt  Pt17  1  0.750000  0.876656  0.126656  1
  Pt  Pt18  1  0.624990  0.375710  0.249297  1
  Pt  Pt19  1  0.875010  0.124306  0.750720  1
