# generated using pymatgen
data_PaCoSnRh2
_symmetry_space_group_name_H-M   'P 1'
_cell_length_a   5.63170700
_cell_length_b   7.37486300
_cell_length_c   8.55284200
_cell_angle_alpha   90.00000000
_cell_angle_beta   90.00000000
_cell_angle_gamma   90.00000000
_symmetry_Int_Tables_number   1
_chemical_formula_structural   PaCoSnRh2
_chemical_formula_sum   'Pa4 Co4 Sn4 Rh8'
_cell_volume   355.22576480
_cell_formula_units_Z   4
loop_
 _symmetry_equiv_pos_site_id
 _symmetry_equiv_pos_as_xyz
  1  'x, y, z'
loop_
 _atom_site_type_symbol
 _atom_site_label
 _atom_site_symmetry_multiplicity
 _atom_site_fract_x
 _atom_site_fract_y
 _atom_site_fract_z
 _atom_site_occupancy
  Pa  Pa0  1  0.750000  0.902735  0.855184  1
  Pa  Pa1  1  0.750000  0.402735  0.644816  1
  Pa  Pa2  1  0.250000  0.097265  0.144816  1
  Pa  Pa3  1  0.250000  0.597265  0.355184  1
  Co  Co4  1  0.750000  0.571003  0.385723  1
  Co  Co5  1  0.750000  0.071003  0.114277  1
  Co  Co6  1  0.250000  0.428997  0.614277  1
  Co  Co7  1  0.250000  0.928997  0.885723  1
  Sn  Sn8  1  0.750000  0.924057  0.385762  1
  Sn  Sn9  1  0.750000  0.424057  0.114238  1
  Sn  Sn10  1  0.250000  0.075943  0.614238  1
  Sn  Sn11  1  0.250000  0.575943  0.885762  1
  Rh  Rh12  1  0.000059  0.255806  0.382629  1
  Rh  Rh13  1  0.499941  0.755806  0.117371  1
  Rh  Rh14  1  0.500059  0.744194  0.617371  1
  Rh  Rh15  1  0.999941  0.244194  0.882629  1
  Rh  Rh16  1  0.999941  0.744194  0.617371  1
  Rh  Rh17  1  0.500059  0.244194  0.882629  1
  Rh  Rh18  1  0.499941  0.255806  0.382629  1
  Rh  Rh19  1  0.000059  0.755806  0.117371  1
