# generated using pymatgen
data_Nd4Dy(In2Pd)2
_symmetry_space_group_name_H-M   'P 1'
_cell_length_a   3.77060000
_cell_length_b   8.29113114
_cell_length_c   18.62531407
_cell_angle_alpha   89.63235443
_cell_angle_beta   90.00000000
_cell_angle_gamma   90.00000000
_symmetry_Int_Tables_number   1
_chemical_formula_structural   Nd4Dy(In2Pd)2
_chemical_formula_sum   'Nd8 Dy2 In8 Pd4'
_cell_volume   582.26262160
_cell_formula_units_Z   2
loop_
 _symmetry_equiv_pos_site_id
 _symmetry_equiv_pos_as_xyz
  1  'x, y, z'
loop_
 _atom_site_type_symbol
 _atom_site_label
 _atom_site_symmetry_multiplicity
 _atom_site_fract_x
 _atom_site_fract_y
 _atom_site_fract_z
 _atom_site_occupancy
  Nd  Nd0  1  0.000000  0.500000  0.500000  1
  Nd  Nd1  1  0.000000  0.000000  0.000000  1
  Nd  Nd2  1  0.000000  0.739569  0.285472  1
  Nd  Nd3  1  0.000000  0.260431  0.714528  1
  Nd  Nd4  1  0.000000  0.759350  0.780563  1
  Nd  Nd5  1  0.000000  0.240650  0.219437  1
  Nd  Nd6  1  0.000000  0.621301  0.083453  1
  Nd  Nd7  1  0.000000  0.378699  0.916547  1
  Dy  Dy8  1  0.000000  0.881167  0.584234  1
  Dy  Dy9  1  0.000000  0.118833  0.415766  1
  In  In10  1  0.500000  0.706875  0.930720  1
  In  In11  1  0.500000  0.293125  0.069280  1
  In  In12  1  0.500000  0.803179  0.436758  1
  In  In13  1  0.500000  0.196821  0.563242  1
  In  In14  1  0.500000  0.585746  0.649355  1
  In  In15  1  0.500000  0.414254  0.350645  1
  In  In16  1  0.500000  0.922411  0.153811  1
  In  In17  1  0.500000  0.077589  0.846189  1
  Pd  Pd18  1  0.500000  0.524646  0.197701  1
  Pd  Pd19  1  0.500000  0.475354  0.802299  1
  Pd  Pd20  1  0.500000  0.974530  0.691863  1
  Pd  Pd21  1  0.500000  0.025470  0.308137  1
