# generated using pymatgen
data_Rb3Ca(US3)2
_symmetry_space_group_name_H-M   'P 1'
_cell_length_a   7.08023523
_cell_length_b   7.08011517
_cell_length_c   7.92988600
_cell_angle_alpha   81.45138262
_cell_angle_beta   81.44891002
_cell_angle_gamma   119.99688132
_symmetry_Int_Tables_number   1
_chemical_formula_structural   Rb3Ca(US3)2
_chemical_formula_sum   'Rb3 Ca1 U2 S6'
_cell_volume   328.70080122
_cell_formula_units_Z   1
loop_
 _symmetry_equiv_pos_site_id
 _symmetry_equiv_pos_as_xyz
  1  'x, y, z'
loop_
 _atom_site_type_symbol
 _atom_site_label
 _atom_site_symmetry_multiplicity
 _atom_site_fract_x
 _atom_site_fract_y
 _atom_site_fract_z
 _atom_site_occupancy
  Rb  Rb0  1  0.661765  0.338232  0.500001  1
  Rb  Rb1  1  0.338235  0.661768  0.499999  1
  Rb  Rb2  1  0.000000  0.000000  0.500000  1
  Ca  Ca3  1  0.500000  0.500000  0.000000  1
  U  U4  1  0.832768  0.167182  0.000005  1
  U  U5  1  0.167232  0.832818  0.999995  1
  S  S6  1  0.780045  0.780048  0.193739  1
  S  S7  1  0.219955  0.219952  0.806261  1
  S  S8  1  0.434300  0.089372  0.196389  1
  S  S9  1  0.565700  0.910628  0.803611  1
  S  S10  1  0.910648  0.565704  0.803609  1
  S  S11  1  0.089352  0.434296  0.196391  1
