# generated using pymatgen
data_PrNd3Sc4(ReB6)4
_symmetry_space_group_name_H-M   'P 1'
_cell_length_a   3.64736700
_cell_length_b   9.09443600
_cell_length_c   11.56033301
_cell_angle_alpha   89.99620543
_cell_angle_beta   90.00000000
_cell_angle_gamma   90.00000000
_symmetry_Int_Tables_number   1
_chemical_formula_structural   PrNd3Sc4(ReB6)4
_chemical_formula_sum   'Pr1 Nd3 Sc4 Re4 B24'
_cell_volume   383.46486631
_cell_formula_units_Z   1
loop_
 _symmetry_equiv_pos_site_id
 _symmetry_equiv_pos_as_xyz
  1  'x, y, z'
loop_
 _atom_site_type_symbol
 _atom_site_label
 _atom_site_symmetry_multiplicity
 _atom_site_fract_x
 _atom_site_fract_y
 _atom_site_fract_z
 _atom_site_occupancy
  Pr  Pr0  1  0.000000  0.321732  0.414974  1
  Nd  Nd1  1  0.000000  0.678230  0.585134  1
  Nd  Nd2  1  0.000000  0.821818  0.085067  1
  Nd  Nd3  1  0.000000  0.178161  0.914914  1
  Sc  Sc4  1  0.000000  0.943863  0.369443  1
  Sc  Sc5  1  0.000000  0.055932  0.630608  1
  Sc  Sc6  1  0.000000  0.444029  0.130392  1
  Sc  Sc7  1  0.000000  0.556026  0.869538  1
  Re  Re8  1  0.000000  0.641792  0.316790  1
  Re  Re9  1  0.000000  0.358520  0.683384  1
  Re  Re10  1  0.000000  0.141331  0.182943  1
  Re  Re11  1  0.000000  0.858463  0.816850  1
  B  B12  1  0.500000  0.556654  0.429554  1
  B  B13  1  0.500000  0.443892  0.570741  1
  B  B14  1  0.500000  0.056211  0.070354  1
  B  B15  1  0.500000  0.943760  0.929607  1
  B  B16  1  0.500000  0.755097  0.415423  1
  B  B17  1  0.500000  0.244906  0.584962  1
  B  B18  1  0.500000  0.255037  0.084506  1
  B  B19  1  0.500000  0.744967  0.915411  1
  B  B20  1  0.500000  0.794972  0.265347  1
  B  B21  1  0.500000  0.205029  0.734710  1
  B  B22  1  0.500000  0.294840  0.234323  1
  B  B23  1  0.500000  0.705063  0.765374  1
  B  B24  1  0.500000  0.628336  0.183358  1
  B  B25  1  0.500000  0.371743  0.816625  1
  B  B26  1  0.500000  0.127973  0.316326  1
  B  B27  1  0.500000  0.871720  0.683434  1
  B  B28  1  0.500000  0.982800  0.215130  1
  B  B29  1  0.500000  0.017121  0.784834  1
  B  B30  1  0.500000  0.483178  0.284610  1
  B  B31  1  0.500000  0.517186  0.715237  1
  B  B32  1  0.500000  0.593577  0.025056  1
  B  B33  1  0.500000  0.406437  0.974929  1
  B  B34  1  0.500000  0.093179  0.475039  1
  B  B35  1  0.500000  0.906427  0.525072  1
