# generated using pymatgen
data_Sc3TiV2(SiOs)6
_symmetry_space_group_name_H-M   'P 1'
_cell_length_a   7.46874524
_cell_length_b   7.45895201
_cell_length_c   7.46874658
_cell_angle_alpha   128.09632912
_cell_angle_beta   122.72784578
_cell_angle_gamma   80.96535958
_symmetry_Int_Tables_number   1
_chemical_formula_structural   Sc3TiV2(SiOs)6
_chemical_formula_sum   'Sc3 Ti1 V2 Si6 Os6'
_cell_volume   265.48528199
_cell_formula_units_Z   1
loop_
 _symmetry_equiv_pos_site_id
 _symmetry_equiv_pos_as_xyz
  1  'x, y, z'
loop_
 _atom_site_type_symbol
 _atom_site_label
 _atom_site_symmetry_multiplicity
 _atom_site_fract_x
 _atom_site_fract_y
 _atom_site_fract_z
 _atom_site_occupancy
  Sc  Sc0  1  0.028980  0.009768  0.480788  1
  Sc  Sc1  1  0.972617  0.451791  0.979175  1
  Sc  Sc2  1  0.241065  0.570811  0.829746  1
  Ti  Ti3  1  0.758579  0.590252  0.331673  1
  V  V4  1  0.443586  0.410047  0.466461  1
  V  V5  1  0.547479  0.990694  0.943216  1
  Si  Si6  1  0.224015  0.985389  0.261374  1
  Si  Si7  1  0.787826  0.009153  0.721327  1
  Si  Si8  1  0.180896  0.670698  0.518173  1
  Si  Si9  1  0.802725  0.336258  0.477031  1
  Si  Si10  1  0.652525  0.670698  0.989803  1
  Si  Si11  1  0.359228  0.336258  0.033533  1
  Os  Os12  1  0.970776  0.253207  0.225103  1
  Os  Os13  1  0.528104  0.253207  0.782431  1
  Os  Os14  1  0.415044  0.754400  0.422099  1
  Os  Os15  1  0.583836  0.005483  0.335064  1
  Os  Os16  1  0.832300  0.754400  0.839355  1
  Os  Os17  1  0.170418  0.005483  0.921646  1
