# generated using pymatgen
data_NdEr(BIr)8
_symmetry_space_group_name_H-M   'P 1'
_cell_length_a   7.66452500
_cell_length_b   7.66452500
_cell_length_c   3.99164800
_cell_angle_alpha   90.00000000
_cell_angle_beta   90.00000000
_cell_angle_gamma   90.00000000
_symmetry_Int_Tables_number   1
_chemical_formula_structural   NdEr(BIr)8
_chemical_formula_sum   'Nd1 Er1 B8 Ir8'
_cell_volume   234.48913613
_cell_formula_units_Z   1
loop_
 _symmetry_equiv_pos_site_id
 _symmetry_equiv_pos_as_xyz
  1  'x, y, z'
loop_
 _atom_site_type_symbol
 _atom_site_label
 _atom_site_symmetry_multiplicity
 _atom_site_fract_x
 _atom_site_fract_y
 _atom_site_fract_z
 _atom_site_occupancy
  Nd  Nd0  1  0.000000  0.000000  0.500000  1
  Er  Er1  1  0.500000  0.500000  0.000000  1
  B  B2  1  0.657567  0.776583  0.612000  1
  B  B3  1  0.158033  0.280298  0.891270  1
  B  B4  1  0.280298  0.841967  0.108730  1
  B  B5  1  0.719702  0.158033  0.108730  1
  B  B6  1  0.342433  0.223417  0.612000  1
  B  B7  1  0.841967  0.719702  0.891270  1
  B  B8  1  0.223417  0.657567  0.388000  1
  B  B9  1  0.776583  0.342433  0.388000  1
  Ir  Ir10  1  0.342409  0.110458  0.111377  1
  Ir  Ir11  1  0.657591  0.889542  0.111377  1
  Ir  Ir12  1  0.608359  0.162309  0.611864  1
  Ir  Ir13  1  0.110458  0.657591  0.888623  1
  Ir  Ir14  1  0.162309  0.391641  0.388136  1
  Ir  Ir15  1  0.837691  0.608359  0.388136  1
  Ir  Ir16  1  0.889542  0.342409  0.888623  1
  Ir  Ir17  1  0.391641  0.837691  0.611864  1
