# generated using pymatgen
data_Th4Al24Pd2Pt7
_symmetry_space_group_name_H-M   'P 1'
_cell_length_a   7.63465151
_cell_length_b   7.62947150
_cell_length_c   13.26447910
_cell_angle_alpha   84.52967491
_cell_angle_beta   101.10209760
_cell_angle_gamma   119.83281604
_symmetry_Int_Tables_number   1
_chemical_formula_structural   Th4Al24Pd2Pt7
_chemical_formula_sum   'Th4 Al24 Pd2 Pt7'
_cell_volume   657.70182690
_cell_formula_units_Z   1
loop_
 _symmetry_equiv_pos_site_id
 _symmetry_equiv_pos_as_xyz
  1  'x, y, z'
loop_
 _atom_site_type_symbol
 _atom_site_label
 _atom_site_symmetry_multiplicity
 _atom_site_fract_x
 _atom_site_fract_y
 _atom_site_fract_z
 _atom_site_occupancy
  Th  Th0  1  0.732890  0.997529  0.193430  1
  Th  Th1  1  0.266722  0.001743  0.806556  1
  Th  Th2  1  0.062741  0.667812  0.193589  1
  Th  Th3  1  0.937345  0.332220  0.806332  1
  Al  Al4  1  0.803884  0.866057  0.814954  1
  Al  Al5  1  0.195857  0.134181  0.185100  1
  Al  Al6  1  0.978493  0.666570  0.945190  1
  Al  Al7  1  0.021997  0.333850  0.054537  1
  Al  Al8  1  0.401112  0.663972  0.816504  1
  Al  Al9  1  0.598208  0.336528  0.183664  1
  Al  Al10  1  0.876534  0.665018  0.663743  1
  Al  Al11  1  0.123526  0.334812  0.336192  1
  Al  Al12  1  0.601851  0.462272  0.815647  1
  Al  Al13  1  0.397681  0.538546  0.184123  1
  Al  Al14  1  0.232536  0.344070  0.662511  1
  Al  Al15  1  0.767685  0.655788  0.337499  1
  Al  Al16  1  0.851623  0.332971  0.557127  1
  Al  Al17  1  0.185996  0.999751  0.557574  1
  Al  Al18  1  0.813995  0.999856  0.442398  1
  Al  Al19  1  0.351731  0.003314  0.054723  1
  Al  Al20  1  0.648119  0.996064  0.945674  1
  Al  Al21  1  0.554217  0.989707  0.663921  1
  Al  Al22  1  0.445867  0.010169  0.336085  1
  Al  Al23  1  0.520514  0.666521  0.560267  1
  Al  Al24  1  0.479657  0.333557  0.439804  1
  Al  Al25  1  0.679807  0.665023  0.045307  1
  Al  Al26  1  0.319991  0.335299  0.954774  1
  Al  Al27  1  0.148578  0.667064  0.442799  1
  Pd  Pd28  1  0.327418  0.671182  0.000249  1
  Pd  Pd29  1  0.000161  0.000089  0.000035  1
  Pt  Pt30  1  0.546160  0.324573  0.637431  1
  Pt  Pt31  1  0.454030  0.675253  0.362911  1
  Pt  Pt32  1  0.888307  0.008606  0.638077  1
  Pt  Pt33  1  0.112044  0.991356  0.361959  1
  Pt  Pt34  1  0.672681  0.328939  0.999638  1
  Pt  Pt35  1  0.203875  0.666163  0.638169  1
  Pt  Pt36  1  0.796163  0.333575  0.361504  1
