# generated using pymatgen
data_TiNb8CuS16
_symmetry_space_group_name_H-M   'P 1'
_cell_length_a   6.71742000
_cell_length_b   6.71741882
_cell_length_c   12.30650900
_cell_angle_alpha   90.00000000
_cell_angle_beta   90.00000000
_cell_angle_gamma   120.00000583
_symmetry_Int_Tables_number   1
_chemical_formula_structural   TiNb8CuS16
_chemical_formula_sum   'Ti1 Nb8 Cu1 S16'
_cell_volume   480.91730994
_cell_formula_units_Z   1
loop_
 _symmetry_equiv_pos_site_id
 _symmetry_equiv_pos_as_xyz
  1  'x, y, z'
loop_
 _atom_site_type_symbol
 _atom_site_label
 _atom_site_symmetry_multiplicity
 _atom_site_fract_x
 _atom_site_fract_y
 _atom_site_fract_z
 _atom_site_occupancy
  Ti  Ti0  1  0.000000  0.000000  0.000000  1
  Nb  Nb1  1  0.000000  0.000000  0.251116  1
  Nb  Nb2  1  0.000000  0.000000  0.748884  1
  Nb  Nb3  1  0.505526  0.494474  0.250160  1
  Nb  Nb4  1  0.505526  0.011053  0.250160  1
  Nb  Nb5  1  0.988947  0.494474  0.250160  1
  Nb  Nb6  1  0.494474  0.505526  0.749840  1
  Nb  Nb7  1  0.494474  0.988947  0.749840  1
  Nb  Nb8  1  0.011053  0.505526  0.749840  1
  Cu  Cu9  1  0.000000  0.000000  0.500000  1
  S  S10  1  0.333333  0.666667  0.880179  1
  S  S11  1  0.666667  0.333333  0.119821  1
  S  S12  1  0.666667  0.333333  0.379619  1
  S  S13  1  0.333333  0.666667  0.620381  1
  S  S14  1  0.169043  0.830957  0.376887  1
  S  S15  1  0.169043  0.338087  0.376887  1
  S  S16  1  0.661913  0.830957  0.376887  1
  S  S17  1  0.830957  0.169043  0.623113  1
  S  S18  1  0.830957  0.661913  0.623113  1
  S  S19  1  0.338087  0.169043  0.623113  1
  S  S20  1  0.833734  0.166266  0.878020  1
  S  S21  1  0.833734  0.667468  0.878020  1
  S  S22  1  0.332532  0.166266  0.878020  1
  S  S23  1  0.166266  0.833734  0.121980  1
  S  S24  1  0.166266  0.332532  0.121980  1
  S  S25  1  0.667468  0.833734  0.121980  1
