# generated using pymatgen
data_Tb16CdNi2Hg3Os2
_symmetry_space_group_name_H-M   'P 1'
_cell_length_a   9.59566062
_cell_length_b   9.60011308
_cell_length_c   9.68622300
_cell_angle_alpha   59.70283574
_cell_angle_beta   59.68730087
_cell_angle_gamma   59.64306440
_symmetry_Int_Tables_number   1
_chemical_formula_structural   Tb16CdNi2Hg3Os2
_chemical_formula_sum   'Tb16 Cd1 Ni2 Hg3 Os2'
_cell_volume   626.32415612
_cell_formula_units_Z   1
loop_
 _symmetry_equiv_pos_site_id
 _symmetry_equiv_pos_as_xyz
  1  'x, y, z'
loop_
 _atom_site_type_symbol
 _atom_site_label
 _atom_site_symmetry_multiplicity
 _atom_site_fract_x
 _atom_site_fract_y
 _atom_site_fract_z
 _atom_site_occupancy
  Tb  Tb0  1  0.351597  0.351190  0.343333  1
  Tb  Tb1  1  0.351597  0.351190  0.953882  1
  Tb  Tb2  1  0.352669  0.952757  0.347288  1
  Tb  Tb3  1  0.950345  0.353234  0.348211  1
  Tb  Tb4  1  0.809935  0.186804  0.191677  1
  Tb  Tb5  1  0.185821  0.810811  0.812171  1
  Tb  Tb6  1  0.185821  0.810811  0.191196  1
  Tb  Tb7  1  0.809935  0.186804  0.811584  1
  Tb  Tb8  1  0.188424  0.189390  0.811093  1
  Tb  Tb9  1  0.807787  0.808113  0.192050  1
  Tb  Tb10  1  0.938684  0.555098  0.566313  1
  Tb  Tb11  1  0.554770  0.939902  0.939017  1
  Tb  Tb12  1  0.554770  0.939902  0.566312  1
  Tb  Tb13  1  0.938684  0.555098  0.939905  1
  Tb  Tb14  1  0.564948  0.565519  0.934766  1
  Tb  Tb15  1  0.940831  0.942186  0.558492  1
  Cd  Cd16  1  0.258245  0.579751  0.581001  1
  Ni  Ni17  1  0.143243  0.577455  0.139651  1
  Ni  Ni18  1  0.577135  0.142816  0.140024  1
  Hg  Hg19  1  0.582203  0.583945  0.587428  1
  Hg  Hg20  1  0.582203  0.583945  0.246422  1
  Hg  Hg21  1  0.583447  0.244715  0.585918  1
  Os  Os22  1  0.143453  0.144281  0.138181  1
  Os  Os23  1  0.143453  0.144281  0.574084  1
