# generated using pymatgen
data_Ba3Sr13TaNb3(FeO8)4
_symmetry_space_group_name_H-M   'P 1'
_cell_length_a   5.92665870
_cell_length_b   7.37007274
_cell_length_c   20.32748400
_cell_angle_alpha   82.96739159
_cell_angle_beta   89.88617516
_cell_angle_gamma   89.95682557
_symmetry_Int_Tables_number   1
_chemical_formula_structural   Ba3Sr13TaNb3(FeO8)4
_chemical_formula_sum   'Ba3 Sr13 Ta1 Nb3 Fe4 O32'
_cell_volume   881.22071026
_cell_formula_units_Z   1
loop_
 _symmetry_equiv_pos_site_id
 _symmetry_equiv_pos_as_xyz
  1  'x, y, z'
loop_
 _atom_site_type_symbol
 _atom_site_label
 _atom_site_symmetry_multiplicity
 _atom_site_fract_x
 _atom_site_fract_y
 _atom_site_fract_z
 _atom_site_occupancy
  Ba  Ba0  1  0.767486  0.142623  0.288846  1
  Ba  Ba1  1  0.735180  0.146287  0.790439  1
  Ba  Ba2  1  0.236042  0.853270  0.709475  1
  Sr  Sr3  1  0.748027  0.026972  0.101186  1
  Sr  Sr4  1  0.247009  0.974845  0.398753  1
  Sr  Sr5  1  0.253341  0.972000  0.900416  1
  Sr  Sr6  1  0.754853  0.027551  0.598970  1
  Sr  Sr7  1  0.748916  0.502700  0.136197  1
  Sr  Sr8  1  0.252985  0.497538  0.362941  1
  Sr  Sr9  1  0.249589  0.495584  0.864383  1
  Sr  Sr10  1  0.749769  0.503426  0.636005  1
  Sr  Sr11  1  0.280686  0.288659  0.048511  1
  Sr  Sr12  1  0.780186  0.708162  0.453427  1
  Sr  Sr13  1  0.717957  0.706272  0.953929  1
  Sr  Sr14  1  0.218944  0.293355  0.545762  1
  Sr  Sr15  1  0.285304  0.839801  0.208923  1
  Ta  Ta16  1  0.258084  0.341488  0.209865  1
  Nb  Nb17  1  0.762343  0.660085  0.289137  1
  Nb  Nb18  1  0.741967  0.658236  0.790623  1
  Nb  Nb19  1  0.241846  0.341279  0.709231  1
  Fe  Fe20  1  0.212199  0.737836  0.056375  1
  Fe  Fe21  1  0.716056  0.263526  0.444592  1
  Fe  Fe22  1  0.785096  0.261266  0.946206  1
  Fe  Fe23  1  0.284823  0.738208  0.553805  1
  O  O24  1  0.493006  0.502759  0.254816  1
  O  O25  1  0.998941  0.503215  0.242623  1
  O  O26  1  0.498525  0.501466  0.744305  1
  O  O27  1  0.998683  0.498214  0.755667  1
  O  O28  1  0.505152  0.212909  0.174762  1
  O  O29  1  0.016486  0.793539  0.318886  1
  O  O30  1  0.493001  0.786395  0.826488  1
  O  O31  1  0.993544  0.212639  0.673726  1
  O  O32  1  0.238236  0.183018  0.292517  1
  O  O33  1  0.719823  0.822001  0.207105  1
  O  O34  1  0.759855  0.823292  0.708513  1
  O  O35  1  0.259511  0.176706  0.791521  1
  O  O36  1  0.029971  0.221771  0.161428  1
  O  O37  1  0.538443  0.780755  0.339969  1
  O  O38  1  0.968928  0.778204  0.839948  1
  O  O39  1  0.469553  0.221242  0.659982  1
  O  O40  1  0.295139  0.548381  0.128226  1
  O  O41  1  0.800130  0.454397  0.372674  1
  O  O42  1  0.702292  0.448981  0.873592  1
  O  O43  1  0.201479  0.549876  0.626207  1
  O  O44  1  0.335280  0.950580  0.083790  1
  O  O45  1  0.843401  0.044633  0.423854  1
  O  O46  1  0.656375  0.043512  0.925118  1
  O  O47  1  0.158596  0.956375  0.575474  1
  O  O48  1  0.299334  0.664952  0.973152  1
  O  O49  1  0.798717  0.339532  0.527527  1
  O  O50  1  0.698577  0.337967  0.028542  1
  O  O51  1  0.200911  0.662671  0.470959  1
  O  O52  1  0.893591  0.753747  0.057818  1
  O  O53  1  0.397522  0.246667  0.441638  1
  O  O54  1  0.104561  0.244403  0.943520  1
  O  O55  1  0.603747  0.754233  0.557658  1
