# generated using pymatgen
data_SmY(Si7Rh3)2
_symmetry_space_group_name_H-M   'P 1'
_cell_length_a   8.01467671
_cell_length_b   8.01467680
_cell_length_c   8.01467797
_cell_angle_alpha   57.09202204
_cell_angle_beta   57.09202198
_cell_angle_gamma   57.09201633
_symmetry_Int_Tables_number   1
_chemical_formula_structural   SmY(Si7Rh3)2
_chemical_formula_sum   'Sm1 Y1 Si14 Rh6'
_cell_volume   339.63709174
_cell_formula_units_Z   1
loop_
 _symmetry_equiv_pos_site_id
 _symmetry_equiv_pos_as_xyz
  1  'x, y, z'
loop_
 _atom_site_type_symbol
 _atom_site_label
 _atom_site_symmetry_multiplicity
 _atom_site_fract_x
 _atom_site_fract_y
 _atom_site_fract_z
 _atom_site_occupancy
  Sm  Sm0  1  0.500000  0.500000  0.500000  1
  Y  Y1  1  0.000000  0.000000  0.000000  1
  Si  Si2  1  0.750080  0.750080  0.750080  1
  Si  Si3  1  0.249920  0.249920  0.249920  1
  Si  Si4  1  0.852029  0.064681  0.672522  1
  Si  Si5  1  0.672522  0.852029  0.064681  1
  Si  Si6  1  0.064681  0.672522  0.852029  1
  Si  Si7  1  0.648560  0.827991  0.434968  1
  Si  Si8  1  0.434968  0.648560  0.827991  1
  Si  Si9  1  0.827991  0.434968  0.648560  1
  Si  Si10  1  0.172009  0.565032  0.351440  1
  Si  Si11  1  0.565032  0.351440  0.172009  1
  Si  Si12  1  0.351440  0.172009  0.565032  1
  Si  Si13  1  0.935319  0.327478  0.147971  1
  Si  Si14  1  0.327478  0.147971  0.935319  1
  Si  Si15  1  0.147971  0.935319  0.327478  1
  Rh  Rh16  1  0.068369  0.430059  0.750960  1
  Rh  Rh17  1  0.249040  0.931631  0.569941  1
  Rh  Rh18  1  0.569941  0.249040  0.931631  1
  Rh  Rh19  1  0.931631  0.569941  0.249040  1
  Rh  Rh20  1  0.430059  0.750960  0.068369  1
  Rh  Rh21  1  0.750960  0.068369  0.430059  1
