# generated using pymatgen
data_Tb3YCo18(P6Os)2
_symmetry_space_group_name_H-M   'P 1'
_cell_length_a   3.68952500
_cell_length_b   10.36537600
_cell_length_c   11.75895500
_cell_angle_alpha   89.99830646
_cell_angle_beta   90.00000000
_cell_angle_gamma   90.00000000
_symmetry_Int_Tables_number   1
_chemical_formula_structural   Tb3YCo18(P6Os)2
_chemical_formula_sum   'Tb3 Y1 Co18 P12 Os2'
_cell_volume   449.70140694
_cell_formula_units_Z   1
loop_
 _symmetry_equiv_pos_site_id
 _symmetry_equiv_pos_as_xyz
  1  'x, y, z'
loop_
 _atom_site_type_symbol
 _atom_site_label
 _atom_site_symmetry_multiplicity
 _atom_site_fract_x
 _atom_site_fract_y
 _atom_site_fract_z
 _atom_site_occupancy
  Tb  Tb0  1  0.250000  0.582624  0.701734  1
  Tb  Tb1  1  0.250000  0.917304  0.201701  1
  Tb  Tb2  1  0.750000  0.086792  0.795655  1
  Y  Y3  1  0.750000  0.413161  0.295681  1
  Co  Co4  1  0.750000  0.284003  0.009163  1
  Co  Co5  1  0.750000  0.215965  0.509276  1
  Co  Co6  1  0.250000  0.406013  0.488181  1
  Co  Co7  1  0.250000  0.093942  0.988345  1
  Co  Co8  1  0.750000  0.591905  0.509420  1
  Co  Co9  1  0.750000  0.908069  0.009434  1
  Co  Co10  1  0.250000  0.220304  0.176776  1
  Co  Co11  1  0.250000  0.279861  0.676672  1
  Co  Co12  1  0.750000  0.777656  0.823003  1
  Co  Co13  1  0.750000  0.722341  0.323001  1
  Co  Co14  1  0.250000  0.887387  0.701624  1
  Co  Co15  1  0.250000  0.612456  0.201728  1
  Co  Co16  1  0.750000  0.115890  0.301330  1
  Co  Co17  1  0.750000  0.384187  0.801360  1
  Co  Co18  1  0.250000  0.465720  0.933076  1
  Co  Co19  1  0.250000  0.034456  0.432876  1
  Co  Co20  1  0.750000  0.533279  0.068641  1
  Co  Co21  1  0.750000  0.966680  0.568511  1
  P  P22  1  0.250000  0.416249  0.112030  1
  P  P23  1  0.250000  0.083861  0.611869  1
  P  P24  1  0.750000  0.578631  0.886963  1
  P  P25  1  0.750000  0.921338  0.386874  1
  P  P26  1  0.250000  0.271463  0.869519  1
  P  P27  1  0.250000  0.228786  0.369518  1
  P  P28  1  0.750000  0.728276  0.132433  1
  P  P29  1  0.750000  0.771711  0.632456  1
  P  P30  1  0.250000  0.594023  0.390458  1
  P  P31  1  0.250000  0.905824  0.890430  1
  P  P32  1  0.750000  0.396777  0.608451  1
  P  P33  1  0.750000  0.103198  0.108406  1
  Os  Os34  1  0.250000  0.714943  0.991766  1
  Os  Os35  1  0.250000  0.784924  0.491639  1
