# generated using pymatgen
data_Hf17ScRe8SiP
_symmetry_space_group_name_H-M   'P 1'
_cell_length_a   8.56595637
_cell_length_b   8.56595578
_cell_length_c   8.63597900
_cell_angle_alpha   90.00000000
_cell_angle_beta   90.00000000
_cell_angle_gamma   119.90965250
_symmetry_Int_Tables_number   1
_chemical_formula_structural   Hf17ScRe8SiP
_chemical_formula_sum   'Hf17 Sc1 Re8 Si1 P1'
_cell_volume   549.27338775
_cell_formula_units_Z   1
loop_
 _symmetry_equiv_pos_site_id
 _symmetry_equiv_pos_as_xyz
  1  'x, y, z'
loop_
 _atom_site_type_symbol
 _atom_site_label
 _atom_site_symmetry_multiplicity
 _atom_site_fract_x
 _atom_site_fract_y
 _atom_site_fract_z
 _atom_site_occupancy
  Hf  Hf0  1  0.196164  0.803836  0.452031  1
  Hf  Hf1  1  0.196448  0.391750  0.450750  1
  Hf  Hf2  1  0.608250  0.803552  0.450750  1
  Hf  Hf3  1  0.804229  0.195771  0.546909  1
  Hf  Hf4  1  0.804918  0.610565  0.547984  1
  Hf  Hf5  1  0.389435  0.195082  0.547984  1
  Hf  Hf6  1  0.804229  0.195771  0.953091  1
  Hf  Hf7  1  0.804918  0.610565  0.952016  1
  Hf  Hf8  1  0.389435  0.195082  0.952016  1
  Hf  Hf9  1  0.196164  0.803836  0.047969  1
  Hf  Hf10  1  0.196448  0.391750  0.049250  1
  Hf  Hf11  1  0.608250  0.803552  0.049250  1
  Hf  Hf12  1  0.539321  0.077790  0.250000  1
  Hf  Hf13  1  0.922210  0.460679  0.250000  1
  Hf  Hf14  1  0.459219  0.540781  0.750000  1
  Hf  Hf15  1  0.460714  0.921301  0.750000  1
  Hf  Hf16  1  0.078699  0.539286  0.750000  1
  Sc  Sc17  1  0.542227  0.457773  0.250000  1
  Re  Re18  1  0.891063  0.108937  0.250000  1
  Re  Re19  1  0.891460  0.780363  0.250000  1
  Re  Re20  1  0.219637  0.108540  0.250000  1
  Re  Re21  1  0.109073  0.890927  0.750000  1
  Re  Re22  1  0.108735  0.219341  0.750000  1
  Re  Re23  1  0.780659  0.891265  0.750000  1
  Re  Re24  1  0.999799  0.000201  0.499802  1
  Re  Re25  1  0.999799  0.000201  0.000198  1
  Si  Si26  1  0.666207  0.333793  0.750000  1
  P  P27  1  0.332292  0.667708  0.250000  1
