# generated using pymatgen
data_K2Ce4DyLuF20
_symmetry_space_group_name_H-M   'P 1'
_cell_length_a   8.49215836
_cell_length_b   8.49215754
_cell_length_c   8.65062200
_cell_angle_alpha   59.38078520
_cell_angle_beta   59.38078846
_cell_angle_gamma   61.23841995
_symmetry_Int_Tables_number   1
_chemical_formula_structural   K2Ce4DyLuF20
_chemical_formula_sum   'K2 Ce4 Dy1 Lu1 F20'
_cell_volume   440.81880855
_cell_formula_units_Z   1
loop_
 _symmetry_equiv_pos_site_id
 _symmetry_equiv_pos_as_xyz
  1  'x, y, z'
loop_
 _atom_site_type_symbol
 _atom_site_label
 _atom_site_symmetry_multiplicity
 _atom_site_fract_x
 _atom_site_fract_y
 _atom_site_fract_z
 _atom_site_occupancy
  K  K0  1  0.249545  0.249545  0.250455  1
  K  K1  1  0.749545  0.749545  0.750455  1
  Ce  Ce2  1  0.758923  0.241929  0.241077  1
  Ce  Ce3  1  0.241929  0.758923  0.758071  1
  Ce  Ce4  1  0.241929  0.758923  0.241077  1
  Ce  Ce5  1  0.758923  0.241929  0.758071  1
  Dy  Dy6  1  0.762065  0.762065  0.237935  1
  Lu  Lu7  1  0.239739  0.239739  0.760261  1
  F  F8  1  0.825738  0.509283  0.490717  1
  F  F9  1  0.177264  0.486095  0.513905  1
  F  F10  1  0.509283  0.825738  0.174262  1
  F  F11  1  0.486095  0.177264  0.822736  1
  F  F12  1  0.509283  0.825738  0.490717  1
  F  F13  1  0.177264  0.486095  0.822736  1
  F  F14  1  0.486095  0.177264  0.513905  1
  F  F15  1  0.825738  0.509283  0.174262  1
  F  F16  1  0.499504  0.499504  0.838845  1
  F  F17  1  0.499504  0.499504  0.162147  1
  F  F18  1  0.161155  0.837853  0.500496  1
  F  F19  1  0.837853  0.161155  0.500496  1
  F  F20  1  0.118069  0.118069  0.097995  1
  F  F21  1  0.882589  0.882589  0.898527  1
  F  F22  1  0.118069  0.118069  0.665868  1
  F  F23  1  0.101473  0.663705  0.117411  1
  F  F24  1  0.882589  0.882589  0.336295  1
  F  F25  1  0.902005  0.334132  0.881931  1
  F  F26  1  0.663705  0.101473  0.117411  1
  F  F27  1  0.334132  0.902005  0.881931  1
