# generated using pymatgen
data_Ho2Re2B4Ru3
_symmetry_space_group_name_H-M   'P 1'
_cell_length_a   3.09032400
_cell_length_b   8.75860001
_cell_length_c   10.21402903
_cell_angle_alpha   90.00146154
_cell_angle_beta   90.00000000
_cell_angle_gamma   90.00000000
_symmetry_Int_Tables_number   1
_chemical_formula_structural   Ho2Re2B4Ru3
_chemical_formula_sum   'Ho4 Re4 B8 Ru6'
_cell_volume   276.46222294
_cell_formula_units_Z   2
loop_
 _symmetry_equiv_pos_site_id
 _symmetry_equiv_pos_as_xyz
  1  'x, y, z'
loop_
 _atom_site_type_symbol
 _atom_site_label
 _atom_site_symmetry_multiplicity
 _atom_site_fract_x
 _atom_site_fract_y
 _atom_site_fract_z
 _atom_site_occupancy
  Ho  Ho0  1  0.500000  0.841698  0.181765  1
  Ho  Ho1  1  0.500000  0.158302  0.818235  1
  Ho  Ho2  1  0.500000  0.658314  0.681722  1
  Ho  Ho3  1  0.500000  0.341686  0.318278  1
  Re  Re4  1  0.000000  0.658772  0.954054  1
  Re  Re5  1  0.000000  0.341228  0.045946  1
  Re  Re6  1  0.000000  0.841223  0.454024  1
  Re  Re7  1  0.000000  0.158777  0.545976  1
  B  B8  1  0.500000  0.965608  0.587651  1
  B  B9  1  0.500000  0.034392  0.412349  1
  B  B10  1  0.500000  0.846798  0.902721  1
  B  B11  1  0.500000  0.153202  0.097279  1
  B  B12  1  0.500000  0.653185  0.402694  1
  B  B13  1  0.500000  0.346815  0.597306  1
  B  B14  1  0.500000  0.465688  0.912327  1
  B  B15  1  0.500000  0.534312  0.087673  1
  Ru  Ru16  1  0.000000  0.000000  0.000000  1
  Ru  Ru17  1  0.000000  0.405492  0.759650  1
  Ru  Ru18  1  0.000000  0.594508  0.240350  1
  Ru  Ru19  1  0.000000  0.500000  0.500000  1
  Ru  Ru20  1  0.000000  0.905481  0.740352  1
  Ru  Ru21  1  0.000000  0.094519  0.259648  1
