# generated using pymatgen
data_CsRb2CdH5
_symmetry_space_group_name_H-M   'P 1'
_cell_length_a   8.48987319
_cell_length_b   8.48987289
_cell_length_c   8.48987265
_cell_angle_alpha   122.58920585
_cell_angle_beta   122.58920056
_cell_angle_gamma   85.57097546
_symmetry_Int_Tables_number   1
_chemical_formula_structural   CsRb2CdH5
_chemical_formula_sum   'Cs2 Rb4 Cd2 H10'
_cell_volume   414.41729128
_cell_formula_units_Z   2
loop_
 _symmetry_equiv_pos_site_id
 _symmetry_equiv_pos_as_xyz
  1  'x, y, z'
loop_
 _atom_site_type_symbol
 _atom_site_label
 _atom_site_symmetry_multiplicity
 _atom_site_fract_x
 _atom_site_fract_y
 _atom_site_fract_z
 _atom_site_occupancy
  Cs  Cs0  1  0.250000  0.250000  0.000000  1
  Cs  Cs1  1  0.750000  0.750000  0.000000  1
  Rb  Rb2  1  0.817980  0.317980  0.135961  1
  Rb  Rb3  1  0.682020  0.817980  0.500000  1
  Rb  Rb4  1  0.317980  0.182020  0.500000  1
  Rb  Rb5  1  0.182020  0.682020  0.864039  1
  Cd  Cd6  1  0.250000  0.750000  0.500000  1
  Cd  Cd7  1  0.750000  0.250000  0.500000  1
  H  H8  1  0.000000  0.000000  0.000000  1
  H  H9  1  0.500000  0.500000  0.000000  1
  H  H10  1  0.285850  0.531733  0.500000  1
  H  H11  1  0.031733  0.785850  0.500000  1
  H  H12  1  0.785850  0.285850  0.754117  1
  H  H13  1  0.531733  0.031733  0.245883  1
  H  H14  1  0.468267  0.968267  0.754117  1
  H  H15  1  0.214150  0.714150  0.245883  1
  H  H16  1  0.968267  0.214150  0.500000  1
  H  H17  1  0.714150  0.468267  0.500000  1
