# generated using pymatgen
data_Ca3TbSnSb5Rh7
_symmetry_space_group_name_H-M   'P 1'
_cell_length_a   7.62725916
_cell_length_b   7.62088313
_cell_length_c   7.62088316
_cell_angle_alpha   109.24995921
_cell_angle_beta   109.48100957
_cell_angle_gamma   109.48100645
_symmetry_Int_Tables_number   1
_chemical_formula_structural   Ca3TbSnSb5Rh7
_chemical_formula_sum   'Ca3 Tb1 Sn1 Sb5 Rh7'
_cell_volume   341.84698723
_cell_formula_units_Z   1
loop_
 _symmetry_equiv_pos_site_id
 _symmetry_equiv_pos_as_xyz
  1  'x, y, z'
loop_
 _atom_site_type_symbol
 _atom_site_label
 _atom_site_symmetry_multiplicity
 _atom_site_fract_x
 _atom_site_fract_y
 _atom_site_fract_z
 _atom_site_occupancy
  Ca  Ca0  1  0.497443  0.000219  0.000219  1
  Ca  Ca1  1  0.000124  0.502807  0.000401  1
  Ca  Ca2  1  0.000124  0.000401  0.502807  1
  Tb  Tb3  1  0.502666  0.503357  0.503357  1
  Sn  Sn4  1  0.996161  0.312035  0.312035  1
  Sb  Sb5  1  0.684017  0.005162  0.686130  1
  Sb  Sb6  1  0.684017  0.686130  0.005162  1
  Sb  Sb7  1  0.002795  0.677005  0.677005  1
  Sb  Sb8  1  0.316206  0.999278  0.318203  1
  Sb  Sb9  1  0.316206  0.318203  0.999278  1
  Rh  Rh10  1  0.999808  0.995067  0.995067  1
  Rh  Rh11  1  0.500099  0.749467  0.254248  1
  Rh  Rh12  1  0.746214  0.498973  0.250453  1
  Rh  Rh13  1  0.253903  0.747773  0.499419  1
  Rh  Rh14  1  0.253903  0.499419  0.747773  1
  Rh  Rh15  1  0.500099  0.254248  0.749467  1
  Rh  Rh16  1  0.746214  0.250453  0.498973  1
