# generated using pymatgen
data_Ho3Er9Ni4
_symmetry_space_group_name_H-M   'P 1'
_cell_length_a   6.27491151
_cell_length_b   6.76146011
_cell_length_c   9.44424400
_cell_angle_alpha   90.00000000
_cell_angle_beta   90.00000000
_cell_angle_gamma   89.98715345
_symmetry_Int_Tables_number   1
_chemical_formula_structural   Ho3Er9Ni4
_chemical_formula_sum   'Ho3 Er9 Ni4'
_cell_volume   400.69625526
_cell_formula_units_Z   1
loop_
 _symmetry_equiv_pos_site_id
 _symmetry_equiv_pos_as_xyz
  1  'x, y, z'
loop_
 _atom_site_type_symbol
 _atom_site_label
 _atom_site_symmetry_multiplicity
 _atom_site_fract_x
 _atom_site_fract_y
 _atom_site_fract_z
 _atom_site_occupancy
  Ho  Ho0  1  0.861925  0.530209  0.250000  1
  Ho  Ho1  1  0.637773  0.030808  0.250000  1
  Ho  Ho2  1  0.138341  0.469580  0.750000  1
  Er  Er3  1  0.320098  0.677904  0.065157  1
  Er  Er4  1  0.179688  0.177433  0.435071  1
  Er  Er5  1  0.679740  0.322257  0.565470  1
  Er  Er6  1  0.820270  0.822451  0.934826  1
  Er  Er7  1  0.679740  0.322257  0.934530  1
  Er  Er8  1  0.820270  0.822451  0.565174  1
  Er  Er9  1  0.320098  0.677904  0.434843  1
  Er  Er10  1  0.179688  0.177433  0.064929  1
  Er  Er11  1  0.362053  0.968697  0.750000  1
  Ni  Ni12  1  0.053150  0.891153  0.250000  1
  Ni  Ni13  1  0.445246  0.391350  0.250000  1
  Ni  Ni14  1  0.948218  0.108583  0.750000  1
  Ni  Ni15  1  0.553705  0.609533  0.750000  1
