# generated using pymatgen
data_Ho8SbPd19Pt5
_symmetry_space_group_name_H-M   'P 1'
_cell_length_a   8.38993600
_cell_length_b   8.37873000
_cell_length_c   8.39326600
_cell_angle_alpha   90.00000000
_cell_angle_beta   90.00000000
_cell_angle_gamma   90.00000000
_symmetry_Int_Tables_number   1
_chemical_formula_structural   Ho8SbPd19Pt5
_chemical_formula_sum   'Ho8 Sb1 Pd19 Pt5'
_cell_volume   590.02149102
_cell_formula_units_Z   1
loop_
 _symmetry_equiv_pos_site_id
 _symmetry_equiv_pos_as_xyz
  1  'x, y, z'
loop_
 _atom_site_type_symbol
 _atom_site_label
 _atom_site_symmetry_multiplicity
 _atom_site_fract_x
 _atom_site_fract_y
 _atom_site_fract_z
 _atom_site_occupancy
  Ho  Ho0  1  0.745217  0.745259  0.254409  1
  Ho  Ho1  1  0.745217  0.254741  0.745591  1
  Ho  Ho2  1  0.254829  0.744399  0.744926  1
  Ho  Ho3  1  0.745217  0.745259  0.745591  1
  Ho  Ho4  1  0.745217  0.254741  0.254409  1
  Ho  Ho5  1  0.254829  0.255601  0.744926  1
  Ho  Ho6  1  0.254829  0.744399  0.255074  1
  Ho  Ho7  1  0.254829  0.255601  0.255074  1
  Sb  Sb8  1  0.999699  0.000000  0.000000  1
  Pd  Pd9  1  0.000312  0.000000  0.304587  1
  Pd  Pd10  1  0.499799  0.000000  0.736057  1
  Pd  Pd11  1  0.000018  0.736188  0.500000  1
  Pd  Pd12  1  0.499799  0.000000  0.263943  1
  Pd  Pd13  1  0.000018  0.263812  0.500000  1
  Pd  Pd14  1  0.499735  0.736598  0.000000  1
  Pd  Pd15  1  0.500204  0.253821  0.500000  1
  Pd  Pd16  1  0.500204  0.746179  0.500000  1
  Pd  Pd17  1  0.745884  0.500000  0.500000  1
  Pd  Pd18  1  0.304619  0.000000  0.000000  1
  Pd  Pd19  1  0.000312  0.000000  0.695413  1
  Pd  Pd20  1  0.000026  0.500000  0.264197  1
  Pd  Pd21  1  0.000267  0.304504  0.000000  1
  Pd  Pd22  1  0.000267  0.695496  0.000000  1
  Pd  Pd23  1  0.695116  0.000000  0.000000  1
  Pd  Pd24  1  0.263655  0.500000  0.000000  1
  Pd  Pd25  1  0.263529  0.000000  0.500000  1
  Pd  Pd26  1  0.000026  0.500000  0.735803  1
  Pd  Pd27  1  0.499735  0.263402  0.000000  1
  Pt  Pt28  1  0.736247  0.000000  0.500000  1
  Pt  Pt29  1  0.736008  0.500000  0.000000  1
  Pt  Pt30  1  0.254311  0.500000  0.500000  1
  Pt  Pt31  1  0.500010  0.500000  0.746294  1
  Pt  Pt32  1  0.500010  0.500000  0.253706  1
