# generated using pymatgen
data_Hf4P4Ir3Ru
_symmetry_space_group_name_H-M   'P 1'
_cell_length_a   3.82425600
_cell_length_b   6.48072113
_cell_length_c   7.38882448
_cell_angle_alpha   90.27360728
_cell_angle_beta   90.00000000
_cell_angle_gamma   90.00000000
_symmetry_Int_Tables_number   1
_chemical_formula_structural   Hf4P4Ir3Ru
_chemical_formula_sum   'Hf4 P4 Ir3 Ru1'
_cell_volume   183.12206991
_cell_formula_units_Z   1
loop_
 _symmetry_equiv_pos_site_id
 _symmetry_equiv_pos_as_xyz
  1  'x, y, z'
loop_
 _atom_site_type_symbol
 _atom_site_label
 _atom_site_symmetry_multiplicity
 _atom_site_fract_x
 _atom_site_fract_y
 _atom_site_fract_z
 _atom_site_occupancy
  Hf  Hf0  1  0.750000  0.527461  0.322784  1
  Hf  Hf1  1  0.250000  0.973784  0.821925  1
  Hf  Hf2  1  0.750000  0.025011  0.176469  1
  Hf  Hf3  1  0.250000  0.476063  0.677769  1
  P  P4  1  0.250000  0.736531  0.117338  1
  P  P5  1  0.250000  0.239610  0.376724  1
  P  P6  1  0.750000  0.266704  0.876627  1
  P  P7  1  0.750000  0.761003  0.628891  1
  Ir  Ir8  1  0.250000  0.349384  0.063503  1
  Ir  Ir9  1  0.250000  0.853053  0.433833  1
  Ir  Ir10  1  0.750000  0.147560  0.562299  1
  Ru  Ru11  1  0.750000  0.643837  0.941839  1
