# generated using pymatgen
data_Tb16Sc4Si15Os
_symmetry_space_group_name_H-M   'P 1'
_cell_length_a   7.28875200
_cell_length_b   7.73178626
_cell_length_c   14.46590900
_cell_angle_alpha   90.00000000
_cell_angle_beta   90.00000000
_cell_angle_gamma   90.10780780
_symmetry_Int_Tables_number   1
_chemical_formula_structural   Tb16Sc4Si15Os
_chemical_formula_sum   'Tb16 Sc4 Si15 Os1'
_cell_volume   815.22590858
_cell_formula_units_Z   1
loop_
 _symmetry_equiv_pos_site_id
 _symmetry_equiv_pos_as_xyz
  1  'x, y, z'
loop_
 _atom_site_type_symbol
 _atom_site_label
 _atom_site_symmetry_multiplicity
 _atom_site_fract_x
 _atom_site_fract_y
 _atom_site_fract_z
 _atom_site_occupancy
  Tb  Tb0  1  0.674169  0.183172  0.627605  1
  Tb  Tb1  1  0.192901  0.326491  0.871503  1
  Tb  Tb2  1  0.318199  0.820805  0.125545  1
  Tb  Tb3  1  0.817217  0.676391  0.374663  1
  Tb  Tb4  1  0.318199  0.820805  0.374455  1
  Tb  Tb5  1  0.817217  0.676391  0.125337  1
  Tb  Tb6  1  0.674169  0.183172  0.872395  1
  Tb  Tb7  1  0.192901  0.326491  0.628497  1
  Tb  Tb8  1  0.520629  0.675625  0.598377  1
  Tb  Tb9  1  0.023406  0.815407  0.902871  1
  Tb  Tb10  1  0.476061  0.314838  0.097427  1
  Tb  Tb11  1  0.975798  0.183555  0.402263  1
  Tb  Tb12  1  0.476061  0.314838  0.402573  1
  Tb  Tb13  1  0.975798  0.183555  0.097737  1
  Tb  Tb14  1  0.520629  0.675625  0.901623  1
  Tb  Tb15  1  0.023406  0.815407  0.597129  1
  Sc  Sc16  1  0.837293  0.515176  0.750000  1
  Sc  Sc17  1  0.351081  0.983986  0.750000  1
  Sc  Sc18  1  0.151153  0.481790  0.250000  1
  Sc  Sc19  1  0.650455  0.016302  0.250000  1
  Si  Si20  1  0.647629  0.972663  0.458841  1
  Si  Si21  1  0.149271  0.527333  0.040934  1
  Si  Si22  1  0.348791  0.025690  0.959725  1
  Si  Si23  1  0.855157  0.471036  0.540601  1
  Si  Si24  1  0.348791  0.025690  0.540275  1
  Si  Si25  1  0.855157  0.471036  0.959399  1
  Si  Si26  1  0.647629  0.972663  0.041159  1
  Si  Si27  1  0.149271  0.527333  0.459066  1
  Si  Si28  1  0.986977  0.091641  0.750000  1
  Si  Si29  1  0.514933  0.592057  0.250000  1
  Si  Si30  1  0.012818  0.906728  0.250000  1
  Si  Si31  1  0.733737  0.868617  0.750000  1
  Si  Si32  1  0.226370  0.641064  0.750000  1
  Si  Si33  1  0.272164  0.134953  0.250000  1
  Si  Si34  1  0.774015  0.364536  0.250000  1
  Os  Os35  1  0.490547  0.417135  0.750000  1
