# generated using pymatgen
data_La9PrCo2I15
_symmetry_space_group_name_H-M   'P 1'
_cell_length_a   9.93932028
_cell_length_b   10.96652910
_cell_length_c   12.00291271
_cell_angle_alpha   92.95331798
_cell_angle_beta   113.15700578
_cell_angle_gamma   109.03468509
_symmetry_Int_Tables_number   1
_chemical_formula_structural   La9PrCo2I15
_chemical_formula_sum   'La9 Pr1 Co2 I15'
_cell_volume   1112.54117926
_cell_formula_units_Z   1
loop_
 _symmetry_equiv_pos_site_id
 _symmetry_equiv_pos_as_xyz
  1  'x, y, z'
loop_
 _atom_site_type_symbol
 _atom_site_label
 _atom_site_symmetry_multiplicity
 _atom_site_fract_x
 _atom_site_fract_y
 _atom_site_fract_z
 _atom_site_occupancy
  La  La0  1  0.783952  0.412510  0.942544  1
  La  La1  1  0.305013  0.907469  0.274405  1
  La  La2  1  0.695008  0.092047  0.725115  1
  La  La3  1  0.090694  0.537148  0.331291  1
  La  La4  1  0.911912  0.464416  0.670110  1
  La  La5  1  0.844801  0.741724  0.169297  1
  La  La6  1  0.155297  0.258303  0.831047  1
  La  La7  1  0.976367  0.804396  0.904076  1
  La  La8  1  0.024958  0.196506  0.096088  1
  Pr  Pr9  1  0.212753  0.584172  0.054941  1
  Co  Co10  1  0.029662  0.678629  0.124079  1
  Co  Co11  1  0.966134  0.323177  0.877386  1
  I  I12  1  0.344249  0.441956  0.293421  1
  I  I13  1  0.656890  0.560733  0.704302  1
  I  I14  1  0.219590  0.736528  0.822661  1
  I  I15  1  0.783715  0.263518  0.180793  1
  I  I16  1  0.140622  0.380630  0.581814  1
  I  I17  1  0.860622  0.619393  0.418973  1
  I  I18  1  0.386571  0.801204  0.529235  1
  I  I19  1  0.614282  0.199185  0.471078  1
  I  I20  1  0.280710  0.091017  0.056275  1
  I  I21  1  0.720559  0.909676  0.944067  1
  I  I22  1  0.564702  0.836345  0.223458  1
  I  I23  1  0.430535  0.158910  0.773488  1
  I  I24  1  0.087753  0.037799  0.336809  1
  I  I25  1  0.913723  0.962812  0.663359  1
  I  I26  1  0.498925  0.499798  0.999888  1
