# generated using pymatgen
data_Ta4Co3NiPt8
_symmetry_space_group_name_H-M   'P 1'
_cell_length_a   4.45594800
_cell_length_b   4.87257600
_cell_length_c   10.94642200
_cell_angle_alpha   90.00000000
_cell_angle_beta   90.00000000
_cell_angle_gamma   90.00000000
_symmetry_Int_Tables_number   1
_chemical_formula_structural   Ta4Co3NiPt8
_chemical_formula_sum   'Ta4 Co3 Ni1 Pt8'
_cell_volume   237.66811550
_cell_formula_units_Z   1
loop_
 _symmetry_equiv_pos_site_id
 _symmetry_equiv_pos_as_xyz
  1  'x, y, z'
loop_
 _atom_site_type_symbol
 _atom_site_label
 _atom_site_symmetry_multiplicity
 _atom_site_fract_x
 _atom_site_fract_y
 _atom_site_fract_z
 _atom_site_occupancy
  Ta  Ta0  1  0.500000  0.654778  0.249835  1
  Ta  Ta1  1  0.500000  0.654778  0.750165  1
  Ta  Ta2  1  0.000000  0.346633  0.000000  1
  Ta  Ta3  1  0.000000  0.348454  0.500000  1
  Co  Co4  1  0.000000  0.328155  0.250114  1
  Co  Co5  1  0.000000  0.328155  0.749886  1
  Co  Co6  1  0.500000  0.670657  0.000000  1
  Ni  Ni7  1  0.500000  0.665678  0.500000  1
  Pt  Pt8  1  0.500000  0.175557  0.374361  1
  Pt  Pt9  1  0.500000  0.174368  0.874082  1
  Pt  Pt10  1  0.500000  0.174368  0.125918  1
  Pt  Pt11  1  0.500000  0.175557  0.625639  1
  Pt  Pt12  1  0.000000  0.825930  0.375218  1
  Pt  Pt13  1  0.000000  0.825501  0.876043  1
  Pt  Pt14  1  0.000000  0.825501  0.123957  1
  Pt  Pt15  1  0.000000  0.825930  0.624782  1
