# generated using pymatgen
data_Tb3YSc4(B6Mo)4
_symmetry_space_group_name_H-M   'P 1'
_cell_length_a   3.52793500
_cell_length_b   9.16217301
_cell_length_c   11.55567501
_cell_angle_alpha   90.00054808
_cell_angle_beta   90.00000000
_cell_angle_gamma   90.00000000
_symmetry_Int_Tables_number   1
_chemical_formula_structural   Tb3YSc4(B6Mo)4
_chemical_formula_sum   'Tb3 Y1 Sc4 B24 Mo4'
_cell_volume   373.52044849
_cell_formula_units_Z   1
loop_
 _symmetry_equiv_pos_site_id
 _symmetry_equiv_pos_as_xyz
  1  'x, y, z'
loop_
 _atom_site_type_symbol
 _atom_site_label
 _atom_site_symmetry_multiplicity
 _atom_site_fract_x
 _atom_site_fract_y
 _atom_site_fract_z
 _atom_site_occupancy
  Tb  Tb0  1  0.500000  0.320735  0.414275  1
  Tb  Tb1  1  0.500000  0.679312  0.585669  1
  Tb  Tb2  1  0.500000  0.179298  0.914327  1
  Y  Y3  1  0.500000  0.820627  0.085850  1
  Sc  Sc4  1  0.500000  0.445091  0.128212  1
  Sc  Sc5  1  0.500000  0.554940  0.871815  1
  Sc  Sc6  1  0.500000  0.054912  0.628211  1
  Sc  Sc7  1  0.500000  0.945050  0.371722  1
  B  B8  1  0.000000  0.094861  0.473925  1
  B  B9  1  0.000000  0.905120  0.526023  1
  B  B10  1  0.000000  0.405114  0.973955  1
  B  B11  1  0.000000  0.595002  0.026096  1
  B  B12  1  0.000000  0.128997  0.319324  1
  B  B13  1  0.000000  0.870952  0.680693  1
  B  B14  1  0.000000  0.370977  0.819348  1
  B  B15  1  0.000000  0.629118  0.180516  1
  B  B16  1  0.000000  0.052647  0.066110  1
  B  B17  1  0.000000  0.947204  0.934028  1
  B  B18  1  0.000000  0.447238  0.566159  1
  B  B19  1  0.000000  0.552838  0.433775  1
  B  B20  1  0.000000  0.479364  0.284908  1
  B  B21  1  0.000000  0.520686  0.715048  1
  B  B22  1  0.000000  0.020651  0.785007  1
  B  B23  1  0.000000  0.979178  0.214921  1
  B  B24  1  0.000000  0.257005  0.079750  1
  B  B25  1  0.000000  0.743017  0.920492  1
  B  B26  1  0.000000  0.243017  0.579736  1
  B  B27  1  0.000000  0.757018  0.420183  1
  B  B28  1  0.000000  0.297943  0.235682  1
  B  B29  1  0.000000  0.702086  0.764343  1
  B  B30  1  0.000000  0.202085  0.735729  1
  B  B31  1  0.000000  0.798006  0.264105  1
  Mo  Mo32  1  0.500000  0.141904  0.181734  1
  Mo  Mo33  1  0.500000  0.858026  0.818372  1
  Mo  Mo34  1  0.500000  0.358028  0.681816  1
  Mo  Mo35  1  0.500000  0.641954  0.318143  1
