# generated using pymatgen
data_Tb10Ho2Co4SnRh
_symmetry_space_group_name_H-M   'P 1'
_cell_length_a   8.35518914
_cell_length_b   8.36123685
_cell_length_c   8.35518986
_cell_angle_alpha   110.85152313
_cell_angle_beta   110.43266359
_cell_angle_gamma   107.12609408
_symmetry_Int_Tables_number   1
_chemical_formula_structural   Tb10Ho2Co4SnRh
_chemical_formula_sum   'Tb10 Ho2 Co4 Sn1 Rh1'
_cell_volume   448.92082094
_cell_formula_units_Z   1
loop_
 _symmetry_equiv_pos_site_id
 _symmetry_equiv_pos_as_xyz
  1  'x, y, z'
loop_
 _atom_site_type_symbol
 _atom_site_label
 _atom_site_symmetry_multiplicity
 _atom_site_fract_x
 _atom_site_fract_y
 _atom_site_fract_z
 _atom_site_occupancy
  Tb  Tb0  1  0.405560  0.209218  0.194705  1
  Tb  Tb1  1  0.594440  0.790782  0.805295  1
  Tb  Tb2  1  0.014514  0.209218  0.803659  1
  Tb  Tb3  1  0.985486  0.790782  0.196341  1
  Tb  Tb4  1  0.185608  0.292615  0.480101  1
  Tb  Tb5  1  0.814392  0.707385  0.519899  1
  Tb  Tb6  1  0.187486  0.707385  0.892993  1
  Tb  Tb7  1  0.812514  0.292615  0.107007  1
  Tb  Tb8  1  0.313542  0.619480  0.305939  1
  Tb  Tb9  1  0.686458  0.380520  0.694061  1
  Ho  Ho10  1  0.314015  0.007239  0.693224  1
  Ho  Ho11  1  0.685985  0.992761  0.306776  1
  Co  Co12  1  0.380004  0.000000  0.380004  1
  Co  Co13  1  0.619996  0.000000  0.619996  1
  Co  Co14  1  0.111729  0.612599  0.500870  1
  Co  Co15  1  0.888271  0.387401  0.499130  1
  Sn  Sn16  1  0.500000  0.500000  0.000000  1
  Rh  Rh17  1  0.000000  0.000000  0.000000  1
