# generated using pymatgen
data_LaYb(ThIr4)2
_symmetry_space_group_name_H-M   'P 1'
_cell_length_a   9.40334048
_cell_length_b   9.40334029
_cell_length_c   9.40334079
_cell_angle_alpha   33.56812454
_cell_angle_beta   33.56812867
_cell_angle_gamma   33.56811975
_symmetry_Int_Tables_number   1
_chemical_formula_structural   LaYb(ThIr4)2
_chemical_formula_sum   'La1 Yb1 Th2 Ir8'
_cell_volume   226.43024561
_cell_formula_units_Z   1
loop_
 _symmetry_equiv_pos_site_id
 _symmetry_equiv_pos_as_xyz
  1  'x, y, z'
loop_
 _atom_site_type_symbol
 _atom_site_label
 _atom_site_symmetry_multiplicity
 _atom_site_fract_x
 _atom_site_fract_y
 _atom_site_fract_z
 _atom_site_occupancy
  La  La0  1  0.124643  0.124643  0.124643  1
  Yb  Yb1  1  0.625229  0.625229  0.625229  1
  Th  Th2  1  0.998148  0.998148  0.998148  1
  Th  Th3  1  0.502053  0.502053  0.502053  1
  Ir  Ir4  1  0.562369  0.562369  0.060418  1
  Ir  Ir5  1  0.063643  0.063643  0.562807  1
  Ir  Ir6  1  0.562369  0.060418  0.562369  1
  Ir  Ir7  1  0.063643  0.562807  0.063643  1
  Ir  Ir8  1  0.812421  0.812421  0.812421  1
  Ir  Ir9  1  0.312260  0.312260  0.312260  1
  Ir  Ir10  1  0.060418  0.562369  0.562369  1
  Ir  Ir11  1  0.562807  0.063643  0.063643  1
