# generated using pymatgen
data_Sc6Be14AlCu8
_symmetry_space_group_name_H-M   'P 1'
_cell_length_a   7.96997044
_cell_length_b   7.96997056
_cell_length_c   7.96997000
_cell_angle_alpha   60.00000233
_cell_angle_beta   60.00000184
_cell_angle_gamma   60.00000411
_symmetry_Int_Tables_number   1
_chemical_formula_structural   Sc6Be14AlCu8
_chemical_formula_sum   'Sc6 Be14 Al1 Cu8'
_cell_volume   357.97701646
_cell_formula_units_Z   1
loop_
 _symmetry_equiv_pos_site_id
 _symmetry_equiv_pos_as_xyz
  1  'x, y, z'
loop_
 _atom_site_type_symbol
 _atom_site_label
 _atom_site_symmetry_multiplicity
 _atom_site_fract_x
 _atom_site_fract_y
 _atom_site_fract_z
 _atom_site_occupancy
  Sc  Sc0  1  0.705455  0.294545  0.294545  1
  Sc  Sc1  1  0.294545  0.705455  0.705455  1
  Sc  Sc2  1  0.294545  0.705455  0.294545  1
  Sc  Sc3  1  0.705455  0.294545  0.705455  1
  Sc  Sc4  1  0.294545  0.294545  0.705455  1
  Sc  Sc5  1  0.705455  0.705455  0.294545  1
  Be  Be6  1  0.321920  0.321920  0.321920  1
  Be  Be7  1  0.678080  0.678080  0.678080  1
  Be  Be8  1  0.321920  0.321920  0.034241  1
  Be  Be9  1  0.321920  0.034241  0.321920  1
  Be  Be10  1  0.678080  0.678080  0.965759  1
  Be  Be11  1  0.678080  0.965759  0.678080  1
  Be  Be12  1  0.034241  0.321920  0.321920  1
  Be  Be13  1  0.965759  0.678080  0.678080  1
  Be  Be14  1  0.500000  0.000000  0.000000  1
  Be  Be15  1  0.000000  0.500000  0.500000  1
  Be  Be16  1  0.000000  0.500000  0.000000  1
  Be  Be17  1  0.500000  0.000000  0.500000  1
  Be  Be18  1  0.000000  0.000000  0.500000  1
  Be  Be19  1  0.500000  0.500000  0.000000  1
  Al  Al20  1  0.000000  0.000000  0.000000  1
  Cu  Cu21  1  0.127410  0.127410  0.127410  1
  Cu  Cu22  1  0.872590  0.872590  0.872590  1
  Cu  Cu23  1  0.127410  0.127410  0.617772  1
  Cu  Cu24  1  0.127410  0.617772  0.127410  1
  Cu  Cu25  1  0.872590  0.872590  0.382228  1
  Cu  Cu26  1  0.872590  0.382228  0.872590  1
  Cu  Cu27  1  0.617772  0.127410  0.127410  1
  Cu  Cu28  1  0.382228  0.872590  0.872590  1
