# generated using pymatgen
data_Na(AcB8)3
_symmetry_space_group_name_H-M   'P 1'
_cell_length_a   7.26168795
_cell_length_b   7.26168758
_cell_length_c   5.94661900
_cell_angle_alpha   90.00000000
_cell_angle_beta   90.00000000
_cell_angle_gamma   109.38760802
_symmetry_Int_Tables_number   1
_chemical_formula_structural   Na(AcB8)3
_chemical_formula_sum   'Na1 Ac3 B24'
_cell_volume   295.79617128
_cell_formula_units_Z   1
loop_
 _symmetry_equiv_pos_site_id
 _symmetry_equiv_pos_as_xyz
  1  'x, y, z'
loop_
 _atom_site_type_symbol
 _atom_site_label
 _atom_site_symmetry_multiplicity
 _atom_site_fract_x
 _atom_site_fract_y
 _atom_site_fract_z
 _atom_site_occupancy
  Na  Na0  1  0.000000  0.000000  0.000000  1
  Ac  Ac1  1  0.751718  0.248282  0.500000  1
  Ac  Ac2  1  0.500000  0.500000  0.000000  1
  Ac  Ac3  1  0.248282  0.751718  0.500000  1
  B  B4  1  0.175028  0.323818  0.649334  1
  B  B5  1  0.925509  0.575228  0.148390  1
  B  B6  1  0.676182  0.824972  0.649334  1
  B  B7  1  0.424772  0.074491  0.148390  1
  B  B8  1  0.175028  0.323818  0.350666  1
  B  B9  1  0.925509  0.575228  0.851610  1
  B  B10  1  0.676182  0.824972  0.350666  1
  B  B11  1  0.424772  0.074491  0.851610  1
  B  B12  1  0.399057  0.399057  0.500000  1
  B  B13  1  0.148053  0.650192  0.000000  1
  B  B14  1  0.899284  0.899284  0.500000  1
  B  B15  1  0.650192  0.148053  0.000000  1
  B  B16  1  0.323818  0.175028  0.649334  1
  B  B17  1  0.074491  0.424772  0.148390  1
  B  B18  1  0.824972  0.676182  0.649334  1
  B  B19  1  0.575228  0.925509  0.148390  1
  B  B20  1  0.100716  0.100716  0.500000  1
  B  B21  1  0.851947  0.349808  0.000000  1
  B  B22  1  0.600943  0.600943  0.500000  1
  B  B23  1  0.349808  0.851947  0.000000  1
  B  B24  1  0.323818  0.175028  0.350666  1
  B  B25  1  0.074491  0.424772  0.851610  1
  B  B26  1  0.824972  0.676182  0.350666  1
  B  B27  1  0.575228  0.925509  0.851610  1
