# generated using pymatgen
data_MgSc3Mn2(B2Rh5)2
_symmetry_space_group_name_H-M   'P 1'
_cell_length_a   9.43690462
_cell_length_b   9.43690462
_cell_length_c   3.01871400
_cell_angle_alpha   90.00000000
_cell_angle_beta   90.00000000
_cell_angle_gamma   90.23366633
_symmetry_Int_Tables_number   1
_chemical_formula_structural   MgSc3Mn2(B2Rh5)2
_chemical_formula_sum   'Mg1 Sc3 Mn2 B4 Rh10'
_cell_volume   268.82984920
_cell_formula_units_Z   1
loop_
 _symmetry_equiv_pos_site_id
 _symmetry_equiv_pos_as_xyz
  1  'x, y, z'
loop_
 _atom_site_type_symbol
 _atom_site_label
 _atom_site_symmetry_multiplicity
 _atom_site_fract_x
 _atom_site_fract_y
 _atom_site_fract_z
 _atom_site_occupancy
  Mg  Mg0  1  0.678344  0.178344  0.000000  1
  Sc  Sc1  1  0.176406  0.322764  0.000000  1
  Sc  Sc2  1  0.822765  0.676406  0.000000  1
  Sc  Sc3  1  0.326074  0.826075  0.000000  1
  Mn  Mn4  1  0.997994  0.999928  0.000000  1
  Mn  Mn5  1  0.499928  0.497994  0.000000  1
  B  B6  1  0.374490  0.124487  0.000000  1
  B  B7  1  0.872010  0.372011  0.000000  1
  B  B8  1  0.125440  0.625440  0.000000  1
  B  B9  1  0.624487  0.874489  0.000000  1
  Rh  Rh10  1  0.501449  0.001449  0.500000  1
  Rh  Rh11  1  0.217884  0.069174  0.500000  1
  Rh  Rh12  1  0.931910  0.219108  0.500000  1
  Rh  Rh13  1  0.426751  0.281836  0.500000  1
  Rh  Rh14  1  0.719108  0.431909  0.500000  1
  Rh  Rh15  1  0.000444  0.500444  0.500000  1
  Rh  Rh16  1  0.281863  0.571644  0.500000  1
  Rh  Rh17  1  0.569173  0.717884  0.500000  1
  Rh  Rh18  1  0.071645  0.781862  0.500000  1
  Rh  Rh19  1  0.781835  0.926752  0.500000  1
