# generated using pymatgen
data_Eu3(GeN)2
_symmetry_space_group_name_H-M   'P 1'
_cell_length_a   8.75454538
_cell_length_b   3.79879000
_cell_length_c   9.33477779
_cell_angle_alpha   90.00000000
_cell_angle_beta   112.79674609
_cell_angle_gamma   90.00000000
_symmetry_Int_Tables_number   1
_chemical_formula_structural   Eu3(GeN)2
_chemical_formula_sum   'Eu6 Ge4 N4'
_cell_volume   286.19345086
_cell_formula_units_Z   2
loop_
 _symmetry_equiv_pos_site_id
 _symmetry_equiv_pos_as_xyz
  1  'x, y, z'
loop_
 _atom_site_type_symbol
 _atom_site_label
 _atom_site_symmetry_multiplicity
 _atom_site_fract_x
 _atom_site_fract_y
 _atom_site_fract_z
 _atom_site_occupancy
  Eu  Eu0  1  0.378351  0.749999  0.147232  1
  Eu  Eu1  1  0.019218  0.249999  0.171509  1
  Eu  Eu2  1  0.813082  0.249999  0.440154  1
  Eu  Eu3  1  0.186918  0.749999  0.559846  1
  Eu  Eu4  1  0.980782  0.749999  0.828492  1
  Eu  Eu5  1  0.621648  0.249999  0.852768  1
  Ge  Ge6  1  0.732374  0.749999  0.150663  1
  Ge  Ge7  1  0.406670  0.249999  0.437760  1
  Ge  Ge8  1  0.593331  0.749999  0.562240  1
  Ge  Ge9  1  0.267626  0.249999  0.849337  1
  N  N10  1  0.177038  0.249999  0.008265  1
  N  N11  1  0.822961  0.749999  0.991734  1
  N  N12  1  0.937111  0.749999  0.333790  1
  N  N13  1  0.062888  0.249999  0.666210  1
