# generated using pymatgen
data_CsPRu2S
_symmetry_space_group_name_H-M   'P 1'
_cell_length_a   7.66334455
_cell_length_b   7.66334455
_cell_length_c   7.66334514
_cell_angle_alpha   149.72317967
_cell_angle_beta   149.72317993
_cell_angle_gamma   43.34789500
_symmetry_Int_Tables_number   1
_chemical_formula_structural   CsPRu2S
_chemical_formula_sum   'Cs1 P1 Ru2 S1'
_cell_volume   114.09246609
_cell_formula_units_Z   1
loop_
 _symmetry_equiv_pos_site_id
 _symmetry_equiv_pos_as_xyz
  1  'x, y, z'
loop_
 _atom_site_type_symbol
 _atom_site_label
 _atom_site_symmetry_multiplicity
 _atom_site_fract_x
 _atom_site_fract_y
 _atom_site_fract_z
 _atom_site_occupancy
  Cs  Cs0  1  0.999643  0.999643  0.000000  1
  P  P1  1  0.665821  0.665821  0.000000  1
  Ru  Ru2  1  0.750805  0.250805  0.500000  1
  Ru  Ru3  1  0.250805  0.750805  0.500000  1
  S  S4  1  0.332926  0.332926  0.000000  1
