# generated using pymatgen
data_Pr3Sn2Hg3
_symmetry_space_group_name_H-M   'P 1'
_cell_length_a   6.52250529
_cell_length_b   6.52250556
_cell_length_c   10.80983900
_cell_angle_alpha   90.00000000
_cell_angle_beta   90.00000000
_cell_angle_gamma   101.74648672
_symmetry_Int_Tables_number   1
_chemical_formula_structural   Pr3Sn2Hg3
_chemical_formula_sum   'Pr6 Sn4 Hg6'
_cell_volume   450.25290637
_cell_formula_units_Z   2
loop_
 _symmetry_equiv_pos_site_id
 _symmetry_equiv_pos_as_xyz
  1  'x, y, z'
loop_
 _atom_site_type_symbol
 _atom_site_label
 _atom_site_symmetry_multiplicity
 _atom_site_fract_x
 _atom_site_fract_y
 _atom_site_fract_z
 _atom_site_occupancy
  Pr  Pr0  1  0.635995  0.635995  0.250000  1
  Pr  Pr1  1  0.364005  0.364005  0.750000  1
  Pr  Pr2  1  0.199866  0.800134  0.500000  1
  Pr  Pr3  1  0.199866  0.800134  0.000000  1
  Pr  Pr4  1  0.800134  0.199866  0.500000  1
  Pr  Pr5  1  0.800134  0.199866  0.000000  1
  Sn  Sn6  1  0.317141  0.317141  0.046232  1
  Sn  Sn7  1  0.682859  0.682859  0.953768  1
  Sn  Sn8  1  0.317141  0.317141  0.453768  1
  Sn  Sn9  1  0.682859  0.682859  0.546232  1
  Hg  Hg10  1  0.019505  0.019505  0.250000  1
  Hg  Hg11  1  0.980495  0.980495  0.750000  1
  Hg  Hg12  1  0.505781  0.080808  0.250000  1
  Hg  Hg13  1  0.919192  0.494219  0.750000  1
  Hg  Hg14  1  0.494219  0.919192  0.750000  1
  Hg  Hg15  1  0.080808  0.505781  0.250000  1
