# generated using pymatgen
data_DyTmP7Ru12
_symmetry_space_group_name_H-M   'P 1'
_cell_length_a   9.40111800
_cell_length_b   9.40111699
_cell_length_c   3.95347700
_cell_angle_alpha   90.00000000
_cell_angle_beta   90.00000000
_cell_angle_gamma   119.99998948
_symmetry_Int_Tables_number   1
_chemical_formula_structural   DyTmP7Ru12
_chemical_formula_sum   'Dy1 Tm1 P7 Ru12'
_cell_volume   302.59995236
_cell_formula_units_Z   1
loop_
 _symmetry_equiv_pos_site_id
 _symmetry_equiv_pos_as_xyz
  1  'x, y, z'
loop_
 _atom_site_type_symbol
 _atom_site_label
 _atom_site_symmetry_multiplicity
 _atom_site_fract_x
 _atom_site_fract_y
 _atom_site_fract_z
 _atom_site_occupancy
  Dy  Dy0  1  0.333333  0.666667  0.000000  1
  Tm  Tm1  1  0.666667  0.333333  0.500000  1
  P  P2  1  0.600775  0.718692  0.500000  1
  P  P3  1  0.000000  0.000000  0.000000  1
  P  P4  1  0.281308  0.882083  0.500000  1
  P  P5  1  0.117917  0.399225  0.500000  1
  P  P6  1  0.884817  0.573337  0.000000  1
  P  P7  1  0.426663  0.311480  0.000000  1
  P  P8  1  0.688520  0.115183  0.000000  1
  Ru  Ru9  1  0.556614  0.950656  0.500000  1
  Ru  Ru10  1  0.394043  0.443386  0.500000  1
  Ru  Ru11  1  0.914656  0.121690  0.500000  1
  Ru  Ru12  1  0.207035  0.085344  0.500000  1
  Ru  Ru13  1  0.878310  0.792965  0.500000  1
  Ru  Ru14  1  0.727661  0.892181  0.000000  1
  Ru  Ru15  1  0.107819  0.835478  0.000000  1
  Ru  Ru16  1  0.164522  0.272339  0.000000  1
  Ru  Ru17  1  0.423917  0.067100  0.000000  1
  Ru  Ru18  1  0.932900  0.356817  0.000000  1
  Ru  Ru19  1  0.643183  0.576083  0.000000  1
  Ru  Ru20  1  0.049344  0.605957  0.500000  1
