# generated using pymatgen
data_Ti20Ga7As4Se
_symmetry_space_group_name_H-M   'P 1'
_cell_length_a   6.72868316
_cell_length_b   7.94788416
_cell_length_c   9.87354925
_cell_angle_alpha   89.96728209
_cell_angle_beta   89.86889390
_cell_angle_gamma   90.03575250
_symmetry_Int_Tables_number   1
_chemical_formula_structural   Ti20Ga7As4Se
_chemical_formula_sum   'Ti20 Ga7 As4 Se1'
_cell_volume   528.02393751
_cell_formula_units_Z   1
loop_
 _symmetry_equiv_pos_site_id
 _symmetry_equiv_pos_as_xyz
  1  'x, y, z'
loop_
 _atom_site_type_symbol
 _atom_site_label
 _atom_site_symmetry_multiplicity
 _atom_site_fract_x
 _atom_site_fract_y
 _atom_site_fract_z
 _atom_site_occupancy
  Ti  Ti0  1  0.813518  0.556789  0.057937  1
  Ti  Ti1  1  0.685941  0.941340  0.562187  1
  Ti  Ti2  1  0.187783  0.058915  0.938127  1
  Ti  Ti3  1  0.315324  0.441392  0.439021  1
  Ti  Ti4  1  0.185460  0.444207  0.937769  1
  Ti  Ti5  1  0.314919  0.057865  0.439151  1
  Ti  Ti6  1  0.813531  0.942157  0.061092  1
  Ti  Ti7  1  0.681772  0.555623  0.564692  1
  Ti  Ti8  1  0.171099  0.750254  0.224986  1
  Ti  Ti9  1  0.329087  0.745525  0.725444  1
  Ti  Ti10  1  0.826139  0.255190  0.774896  1
  Ti  Ti11  1  0.672722  0.249891  0.273285  1
  Ti  Ti12  1  0.483111  0.747722  0.004261  1
  Ti  Ti13  1  0.012646  0.749754  0.503993  1
  Ti  Ti14  1  0.517475  0.252336  0.996248  1
  Ti  Ti15  1  0.985797  0.249887  0.496781  1
  Ti  Ti16  1  0.666646  0.749232  0.285190  1
  Ti  Ti17  1  0.835466  0.748404  0.785277  1
  Ti  Ti18  1  0.334337  0.253550  0.713242  1
  Ti  Ti19  1  0.167440  0.248951  0.215782  1
  Ga  Ga20  1  0.938006  0.504691  0.324545  1
  Ga  Ga21  1  0.560279  0.994517  0.824193  1
  Ga  Ga22  1  0.061192  0.006210  0.675952  1
  Ga  Ga23  1  0.437447  0.494146  0.176750  1
  Ga  Ga24  1  0.061391  0.494666  0.672924  1
  Ga  Ga25  1  0.439330  0.005435  0.174516  1
  Ga  Ga26  1  0.938195  0.994404  0.325115  1
  As  As27  1  0.101389  0.751470  0.969029  1
  As  As28  1  0.603373  0.248037  0.529757  1
  As  As29  1  0.900333  0.249268  0.031793  1
  As  As30  1  0.561601  0.508382  0.826576  1
  Se  Se31  1  0.397248  0.749793  0.469491  1
