# generated using pymatgen
data_LiLa6ZnRh16
_symmetry_space_group_name_H-M   'P 1'
_cell_length_a   5.41192900
_cell_length_b   5.41192739
_cell_length_c   17.47368300
_cell_angle_alpha   90.00000000
_cell_angle_beta   90.00000000
_cell_angle_gamma   119.99999153
_symmetry_Int_Tables_number   1
_chemical_formula_structural   LiLa6ZnRh16
_chemical_formula_sum   'Li1 La6 Zn1 Rh16'
_cell_volume   443.21981966
_cell_formula_units_Z   1
loop_
 _symmetry_equiv_pos_site_id
 _symmetry_equiv_pos_as_xyz
  1  'x, y, z'
loop_
 _atom_site_type_symbol
 _atom_site_label
 _atom_site_symmetry_multiplicity
 _atom_site_fract_x
 _atom_site_fract_y
 _atom_site_fract_z
 _atom_site_occupancy
  Li  Li0  1  0.000000  0.000000  0.250000  1
  La  La1  1  0.333333  0.666667  0.539102  1
  La  La2  1  0.666667  0.333333  0.042753  1
  La  La3  1  0.666667  0.333333  0.457247  1
  La  La4  1  0.333333  0.666667  0.960898  1
  La  La5  1  0.333333  0.666667  0.750000  1
  La  La6  1  0.666667  0.333333  0.250000  1
  Zn  Zn7  1  0.000000  0.000000  0.750000  1
  Rh  Rh8  1  0.167165  0.334329  0.127002  1
  Rh  Rh9  1  0.832591  0.665181  0.627251  1
  Rh  Rh10  1  0.665671  0.832835  0.127002  1
  Rh  Rh11  1  0.167165  0.832835  0.127002  1
  Rh  Rh12  1  0.832591  0.167409  0.627251  1
  Rh  Rh13  1  0.334819  0.167409  0.627251  1
  Rh  Rh14  1  0.832591  0.665181  0.872749  1
  Rh  Rh15  1  0.832591  0.167409  0.872749  1
  Rh  Rh16  1  0.334819  0.167409  0.872749  1
  Rh  Rh17  1  0.665671  0.832835  0.372998  1
  Rh  Rh18  1  0.167165  0.832835  0.372998  1
  Rh  Rh19  1  0.167165  0.334329  0.372998  1
  Rh  Rh20  1  0.333333  0.666667  0.250000  1
  Rh  Rh21  1  0.666667  0.333333  0.750000  1
  Rh  Rh22  1  0.000000  0.000000  0.000024  1
  Rh  Rh23  1  0.000000  0.000000  0.499976  1
