# generated using pymatgen
data_Zr3Rh4
_symmetry_space_group_name_H-M   'P 1'
_cell_length_a   7.32931961
_cell_length_b   7.32931989
_cell_length_c   7.32931901
_cell_angle_alpha   113.68197807
_cell_angle_beta   113.68198793
_cell_angle_gamma   113.68198052
_symmetry_Int_Tables_number   1
_chemical_formula_structural   Zr3Rh4
_chemical_formula_sum   'Zr6 Rh8'
_cell_volume   244.74515663
_cell_formula_units_Z   2
loop_
 _symmetry_equiv_pos_site_id
 _symmetry_equiv_pos_as_xyz
  1  'x, y, z'
loop_
 _atom_site_type_symbol
 _atom_site_label
 _atom_site_symmetry_multiplicity
 _atom_site_fract_x
 _atom_site_fract_y
 _atom_site_fract_z
 _atom_site_occupancy
  Zr  Zr0  1  0.399356  0.261954  0.006038  1
  Zr  Zr1  1  0.006038  0.399356  0.261954  1
  Zr  Zr2  1  0.261954  0.006038  0.399356  1
  Zr  Zr3  1  0.600644  0.738046  0.993962  1
  Zr  Zr4  1  0.993962  0.600644  0.738046  1
  Zr  Zr5  1  0.738046  0.993962  0.600644  1
  Rh  Rh6  1  0.000000  0.000000  0.000000  1
  Rh  Rh7  1  0.500000  0.500000  0.500000  1
  Rh  Rh8  1  0.915930  0.753019  0.453378  1
  Rh  Rh9  1  0.453378  0.915930  0.753019  1
  Rh  Rh10  1  0.753019  0.453378  0.915930  1
  Rh  Rh11  1  0.084070  0.246981  0.546622  1
  Rh  Rh12  1  0.546622  0.084070  0.246981  1
  Rh  Rh13  1  0.246981  0.546622  0.084070  1
