# generated using pymatgen
data_PmHoCu4
_symmetry_space_group_name_H-M   'P 1'
_cell_length_a   5.53700063
_cell_length_b   5.53700239
_cell_length_c   5.53700111
_cell_angle_alpha   134.65226570
_cell_angle_beta   97.50963853
_cell_angle_gamma   99.58465495
_symmetry_Int_Tables_number   1
_chemical_formula_structural   PmHoCu4
_chemical_formula_sum   'Pm1 Ho1 Cu4'
_cell_volume   111.40375025
_cell_formula_units_Z   1
loop_
 _symmetry_equiv_pos_site_id
 _symmetry_equiv_pos_as_xyz
  1  'x, y, z'
loop_
 _atom_site_type_symbol
 _atom_site_label
 _atom_site_symmetry_multiplicity
 _atom_site_fract_x
 _atom_site_fract_y
 _atom_site_fract_z
 _atom_site_occupancy
  Pm  Pm0  1  0.500000  0.500000  0.000000  1
  Ho  Ho1  1  0.000000  0.000000  0.000000  1
  Cu  Cu2  1  0.585555  0.253036  0.332520  1
  Cu  Cu3  1  0.079486  0.746965  0.332521  1
  Cu  Cu4  1  0.920515  0.253036  0.667481  1
  Cu  Cu5  1  0.414445  0.746965  0.667480  1
