# generated using pymatgen
data_Ba2PaIrS6
_symmetry_space_group_name_H-M   'P 1'
_cell_length_a   12.55946837
_cell_length_b   12.55946910
_cell_length_c   12.55946931
_cell_angle_alpha   32.39053882
_cell_angle_beta   32.39053285
_cell_angle_gamma   32.39053720
_symmetry_Int_Tables_number   1
_chemical_formula_structural   Ba2PaIrS6
_chemical_formula_sum   'Ba4 Pa2 Ir2 S12'
_cell_volume   505.42822955
_cell_formula_units_Z   2
loop_
 _symmetry_equiv_pos_site_id
 _symmetry_equiv_pos_as_xyz
  1  'x, y, z'
loop_
 _atom_site_type_symbol
 _atom_site_label
 _atom_site_symmetry_multiplicity
 _atom_site_fract_x
 _atom_site_fract_y
 _atom_site_fract_z
 _atom_site_occupancy
  Ba  Ba0  1  0.114663  0.114663  0.114663  1
  Ba  Ba1  1  0.291631  0.291631  0.291631  1
  Ba  Ba2  1  0.708369  0.708369  0.708369  1
  Ba  Ba3  1  0.885336  0.885336  0.885336  1
  Pa  Pa4  1  0.000000  0.000000  0.000000  1
  Pa  Pa5  1  0.500000  0.500000  0.500000  1
  Ir  Ir6  1  0.414718  0.414718  0.414718  1
  Ir  Ir7  1  0.585282  0.585282  0.585282  1
  S  S8  1  0.618685  0.618685  0.119124  1
  S  S9  1  0.215799  0.695112  0.215798  1
  S  S10  1  0.695112  0.215799  0.215798  1
  S  S11  1  0.784201  0.784201  0.304888  1
  S  S12  1  0.880876  0.381314  0.381316  1
  S  S13  1  0.381314  0.880876  0.381316  1
  S  S14  1  0.618686  0.119124  0.618684  1
  S  S15  1  0.119124  0.618686  0.618684  1
  S  S16  1  0.215799  0.215799  0.695112  1
  S  S17  1  0.784201  0.304888  0.784201  1
  S  S18  1  0.304888  0.784201  0.784201  1
  S  S19  1  0.381315  0.381315  0.880876  1
