# generated using pymatgen
data_Ho8Ta9Ti2Si16Rh
_symmetry_space_group_name_H-M   'P 1'
_cell_length_a   7.02670236
_cell_length_b   7.02168902
_cell_length_c   12.89283619
_cell_angle_alpha   90.20101679
_cell_angle_beta   89.82556809
_cell_angle_gamma   89.71023244
_symmetry_Int_Tables_number   1
_chemical_formula_structural   Ho8Ta9Ti2Si16Rh
_chemical_formula_sum   'Ho8 Ta9 Ti2 Si16 Rh1'
_cell_volume   636.10872197
_cell_formula_units_Z   1
loop_
 _symmetry_equiv_pos_site_id
 _symmetry_equiv_pos_as_xyz
  1  'x, y, z'
loop_
 _atom_site_type_symbol
 _atom_site_label
 _atom_site_symmetry_multiplicity
 _atom_site_fract_x
 _atom_site_fract_y
 _atom_site_fract_z
 _atom_site_occupancy
  Ho  Ho0  1  0.341731  0.002338  0.468110  1
  Ho  Ho1  1  0.496457  0.842453  0.719497  1
  Ho  Ho2  1  0.501510  0.157655  0.216594  1
  Ho  Ho3  1  0.842254  0.496464  0.281002  1
  Ho  Ho4  1  0.158177  0.501835  0.783819  1
  Ho  Ho5  1  0.656886  0.998990  0.968771  1
  Ho  Ho6  1  0.003391  0.340710  0.531539  1
  Ho  Ho7  1  0.998423  0.659898  0.031323  1
  Ta  Ta8  1  0.174482  0.826526  0.247878  1
  Ta  Ta9  1  0.827346  0.175421  0.752311  1
  Ta  Ta10  1  0.670253  0.669832  0.499389  1
  Ta  Ta11  1  0.147237  0.003342  0.874698  1
  Ta  Ta12  1  0.496125  0.655848  0.123217  1
  Ta  Ta13  1  0.503795  0.348549  0.625014  1
  Ta  Ta14  1  0.657014  0.495493  0.877116  1
  Ta  Ta15  1  0.348527  0.505899  0.375356  1
  Ta  Ta16  1  0.849341  0.991573  0.374830  1
  Ti  Ti17  1  0.005013  0.147185  0.125236  1
  Ti  Ti18  1  0.991321  0.848459  0.625571  1
  Si  Si19  1  0.202247  0.133477  0.682897  1
  Si  Si20  1  0.368922  0.705596  0.931931  1
  Si  Si21  1  0.634949  0.293682  0.431464  1
  Si  Si22  1  0.706822  0.367144  0.068559  1
  Si  Si23  1  0.294392  0.636670  0.568884  1
  Si  Si24  1  0.796973  0.867836  0.181870  1
  Si  Si25  1  0.135561  0.202044  0.315866  1
  Si  Si26  1  0.864784  0.796954  0.817083  1
  Si  Si27  1  0.289117  0.953313  0.062153  1
  Si  Si28  1  0.545693  0.793932  0.313083  1
  Si  Si29  1  0.448976  0.209568  0.816906  1
  Si  Si30  1  0.795263  0.546507  0.685694  1
  Si  Si31  1  0.208380  0.448333  0.182111  1
  Si  Si32  1  0.707186  0.045703  0.565507  1
  Si  Si33  1  0.954522  0.291075  0.939558  1
  Si  Si34  1  0.046445  0.705243  0.436090  1
  Rh  Rh35  1  0.330487  0.334455  0.999076  1
