# generated using pymatgen
data_Mn2Nb3ReN
_symmetry_space_group_name_H-M   'P 1'
_cell_length_a   8.19754923
_cell_length_b   8.19742335
_cell_length_c   8.19786000
_cell_angle_alpha   59.99791139
_cell_angle_beta   59.99769524
_cell_angle_gamma   59.99667208
_symmetry_Int_Tables_number   1
_chemical_formula_structural   Mn2Nb3ReN
_chemical_formula_sum   'Mn8 Nb12 Re4 N4'
_cell_volume   389.51263821
_cell_formula_units_Z   4
loop_
 _symmetry_equiv_pos_site_id
 _symmetry_equiv_pos_as_xyz
  1  'x, y, z'
loop_
 _atom_site_type_symbol
 _atom_site_label
 _atom_site_symmetry_multiplicity
 _atom_site_fract_x
 _atom_site_fract_y
 _atom_site_fract_z
 _atom_site_occupancy
  Mn  Mn0  1  0.735191  0.421564  0.421603  1
  Mn  Mn1  1  0.421624  0.735138  0.421595  1
  Mn  Mn2  1  0.421644  0.421589  0.735104  1
  Mn  Mn3  1  0.421636  0.421591  0.421618  1
  Mn  Mn4  1  0.514809  0.828436  0.828397  1
  Mn  Mn5  1  0.828376  0.514862  0.828405  1
  Mn  Mn6  1  0.828356  0.828411  0.514896  1
  Mn  Mn7  1  0.828364  0.828409  0.828382  1
  Nb  Nb8  1  0.807856  0.807847  0.192119  1
  Nb  Nb9  1  0.192167  0.192169  0.807823  1
  Nb  Nb10  1  0.807844  0.192099  0.807853  1
  Nb  Nb11  1  0.192132  0.807821  0.192186  1
  Nb  Nb12  1  0.192096  0.807842  0.807856  1
  Nb  Nb13  1  0.807823  0.192135  0.192189  1
  Nb  Nb14  1  0.442144  0.442153  0.057881  1
  Nb  Nb15  1  0.057833  0.057831  0.442177  1
  Nb  Nb16  1  0.442156  0.057901  0.442147  1
  Nb  Nb17  1  0.057868  0.442179  0.057814  1
  Nb  Nb18  1  0.057904  0.442158  0.442144  1
  Nb  Nb19  1  0.442177  0.057865  0.057811  1
  Re  Re20  1  0.125000  0.625000  0.625000  1
  Re  Re21  1  0.625000  0.125000  0.625000  1
  Re  Re22  1  0.625000  0.625000  0.125000  1
  Re  Re23  1  0.625000  0.625000  0.625000  1
  N  N24  1  0.625000  0.125000  0.125000  1
  N  N25  1  0.125000  0.625000  0.125000  1
  N  N26  1  0.125000  0.125000  0.625000  1
  N  N27  1  0.125000  0.125000  0.125000  1
