# generated using pymatgen
data_TbSmGa2(Co3B)2
_symmetry_space_group_name_H-M   'P 1'
_cell_length_a   5.19321900
_cell_length_b   5.19412564
_cell_length_c   6.66531900
_cell_angle_alpha   90.00000000
_cell_angle_beta   90.00000000
_cell_angle_gamma   119.99425794
_symmetry_Int_Tables_number   1
_chemical_formula_structural   TbSmGa2(Co3B)2
_chemical_formula_sum   'Tb1 Sm1 Ga2 Co6 B2'
_cell_volume   155.71332710
_cell_formula_units_Z   1
loop_
 _symmetry_equiv_pos_site_id
 _symmetry_equiv_pos_as_xyz
  1  'x, y, z'
loop_
 _atom_site_type_symbol
 _atom_site_label
 _atom_site_symmetry_multiplicity
 _atom_site_fract_x
 _atom_site_fract_y
 _atom_site_fract_z
 _atom_site_occupancy
  Tb  Tb0  1  0.999986  0.000000  0.500000  1
  Sm  Sm1  1  0.999978  0.000000  0.000000  1
  Ga  Ga2  1  0.333328  0.666697  0.000000  1
  Ga  Ga3  1  0.666631  0.333303  0.000000  1
  Co  Co4  1  0.499984  0.000000  0.295826  1
  Co  Co5  1  0.499985  0.500001  0.295849  1
  Co  Co6  1  0.999984  0.499999  0.295849  1
  Co  Co7  1  0.499984  0.000000  0.704174  1
  Co  Co8  1  0.499985  0.500001  0.704151  1
  Co  Co9  1  0.999984  0.499999  0.704151  1
  B  B10  1  0.333370  0.666772  0.500000  1
  B  B11  1  0.666598  0.333228  0.500000  1
