# generated using pymatgen
data_Ho4Er8InCo6
_symmetry_space_group_name_H-M   'P 1'
_cell_length_a   8.29415912
_cell_length_b   8.29415814
_cell_length_c   8.29415926
_cell_angle_alpha   109.52736179
_cell_angle_beta   109.46841486
_cell_angle_gamma   109.41790334
_symmetry_Int_Tables_number   1
_chemical_formula_structural   Ho4Er8InCo6
_chemical_formula_sum   'Ho4 Er8 In1 Co6'
_cell_volume   439.23279511
_cell_formula_units_Z   1
loop_
 _symmetry_equiv_pos_site_id
 _symmetry_equiv_pos_as_xyz
  1  'x, y, z'
loop_
 _atom_site_type_symbol
 _atom_site_label
 _atom_site_symmetry_multiplicity
 _atom_site_fract_x
 _atom_site_fract_y
 _atom_site_fract_z
 _atom_site_occupancy
  Ho  Ho0  1  0.504755  0.806544  0.698212  1
  Ho  Ho1  1  0.495245  0.193456  0.301788  1
  Ho  Ho2  1  0.108332  0.806544  0.301788  1
  Ho  Ho3  1  0.891668  0.193456  0.698212  1
  Er  Er4  1  0.806612  0.697604  0.504215  1
  Er  Er5  1  0.193388  0.302396  0.495785  1
  Er  Er6  1  0.193388  0.697604  0.890992  1
  Er  Er7  1  0.806612  0.302396  0.109008  1
  Er  Er8  1  0.697456  0.504339  0.806884  1
  Er  Er9  1  0.302544  0.495661  0.193116  1
  Er  Er10  1  0.697456  0.890573  0.193116  1
  Er  Er11  1  0.302544  0.109427  0.806884  1
  In  In12  1  0.000000  0.000000  0.000000  1
  Co  Co13  1  0.886296  0.386296  0.500000  1
  Co  Co14  1  0.113704  0.613704  0.500000  1
  Co  Co15  1  0.386142  0.500000  0.886142  1
  Co  Co16  1  0.613858  0.500000  0.113858  1
  Co  Co17  1  0.500000  0.885917  0.385917  1
  Co  Co18  1  0.500000  0.114083  0.614083  1
