# generated using pymatgen
data_LaNd11Si3GeI12
_symmetry_space_group_name_H-M   'P 1'
_cell_length_a   10.84878607
_cell_length_b   10.84878694
_cell_length_c   10.88521340
_cell_angle_alpha   109.52619517
_cell_angle_beta   109.52619002
_cell_angle_gamma   109.53028467
_symmetry_Int_Tables_number   1
_chemical_formula_structural   LaNd11Si3GeI12
_chemical_formula_sum   'La1 Nd11 Si3 Ge1 I12'
_cell_volume   984.16568784
_cell_formula_units_Z   1
loop_
 _symmetry_equiv_pos_site_id
 _symmetry_equiv_pos_as_xyz
  1  'x, y, z'
loop_
 _atom_site_type_symbol
 _atom_site_label
 _atom_site_symmetry_multiplicity
 _atom_site_fract_x
 _atom_site_fract_y
 _atom_site_fract_z
 _atom_site_occupancy
  La  La0  1  0.235041  0.264959  0.750000  1
  Nd  Nd1  1  0.466246  0.485638  0.232513  1
  Nd  Nd2  1  0.749074  0.231753  0.267498  1
  Nd  Nd3  1  0.748689  0.017426  0.481061  1
  Nd  Nd4  1  0.230683  0.465799  0.483706  1
  Nd  Nd5  1  0.268247  0.750926  0.232502  1
  Nd  Nd6  1  0.034201  0.269317  0.016294  1
  Nd  Nd7  1  0.014362  0.033754  0.267487  1
  Nd  Nd8  1  0.482574  0.751311  0.018939  1
  Nd  Nd9  1  0.484996  0.231709  0.465817  1
  Nd  Nd10  1  0.018048  0.481952  0.750000  1
  Nd  Nd11  1  0.268291  0.015004  0.034183  1
  Si  Si12  1  0.499573  0.000427  0.250000  1
  Si  Si13  1  0.999631  0.249671  0.499178  1
  Si  Si14  1  0.250329  0.500369  0.000822  1
  Ge  Ge15  1  0.249890  0.250110  0.250000  1
  I  I16  1  0.249984  0.757246  0.743293  1
  I  I17  1  0.516792  0.511222  0.756032  1
  I  I18  1  0.986067  0.742912  0.993015  1
  I  I19  1  0.742754  0.250016  0.756707  1
  I  I20  1  0.988778  0.983208  0.743968  1
  I  I21  1  0.249309  0.989891  0.503779  1
  I  I22  1  0.757088  0.513933  0.506985  1
  I  I23  1  0.510109  0.250691  0.996221  1
  I  I24  1  0.756956  0.743044  0.250000  1
  I  I25  1  0.742852  0.993369  0.986179  1
  I  I26  1  0.992804  0.507196  0.250000  1
  I  I27  1  0.506631  0.757148  0.513821  1
