# generated using pymatgen
data_Ce2Y2HoAl2Os3
_symmetry_space_group_name_H-M   'P 1'
_cell_length_a   8.41703767
_cell_length_b   8.43838904
_cell_length_c   8.45240627
_cell_angle_alpha   110.17574213
_cell_angle_beta   110.27119020
_cell_angle_gamma   109.68502403
_symmetry_Int_Tables_number   1
_chemical_formula_structural   Ce2Y2HoAl2Os3
_chemical_formula_sum   'Ce4 Y4 Ho2 Al4 Os6'
_cell_volume   452.06822950
_cell_formula_units_Z   2
loop_
 _symmetry_equiv_pos_site_id
 _symmetry_equiv_pos_as_xyz
  1  'x, y, z'
loop_
 _atom_site_type_symbol
 _atom_site_label
 _atom_site_symmetry_multiplicity
 _atom_site_fract_x
 _atom_site_fract_y
 _atom_site_fract_z
 _atom_site_occupancy
  Ce  Ce0  1  0.505636  0.995135  0.706308  1
  Ce  Ce1  1  0.253402  0.195821  0.940819  1
  Ce  Ce2  1  0.935933  0.250494  0.189302  1
  Ce  Ce3  1  0.191589  0.937560  0.249157  1
  Y  Y4  1  0.775403  0.776433  0.776926  1
  Y  Y5  1  0.316525  0.568274  0.751152  1
  Y  Y6  1  0.754129  0.320959  0.569390  1
  Y  Y7  1  0.569090  0.747191  0.311553  1
  Ho  Ho8  1  0.721921  0.510600  0.999981  1
  Ho  Ho9  1  0.996453  0.720487  0.509579  1
  Al  Al10  1  0.405514  0.403047  0.405194  1
  Al  Al11  1  0.095521  0.498933  0.006045  1
  Al  Al12  1  0.000155  0.092699  0.499022  1
  Al  Al13  1  0.497428  0.001905  0.092021  1
  Os  Os14  1  0.889376  0.121453  0.750988  1
  Os  Os15  1  0.750485  0.894003  0.122227  1
  Os  Os16  1  0.121908  0.750216  0.897940  1
  Os  Os17  1  0.240237  0.613176  0.379424  1
  Os  Os18  1  0.371260  0.232171  0.610007  1
  Os  Os19  1  0.608034  0.369444  0.232963  1
