# generated using pymatgen
data_CaLu(NbSe2)6
_symmetry_space_group_name_H-M   'P 1'
_cell_length_a   6.08938400
_cell_length_b   6.08938429
_cell_length_c   14.50920000
_cell_angle_alpha   90.00000000
_cell_angle_beta   90.00000000
_cell_angle_gamma   120.00000927
_symmetry_Int_Tables_number   1
_chemical_formula_structural   CaLu(NbSe2)6
_chemical_formula_sum   'Ca1 Lu1 Nb6 Se12'
_cell_volume   465.93013785
_cell_formula_units_Z   1
loop_
 _symmetry_equiv_pos_site_id
 _symmetry_equiv_pos_as_xyz
  1  'x, y, z'
loop_
 _atom_site_type_symbol
 _atom_site_label
 _atom_site_symmetry_multiplicity
 _atom_site_fract_x
 _atom_site_fract_y
 _atom_site_fract_z
 _atom_site_occupancy
  Ca  Ca0  1  0.666667  0.333333  0.750000  1
  Lu  Lu1  1  0.333333  0.666667  0.250000  1
  Nb  Nb2  1  0.333333  0.666667  0.006298  1
  Nb  Nb3  1  0.000000  0.000000  0.005492  1
  Nb  Nb4  1  0.666667  0.333333  0.004173  1
  Nb  Nb5  1  0.333333  0.666667  0.493702  1
  Nb  Nb6  1  0.000000  0.000000  0.494508  1
  Nb  Nb7  1  0.666667  0.333333  0.495827  1
  Se  Se8  1  0.671512  0.665539  0.379148  1
  Se  Se9  1  0.666257  0.672863  0.609546  1
  Se  Se10  1  0.006607  0.672863  0.890454  1
  Se  Se11  1  0.666257  0.993393  0.890454  1
  Se  Se12  1  0.671512  0.005973  0.120852  1
  Se  Se13  1  0.334461  0.005973  0.379148  1
  Se  Se14  1  0.006607  0.333743  0.609546  1
  Se  Se15  1  0.327137  0.993393  0.609546  1
  Se  Se16  1  0.994027  0.665539  0.120852  1
  Se  Se17  1  0.327137  0.333743  0.890454  1
  Se  Se18  1  0.994027  0.328488  0.379148  1
  Se  Se19  1  0.334461  0.328488  0.120852  1
