# generated using pymatgen
data_Pr2NdSnGeRh2
_symmetry_space_group_name_H-M   'P 1'
_cell_length_a   5.80110800
_cell_length_b   8.41944500
_cell_length_c   13.72496300
_cell_angle_alpha   90.00000000
_cell_angle_beta   90.00000000
_cell_angle_gamma   90.00000000
_symmetry_Int_Tables_number   1
_chemical_formula_structural   Pr2NdSnGeRh2
_chemical_formula_sum   'Pr8 Nd4 Sn4 Ge4 Rh8'
_cell_volume   670.35614909
_cell_formula_units_Z   4
loop_
 _symmetry_equiv_pos_site_id
 _symmetry_equiv_pos_as_xyz
  1  'x, y, z'
loop_
 _atom_site_type_symbol
 _atom_site_label
 _atom_site_symmetry_multiplicity
 _atom_site_fract_x
 _atom_site_fract_y
 _atom_site_fract_z
 _atom_site_occupancy
  Pr  Pr0  1  0.155991  0.394121  0.101551  1
  Pr  Pr1  1  0.844009  0.605879  0.898449  1
  Pr  Pr2  1  0.844009  0.605879  0.601551  1
  Pr  Pr3  1  0.844009  0.894121  0.398449  1
  Pr  Pr4  1  0.155991  0.394121  0.398449  1
  Pr  Pr5  1  0.155991  0.105879  0.601551  1
  Pr  Pr6  1  0.155991  0.105879  0.898449  1
  Pr  Pr7  1  0.844009  0.894121  0.101551  1
  Nd  Nd8  1  0.643198  0.249869  0.250000  1
  Nd  Nd9  1  0.356802  0.750131  0.750000  1
  Nd  Nd10  1  0.356802  0.749869  0.250000  1
  Nd  Nd11  1  0.643198  0.250131  0.750000  1
  Sn  Sn12  1  0.658647  0.250000  0.000000  1
  Sn  Sn13  1  0.341353  0.750000  0.000000  1
  Sn  Sn14  1  0.341353  0.750000  0.500000  1
  Sn  Sn15  1  0.658647  0.250000  0.500000  1
  Ge  Ge16  1  0.142507  0.104616  0.250000  1
  Ge  Ge17  1  0.857493  0.895384  0.750000  1
  Ge  Ge18  1  0.857493  0.604616  0.250000  1
  Ge  Ge19  1  0.142507  0.395384  0.750000  1
  Rh  Rh20  1  0.373883  0.038518  0.097547  1
  Rh  Rh21  1  0.626117  0.961482  0.902453  1
  Rh  Rh22  1  0.626117  0.961482  0.597547  1
  Rh  Rh23  1  0.626117  0.538518  0.402453  1
  Rh  Rh24  1  0.373883  0.038518  0.402453  1
  Rh  Rh25  1  0.373883  0.461482  0.597547  1
  Rh  Rh26  1  0.373883  0.461482  0.902453  1
  Rh  Rh27  1  0.626117  0.538518  0.097547  1
