# generated using pymatgen
data_Ca6Mn18P13Pt2
_symmetry_space_group_name_H-M   'P 1'
_cell_length_a   13.08560400
_cell_length_b   13.08560494
_cell_length_c   3.76476300
_cell_angle_alpha   90.00000000
_cell_angle_beta   90.00000000
_cell_angle_gamma   120.00000267
_symmetry_Int_Tables_number   1
_chemical_formula_structural   Ca6Mn18P13Pt2
_chemical_formula_sum   'Ca6 Mn18 P13 Pt2'
_cell_volume   558.28484627
_cell_formula_units_Z   1
loop_
 _symmetry_equiv_pos_site_id
 _symmetry_equiv_pos_as_xyz
  1  'x, y, z'
loop_
 _atom_site_type_symbol
 _atom_site_label
 _atom_site_symmetry_multiplicity
 _atom_site_fract_x
 _atom_site_fract_y
 _atom_site_fract_z
 _atom_site_occupancy
  Ca  Ca0  1  0.473717  0.192516  0.000000  1
  Ca  Ca1  1  0.718801  0.526283  0.000000  1
  Ca  Ca2  1  0.807484  0.281199  0.000000  1
  Ca  Ca3  1  0.529327  0.809408  0.500000  1
  Ca  Ca4  1  0.280083  0.470673  0.500000  1
  Ca  Ca5  1  0.190592  0.719917  0.500000  1
  Mn  Mn6  1  0.198674  0.094417  0.000000  1
  Mn  Mn7  1  0.895741  0.801326  0.000000  1
  Mn  Mn8  1  0.905583  0.104259  0.000000  1
  Mn  Mn9  1  0.839858  0.925519  0.500000  1
  Mn  Mn10  1  0.085661  0.160142  0.500000  1
  Mn  Mn11  1  0.074481  0.914339  0.500000  1
  Mn  Mn12  1  0.436108  0.417190  0.000000  1
  Mn  Mn13  1  0.981084  0.563892  0.000000  1
  Mn  Mn14  1  0.582810  0.018916  0.000000  1
  Mn  Mn15  1  0.568121  0.588221  0.500000  1
  Mn  Mn16  1  0.020100  0.431879  0.500000  1
  Mn  Mn17  1  0.411779  0.979900  0.500000  1
  Mn  Mn18  1  0.064185  0.311265  0.000000  1
  Mn  Mn19  1  0.247079  0.935815  0.000000  1
  Mn  Mn20  1  0.688735  0.752921  0.000000  1
  Mn  Mn21  1  0.935887  0.683578  0.500000  1
  Mn  Mn22  1  0.747690  0.064113  0.500000  1
  Mn  Mn23  1  0.316422  0.252310  0.500000  1
  P  P24  1  0.229333  0.282294  0.000000  1
  P  P25  1  0.052963  0.770667  0.000000  1
  P  P26  1  0.717706  0.947037  0.000000  1
  P  P27  1  0.776372  0.715474  0.500000  1
  P  P28  1  0.939102  0.223628  0.500000  1
  P  P29  1  0.284526  0.060898  0.500000  1
  P  P30  1  0.484899  0.613881  0.000000  1
  P  P31  1  0.128983  0.515101  0.000000  1
  P  P32  1  0.386119  0.871017  0.000000  1
  P  P33  1  0.517287  0.389666  0.500000  1
  P  P34  1  0.872379  0.482713  0.500000  1
  P  P35  1  0.610334  0.127621  0.500000  1
  P  P36  1  0.000000  0.000000  0.000000  1
  Pt  Pt37  1  0.333333  0.666667  0.000000  1
  Pt  Pt38  1  0.666667  0.333333  0.500000  1
