# generated using pymatgen
data_V12Si2PdPt
_symmetry_space_group_name_H-M   'P 1'
_cell_length_a   4.76357200
_cell_length_b   4.76086200
_cell_length_c   9.51302600
_cell_angle_alpha   90.00000000
_cell_angle_beta   90.00000000
_cell_angle_gamma   90.00000000
_symmetry_Int_Tables_number   1
_chemical_formula_structural   V12Si2PdPt
_chemical_formula_sum   'V12 Si2 Pd1 Pt1'
_cell_volume   215.74314759
_cell_formula_units_Z   1
loop_
 _symmetry_equiv_pos_site_id
 _symmetry_equiv_pos_as_xyz
  1  'x, y, z'
loop_
 _atom_site_type_symbol
 _atom_site_label
 _atom_site_symmetry_multiplicity
 _atom_site_fract_x
 _atom_site_fract_y
 _atom_site_fract_z
 _atom_site_occupancy
  V  V0  1  0.000000  0.500000  0.120766  1
  V  V1  1  0.000000  0.500000  0.628370  1
  V  V2  1  0.500000  0.250461  0.742811  1
  V  V3  1  0.500000  0.246120  0.255572  1
  V  V4  1  0.752056  0.000000  0.006704  1
  V  V5  1  0.747132  0.000000  0.495513  1
  V  V6  1  0.000000  0.500000  0.874474  1
  V  V7  1  0.000000  0.500000  0.374926  1
  V  V8  1  0.500000  0.749539  0.742811  1
  V  V9  1  0.500000  0.753880  0.255572  1
  V  V10  1  0.247944  0.000000  0.006704  1
  V  V11  1  0.252868  0.000000  0.495513  1
  Si  Si12  1  0.500000  0.500000  0.497994  1
  Si  Si13  1  0.000000  0.000000  0.252538  1
  Pd  Pd14  1  0.500000  0.500000  0.998387  1
  Pt  Pt15  1  0.000000  0.000000  0.751344  1
