# generated using pymatgen
data_TbYU6(ReB6)4
_symmetry_space_group_name_H-M   'P 1'
_cell_length_a   3.64036200
_cell_length_b   9.30426948
_cell_length_c   11.40436606
_cell_angle_alpha   89.98732320
_cell_angle_beta   90.00000000
_cell_angle_gamma   90.00000000
_symmetry_Int_Tables_number   1
_chemical_formula_structural   TbYU6(ReB6)4
_chemical_formula_sum   'Tb1 Y1 U6 Re4 B24'
_cell_volume   386.27623619
_cell_formula_units_Z   1
loop_
 _symmetry_equiv_pos_site_id
 _symmetry_equiv_pos_as_xyz
  1  'x, y, z'
loop_
 _atom_site_type_symbol
 _atom_site_label
 _atom_site_symmetry_multiplicity
 _atom_site_fract_x
 _atom_site_fract_y
 _atom_site_fract_z
 _atom_site_occupancy
  Tb  Tb0  1  0.000000  0.336506  0.407823  1
  Y  Y1  1  0.000000  0.663482  0.592161  1
  U  U2  1  0.000000  0.836334  0.092721  1
  U  U3  1  0.000000  0.163662  0.907262  1
  U  U4  1  0.000000  0.956507  0.396445  1
  U  U5  1  0.000000  0.043420  0.603762  1
  U  U6  1  0.000000  0.457263  0.103391  1
  U  U7  1  0.000000  0.542854  0.896555  1
  Re  Re8  1  0.000000  0.647621  0.316466  1
  Re  Re9  1  0.000000  0.352472  0.683446  1
  Re  Re10  1  0.000000  0.143291  0.177844  1
  Re  Re11  1  0.000000  0.856551  0.822174  1
  B  B12  1  0.500000  0.552269  0.430583  1
  B  B13  1  0.500000  0.447863  0.569387  1
  B  B14  1  0.500000  0.049815  0.067455  1
  B  B15  1  0.500000  0.950119  0.932548  1
  B  B16  1  0.500000  0.742996  0.423106  1
  B  B17  1  0.500000  0.257016  0.576933  1
  B  B18  1  0.500000  0.243077  0.076259  1
  B  B19  1  0.500000  0.756928  0.923738  1
  B  B20  1  0.500000  0.803919  0.273445  1
  B  B21  1  0.500000  0.196109  0.726512  1
  B  B22  1  0.500000  0.302223  0.224975  1
  B  B23  1  0.500000  0.697728  0.775011  1
  B  B24  1  0.500000  0.645310  0.187785  1
  B  B25  1  0.500000  0.354769  0.812168  1
  B  B26  1  0.500000  0.144316  0.311318  1
  B  B27  1  0.500000  0.855654  0.688681  1
  B  B28  1  0.500000  0.987061  0.218992  1
  B  B29  1  0.500000  0.012911  0.780968  1
  B  B30  1  0.500000  0.488652  0.280543  1
  B  B31  1  0.500000  0.511507  0.719420  1
  B  B32  1  0.500000  0.643361  0.039364  1
  B  B33  1  0.500000  0.356704  0.960618  1
  B  B34  1  0.500000  0.139903  0.461043  1
  B  B35  1  0.500000  0.859830  0.539101  1
