# generated using pymatgen
data_Y5P12PdRu18
_symmetry_space_group_name_H-M   'P 1'
_cell_length_a   12.60739064
_cell_length_b   12.49162288
_cell_length_c   3.98874200
_cell_angle_alpha   90.00000000
_cell_angle_beta   90.00000000
_cell_angle_gamma   119.69670206
_symmetry_Int_Tables_number   1
_chemical_formula_structural   Y5P12PdRu18
_chemical_formula_sum   'Y5 P12 Pd1 Ru18'
_cell_volume   545.66972586
_cell_formula_units_Z   1
loop_
 _symmetry_equiv_pos_site_id
 _symmetry_equiv_pos_as_xyz
  1  'x, y, z'
loop_
 _atom_site_type_symbol
 _atom_site_label
 _atom_site_symmetry_multiplicity
 _atom_site_fract_x
 _atom_site_fract_y
 _atom_site_fract_z
 _atom_site_occupancy
  Y  Y0  1  0.000000  0.182544  0.500000  1
  Y  Y1  1  0.816299  0.816461  0.500000  1
  Y  Y2  1  0.183701  0.000162  0.500000  1
  Y  Y3  1  0.662154  0.330363  0.000000  1
  Y  Y4  1  0.337846  0.668210  0.000000  1
  P  P5  1  0.000000  0.812448  0.000000  1
  P  P6  1  0.183869  0.184508  0.000000  1
  P  P7  1  0.816131  0.000639  0.000000  1
  P  P8  1  0.693146  0.173063  0.500000  1
  P  P9  1  0.819840  0.520002  0.500000  1
  P  P10  1  0.475106  0.305596  0.500000  1
  P  P11  1  0.180160  0.700163  0.500000  1
  P  P12  1  0.524894  0.830490  0.500000  1
  P  P13  1  0.306854  0.479917  0.500000  1
  P  P14  1  0.000000  0.364844  0.000000  1
  P  P15  1  0.626624  0.626572  0.000000  1
  P  P16  1  0.373376  0.999949  0.000000  1
  Pd  Pd17  1  0.000000  0.552018  0.000000  1
  Ru  Ru18  1  0.444890  0.445756  0.000000  1
  Ru  Ru19  1  0.555110  0.000866  0.000000  1
  Ru  Ru20  1  0.000000  0.712802  0.500000  1
  Ru  Ru21  1  0.282090  0.283839  0.500000  1
  Ru  Ru22  1  0.717910  0.001749  0.500000  1
  Ru  Ru23  1  0.806691  0.185842  0.000000  1
  Ru  Ru24  1  0.814069  0.621233  0.000000  1
  Ru  Ru25  1  0.374879  0.190847  0.000000  1
  Ru  Ru26  1  0.185931  0.807163  0.000000  1
  Ru  Ru27  1  0.625121  0.815967  0.000000  1
  Ru  Ru28  1  0.193309  0.379150  0.000000  1
  Ru  Ru29  1  0.873977  0.367385  0.500000  1
  Ru  Ru30  1  0.630506  0.507937  0.500000  1
  Ru  Ru31  1  0.492411  0.127220  0.500000  1
  Ru  Ru32  1  0.369494  0.877431  0.500000  1
  Ru  Ru33  1  0.507589  0.634809  0.500000  1
  Ru  Ru34  1  0.126023  0.493409  0.500000  1
  Ru  Ru35  1  0.000000  0.998647  0.000000  1
