# generated using pymatgen
data_Tm2USn3Ir2Rh
_symmetry_space_group_name_H-M   'P 1'
_cell_length_a   7.48183844
_cell_length_b   7.58614728
_cell_length_c   3.85350200
_cell_angle_alpha   90.00000000
_cell_angle_beta   90.00000000
_cell_angle_gamma   120.46226797
_symmetry_Int_Tables_number   1
_chemical_formula_structural   Tm2USn3Ir2Rh
_chemical_formula_sum   'Tm2 U1 Sn3 Ir2 Rh1'
_cell_volume   188.52715590
_cell_formula_units_Z   1
loop_
 _symmetry_equiv_pos_site_id
 _symmetry_equiv_pos_as_xyz
  1  'x, y, z'
loop_
 _atom_site_type_symbol
 _atom_site_label
 _atom_site_symmetry_multiplicity
 _atom_site_fract_x
 _atom_site_fract_y
 _atom_site_fract_z
 _atom_site_occupancy
  Tm  Tm0  1  0.593442  0.593547  0.000000  1
  Tm  Tm1  1  0.406558  0.000105  0.000000  1
  U  U2  1  0.000000  0.415986  0.000000  1
  Sn  Sn3  1  0.271734  0.258309  0.500000  1
  Sn  Sn4  1  0.000000  0.755399  0.500000  1
  Sn  Sn5  1  0.728266  0.986575  0.500000  1
  Ir  Ir6  1  0.695034  0.336414  0.500000  1
  Ir  Ir7  1  0.304966  0.641382  0.500000  1
  Rh  Rh8  1  0.000000  0.012281  0.000000  1
