# generated using pymatgen
data_Tb3MgPaNi4Hg
_symmetry_space_group_name_H-M   'P 1'
_cell_length_a   7.48855832
_cell_length_b   7.47310047
_cell_length_c   3.57152700
_cell_angle_alpha   90.00000000
_cell_angle_beta   90.00000000
_cell_angle_gamma   92.25000169
_symmetry_Int_Tables_number   1
_chemical_formula_structural   Tb3MgPaNi4Hg
_chemical_formula_sum   'Tb3 Mg1 Pa1 Ni4 Hg1'
_cell_volume   199.71837348
_cell_formula_units_Z   1
loop_
 _symmetry_equiv_pos_site_id
 _symmetry_equiv_pos_as_xyz
  1  'x, y, z'
loop_
 _atom_site_type_symbol
 _atom_site_label
 _atom_site_symmetry_multiplicity
 _atom_site_fract_x
 _atom_site_fract_y
 _atom_site_fract_z
 _atom_site_occupancy
  Tb  Tb0  1  0.320275  0.831209  0.500000  1
  Tb  Tb1  1  0.168525  0.323917  0.500000  1
  Tb  Tb2  1  0.836162  0.674336  0.500000  1
  Mg  Mg3  1  0.497942  0.505126  0.000000  1
  Pa  Pa4  1  0.670280  0.169707  0.500000  1
  Ni  Ni5  1  0.118013  0.607081  0.000000  1
  Ni  Ni6  1  0.856646  0.361869  0.000000  1
  Ni  Ni7  1  0.626768  0.893861  0.000000  1
  Ni  Ni8  1  0.401328  0.134996  0.000000  1
  Hg  Hg9  1  0.004062  0.997898  0.000000  1
