# generated using pymatgen
data_LuIO5
_symmetry_space_group_name_H-M   'P 1'
_cell_length_a   5.54833800
_cell_length_b   5.60207894
_cell_length_c   15.53534423
_cell_angle_alpha   67.32669811
_cell_angle_beta   90.00000000
_cell_angle_gamma   90.00000000
_symmetry_Int_Tables_number   1
_chemical_formula_structural   LuIO5
_chemical_formula_sum   'Lu4 I4 O20'
_cell_volume   445.55561213
_cell_formula_units_Z   4
loop_
 _symmetry_equiv_pos_site_id
 _symmetry_equiv_pos_as_xyz
  1  'x, y, z'
loop_
 _atom_site_type_symbol
 _atom_site_label
 _atom_site_symmetry_multiplicity
 _atom_site_fract_x
 _atom_site_fract_y
 _atom_site_fract_z
 _atom_site_occupancy
  Lu  Lu0  1  0.549006  0.736115  0.277157  1
  Lu  Lu1  1  0.950994  0.736115  0.777157  1
  Lu  Lu2  1  0.450994  0.263885  0.722843  1
  Lu  Lu3  1  0.049006  0.263885  0.222843  1
  I  I4  1  0.527753  0.114556  0.393913  1
  I  I5  1  0.972247  0.114556  0.893913  1
  I  I6  1  0.472247  0.885444  0.606087  1
  I  I7  1  0.027753  0.885444  0.106087  1
  O  O8  1  0.690195  0.869268  0.505984  1
  O  O9  1  0.809805  0.869268  0.005984  1
  O  O10  1  0.309805  0.130732  0.494016  1
  O  O11  1  0.190195  0.130732  0.994016  1
  O  O12  1  0.336222  0.867501  0.374491  1
  O  O13  1  0.163778  0.867501  0.874491  1
  O  O14  1  0.663778  0.132499  0.625509  1
  O  O15  1  0.836222  0.132499  0.125509  1
  O  O16  1  0.335891  0.371128  0.300750  1
  O  O17  1  0.164109  0.371128  0.800750  1
  O  O18  1  0.664109  0.628872  0.699250  1
  O  O19  1  0.835891  0.628872  0.199250  1
  O  O20  1  0.711390  0.392374  0.390207  1
  O  O21  1  0.788610  0.392374  0.890207  1
  O  O22  1  0.288610  0.607626  0.609793  1
  O  O23  1  0.211390  0.607626  0.109793  1
  O  O24  1  0.752344  0.038425  0.313412  1
  O  O25  1  0.747656  0.038425  0.813412  1
  O  O26  1  0.247656  0.961575  0.686588  1
  O  O27  1  0.252344  0.961575  0.186588  1
