# generated using pymatgen
data_Y2B4Ir3Rh2
_symmetry_space_group_name_H-M   'P 1'
_cell_length_a   7.53082506
_cell_length_b   6.32114228
_cell_length_c   5.63105968
_cell_angle_alpha   77.87553369
_cell_angle_beta   55.14949996
_cell_angle_gamma   46.97495425
_symmetry_Int_Tables_number   1
_chemical_formula_structural   Y2B4Ir3Rh2
_chemical_formula_sum   'Y2 B4 Ir3 Rh2'
_cell_volume   153.42024119
_cell_formula_units_Z   1
loop_
 _symmetry_equiv_pos_site_id
 _symmetry_equiv_pos_as_xyz
  1  'x, y, z'
loop_
 _atom_site_type_symbol
 _atom_site_label
 _atom_site_symmetry_multiplicity
 _atom_site_fract_x
 _atom_site_fract_y
 _atom_site_fract_z
 _atom_site_occupancy
  Y  Y0  1  0.857101  0.857101  0.142899  1
  Y  Y1  1  0.142899  0.142899  0.857101  1
  B  B2  1  0.787339  0.482079  0.517921  1
  B  B3  1  0.212661  0.517921  0.482079  1
  B  B4  1  0.517921  0.212661  0.787339  1
  B  B5  1  0.482079  0.787339  0.212661  1
  Ir  Ir6  1  0.750000  0.750000  0.750000  1
  Ir  Ir7  1  0.500000  0.500000  0.500000  1
  Ir  Ir8  1  0.250000  0.250000  0.250000  1
  Rh  Rh9  1  0.500000  0.500000  0.000000  1
  Rh  Rh10  1  0.000000  0.000000  0.500000  1
