# generated using pymatgen
data_La14CoIr3Pd2
_symmetry_space_group_name_H-M   'P 1'
_cell_length_a   6.58912038
_cell_length_b   10.26882141
_cell_length_c   10.20518213
_cell_angle_alpha   120.35911729
_cell_angle_beta   90.14438658
_cell_angle_gamma   90.18174260
_symmetry_Int_Tables_number   1
_chemical_formula_structural   La14CoIr3Pd2
_chemical_formula_sum   'La14 Co1 Ir3 Pd2'
_cell_volume   595.81208294
_cell_formula_units_Z   1
loop_
 _symmetry_equiv_pos_site_id
 _symmetry_equiv_pos_as_xyz
  1  'x, y, z'
loop_
 _atom_site_type_symbol
 _atom_site_label
 _atom_site_symmetry_multiplicity
 _atom_site_fract_x
 _atom_site_fract_y
 _atom_site_fract_z
 _atom_site_occupancy
  La  La0  1  0.473040  0.333160  0.665518  1
  La  La1  1  0.968115  0.672857  0.345928  1
  La  La2  1  0.246119  0.114094  0.859294  1
  La  La3  1  0.242999  0.750585  0.860288  1
  La  La4  1  0.246613  0.129989  0.258417  1
  La  La5  1  0.735906  0.875270  0.124785  1
  La  La6  1  0.734709  0.248329  0.124172  1
  La  La7  1  0.744275  0.874753  0.751739  1
  La  La8  1  0.433986  0.550399  0.471382  1
  La  La9  1  0.434446  0.919963  0.470436  1
  La  La10  1  0.446850  0.534875  0.066721  1
  La  La11  1  0.927341  0.463106  0.540403  1
  La  La12  1  0.929788  0.078520  0.541014  1
  La  La13  1  0.943070  0.460124  0.924660  1
  Co  Co14  1  0.214600  0.809457  0.625503  1
  Ir  Ir15  1  0.697406  0.189450  0.815081  1
  Ir  Ir16  1  0.695190  0.625759  0.814659  1
  Ir  Ir17  1  0.696224  0.186012  0.370934  1
  Pd  Pd18  1  0.194231  0.808890  0.184530  1
  Pd  Pd19  1  0.197088  0.374407  0.184536  1
