# generated using pymatgen
data_Mn2BeB2Ir4Rh
_symmetry_space_group_name_H-M   'P 1'
_cell_length_a   9.17803000
_cell_length_b   9.17803000
_cell_length_c   2.87199800
_cell_angle_alpha   90.00000000
_cell_angle_beta   90.00000000
_cell_angle_gamma   90.00000000
_symmetry_Int_Tables_number   1
_chemical_formula_structural   Mn2BeB2Ir4Rh
_chemical_formula_sum   'Mn4 Be2 B4 Ir8 Rh2'
_cell_volume   241.92629753
_cell_formula_units_Z   2
loop_
 _symmetry_equiv_pos_site_id
 _symmetry_equiv_pos_as_xyz
  1  'x, y, z'
loop_
 _atom_site_type_symbol
 _atom_site_label
 _atom_site_symmetry_multiplicity
 _atom_site_fract_x
 _atom_site_fract_y
 _atom_site_fract_z
 _atom_site_occupancy
  Mn  Mn0  1  0.676836  0.176836  0.000000  1
  Mn  Mn1  1  0.323164  0.823164  0.000000  1
  Mn  Mn2  1  0.176836  0.323164  0.000000  1
  Mn  Mn3  1  0.823164  0.676836  0.000000  1
  Be  Be4  1  0.000000  0.000000  0.000000  1
  Be  Be5  1  0.500000  0.500000  0.000000  1
  B  B6  1  0.130473  0.630473  0.000000  1
  B  B7  1  0.869527  0.369527  0.000000  1
  B  B8  1  0.630473  0.869527  0.000000  1
  B  B9  1  0.369527  0.130473  0.000000  1
  Ir  Ir10  1  0.205141  0.067090  0.500000  1
  Ir  Ir11  1  0.794859  0.932910  0.500000  1
  Ir  Ir12  1  0.067090  0.794859  0.500000  1
  Ir  Ir13  1  0.705141  0.432910  0.500000  1
  Ir  Ir14  1  0.932910  0.205141  0.500000  1
  Ir  Ir15  1  0.294859  0.567090  0.500000  1
  Ir  Ir16  1  0.567090  0.705141  0.500000  1
  Ir  Ir17  1  0.432910  0.294859  0.500000  1
  Rh  Rh18  1  0.500000  0.000000  0.500000  1
  Rh  Rh19  1  0.000000  0.500000  0.500000  1
