# generated using pymatgen
data_Yb6Pa2Pd24Pb
_symmetry_space_group_name_H-M   'P 1'
_cell_length_a   8.38861375
_cell_length_b   8.38861375
_cell_length_c   8.38861375
_cell_angle_alpha   89.28370203
_cell_angle_beta   89.28370203
_cell_angle_gamma   89.28370203
_symmetry_Int_Tables_number   1
_chemical_formula_structural   Yb6Pa2Pd24Pb
_chemical_formula_sum   'Yb6 Pa2 Pd24 Pb1'
_cell_volume   590.15977985
_cell_formula_units_Z   1
loop_
 _symmetry_equiv_pos_site_id
 _symmetry_equiv_pos_as_xyz
  1  'x, y, z'
loop_
 _atom_site_type_symbol
 _atom_site_label
 _atom_site_symmetry_multiplicity
 _atom_site_fract_x
 _atom_site_fract_y
 _atom_site_fract_z
 _atom_site_occupancy
  Yb  Yb0  1  0.748487  0.748487  0.249486  1
  Yb  Yb1  1  0.748487  0.249486  0.748487  1
  Yb  Yb2  1  0.251513  0.251513  0.750514  1
  Yb  Yb3  1  0.251513  0.750514  0.251513  1
  Yb  Yb4  1  0.249486  0.748487  0.748487  1
  Yb  Yb5  1  0.750514  0.251513  0.251513  1
  Pa  Pa6  1  0.259698  0.259698  0.259698  1
  Pa  Pa7  1  0.740302  0.740302  0.740302  1
  Pd  Pd8  1  0.266876  0.499016  0.005645  1
  Pd  Pd9  1  0.733124  0.500984  0.994355  1
  Pd  Pd10  1  0.005645  0.266876  0.499016  1
  Pd  Pd11  1  0.499016  0.266876  0.005645  1
  Pd  Pd12  1  0.994355  0.733124  0.500984  1
  Pd  Pd13  1  0.500984  0.733124  0.994355  1
  Pd  Pd14  1  0.499016  0.005645  0.266876  1
  Pd  Pd15  1  0.266876  0.005645  0.499016  1
  Pd  Pd16  1  0.500984  0.994355  0.733124  1
  Pd  Pd17  1  0.733124  0.994355  0.500984  1
  Pd  Pd18  1  0.005645  0.499016  0.266876  1
  Pd  Pd19  1  0.994355  0.500984  0.733124  1
  Pd  Pd20  1  0.255211  0.498872  0.498872  1
  Pd  Pd21  1  0.744789  0.501128  0.501128  1
  Pd  Pd22  1  0.498872  0.255211  0.498872  1
  Pd  Pd23  1  0.501128  0.744789  0.501128  1
  Pd  Pd24  1  0.498872  0.498872  0.255211  1
  Pd  Pd25  1  0.501128  0.501128  0.744789  1
  Pd  Pd26  1  0.315291  0.002395  0.002395  1
  Pd  Pd27  1  0.684709  0.997605  0.997605  1
  Pd  Pd28  1  0.002395  0.315291  0.002395  1
  Pd  Pd29  1  0.997605  0.684709  0.997605  1
  Pd  Pd30  1  0.002395  0.002395  0.315291  1
  Pd  Pd31  1  0.997605  0.997605  0.684709  1
  Pb  Pb32  1  0.000000  0.000000  0.000000  1
