# generated using pymatgen
data_HoTm15In6CoPt
_symmetry_space_group_name_H-M   'P 1'
_cell_length_a   10.31671300
_cell_length_b   10.31671451
_cell_length_c   6.91463300
_cell_angle_alpha   90.00000000
_cell_angle_beta   90.00000000
_cell_angle_gamma   119.99999835
_symmetry_Int_Tables_number   1
_chemical_formula_structural   HoTm15In6CoPt
_chemical_formula_sum   'Ho1 Tm15 In6 Co1 Pt1'
_cell_volume   637.35667028
_cell_formula_units_Z   1
loop_
 _symmetry_equiv_pos_site_id
 _symmetry_equiv_pos_as_xyz
  1  'x, y, z'
loop_
 _atom_site_type_symbol
 _atom_site_label
 _atom_site_symmetry_multiplicity
 _atom_site_fract_x
 _atom_site_fract_y
 _atom_site_fract_z
 _atom_site_occupancy
  Ho  Ho0  1  0.000000  0.000000  0.990909  1
  Tm  Tm1  1  0.530771  0.061541  0.508458  1
  Tm  Tm2  1  0.938459  0.469229  0.508458  1
  Tm  Tm3  1  0.530771  0.469229  0.508458  1
  Tm  Tm4  1  0.464197  0.928395  0.005768  1
  Tm  Tm5  1  0.071605  0.535803  0.005768  1
  Tm  Tm6  1  0.464197  0.535803  0.005768  1
  Tm  Tm7  1  0.178497  0.356993  0.713611  1
  Tm  Tm8  1  0.643007  0.821503  0.713611  1
  Tm  Tm9  1  0.178497  0.821503  0.713611  1
  Tm  Tm10  1  0.824252  0.648504  0.212842  1
  Tm  Tm11  1  0.351496  0.175748  0.212842  1
  Tm  Tm12  1  0.824252  0.175748  0.212842  1
  Tm  Tm13  1  0.666667  0.333333  0.884107  1
  Tm  Tm14  1  0.333333  0.666667  0.396553  1
  Tm  Tm15  1  0.000000  0.000000  0.492238  1
  In  In16  1  0.837726  0.675453  0.750586  1
  In  In17  1  0.324547  0.162274  0.750586  1
  In  In18  1  0.837726  0.162274  0.750586  1
  In  In19  1  0.162916  0.325833  0.252264  1
  In  In20  1  0.674167  0.837084  0.252264  1
  In  In21  1  0.162916  0.837084  0.252264  1
  Co  Co22  1  0.333333  0.666667  0.781594  1
  Pt  Pt23  1  0.666667  0.333333  0.282050  1
