# generated using pymatgen
data_Er7Tm13(Zn3Ru)2
_symmetry_space_group_name_H-M   'P 1'
_cell_length_a   9.30278315
_cell_length_b   9.30051006
_cell_length_c   9.49985008
_cell_angle_alpha   90.00000129
_cell_angle_beta   90.01256081
_cell_angle_gamma   119.99191898
_symmetry_Int_Tables_number   1
_chemical_formula_structural   Er7Tm13(Zn3Ru)2
_chemical_formula_sum   'Er7 Tm13 Zn6 Ru2'
_cell_volume   711.87278872
_cell_formula_units_Z   1
loop_
 _symmetry_equiv_pos_site_id
 _symmetry_equiv_pos_as_xyz
  1  'x, y, z'
loop_
 _atom_site_type_symbol
 _atom_site_label
 _atom_site_symmetry_multiplicity
 _atom_site_fract_x
 _atom_site_fract_y
 _atom_site_fract_z
 _atom_site_occupancy
  Er  Er0  1  0.584591  0.792296  0.057967  1
  Er  Er1  1  0.540813  0.458832  0.250089  1
  Er  Er2  1  0.540813  0.081981  0.250089  1
  Er  Er3  1  0.918250  0.459125  0.249956  1
  Er  Er4  1  0.459050  0.540694  0.749886  1
  Er  Er5  1  0.459050  0.918356  0.749886  1
  Er  Er6  1  0.081759  0.540880  0.749972  1
  Tm  Tm7  1  0.000017  0.000009  0.499945  1
  Tm  Tm8  1  0.000251  0.000125  0.999948  1
  Tm  Tm9  1  0.207711  0.792177  0.442025  1
  Tm  Tm10  1  0.207711  0.415534  0.442025  1
  Tm  Tm11  1  0.584532  0.792266  0.442170  1
  Tm  Tm12  1  0.792236  0.207777  0.557955  1
  Tm  Tm13  1  0.792236  0.584459  0.557955  1
  Tm  Tm14  1  0.415547  0.207774  0.557996  1
  Tm  Tm15  1  0.792353  0.207985  0.941972  1
  Tm  Tm16  1  0.792353  0.584368  0.941972  1
  Tm  Tm17  1  0.415641  0.207821  0.942002  1
  Tm  Tm18  1  0.207571  0.792205  0.058009  1
  Tm  Tm19  1  0.207571  0.415366  0.058009  1
  Zn  Zn20  1  0.886101  0.113950  0.250036  1
  Zn  Zn21  1  0.886101  0.772153  0.250036  1
  Zn  Zn22  1  0.227872  0.113937  0.250016  1
  Zn  Zn23  1  0.113956  0.886095  0.749964  1
  Zn  Zn24  1  0.113956  0.227859  0.749964  1
  Zn  Zn25  1  0.772266  0.886132  0.749910  1
  Ru  Ru26  1  0.332999  0.666500  0.250220  1
  Ru  Ru27  1  0.666690  0.333344  0.750022  1
