# generated using pymatgen
data_Cs2Ca(BSe)9
_symmetry_space_group_name_H-M   'P 1'
_cell_length_a   10.11274480
_cell_length_b   10.95044070
_cell_length_c   11.27099300
_cell_angle_alpha   100.09265560
_cell_angle_beta   90.47927283
_cell_angle_gamma   116.07080494
_symmetry_Int_Tables_number   1
_chemical_formula_structural   Cs2Ca(BSe)9
_chemical_formula_sum   'Cs4 Ca2 B18 Se18'
_cell_volume   1098.63736802
_cell_formula_units_Z   2
loop_
 _symmetry_equiv_pos_site_id
 _symmetry_equiv_pos_as_xyz
  1  'x, y, z'
loop_
 _atom_site_type_symbol
 _atom_site_label
 _atom_site_symmetry_multiplicity
 _atom_site_fract_x
 _atom_site_fract_y
 _atom_site_fract_z
 _atom_site_occupancy
  Cs  Cs0  1  0.200651  0.816133  0.994667  1
  Cs  Cs1  1  0.799349  0.183867  0.005333  1
  Cs  Cs2  1  0.824456  0.650483  0.475262  1
  Cs  Cs3  1  0.175544  0.349517  0.524738  1
  Ca  Ca4  1  0.676457  0.696092  0.907481  1
  Ca  Ca5  1  0.323543  0.303908  0.092519  1
  B  B6  1  0.484611  0.839381  0.450163  1
  B  B7  1  0.515389  0.160619  0.549837  1
  B  B8  1  0.341996  0.883110  0.411699  1
  B  B9  1  0.658004  0.116890  0.588301  1
  B  B10  1  0.516817  0.957110  0.351869  1
  B  B11  1  0.483183  0.042890  0.648131  1
  B  B12  1  0.659167  0.989822  0.464216  1
  B  B13  1  0.340833  0.010178  0.535784  1
  B  B14  1  0.571622  0.936837  0.596616  1
  B  B15  1  0.428378  0.063163  0.403384  1
  B  B16  1  0.378104  0.872243  0.563814  1
  B  B17  1  0.621896  0.127757  0.436186  1
  B  B18  1  0.250407  0.589319  0.292908  1
  B  B19  1  0.749593  0.410681  0.707092  1
  B  B20  1  0.412042  0.711155  0.739327  1
  B  B21  1  0.587958  0.288845  0.260673  1
  B  B22  1  0.756265  0.920499  0.223373  1
  B  B23  1  0.243735  0.079501  0.776627  1
  Se  Se24  1  0.443745  0.643023  0.378825  1
  Se  Se25  1  0.556255  0.356977  0.621175  1
  Se  Se26  1  0.169093  0.725637  0.305218  1
  Se  Se27  1  0.830907  0.274363  0.694782  1
  Se  Se28  1  0.559826  0.905958  0.181312  1
  Se  Se29  1  0.440174  0.094042  0.818688  1
  Se  Se30  1  0.835081  0.972973  0.395541  1
  Se  Se31  1  0.164919  0.027027  0.604459  1
  Se  Se32  1  0.619914  0.838243  0.714577  1
  Se  Se33  1  0.380086  0.161757  0.285423  1
  Se  Se34  1  0.250443  0.721523  0.650292  1
  Se  Se35  1  0.749557  0.278477  0.349708  1
  Se  Se36  1  0.131666  0.403096  0.203280  1
  Se  Se37  1  0.868334  0.596904  0.796720  1
  Se  Se38  1  0.878621  0.896016  0.100541  1
  Se  Se39  1  0.121379  0.103984  0.899459  1
  Se  Se40  1  0.365067  0.581475  0.847390  1
  Se  Se41  1  0.634933  0.418525  0.152610  1
