# generated using pymatgen
data_CrCo4Tc3P4
_symmetry_space_group_name_H-M   'P 1'
_cell_length_a   3.69476900
_cell_length_b   5.71427103
_cell_length_c   6.69830204
_cell_angle_alpha   90.01209130
_cell_angle_beta   90.00000000
_cell_angle_gamma   90.00000000
_symmetry_Int_Tables_number   1
_chemical_formula_structural   CrCo4Tc3P4
_chemical_formula_sum   'Cr1 Co4 Tc3 P4'
_cell_volume   141.42065474
_cell_formula_units_Z   1
loop_
 _symmetry_equiv_pos_site_id
 _symmetry_equiv_pos_as_xyz
  1  'x, y, z'
loop_
 _atom_site_type_symbol
 _atom_site_label
 _atom_site_symmetry_multiplicity
 _atom_site_fract_x
 _atom_site_fract_y
 _atom_site_fract_z
 _atom_site_occupancy
  Cr  Cr0  1  0.250000  0.974586  0.673703  1
  Co  Co1  1  0.750000  0.639828  0.566557  1
  Co  Co2  1  0.750000  0.139938  0.928799  1
  Co  Co3  1  0.250000  0.359216  0.436239  1
  Co  Co4  1  0.250000  0.856975  0.065428  1
  Tc  Tc5  1  0.750000  0.528601  0.171852  1
  Tc  Tc6  1  0.750000  0.026996  0.328125  1
  Tc  Tc7  1  0.250000  0.473818  0.831163  1
  P  P8  1  0.750000  0.262031  0.619496  1
  P  P9  1  0.750000  0.760223  0.880382  1
  P  P10  1  0.250000  0.739872  0.379327  1
  P  P11  1  0.250000  0.237916  0.118929  1
