# generated using pymatgen
data_LaCd3(Os2O7)2
_symmetry_space_group_name_H-M   'P 1'
_cell_length_a   7.31203606
_cell_length_b   7.31203569
_cell_length_c   7.35604262
_cell_angle_alpha   60.19769777
_cell_angle_beta   60.19769647
_cell_angle_gamma   59.99999848
_symmetry_Int_Tables_number   1
_chemical_formula_structural   LaCd3(Os2O7)2
_chemical_formula_sum   'La1 Cd3 Os4 O14'
_cell_volume   278.93124986
_cell_formula_units_Z   1
loop_
 _symmetry_equiv_pos_site_id
 _symmetry_equiv_pos_as_xyz
  1  'x, y, z'
loop_
 _atom_site_type_symbol
 _atom_site_label
 _atom_site_symmetry_multiplicity
 _atom_site_fract_x
 _atom_site_fract_y
 _atom_site_fract_z
 _atom_site_occupancy
  La  La0  1  0.125000  0.125000  0.625000  1
  Cd  Cd1  1  0.125000  0.125000  0.125000  1
  Cd  Cd2  1  0.625000  0.125000  0.125000  1
  Cd  Cd3  1  0.125000  0.625000  0.125000  1
  Os  Os4  1  0.625000  0.625000  0.625000  1
  Os  Os5  1  0.125000  0.625000  0.625000  1
  Os  Os6  1  0.625000  0.125000  0.625000  1
  Os  Os7  1  0.625000  0.625000  0.125000  1
  O  O8  1  0.256117  0.256117  0.231648  1
  O  O9  1  0.993883  0.993883  0.018352  1
  O  O10  1  0.553378  0.947488  0.551646  1
  O  O11  1  0.309836  0.688657  0.312849  1
  O  O12  1  0.561343  0.561343  0.937151  1
  O  O13  1  0.947488  0.553378  0.551646  1
  O  O14  1  0.561343  0.940164  0.937151  1
  O  O15  1  0.947488  0.947488  0.551646  1
  O  O16  1  0.940164  0.561343  0.937151  1
  O  O17  1  0.688657  0.309836  0.312849  1
  O  O18  1  0.302512  0.696622  0.698354  1
  O  O19  1  0.696622  0.302512  0.698354  1
  O  O20  1  0.302512  0.302512  0.698354  1
  O  O21  1  0.688657  0.688657  0.312849  1
