# generated using pymatgen
data_Ce3Zn3CuPdRh
_symmetry_space_group_name_H-M   'P 1'
_cell_length_a   7.21254600
_cell_length_b   7.21254595
_cell_length_c   3.97715800
_cell_angle_alpha   90.00000000
_cell_angle_beta   90.00000000
_cell_angle_gamma   120.00000025
_symmetry_Int_Tables_number   1
_chemical_formula_structural   Ce3Zn3CuPdRh
_chemical_formula_sum   'Ce3 Zn3 Cu1 Pd1 Rh1'
_cell_volume   179.17634115
_cell_formula_units_Z   1
loop_
 _symmetry_equiv_pos_site_id
 _symmetry_equiv_pos_as_xyz
  1  'x, y, z'
loop_
 _atom_site_type_symbol
 _atom_site_label
 _atom_site_symmetry_multiplicity
 _atom_site_fract_x
 _atom_site_fract_y
 _atom_site_fract_z
 _atom_site_occupancy
  Ce  Ce0  1  0.992494  0.410501  0.000000  1
  Ce  Ce1  1  0.589499  0.581993  0.000000  1
  Ce  Ce2  1  0.418007  0.007506  0.000000  1
  Zn  Zn3  1  0.001022  0.765031  0.500000  1
  Zn  Zn4  1  0.234969  0.235990  0.500000  1
  Zn  Zn5  1  0.764010  0.998978  0.500000  1
  Cu  Cu6  1  0.000000  0.000000  0.000000  1
  Pd  Pd7  1  0.333333  0.666667  0.500000  1
  Rh  Rh8  1  0.666667  0.333333  0.500000  1
