# generated using pymatgen
data_Ce4ReTc3B16
_symmetry_space_group_name_H-M   'P 1'
_cell_length_a   3.67883500
_cell_length_b   6.00802300
_cell_length_c   11.63931901
_cell_angle_alpha   90.00425752
_cell_angle_beta   90.00000000
_cell_angle_gamma   90.00000000
_symmetry_Int_Tables_number   1
_chemical_formula_structural   Ce4ReTc3B16
_chemical_formula_sum   'Ce4 Re1 Tc3 B16'
_cell_volume   257.25834224
_cell_formula_units_Z   1
loop_
 _symmetry_equiv_pos_site_id
 _symmetry_equiv_pos_as_xyz
  1  'x, y, z'
loop_
 _atom_site_type_symbol
 _atom_site_label
 _atom_site_symmetry_multiplicity
 _atom_site_fract_x
 _atom_site_fract_y
 _atom_site_fract_z
 _atom_site_occupancy
  Ce  Ce0  1  0.000000  0.126703  0.150464  1
  Ce  Ce1  1  0.000000  0.873039  0.849608  1
  Ce  Ce2  1  0.000000  0.626793  0.350078  1
  Ce  Ce3  1  0.000000  0.373376  0.649757  1
  Re  Re4  1  0.000000  0.363109  0.908812  1
  Tc  Tc5  1  0.000000  0.136096  0.408567  1
  Tc  Tc6  1  0.000000  0.864253  0.591264  1
  Tc  Tc7  1  0.000000  0.636282  0.091256  1
  B  B8  1  0.500000  0.524222  0.809509  1
  B  B9  1  0.500000  0.475927  0.190637  1
  B  B10  1  0.500000  0.024093  0.690369  1
  B  B11  1  0.500000  0.975871  0.309522  1
  B  B12  1  0.500000  0.388215  0.046274  1
  B  B13  1  0.500000  0.611679  0.954041  1
  B  B14  1  0.500000  0.888508  0.453947  1
  B  B15  1  0.500000  0.111652  0.545925  1
  B  B16  1  0.500000  0.214657  0.814925  1
  B  B17  1  0.500000  0.785378  0.184920  1
  B  B18  1  0.500000  0.714663  0.684678  1
  B  B19  1  0.500000  0.285462  0.315289  1
  B  B20  1  0.500000  0.137929  0.968649  1
  B  B21  1  0.500000  0.861908  0.031614  1
  B  B22  1  0.500000  0.638093  0.531517  1
  B  B23  1  0.500000  0.362093  0.468379  1
