# generated using pymatgen
data_LuPa6Cd3O20
_symmetry_space_group_name_H-M   'P 1'
_cell_length_a   10.12543001
_cell_length_b   10.12543163
_cell_length_c   6.59062617
_cell_angle_alpha   83.68355806
_cell_angle_beta   83.68356322
_cell_angle_gamma   141.67610937
_symmetry_Int_Tables_number   1
_chemical_formula_structural   LuPa6Cd3O20
_chemical_formula_sum   'Lu1 Pa6 Cd3 O20'
_cell_volume   394.76769773
_cell_formula_units_Z   1
loop_
 _symmetry_equiv_pos_site_id
 _symmetry_equiv_pos_as_xyz
  1  'x, y, z'
loop_
 _atom_site_type_symbol
 _atom_site_label
 _atom_site_symmetry_multiplicity
 _atom_site_fract_x
 _atom_site_fract_y
 _atom_site_fract_z
 _atom_site_occupancy
  Lu  Lu0  1  0.000000  0.000000  0.500000  1
  Pa  Pa1  1  0.901629  0.098371  0.000000  1
  Pa  Pa2  1  0.400756  0.599244  0.500000  1
  Pa  Pa3  1  0.098371  0.901629  0.000000  1
  Pa  Pa4  1  0.699648  0.300352  0.000000  1
  Pa  Pa5  1  0.599244  0.400756  0.500000  1
  Pa  Pa6  1  0.300352  0.699648  0.000000  1
  Cd  Cd7  1  0.500000  0.500000  0.000000  1
  Cd  Cd8  1  0.201245  0.798755  0.500000  1
  Cd  Cd9  1  0.798755  0.201245  0.500000  1
  O  O10  1  0.267802  0.470101  0.874460  1
  O  O11  1  0.888467  0.888467  0.873296  1
  O  O12  1  0.771832  0.966529  0.366011  1
  O  O13  1  0.033471  0.228168  0.633989  1
  O  O14  1  0.470101  0.267802  0.874460  1
  O  O15  1  0.372863  0.372863  0.389370  1
  O  O16  1  0.627137  0.627137  0.610630  1
  O  O17  1  0.065702  0.667786  0.898410  1
  O  O18  1  0.529899  0.732198  0.125540  1
  O  O19  1  0.966529  0.771832  0.366011  1
  O  O20  1  0.228168  0.033471  0.633989  1
  O  O21  1  0.667786  0.065702  0.898410  1
  O  O22  1  0.111533  0.111533  0.126704  1
  O  O23  1  0.582404  0.192671  0.357370  1
  O  O24  1  0.807329  0.417596  0.642630  1
  O  O25  1  0.417596  0.807329  0.642630  1
  O  O26  1  0.732198  0.529899  0.125540  1
  O  O27  1  0.192671  0.582404  0.357370  1
  O  O28  1  0.332214  0.934298  0.101590  1
  O  O29  1  0.934298  0.332214  0.101590  1
