# generated using pymatgen
data_Hf6Zn15SiAu8
_symmetry_space_group_name_H-M   'P 1'
_cell_length_a   8.89350626
_cell_length_b   8.89350558
_cell_length_c   8.89350700
_cell_angle_alpha   60.00000588
_cell_angle_beta   60.00000840
_cell_angle_gamma   59.99999878
_symmetry_Int_Tables_number   1
_chemical_formula_structural   Hf6Zn15SiAu8
_chemical_formula_sum   'Hf6 Zn15 Si1 Au8'
_cell_volume   497.39806693
_cell_formula_units_Z   1
loop_
 _symmetry_equiv_pos_site_id
 _symmetry_equiv_pos_as_xyz
  1  'x, y, z'
loop_
 _atom_site_type_symbol
 _atom_site_label
 _atom_site_symmetry_multiplicity
 _atom_site_fract_x
 _atom_site_fract_y
 _atom_site_fract_z
 _atom_site_occupancy
  Hf  Hf0  1  0.709841  0.290159  0.290159  1
  Hf  Hf1  1  0.290159  0.709841  0.709841  1
  Hf  Hf2  1  0.290159  0.709841  0.290159  1
  Hf  Hf3  1  0.709841  0.290159  0.709841  1
  Hf  Hf4  1  0.290159  0.290159  0.709841  1
  Hf  Hf5  1  0.709841  0.709841  0.290159  1
  Zn  Zn6  1  0.500000  0.000000  0.000000  1
  Zn  Zn7  1  0.000000  0.500000  0.500000  1
  Zn  Zn8  1  0.000000  0.500000  0.000000  1
  Zn  Zn9  1  0.500000  0.000000  0.500000  1
  Zn  Zn10  1  0.000000  0.000000  0.500000  1
  Zn  Zn11  1  0.500000  0.500000  0.000000  1
  Zn  Zn12  1  0.337093  0.337093  0.337093  1
  Zn  Zn13  1  0.662907  0.662907  0.662907  1
  Zn  Zn14  1  0.337093  0.337093  0.988720  1
  Zn  Zn15  1  0.337093  0.988720  0.337093  1
  Zn  Zn16  1  0.662907  0.662907  0.011280  1
  Zn  Zn17  1  0.662907  0.011280  0.662907  1
  Zn  Zn18  1  0.988720  0.337093  0.337093  1
  Zn  Zn19  1  0.011280  0.662907  0.662907  1
  Zn  Zn20  1  0.000000  0.000000  0.000000  1
  Si  Si21  1  0.500000  0.500000  0.500000  1
  Au  Au22  1  0.121851  0.121851  0.121851  1
  Au  Au23  1  0.878149  0.878149  0.878149  1
  Au  Au24  1  0.121851  0.121851  0.634447  1
  Au  Au25  1  0.121851  0.634447  0.121851  1
  Au  Au26  1  0.878149  0.878149  0.365553  1
  Au  Au27  1  0.878149  0.365553  0.878149  1
  Au  Au28  1  0.634447  0.121851  0.121851  1
  Au  Au29  1  0.365553  0.878149  0.878149  1
