# generated using pymatgen
data_Ta6Co4Si7Ni12
_symmetry_space_group_name_H-M   'P 1'
_cell_length_a   7.93763627
_cell_length_b   7.94018660
_cell_length_c   7.94148803
_cell_angle_alpha   60.00185387
_cell_angle_beta   59.99214179
_cell_angle_gamma   59.98919766
_symmetry_Int_Tables_number   1
_chemical_formula_structural   Ta6Co4Si7Ni12
_chemical_formula_sum   'Ta6 Co4 Si7 Ni12'
_cell_volume   353.87803814
_cell_formula_units_Z   1
loop_
 _symmetry_equiv_pos_site_id
 _symmetry_equiv_pos_as_xyz
  1  'x, y, z'
loop_
 _atom_site_type_symbol
 _atom_site_label
 _atom_site_symmetry_multiplicity
 _atom_site_fract_x
 _atom_site_fract_y
 _atom_site_fract_z
 _atom_site_occupancy
  Ta  Ta0  1  0.796786  0.802593  0.200337  1
  Ta  Ta1  1  0.800761  0.201553  0.798382  1
  Ta  Ta2  1  0.204209  0.802685  0.197565  1
  Ta  Ta3  1  0.800710  0.201569  0.199349  1
  Ta  Ta4  1  0.204262  0.802680  0.795505  1
  Ta  Ta5  1  0.203341  0.199229  0.798709  1
  Co  Co6  1  0.162228  0.164232  0.507542  1
  Co  Co7  1  0.511828  0.161606  0.163277  1
  Co  Co8  1  0.162220  0.164129  0.165973  1
  Co  Co9  1  0.490072  0.834513  0.837678  1
  Si  Si10  1  0.499377  0.499293  0.500621  1
  Si  Si11  1  0.498478  0.001896  0.500556  1
  Si  Si12  1  0.001677  0.499501  0.999090  1
  Si  Si13  1  0.999493  0.000164  0.500236  1
  Si  Si14  1  0.498622  0.001838  0.998964  1
  Si  Si15  1  0.001647  0.499423  0.499840  1
  Si  Si16  1  0.499343  0.499032  0.000785  1
  Ni  Ni17  1  0.833136  0.831673  0.834272  1
  Ni  Ni18  1  0.833016  0.831733  0.501056  1
  Ni  Ni19  1  0.166019  0.496828  0.168650  1
  Ni  Ni20  1  0.617934  0.146784  0.617633  1
  Ni  Ni21  1  0.383189  0.382238  0.852652  1
  Ni  Ni22  1  0.850434  0.383313  0.383135  1
  Ni  Ni23  1  0.383121  0.382212  0.381896  1
  Ni  Ni24  1  0.149604  0.617332  0.616513  1
  Ni  Ni25  1  0.617344  0.617055  0.616602  1
  Ni  Ni26  1  0.617294  0.617083  0.148958  1
  Ni  Ni27  1  0.382576  0.853500  0.381953  1
  Ni  Ni28  1  0.831280  0.504310  0.832270  1
