# generated using pymatgen
data_Ca7Tm(OsC2)4
_symmetry_space_group_name_H-M   'P 1'
_cell_length_a   5.16861300
_cell_length_b   6.52798518
_cell_length_c   10.29204510
_cell_angle_alpha   90.24757332
_cell_angle_beta   90.00000000
_cell_angle_gamma   90.00000000
_symmetry_Int_Tables_number   1
_chemical_formula_structural   Ca7Tm(OsC2)4
_chemical_formula_sum   'Ca7 Tm1 Os4 C8'
_cell_volume   347.25683449
_cell_formula_units_Z   1
loop_
 _symmetry_equiv_pos_site_id
 _symmetry_equiv_pos_as_xyz
  1  'x, y, z'
loop_
 _atom_site_type_symbol
 _atom_site_label
 _atom_site_symmetry_multiplicity
 _atom_site_fract_x
 _atom_site_fract_y
 _atom_site_fract_z
 _atom_site_occupancy
  Ca  Ca0  1  0.750000  0.306681  0.450911  1
  Ca  Ca1  1  0.750000  0.807110  0.050891  1
  Ca  Ca2  1  0.250000  0.189790  0.948394  1
  Ca  Ca3  1  0.250000  0.535451  0.219568  1
  Ca  Ca4  1  0.750000  0.464679  0.781235  1
  Ca  Ca5  1  0.750000  0.965547  0.723460  1
  Ca  Ca6  1  0.250000  0.036163  0.278909  1
  Tm  Tm7  1  0.250000  0.679441  0.553408  1
  Os  Os8  1  0.250000  0.730267  0.848619  1
  Os  Os9  1  0.750000  0.267338  0.150923  1
  Os  Os10  1  0.750000  0.767691  0.354089  1
  Os  Os11  1  0.250000  0.230508  0.646233  1
  C  C12  1  0.250000  0.468882  0.754204  1
  C  C13  1  0.750000  0.532008  0.241796  1
  C  C14  1  0.750000  0.029831  0.260805  1
  C  C15  1  0.250000  0.961479  0.732213  1
  C  C16  1  0.250000  0.792164  0.023613  1
  C  C17  1  0.750000  0.210051  0.974659  1
  C  C18  1  0.750000  0.706398  0.531465  1
  C  C19  1  0.250000  0.318521  0.474603  1
