# generated using pymatgen
data_Sr2SiSn3Pd4
_symmetry_space_group_name_H-M   'P 1'
_cell_length_a   4.53125600
_cell_length_b   4.53125600
_cell_length_c   10.91820000
_cell_angle_alpha   90.00000000
_cell_angle_beta   90.00000000
_cell_angle_gamma   90.00000000
_symmetry_Int_Tables_number   1
_chemical_formula_structural   Sr2SiSn3Pd4
_chemical_formula_sum   'Sr2 Si1 Sn3 Pd4'
_cell_volume   224.17554973
_cell_formula_units_Z   1
loop_
 _symmetry_equiv_pos_site_id
 _symmetry_equiv_pos_as_xyz
  1  'x, y, z'
loop_
 _atom_site_type_symbol
 _atom_site_label
 _atom_site_symmetry_multiplicity
 _atom_site_fract_x
 _atom_site_fract_y
 _atom_site_fract_z
 _atom_site_occupancy
  Sr  Sr0  1  0.000000  0.500000  0.257124  1
  Sr  Sr1  1  0.500000  0.000000  0.740820  1
  Si  Si2  1  0.000000  0.500000  0.615387  1
  Sn  Sn3  1  0.000000  0.000000  0.993316  1
  Sn  Sn4  1  0.500000  0.500000  0.993316  1
  Sn  Sn5  1  0.500000  0.000000  0.383621  1
  Pd  Pd6  1  0.000000  0.000000  0.518738  1
  Pd  Pd7  1  0.500000  0.500000  0.518738  1
  Pd  Pd8  1  0.000000  0.500000  0.839621  1
  Pd  Pd9  1  0.500000  0.000000  0.139318  1
