# generated using pymatgen
data_SmCu2AgPt2
_symmetry_space_group_name_H-M   'P 1'
_cell_length_a   5.50672857
_cell_length_b   5.22831199
_cell_length_c   5.22831219
_cell_angle_alpha   58.41032075
_cell_angle_beta   58.22225111
_cell_angle_gamma   58.22224535
_symmetry_Int_Tables_number   1
_chemical_formula_structural   SmCu2AgPt2
_chemical_formula_sum   'Sm1 Cu2 Ag1 Pt2'
_cell_volume   102.25746183
_cell_formula_units_Z   1
loop_
 _symmetry_equiv_pos_site_id
 _symmetry_equiv_pos_as_xyz
  1  'x, y, z'
loop_
 _atom_site_type_symbol
 _atom_site_label
 _atom_site_symmetry_multiplicity
 _atom_site_fract_x
 _atom_site_fract_y
 _atom_site_fract_z
 _atom_site_occupancy
  Sm  Sm0  1  0.996459  0.003541  0.003541  1
  Cu  Cu1  1  0.379091  0.871391  0.370426  1
  Cu  Cu2  1  0.379091  0.370426  0.871391  1
  Ag  Ag3  1  0.742929  0.757071  0.757071  1
  Pt  Pt4  1  0.376734  0.373785  0.373785  1
  Pt  Pt5  1  0.875695  0.373785  0.373785  1
