# generated using pymatgen
data_CaTb5Pd6
_symmetry_space_group_name_H-M   'P 1'
_cell_length_a   5.62888134
_cell_length_b   4.58623100
_cell_length_c   21.48463772
_cell_angle_alpha   90.00000000
_cell_angle_beta   96.46256204
_cell_angle_gamma   90.00000000
_symmetry_Int_Tables_number   1
_chemical_formula_structural   CaTb5Pd6
_chemical_formula_sum   'Ca2 Tb10 Pd12'
_cell_volume   551.10908825
_cell_formula_units_Z   2
loop_
 _symmetry_equiv_pos_site_id
 _symmetry_equiv_pos_as_xyz
  1  'x, y, z'
loop_
 _atom_site_type_symbol
 _atom_site_label
 _atom_site_symmetry_multiplicity
 _atom_site_fract_x
 _atom_site_fract_y
 _atom_site_fract_z
 _atom_site_occupancy
  Ca  Ca0  1  0.828649  0.250001  0.894126  1
  Ca  Ca1  1  0.329593  0.750000  0.938606  1
  Tb  Tb2  1  0.666208  0.250001  0.063051  1
  Tb  Tb3  1  0.173912  0.750000  0.107765  1
  Tb  Tb4  1  0.513575  0.250001  0.229019  1
  Tb  Tb5  1  0.034439  0.750000  0.273762  1
  Tb  Tb6  1  0.803624  0.250001  0.394930  1
  Tb  Tb7  1  0.325520  0.750000  0.438790  1
  Tb  Tb8  1  0.673708  0.250001  0.560265  1
  Tb  Tb9  1  0.195425  0.750000  0.604368  1
  Tb  Tb10  1  0.966548  0.250001  0.725225  1
  Tb  Tb11  1  0.489869  0.750000  0.770686  1
  Pd  Pd12  1  0.155272  0.250001  0.021379  1
  Pd  Pd13  1  0.684917  0.750000  0.154295  1
  Pd  Pd14  1  0.002075  0.250001  0.182775  1
  Pd  Pd15  1  0.565157  0.750000  0.319310  1
  Pd  Pd16  1  0.272090  0.250001  0.347574  1
  Pd  Pd17  1  0.838994  0.750000  0.485790  1
  Pd  Pd18  1  0.161940  0.250001  0.514014  1
  Pd  Pd19  1  0.725863  0.750000  0.650951  1
  Pd  Pd20  1  0.435302  0.250001  0.679899  1
  Pd  Pd21  1  0.000370  0.750000  0.811329  1
  Pd  Pd22  1  0.311787  0.250001  0.838722  1
  Pd  Pd23  1  0.845167  0.750000  0.993368  1
