# generated using pymatgen
data_Tm2Al9ReNiPd
_symmetry_space_group_name_H-M   'P 1'
_cell_length_a   7.53614449
_cell_length_b   7.53614471
_cell_length_c   9.46390500
_cell_angle_alpha   89.91921265
_cell_angle_beta   89.91921265
_cell_angle_gamma   118.25948537
_symmetry_Int_Tables_number   1
_chemical_formula_structural   Tm2Al9ReNiPd
_chemical_formula_sum   'Tm4 Al18 Re2 Ni2 Pd2'
_cell_volume   473.42433981
_cell_formula_units_Z   2
loop_
 _symmetry_equiv_pos_site_id
 _symmetry_equiv_pos_as_xyz
  1  'x, y, z'
loop_
 _atom_site_type_symbol
 _atom_site_label
 _atom_site_symmetry_multiplicity
 _atom_site_fract_x
 _atom_site_fract_y
 _atom_site_fract_z
 _atom_site_occupancy
  Tm  Tm0  1  0.993479  0.687027  0.248339  1
  Tm  Tm1  1  0.006521  0.312973  0.751661  1
  Tm  Tm2  1  0.687027  0.993479  0.248339  1
  Tm  Tm3  1  0.312973  0.006521  0.751661  1
  Al  Al4  1  0.137329  0.137329  0.248463  1
  Al  Al5  1  0.862671  0.862671  0.751537  1
  Al  Al6  1  0.997594  0.340716  0.074356  1
  Al  Al7  1  0.002406  0.659284  0.925644  1
  Al  Al8  1  0.997236  0.662295  0.578153  1
  Al  Al9  1  0.337705  0.002764  0.421847  1
  Al  Al10  1  0.002764  0.337705  0.421847  1
  Al  Al11  1  0.662295  0.997236  0.578153  1
  Al  Al12  1  0.659284  0.002406  0.925644  1
  Al  Al13  1  0.340716  0.997594  0.074356  1
  Al  Al14  1  0.331064  0.331064  0.550368  1
  Al  Al15  1  0.668936  0.668936  0.449632  1
  Al  Al16  1  0.666631  0.666631  0.042464  1
  Al  Al17  1  0.333369  0.333369  0.957536  1
  Al  Al18  1  0.344762  0.559911  0.242111  1
  Al  Al19  1  0.655238  0.440089  0.757889  1
  Al  Al20  1  0.559911  0.344762  0.242111  1
  Al  Al21  1  0.440089  0.655238  0.757889  1
  Re  Re22  1  0.000000  0.000000  0.000000  1
  Re  Re23  1  0.000000  0.000000  0.500000  1
  Ni  Ni24  1  0.670562  0.329438  0.000000  1
  Ni  Ni25  1  0.329438  0.670562  0.000000  1
  Pd  Pd26  1  0.328653  0.671347  0.500000  1
  Pd  Pd27  1  0.671347  0.328653  0.500000  1
