# generated using pymatgen
data_La3Tb17(TcSb2)4
_symmetry_space_group_name_H-M   'P 1'
_cell_length_a   8.07892059
_cell_length_b   9.12824000
_cell_length_c   12.14812146
_cell_angle_alpha   90.00000000
_cell_angle_beta   90.39995222
_cell_angle_gamma   90.00000000
_symmetry_Int_Tables_number   1
_chemical_formula_structural   La3Tb17(TcSb2)4
_chemical_formula_sum   'La3 Tb17 Tc4 Sb8'
_cell_volume   895.85750023
_cell_formula_units_Z   1
loop_
 _symmetry_equiv_pos_site_id
 _symmetry_equiv_pos_as_xyz
  1  'x, y, z'
loop_
 _atom_site_type_symbol
 _atom_site_label
 _atom_site_symmetry_multiplicity
 _atom_site_fract_x
 _atom_site_fract_y
 _atom_site_fract_z
 _atom_site_occupancy
  La  La0  1  0.155164  0.750000  0.203527  1
  La  La1  1  0.651296  0.250000  0.301483  1
  La  La2  1  0.845554  0.250000  0.796753  1
  Tb  Tb3  1  0.342833  0.750000  0.709777  1
  Tb  Tb4  1  0.456648  0.750000  0.996677  1
  Tb  Tb5  1  0.959185  0.250000  0.506457  1
  Tb  Tb6  1  0.542088  0.250000  0.002786  1
  Tb  Tb7  1  0.050150  0.750000  0.497165  1
  Tb  Tb8  1  0.627024  0.750000  0.303300  1
  Tb  Tb9  1  0.127133  0.250000  0.195290  1
  Tb  Tb10  1  0.373732  0.250000  0.695271  1
  Tb  Tb11  1  0.874260  0.750000  0.802878  1
  Tb  Tb12  1  0.818426  0.964922  0.065948  1
  Tb  Tb13  1  0.318332  0.033265  0.434237  1
  Tb  Tb14  1  0.181684  0.465021  0.933267  1
  Tb  Tb15  1  0.677321  0.540082  0.566566  1
  Tb  Tb16  1  0.181684  0.034979  0.933267  1
  Tb  Tb17  1  0.677321  0.959918  0.566566  1
  Tb  Tb18  1  0.818426  0.535078  0.065948  1
  Tb  Tb19  1  0.318332  0.466735  0.434237  1
  Tc  Tc20  1  0.422729  0.750000  0.487238  1
  Tc  Tc21  1  0.923601  0.250000  0.003305  1
  Tc  Tc22  1  0.577163  0.250000  0.506035  1
  Tc  Tc23  1  0.074941  0.750000  0.993883  1
  Sb  Sb24  1  0.930484  0.994656  0.330834  1
  Sb  Sb25  1  0.428613  0.007529  0.168717  1
  Sb  Sb26  1  0.076996  0.496955  0.670922  1
  Sb  Sb27  1  0.566393  0.509421  0.828595  1
  Sb  Sb28  1  0.076996  0.003045  0.670922  1
  Sb  Sb29  1  0.566393  0.990579  0.828595  1
  Sb  Sb30  1  0.930484  0.505344  0.330834  1
  Sb  Sb31  1  0.428613  0.492471  0.168717  1
