# generated using pymatgen
data_Pa6Ti2Sn9Sb
_symmetry_space_group_name_H-M   'P 1'
_cell_length_a   9.18465500
_cell_length_b   9.19243141
_cell_length_c   6.13468700
_cell_angle_alpha   90.00000000
_cell_angle_beta   90.00000000
_cell_angle_gamma   119.97201629
_symmetry_Int_Tables_number   1
_chemical_formula_structural   Pa6Ti2Sn9Sb
_chemical_formula_sum   'Pa6 Ti2 Sn9 Sb1'
_cell_volume   448.68203506
_cell_formula_units_Z   1
loop_
 _symmetry_equiv_pos_site_id
 _symmetry_equiv_pos_as_xyz
  1  'x, y, z'
loop_
 _atom_site_type_symbol
 _atom_site_label
 _atom_site_symmetry_multiplicity
 _atom_site_fract_x
 _atom_site_fract_y
 _atom_site_fract_z
 _atom_site_occupancy
  Pa  Pa0  1  0.609629  0.000000  0.750000  1
  Pa  Pa1  1  0.387104  0.000000  0.250000  1
  Pa  Pa2  1  0.003431  0.616351  0.750000  1
  Pa  Pa3  1  0.998907  0.385796  0.250000  1
  Pa  Pa4  1  0.387080  0.383649  0.750000  1
  Pa  Pa5  1  0.613111  0.614204  0.250000  1
  Ti  Ti6  1  0.000397  0.000000  0.499258  1
  Ti  Ti7  1  0.000397  0.000000  0.000742  1
  Sn  Sn8  1  0.737037  0.000000  0.250000  1
  Sn  Sn9  1  0.999512  0.262947  0.750000  1
  Sn  Sn10  1  0.998681  0.735771  0.250000  1
  Sn  Sn11  1  0.736565  0.737053  0.750000  1
  Sn  Sn12  1  0.262910  0.264229  0.250000  1
  Sn  Sn13  1  0.333366  0.664640  0.499640  1
  Sn  Sn14  1  0.668727  0.335360  0.499640  1
  Sn  Sn15  1  0.668727  0.335360  0.000360  1
  Sn  Sn16  1  0.333366  0.664640  0.000360  1
  Sb  Sb17  1  0.261054  0.000000  0.750000  1
