# generated using pymatgen
data_Y8Nb12Si15Sn
_symmetry_space_group_name_H-M   'P 1'
_cell_length_a   6.92400866
_cell_length_b   7.11881571
_cell_length_c   13.54159574
_cell_angle_alpha   90.12343033
_cell_angle_beta   89.78817119
_cell_angle_gamma   90.03018543
_symmetry_Int_Tables_number   1
_chemical_formula_structural   Y8Nb12Si15Sn
_chemical_formula_sum   'Y8 Nb12 Si15 Sn1'
_cell_volume   667.46909641
_cell_formula_units_Z   1
loop_
 _symmetry_equiv_pos_site_id
 _symmetry_equiv_pos_as_xyz
  1  'x, y, z'
loop_
 _atom_site_type_symbol
 _atom_site_label
 _atom_site_symmetry_multiplicity
 _atom_site_fract_x
 _atom_site_fract_y
 _atom_site_fract_z
 _atom_site_occupancy
  Y  Y0  1  0.503744  0.328922  0.096119  1
  Y  Y1  1  0.999141  0.166621  0.400751  1
  Y  Y2  1  0.508575  0.678787  0.599057  1
  Y  Y3  1  0.995947  0.828393  0.905226  1
  Y  Y4  1  0.495688  0.671247  0.904749  1
  Y  Y5  1  0.994895  0.835306  0.597294  1
  Y  Y6  1  0.507429  0.324565  0.400316  1
  Y  Y7  1  0.003853  0.172362  0.095551  1
  Nb  Nb8  1  0.663793  0.008652  0.751149  1
  Nb  Nb9  1  0.163600  0.489347  0.755998  1
  Nb  Nb10  1  0.335722  0.991393  0.248854  1
  Nb  Nb11  1  0.836214  0.509965  0.248998  1
  Nb  Nb12  1  0.829061  0.321384  0.627698  1
  Nb  Nb13  1  0.336791  0.174559  0.875648  1
  Nb  Nb14  1  0.163365  0.675690  0.124626  1
  Nb  Nb15  1  0.661979  0.826544  0.372851  1
  Nb  Nb16  1  0.158651  0.684347  0.368929  1
  Nb  Nb17  1  0.661187  0.824062  0.124650  1
  Nb  Nb18  1  0.836587  0.324303  0.875604  1
  Nb  Nb19  1  0.346743  0.161725  0.630060  1
  Si  Si20  1  0.798371  0.623444  0.751179  1
  Si  Si21  1  0.294219  0.871755  0.752183  1
  Si  Si22  1  0.203704  0.376649  0.249213  1
  Si  Si23  1  0.703466  0.123747  0.248130  1
  Si  Si24  1  0.540378  0.376680  0.751782  1
  Si  Si25  1  0.042230  0.125911  0.750874  1
  Si  Si26  1  0.457980  0.624733  0.249281  1
  Si  Si27  1  0.955129  0.876881  0.246535  1
  Si  Si28  1  0.663693  0.038479  0.538675  1
  Si  Si29  1  0.161622  0.462977  0.960083  1
  Si  Si30  1  0.337261  0.963530  0.040704  1
  Si  Si31  1  0.828755  0.539680  0.457069  1
  Si  Si32  1  0.337023  0.961652  0.459804  1
  Si  Si33  1  0.838436  0.536844  0.041219  1
  Si  Si34  1  0.661816  0.036840  0.959483  1
  Sn  Sn35  1  0.172948  0.462023  0.539656  1
