# generated using pymatgen
data_YEr15MgIn3Pd4
_symmetry_space_group_name_H-M   'P 1'
_cell_length_a   9.67548356
_cell_length_b   9.65209115
_cell_length_c   9.65877400
_cell_angle_alpha   59.97709384
_cell_angle_beta   60.05711227
_cell_angle_gamma   60.05833601
_symmetry_Int_Tables_number   1
_chemical_formula_structural   YEr15MgIn3Pd4
_chemical_formula_sum   'Y1 Er15 Mg1 In3 Pd4'
_cell_volume   638.26951525
_cell_formula_units_Z   1
loop_
 _symmetry_equiv_pos_site_id
 _symmetry_equiv_pos_as_xyz
  1  'x, y, z'
loop_
 _atom_site_type_symbol
 _atom_site_label
 _atom_site_symmetry_multiplicity
 _atom_site_fract_x
 _atom_site_fract_y
 _atom_site_fract_z
 _atom_site_occupancy
  Y  Y0  1  0.935158  0.934737  0.565052  1
  Er  Er1  1  0.352130  0.351326  0.351585  1
  Er  Er2  1  0.352130  0.351326  0.944960  1
  Er  Er3  1  0.352616  0.944551  0.351417  1
  Er  Er4  1  0.941842  0.352880  0.352639  1
  Er  Er5  1  0.809166  0.190710  0.190180  1
  Er  Er6  1  0.187969  0.811831  0.811702  1
  Er  Er7  1  0.187969  0.811831  0.188500  1
  Er  Er8  1  0.809166  0.190710  0.809944  1
  Er  Er9  1  0.187717  0.188667  0.811808  1
  Er  Er10  1  0.809319  0.809771  0.190455  1
  Er  Er11  1  0.935114  0.564688  0.565144  1
  Er  Er12  1  0.564316  0.935670  0.935973  1
  Er  Er13  1  0.564316  0.935670  0.564041  1
  Er  Er14  1  0.935114  0.564688  0.935054  1
  Er  Er15  1  0.564829  0.564235  0.935467  1
  Mg  Mg16  1  0.265142  0.578223  0.578317  1
  In  In17  1  0.582361  0.583593  0.583518  1
  In  In18  1  0.582361  0.583593  0.250527  1
  In  In19  1  0.582095  0.250872  0.583515  1
  Pd  Pd20  1  0.143492  0.144183  0.143985  1
  Pd  Pd21  1  0.143492  0.144183  0.568341  1
  Pd  Pd22  1  0.143115  0.568504  0.144191  1
  Pd  Pd23  1  0.569069  0.143558  0.143686  1
