# generated using pymatgen
data_La2CeSn7
_symmetry_space_group_name_H-M   'P 1'
_cell_length_a   4.59708167
_cell_length_b   4.68536300
_cell_length_c   13.31002423
_cell_angle_alpha   90.00000000
_cell_angle_beta   80.05559681
_cell_angle_gamma   90.00000000
_symmetry_Int_Tables_number   1
_chemical_formula_structural   La2CeSn7
_chemical_formula_sum   'La2 Ce1 Sn7'
_cell_volume   282.37735423
_cell_formula_units_Z   1
loop_
 _symmetry_equiv_pos_site_id
 _symmetry_equiv_pos_as_xyz
  1  'x, y, z'
loop_
 _atom_site_type_symbol
 _atom_site_label
 _atom_site_symmetry_multiplicity
 _atom_site_fract_x
 _atom_site_fract_y
 _atom_site_fract_z
 _atom_site_occupancy
  La  La0  1  0.816761  0.000000  0.366480  1
  La  La1  1  0.183240  0.000000  0.633520  1
  Ce  Ce2  1  0.000000  0.000000  0.000000  1
  Sn  Sn3  1  0.499999  0.500001  0.000000  1
  Sn  Sn4  1  0.407413  0.000000  0.185173  1
  Sn  Sn5  1  0.907853  0.500001  0.184295  1
  Sn  Sn6  1  0.287820  0.500001  0.424358  1
  Sn  Sn7  1  0.712180  0.500001  0.575641  1
  Sn  Sn8  1  0.092147  0.500001  0.815705  1
  Sn  Sn9  1  0.592587  0.000000  0.814827  1
