# generated using pymatgen
data_Ba2BeP2
_symmetry_space_group_name_H-M   'P 1'
_cell_length_a   7.99997471
_cell_length_b   7.99997334
_cell_length_c   7.99997384
_cell_angle_alpha   130.42496679
_cell_angle_beta   69.40336369
_cell_angle_gamma   134.69517539
_symmetry_Int_Tables_number   1
_chemical_formula_structural   Ba2BeP2
_chemical_formula_sum   'Ba4 Be2 P4'
_cell_volume   271.86955850
_cell_formula_units_Z   2
loop_
 _symmetry_equiv_pos_site_id
 _symmetry_equiv_pos_as_xyz
  1  'x, y, z'
loop_
 _atom_site_type_symbol
 _atom_site_label
 _atom_site_symmetry_multiplicity
 _atom_site_fract_x
 _atom_site_fract_y
 _atom_site_fract_z
 _atom_site_occupancy
  Ba  Ba0  1  0.861889  0.300226  0.162115  1
  Ba  Ba1  1  0.638112  0.800226  0.438338  1
  Ba  Ba2  1  0.361889  0.199774  0.561663  1
  Ba  Ba3  1  0.138111  0.699774  0.837886  1
  Be  Be4  1  0.250000  0.250000  0.000000  1
  Be  Be5  1  0.750000  0.750000  0.000000  1
  P  P6  1  0.403002  0.680200  0.083200  1
  P  P7  1  0.096998  0.180200  0.277198  1
  P  P8  1  0.903002  0.819801  0.722803  1
  P  P9  1  0.596998  0.319801  0.916800  1
