# generated using pymatgen
data_TbDy3(Er2Co)4
_symmetry_space_group_name_H-M   'P 1'
_cell_length_a   6.18209315
_cell_length_b   6.91941414
_cell_length_c   9.36265800
_cell_angle_alpha   90.00000000
_cell_angle_beta   90.00000000
_cell_angle_gamma   89.97957794
_symmetry_Int_Tables_number   1
_chemical_formula_structural   TbDy3(Er2Co)4
_chemical_formula_sum   'Tb1 Dy3 Er8 Co4'
_cell_volume   400.50136525
_cell_formula_units_Z   1
loop_
 _symmetry_equiv_pos_site_id
 _symmetry_equiv_pos_as_xyz
  1  'x, y, z'
loop_
 _atom_site_type_symbol
 _atom_site_label
 _atom_site_symmetry_multiplicity
 _atom_site_fract_x
 _atom_site_fract_y
 _atom_site_fract_z
 _atom_site_occupancy
  Tb  Tb0  1  0.360647  0.958627  0.750000  1
  Dy  Dy1  1  0.860026  0.541581  0.250000  1
  Dy  Dy2  1  0.639877  0.041486  0.250000  1
  Dy  Dy3  1  0.139479  0.458418  0.750000  1
  Er  Er4  1  0.324268  0.674436  0.068168  1
  Er  Er5  1  0.175799  0.175121  0.431793  1
  Er  Er6  1  0.675636  0.325488  0.567987  1
  Er  Er7  1  0.824512  0.824969  0.932231  1
  Er  Er8  1  0.675636  0.325488  0.932013  1
  Er  Er9  1  0.824512  0.824969  0.567769  1
  Er  Er10  1  0.324268  0.674436  0.431832  1
  Er  Er11  1  0.175799  0.175121  0.068207  1
  Co  Co12  1  0.050482  0.886118  0.250000  1
  Co  Co13  1  0.449535  0.385963  0.250000  1
  Co  Co14  1  0.948590  0.114028  0.750000  1
  Co  Co15  1  0.550929  0.613752  0.750000  1
