# generated using pymatgen
data_DyCl30
_symmetry_space_group_name_H-M   'P 1'
_cell_length_a   13.13744770
_cell_length_b   13.13744782
_cell_length_c   15.44684113
_cell_angle_alpha   83.12844847
_cell_angle_beta   83.12844930
_cell_angle_gamma   122.58375937
_symmetry_Int_Tables_number   1
_chemical_formula_structural   DyCl30
_chemical_formula_sum   'Dy1 Cl30'
_cell_volume   2175.59470380
_cell_formula_units_Z   1
loop_
 _symmetry_equiv_pos_site_id
 _symmetry_equiv_pos_as_xyz
  1  'x, y, z'
loop_
 _atom_site_type_symbol
 _atom_site_label
 _atom_site_symmetry_multiplicity
 _atom_site_fract_x
 _atom_site_fract_y
 _atom_site_fract_z
 _atom_site_occupancy
  Dy  Dy0  1  0.000000  0.000000  0.000000  1
  Cl  Cl1  1  0.936568  0.936568  0.178443  1
  Cl  Cl2  1  0.063432  0.063432  0.821557  1
  Cl  Cl3  1  0.118585  0.235984  0.005997  1
  Cl  Cl4  1  0.881415  0.764016  0.994003  1
  Cl  Cl5  1  0.235984  0.118585  0.005997  1
  Cl  Cl6  1  0.764016  0.881415  0.994003  1
  Cl  Cl7  1  0.199124  0.741700  0.066747  1
  Cl  Cl8  1  0.800876  0.258300  0.933253  1
  Cl  Cl9  1  0.689873  0.082664  0.263464  1
  Cl  Cl10  1  0.258300  0.800876  0.933253  1
  Cl  Cl11  1  0.310127  0.917336  0.736536  1
  Cl  Cl12  1  0.741700  0.199124  0.066747  1
  Cl  Cl13  1  0.982768  0.203540  0.768797  1
  Cl  Cl14  1  0.917336  0.310127  0.736536  1
  Cl  Cl15  1  0.017232  0.796460  0.231203  1
  Cl  Cl16  1  0.082664  0.689873  0.263464  1
  Cl  Cl17  1  0.796460  0.017232  0.231203  1
  Cl  Cl18  1  0.203540  0.982768  0.768797  1
  Cl  Cl19  1  0.465720  0.552162  0.262762  1
  Cl  Cl20  1  0.534280  0.447838  0.737238  1
  Cl  Cl21  1  0.508963  0.204503  0.450126  1
  Cl  Cl22  1  0.447838  0.534280  0.737238  1
  Cl  Cl23  1  0.491037  0.795497  0.549874  1
  Cl  Cl24  1  0.552162  0.465720  0.262762  1
  Cl  Cl25  1  0.240044  0.427811  0.548104  1
  Cl  Cl26  1  0.795497  0.491037  0.549874  1
  Cl  Cl27  1  0.759956  0.572189  0.451896  1
  Cl  Cl28  1  0.204503  0.508963  0.450126  1
  Cl  Cl29  1  0.572189  0.759956  0.451896  1
  Cl  Cl30  1  0.427811  0.240044  0.548104  1
