# generated using pymatgen
data_Er6Zr2AlPd24
_symmetry_space_group_name_H-M   'P 1'
_cell_length_a   8.29506367
_cell_length_b   8.29506356
_cell_length_c   8.29506400
_cell_angle_alpha   89.73960404
_cell_angle_beta   89.73960404
_cell_angle_gamma   89.73960442
_symmetry_Int_Tables_number   1
_chemical_formula_structural   Er6Zr2AlPd24
_chemical_formula_sum   'Er6 Zr2 Al1 Pd24'
_cell_volume   570.74979987
_cell_formula_units_Z   1
loop_
 _symmetry_equiv_pos_site_id
 _symmetry_equiv_pos_as_xyz
  1  'x, y, z'
loop_
 _atom_site_type_symbol
 _atom_site_label
 _atom_site_symmetry_multiplicity
 _atom_site_fract_x
 _atom_site_fract_y
 _atom_site_fract_z
 _atom_site_occupancy
  Er  Er0  1  0.747694  0.747694  0.251864  1
  Er  Er1  1  0.747694  0.251864  0.747694  1
  Er  Er2  1  0.252306  0.252306  0.748136  1
  Er  Er3  1  0.252306  0.748136  0.252306  1
  Er  Er4  1  0.251864  0.747694  0.747694  1
  Er  Er5  1  0.748136  0.252306  0.252306  1
  Zr  Zr6  1  0.254960  0.254960  0.254960  1
  Zr  Zr7  1  0.745040  0.745040  0.745040  1
  Al  Al8  1  0.000000  0.000000  0.000000  1
  Pd  Pd9  1  0.258925  0.498217  0.003850  1
  Pd  Pd10  1  0.741075  0.501783  0.996150  1
  Pd  Pd11  1  0.003850  0.258925  0.498217  1
  Pd  Pd12  1  0.498217  0.258925  0.003850  1
  Pd  Pd13  1  0.996150  0.741075  0.501783  1
  Pd  Pd14  1  0.501783  0.741075  0.996150  1
  Pd  Pd15  1  0.498217  0.003850  0.258925  1
  Pd  Pd16  1  0.258925  0.003850  0.498217  1
  Pd  Pd17  1  0.501783  0.996150  0.741075  1
  Pd  Pd18  1  0.741075  0.996150  0.501783  1
  Pd  Pd19  1  0.003850  0.498217  0.258925  1
  Pd  Pd20  1  0.996150  0.501783  0.741075  1
  Pd  Pd21  1  0.252603  0.497514  0.497514  1
  Pd  Pd22  1  0.747397  0.502486  0.502486  1
  Pd  Pd23  1  0.497514  0.252603  0.497514  1
  Pd  Pd24  1  0.502486  0.747397  0.502486  1
  Pd  Pd25  1  0.497514  0.497514  0.252603  1
  Pd  Pd26  1  0.502486  0.502486  0.747397  1
  Pd  Pd27  1  0.287143  0.003179  0.003179  1
  Pd  Pd28  1  0.712857  0.996821  0.996821  1
  Pd  Pd29  1  0.003179  0.287143  0.003179  1
  Pd  Pd30  1  0.996821  0.712857  0.996821  1
  Pd  Pd31  1  0.003179  0.003179  0.287143  1
  Pd  Pd32  1  0.996821  0.996821  0.712857  1
