# generated using pymatgen
data_Yb12MnFeN10
_symmetry_space_group_name_H-M   'P 1'
_cell_length_a   6.15264000
_cell_length_b   6.15252654
_cell_length_c   12.08828700
_cell_angle_alpha   90.00000000
_cell_angle_beta   90.00000000
_cell_angle_gamma   120.00339487
_symmetry_Int_Tables_number   1
_chemical_formula_structural   Yb12MnFeN10
_chemical_formula_sum   'Yb12 Mn1 Fe1 N10'
_cell_volume   396.27396167
_cell_formula_units_Z   1
loop_
 _symmetry_equiv_pos_site_id
 _symmetry_equiv_pos_as_xyz
  1  'x, y, z'
loop_
 _atom_site_type_symbol
 _atom_site_label
 _atom_site_symmetry_multiplicity
 _atom_site_fract_x
 _atom_site_fract_y
 _atom_site_fract_z
 _atom_site_occupancy
  Yb  Yb0  1  0.999990  0.399179  0.880394  1
  Yb  Yb1  1  0.600824  0.600831  0.880393  1
  Yb  Yb2  1  0.602592  0.999997  0.121995  1
  Yb  Yb3  1  0.399161  0.999998  0.619600  1
  Yb  Yb4  1  0.397453  0.397501  0.378021  1
  Yb  Yb5  1  0.602592  0.999997  0.378005  1
  Yb  Yb6  1  0.397453  0.397501  0.121979  1
  Yb  Yb7  1  0.999950  0.602502  0.121984  1
  Yb  Yb8  1  0.999990  0.399179  0.619606  1
  Yb  Yb9  1  0.600824  0.600831  0.619607  1
  Yb  Yb10  1  0.399161  0.999998  0.880400  1
  Yb  Yb11  1  0.999950  0.602502  0.378016  1
  Mn  Mn12  1  0.999998  0.000018  0.750000  1
  Fe  Fe13  1  0.000152  0.000008  0.250000  1
  N  N14  1  0.710801  0.000014  0.750000  1
  N  N15  1  0.289189  0.289207  0.750000  1
  N  N16  1  0.291444  0.999966  0.250000  1
  N  N17  1  0.666653  0.333335  0.499574  1
  N  N18  1  0.333313  0.666656  0.000426  1
  N  N19  1  0.333313  0.666656  0.499574  1
  N  N20  1  0.666653  0.333335  0.000426  1
  N  N21  1  0.708639  0.708699  0.250000  1
  N  N22  1  0.999906  0.291277  0.250000  1
  N  N23  1  0.999998  0.710812  0.750000  1
