# generated using pymatgen
data_Ca2Th2Al7Re
_symmetry_space_group_name_H-M   'P 1'
_cell_length_a   5.64181600
_cell_length_b   5.64181638
_cell_length_c   9.11739300
_cell_angle_alpha   90.00000000
_cell_angle_beta   90.00000000
_cell_angle_gamma   119.99998602
_symmetry_Int_Tables_number   1
_chemical_formula_structural   Ca2Th2Al7Re
_chemical_formula_sum   'Ca2 Th2 Al7 Re1'
_cell_volume   251.32705014
_cell_formula_units_Z   1
loop_
 _symmetry_equiv_pos_site_id
 _symmetry_equiv_pos_as_xyz
  1  'x, y, z'
loop_
 _atom_site_type_symbol
 _atom_site_label
 _atom_site_symmetry_multiplicity
 _atom_site_fract_x
 _atom_site_fract_y
 _atom_site_fract_z
 _atom_site_occupancy
  Ca  Ca0  1  0.666667  0.333333  0.443872  1
  Ca  Ca1  1  0.333333  0.666667  0.556128  1
  Th  Th2  1  0.333333  0.666667  0.944507  1
  Th  Th3  1  0.666667  0.333333  0.055493  1
  Al  Al4  1  0.000000  0.000000  0.500000  1
  Al  Al5  1  0.666743  0.833372  0.244363  1
  Al  Al6  1  0.166628  0.833372  0.244363  1
  Al  Al7  1  0.166628  0.333257  0.244363  1
  Al  Al8  1  0.333257  0.166628  0.755637  1
  Al  Al9  1  0.833372  0.166628  0.755637  1
  Al  Al10  1  0.833372  0.666743  0.755637  1
  Re  Re11  1  0.000000  0.000000  0.000000  1
