# generated using pymatgen
data_YZr3(Nb3Si4)2
_symmetry_space_group_name_H-M   'P 1'
_cell_length_a   6.93381411
_cell_length_b   6.93100304
_cell_length_c   12.87535000
_cell_angle_alpha   90.00000000
_cell_angle_beta   90.00000000
_cell_angle_gamma   90.08929018
_symmetry_Int_Tables_number   1
_chemical_formula_structural   YZr3(Nb3Si4)2
_chemical_formula_sum   'Y2 Zr6 Nb12 Si16'
_cell_volume   618.76650943
_cell_formula_units_Z   2
loop_
 _symmetry_equiv_pos_site_id
 _symmetry_equiv_pos_as_xyz
  1  'x, y, z'
loop_
 _atom_site_type_symbol
 _atom_site_label
 _atom_site_symmetry_multiplicity
 _atom_site_fract_x
 _atom_site_fract_y
 _atom_site_fract_z
 _atom_site_occupancy
  Y  Y0  1  0.338263  0.997296  0.781343  1
  Y  Y1  1  0.661737  0.002704  0.281343  1
  Zr  Zr2  1  0.004312  0.343200  0.216834  1
  Zr  Zr3  1  0.995688  0.656800  0.716834  1
  Zr  Zr4  1  0.159450  0.502414  0.468474  1
  Zr  Zr5  1  0.497928  0.840131  0.032988  1
  Zr  Zr6  1  0.840550  0.497586  0.968474  1
  Zr  Zr7  1  0.502072  0.159869  0.532988  1
  Nb  Nb8  1  0.169119  0.170466  0.000333  1
  Nb  Nb9  1  0.830881  0.829534  0.500333  1
  Nb  Nb10  1  0.328074  0.667205  0.250251  1
  Nb  Nb11  1  0.671926  0.332795  0.750251  1
  Nb  Nb12  1  0.152647  0.993756  0.376060  1
  Nb  Nb13  1  0.847353  0.006244  0.876060  1
  Nb  Nb14  1  0.507164  0.653814  0.625413  1
  Nb  Nb15  1  0.347515  0.496913  0.874486  1
  Nb  Nb16  1  0.492836  0.346186  0.125413  1
  Nb  Nb17  1  0.652485  0.503087  0.374486  1
  Nb  Nb18  1  0.997077  0.156731  0.623123  1
  Nb  Nb19  1  0.002923  0.843269  0.123123  1
  Si  Si20  1  0.292880  0.043729  0.186363  1
  Si  Si21  1  0.707120  0.956271  0.686363  1
  Si  Si22  1  0.454697  0.796463  0.437718  1
  Si  Si23  1  0.202653  0.543852  0.062988  1
  Si  Si24  1  0.545303  0.203537  0.937718  1
  Si  Si25  1  0.797347  0.456148  0.562988  1
  Si  Si26  1  0.043861  0.301054  0.813310  1
  Si  Si27  1  0.956139  0.698946  0.313310  1
  Si  Si28  1  0.361599  0.293913  0.322373  1
  Si  Si29  1  0.638401  0.706087  0.822373  1
  Si  Si30  1  0.205474  0.864669  0.569750  1
  Si  Si31  1  0.131019  0.789356  0.930912  1
  Si  Si32  1  0.794526  0.135331  0.069750  1
  Si  Si33  1  0.868981  0.210644  0.430912  1
  Si  Si34  1  0.293048  0.369965  0.677284  1
  Si  Si35  1  0.706952  0.630035  0.177284  1
