# generated using pymatgen
data_Li4HoCoNi8As7
_symmetry_space_group_name_H-M   'P 1'
_cell_length_a   9.41927106
_cell_length_b   9.37266401
_cell_length_c   3.82145000
_cell_angle_alpha   90.00000000
_cell_angle_beta   90.00000000
_cell_angle_gamma   119.86905550
_symmetry_Int_Tables_number   1
_chemical_formula_structural   Li4HoCoNi8As7
_chemical_formula_sum   'Li4 Ho1 Co1 Ni8 As7'
_cell_volume   292.55713256
_cell_formula_units_Z   1
loop_
 _symmetry_equiv_pos_site_id
 _symmetry_equiv_pos_as_xyz
  1  'x, y, z'
loop_
 _atom_site_type_symbol
 _atom_site_label
 _atom_site_symmetry_multiplicity
 _atom_site_fract_x
 _atom_site_fract_y
 _atom_site_fract_z
 _atom_site_occupancy
  Li  Li0  1  0.775170  0.549123  0.500000  1
  Li  Li1  1  0.454839  0.227997  0.500000  1
  Li  Li2  1  0.773121  0.225564  0.500000  1
  Li  Li3  1  0.001405  0.004931  0.500000  1
  Ho  Ho4  1  0.332035  0.666437  0.000000  1
  Co  Co5  1  0.275041  0.374262  0.500000  1
  Ni  Ni6  1  0.622691  0.897568  0.500000  1
  Ni  Ni7  1  0.101457  0.725654  0.500000  1
  Ni  Ni8  1  0.496668  0.451448  0.000000  1
  Ni  Ni9  1  0.549356  0.046204  0.000000  1
  Ni  Ni10  1  0.956679  0.504417  0.000000  1
  Ni  Ni11  1  0.714444  0.759480  0.000000  1
  Ni  Ni12  1  0.238597  0.954391  0.000000  1
  Ni  Ni13  1  0.044085  0.283196  0.000000  1
  As  As14  1  0.963574  0.757546  0.000000  1
  As  As15  1  0.243508  0.209253  0.000000  1
  As  As16  1  0.792065  0.035020  0.000000  1
  As  As17  1  0.668775  0.334842  0.000000  1
  As  As18  1  0.539610  0.614579  0.500000  1
  As  As19  1  0.381424  0.925890  0.500000  1
  As  As20  1  0.075456  0.452195  0.500000  1
