# generated using pymatgen
data_YbTm2Lu5(B6Os)4
_symmetry_space_group_name_H-M   'P 1'
_cell_length_a   3.60236100
_cell_length_b   9.05198469
_cell_length_c   11.43085401
_cell_angle_alpha   89.93953974
_cell_angle_beta   90.00000000
_cell_angle_gamma   90.00000000
_symmetry_Int_Tables_number   1
_chemical_formula_structural   YbTm2Lu5(B6Os)4
_chemical_formula_sum   'Yb1 Tm2 Lu5 B24 Os4'
_cell_volume   372.74298531
_cell_formula_units_Z   1
loop_
 _symmetry_equiv_pos_site_id
 _symmetry_equiv_pos_as_xyz
  1  'x, y, z'
loop_
 _atom_site_type_symbol
 _atom_site_label
 _atom_site_symmetry_multiplicity
 _atom_site_fract_x
 _atom_site_fract_y
 _atom_site_fract_z
 _atom_site_occupancy
  Yb  Yb0  1  0.000000  0.322291  0.413495  1
  Tm  Tm1  1  0.000000  0.677098  0.585210  1
  Tm  Tm2  1  0.000000  0.821389  0.086429  1
  Lu  Lu3  1  0.000000  0.179418  0.914564  1
  Lu  Lu4  1  0.000000  0.944496  0.372113  1
  Lu  Lu5  1  0.000000  0.057206  0.627260  1
  Lu  Lu6  1  0.000000  0.443469  0.128157  1
  Lu  Lu7  1  0.000000  0.555710  0.873196  1
  B  B8  1  0.500000  0.553971  0.432987  1
  B  B9  1  0.500000  0.446225  0.567255  1
  B  B10  1  0.500000  0.053120  0.065640  1
  B  B11  1  0.500000  0.946284  0.933167  1
  B  B12  1  0.500000  0.749680  0.419697  1
  B  B13  1  0.500000  0.250778  0.581007  1
  B  B14  1  0.500000  0.248742  0.079662  1
  B  B15  1  0.500000  0.750554  0.919999  1
  B  B16  1  0.500000  0.792616  0.265664  1
  B  B17  1  0.500000  0.208288  0.735050  1
  B  B18  1  0.500000  0.290990  0.233516  1
  B  B19  1  0.500000  0.708130  0.766074  1
  B  B20  1  0.500000  0.631408  0.184959  1
  B  B21  1  0.500000  0.368950  0.816211  1
  B  B22  1  0.500000  0.130459  0.314431  1
  B  B23  1  0.500000  0.869064  0.684566  1
  B  B24  1  0.500000  0.981870  0.212107  1
  B  B25  1  0.500000  0.018296  0.787033  1
  B  B26  1  0.500000  0.482660  0.286942  1
  B  B27  1  0.500000  0.517848  0.713410  1
  B  B28  1  0.500000  0.605479  0.029309  1
  B  B29  1  0.500000  0.394429  0.971153  1
  B  B30  1  0.500000  0.101877  0.471789  1
  B  B31  1  0.500000  0.896398  0.528638  1
  Os  Os32  1  0.000000  0.639867  0.320185  1
  Os  Os33  1  0.000000  0.361852  0.680772  1
  Os  Os34  1  0.000000  0.136637  0.177393  1
  Os  Os35  1  0.000000  0.862445  0.820966  1
