# generated using pymatgen
data_ScCo4Si3Mo
_symmetry_space_group_name_H-M   'P 1'
_cell_length_a   3.64426200
_cell_length_b   10.54393100
_cell_length_c   12.10363500
_cell_angle_alpha   90.00000000
_cell_angle_beta   90.00000000
_cell_angle_gamma   90.00000000
_symmetry_Int_Tables_number   1
_chemical_formula_structural   ScCo4Si3Mo
_chemical_formula_sum   'Sc4 Co16 Si12 Mo4'
_cell_volume   465.08032391
_cell_formula_units_Z   4
loop_
 _symmetry_equiv_pos_site_id
 _symmetry_equiv_pos_as_xyz
  1  'x, y, z'
loop_
 _atom_site_type_symbol
 _atom_site_label
 _atom_site_symmetry_multiplicity
 _atom_site_fract_x
 _atom_site_fract_y
 _atom_site_fract_z
 _atom_site_occupancy
  Sc  Sc0  1  0.250000  0.578701  0.705237  1
  Sc  Sc1  1  0.250000  0.921299  0.205237  1
  Sc  Sc2  1  0.750000  0.421299  0.294763  1
  Sc  Sc3  1  0.750000  0.078701  0.794763  1
  Co  Co4  1  0.250000  0.405882  0.488185  1
  Co  Co5  1  0.250000  0.094118  0.988185  1
  Co  Co6  1  0.750000  0.594118  0.511815  1
  Co  Co7  1  0.750000  0.905882  0.011815  1
  Co  Co8  1  0.250000  0.214168  0.173035  1
  Co  Co9  1  0.250000  0.285833  0.673035  1
  Co  Co10  1  0.750000  0.785833  0.826965  1
  Co  Co11  1  0.750000  0.714167  0.326965  1
  Co  Co12  1  0.250000  0.881898  0.698860  1
  Co  Co13  1  0.250000  0.618102  0.198860  1
  Co  Co14  1  0.750000  0.118102  0.301140  1
  Co  Co15  1  0.750000  0.381898  0.801140  1
  Co  Co16  1  0.250000  0.464391  0.933994  1
  Co  Co17  1  0.250000  0.035609  0.433994  1
  Co  Co18  1  0.750000  0.535609  0.066006  1
  Co  Co19  1  0.750000  0.964391  0.566006  1
  Si  Si20  1  0.250000  0.420961  0.120686  1
  Si  Si21  1  0.250000  0.079039  0.620686  1
  Si  Si22  1  0.750000  0.579039  0.879314  1
  Si  Si23  1  0.750000  0.920961  0.379314  1
  Si  Si24  1  0.250000  0.263180  0.859979  1
  Si  Si25  1  0.250000  0.236820  0.359979  1
  Si  Si26  1  0.750000  0.736820  0.140021  1
  Si  Si27  1  0.750000  0.763180  0.640021  1
  Si  Si28  1  0.250000  0.591423  0.388515  1
  Si  Si29  1  0.250000  0.908577  0.888515  1
  Si  Si30  1  0.750000  0.408577  0.611485  1
  Si  Si31  1  0.750000  0.091423  0.111485  1
  Mo  Mo32  1  0.250000  0.700271  0.991078  1
  Mo  Mo33  1  0.250000  0.799729  0.491078  1
  Mo  Mo34  1  0.750000  0.299729  0.008922  1
  Mo  Mo35  1  0.750000  0.200271  0.508922  1
