# generated using pymatgen
data_MnTl2CrF14
_symmetry_space_group_name_H-M   'P 1'
_cell_length_a   5.43237800
_cell_length_b   8.65714632
_cell_length_c   11.63572000
_cell_angle_alpha   62.91058568
_cell_angle_beta   90.00000000
_cell_angle_gamma   90.00000000
_symmetry_Int_Tables_number   1
_chemical_formula_structural   MnTl2CrF14
_chemical_formula_sum   'Mn2 Tl4 Cr2 F28'
_cell_volume   487.18385669
_cell_formula_units_Z   2
loop_
 _symmetry_equiv_pos_site_id
 _symmetry_equiv_pos_as_xyz
  1  'x, y, z'
loop_
 _atom_site_type_symbol
 _atom_site_label
 _atom_site_symmetry_multiplicity
 _atom_site_fract_x
 _atom_site_fract_y
 _atom_site_fract_z
 _atom_site_occupancy
  Mn  Mn0  1  0.239541  0.725028  0.045527  1
  Mn  Mn1  1  0.739541  0.274972  0.454473  1
  Tl  Tl2  1  0.765400  0.811483  0.763883  1
  Tl  Tl3  1  0.265400  0.188517  0.736117  1
  Tl  Tl4  1  0.236008  0.192251  0.233416  1
  Tl  Tl5  1  0.736008  0.807749  0.266584  1
  Cr  Cr6  1  0.759389  0.274931  0.954547  1
  Cr  Cr7  1  0.259389  0.725069  0.545453  1
  F  F8  1  0.424762  0.700582  0.924238  1
  F  F9  1  0.924762  0.299418  0.575762  1
  F  F10  1  0.573937  0.297567  0.077025  1
  F  F11  1  0.073937  0.702433  0.422975  1
  F  F12  1  0.449728  0.282331  0.536042  1
  F  F13  1  0.949728  0.717669  0.963958  1
  F  F14  1  0.555762  0.719003  0.462513  1
  F  F15  1  0.055762  0.280997  0.037487  1
  F  F16  1  0.775205  0.514581  0.860209  1
  F  F17  1  0.275205  0.485419  0.639791  1
  F  F18  1  0.222237  0.485475  0.142056  1
  F  F19  1  0.722237  0.514525  0.357944  1
  F  F20  1  0.755860  0.039871  0.040399  1
  F  F21  1  0.255860  0.960129  0.459601  1
  F  F22  1  0.241979  0.960826  0.958588  1
  F  F23  1  0.741979  0.039174  0.541412  1
  F  F24  1  0.968287  0.722221  0.636047  1
  F  F25  1  0.468287  0.277779  0.863953  1
  F  F26  1  0.025095  0.276697  0.366866  1
  F  F27  1  0.525095  0.723303  0.133134  1
  F  F28  1  0.056501  0.740740  0.176404  1
  F  F29  1  0.556501  0.259260  0.323596  1
  F  F30  1  0.943454  0.260981  0.822248  1
  F  F31  1  0.443454  0.739019  0.677752  1
  F  F32  1  0.397822  0.968361  0.224522  1
  F  F33  1  0.897822  0.031639  0.275478  1
  F  F34  1  0.609035  0.032350  0.776265  1
  F  F35  1  0.109035  0.967650  0.723735  1
