# generated using pymatgen
data_Ho8Al2RuRh
_symmetry_space_group_name_H-M   'P 1'
_cell_length_a   9.48955398
_cell_length_b   9.52009064
_cell_length_c   9.48955296
_cell_angle_alpha   59.89349652
_cell_angle_beta   59.77506419
_cell_angle_gamma   59.89350096
_symmetry_Int_Tables_number   1
_chemical_formula_structural   Ho8Al2RuRh
_chemical_formula_sum   'Ho16 Al4 Ru2 Rh2'
_cell_volume   604.19246251
_cell_formula_units_Z   2
loop_
 _symmetry_equiv_pos_site_id
 _symmetry_equiv_pos_as_xyz
  1  'x, y, z'
loop_
 _atom_site_type_symbol
 _atom_site_label
 _atom_site_symmetry_multiplicity
 _atom_site_fract_x
 _atom_site_fract_y
 _atom_site_fract_z
 _atom_site_occupancy
  Ho  Ho0  1  0.187192  0.188657  0.810098  1
  Ho  Ho1  1  0.600721  0.601478  0.196323  1
  Ho  Ho2  1  0.444202  0.055798  0.444202  1
  Ho  Ho3  1  0.443604  0.445545  0.056742  1
  Ho  Ho4  1  0.813423  0.186577  0.813423  1
  Ho  Ho5  1  0.189329  0.810671  0.189329  1
  Ho  Ho6  1  0.443604  0.054110  0.056742  1
  Ho  Ho7  1  0.187192  0.814053  0.810098  1
  Ho  Ho8  1  0.054514  0.445486  0.054514  1
  Ho  Ho9  1  0.810098  0.814053  0.187192  1
  Ho  Ho10  1  0.196323  0.601478  0.600721  1
  Ho  Ho11  1  0.056742  0.445545  0.443604  1
  Ho  Ho12  1  0.056742  0.054110  0.443604  1
  Ho  Ho13  1  0.810098  0.188657  0.187192  1
  Ho  Ho14  1  0.601806  0.193926  0.601806  1
  Ho  Ho15  1  0.601806  0.602462  0.601806  1
  Al  Al16  1  0.827200  0.827412  0.827200  1
  Al  Al17  1  0.827708  0.827706  0.516883  1
  Al  Al18  1  0.516883  0.827706  0.827708  1
  Al  Al19  1  0.827200  0.518188  0.827200  1
  Ru  Ru20  1  0.391990  0.827126  0.391990  1
  Ru  Ru21  1  0.391990  0.388892  0.391990  1
  Rh  Rh22  1  0.827033  0.390181  0.392604  1
  Rh  Rh23  1  0.392604  0.390181  0.827033  1
