# generated using pymatgen
data_ErTm2ThCdIr
_symmetry_space_group_name_H-M   'P 1'
_cell_length_a   9.66733688
_cell_length_b   9.66702662
_cell_length_c   9.66702700
_cell_angle_alpha   60.00211616
_cell_angle_beta   59.99893525
_cell_angle_gamma   59.99893960
_symmetry_Int_Tables_number   1
_chemical_formula_structural   ErTm2ThCdIr
_chemical_formula_sum   'Er4 Tm8 Th4 Cd4 Ir4'
_cell_volume   638.81877413
_cell_formula_units_Z   4
loop_
 _symmetry_equiv_pos_site_id
 _symmetry_equiv_pos_as_xyz
  1  'x, y, z'
loop_
 _atom_site_type_symbol
 _atom_site_label
 _atom_site_symmetry_multiplicity
 _atom_site_fract_x
 _atom_site_fract_y
 _atom_site_fract_z
 _atom_site_occupancy
  Er  Er0  1  0.815159  0.184841  0.815159  1
  Er  Er1  1  0.184841  0.815159  0.184841  1
  Er  Er2  1  0.815159  0.815159  0.184841  1
  Er  Er3  1  0.184841  0.184841  0.815159  1
  Tm  Tm4  1  0.062635  0.437365  0.437365  1
  Tm  Tm5  1  0.437365  0.062635  0.062635  1
  Tm  Tm6  1  0.437380  0.062620  0.437380  1
  Tm  Tm7  1  0.062620  0.437380  0.062620  1
  Tm  Tm8  1  0.437380  0.437380  0.062620  1
  Tm  Tm9  1  0.062620  0.062620  0.437380  1
  Tm  Tm10  1  0.184980  0.815020  0.815020  1
  Tm  Tm11  1  0.815020  0.184980  0.184980  1
  Th  Th12  1  0.600421  0.600555  0.600555  1
  Th  Th13  1  0.600555  0.600421  0.198469  1
  Th  Th14  1  0.600555  0.198469  0.600421  1
  Th  Th15  1  0.198469  0.600555  0.600555  1
  Cd  Cd16  1  0.833143  0.833040  0.833040  1
  Cd  Cd17  1  0.833040  0.833143  0.500776  1
  Cd  Cd18  1  0.833040  0.500776  0.833143  1
  Cd  Cd19  1  0.500776  0.833040  0.833040  1
  Ir  Ir20  1  0.392533  0.392426  0.392426  1
  Ir  Ir21  1  0.392426  0.392533  0.822614  1
  Ir  Ir22  1  0.392426  0.822614  0.392533  1
  Ir  Ir23  1  0.822614  0.392426  0.392426  1
