# generated using pymatgen
data_Ca3DyTm2(Si3Ru)8
_symmetry_space_group_name_H-M   'P 1'
_cell_length_a   10.15581527
_cell_length_b   10.15580589
_cell_length_c   8.13709025
_cell_angle_alpha   89.96667636
_cell_angle_beta   90.01882586
_cell_angle_gamma   132.74700877
_symmetry_Int_Tables_number   1
_chemical_formula_structural   Ca3DyTm2(Si3Ru)8
_chemical_formula_sum   'Ca3 Dy1 Tm2 Si24 Ru8'
_cell_volume   616.31968748
_cell_formula_units_Z   1
loop_
 _symmetry_equiv_pos_site_id
 _symmetry_equiv_pos_as_xyz
  1  'x, y, z'
loop_
 _atom_site_type_symbol
 _atom_site_label
 _atom_site_symmetry_multiplicity
 _atom_site_fract_x
 _atom_site_fract_y
 _atom_site_fract_z
 _atom_site_occupancy
  Ca  Ca0  1  0.500079  0.499912  0.499975  1
  Ca  Ca1  1  0.500904  0.000762  0.749812  1
  Ca  Ca2  1  0.999249  0.499107  0.250192  1
  Dy  Dy3  1  0.001537  0.501566  0.749854  1
  Tm  Tm4  1  0.999960  0.000053  0.000029  1
  Tm  Tm5  1  0.498493  0.998509  0.250171  1
  Si  Si6  1  0.794661  0.204659  0.499649  1
  Si  Si7  1  0.294573  0.706186  0.000400  1
  Si  Si8  1  0.205932  0.794827  0.499593  1
  Si  Si9  1  0.704955  0.294369  0.000339  1
  Si  Si10  1  0.331389  0.336610  0.831935  1
  Si  Si11  1  0.663335  0.668656  0.168082  1
  Si  Si12  1  0.170226  0.165175  0.333756  1
  Si  Si13  1  0.834787  0.829826  0.666227  1
  Si  Si14  1  0.122680  0.889402  0.728367  1
  Si  Si15  1  0.110811  0.877453  0.271708  1
  Si  Si16  1  0.608556  0.375469  0.229321  1
  Si  Si17  1  0.624278  0.391311  0.770597  1
  Si  Si18  1  0.874969  0.108292  0.271544  1
  Si  Si19  1  0.891588  0.124786  0.728537  1
  Si  Si20  1  0.389346  0.622562  0.770599  1
  Si  Si21  1  0.377575  0.610867  0.229318  1
  Si  Si22  1  0.346173  0.112702  0.504843  1
  Si  Si23  1  0.887227  0.653826  0.494963  1
  Si  Si24  1  0.388437  0.155270  0.006967  1
  Si  Si25  1  0.844752  0.611709  0.993218  1
  Si  Si26  1  0.653780  0.886560  0.492205  1
  Si  Si27  1  0.113587  0.346239  0.507596  1
  Si  Si28  1  0.610882  0.844604  0.996640  1
  Si  Si29  1  0.155401  0.389037  0.003563  1
  Ru  Ru30  1  0.670492  0.328677  0.499645  1
  Ru  Ru31  1  0.169004  0.831767  0.000407  1
  Ru  Ru32  1  0.330316  0.670454  0.499585  1
  Ru  Ru33  1  0.830099  0.169080  0.000354  1
  Ru  Ru34  1  0.124339  0.125045  0.628021  1
  Ru  Ru35  1  0.874905  0.875545  0.372048  1
  Ru  Ru36  1  0.371998  0.371227  0.124485  1
  Ru  Ru37  1  0.628728  0.627899  0.875451  1
