# generated using pymatgen
data_HoTh3(Si3Ni5)4
_symmetry_space_group_name_H-M   'P 1'
_cell_length_a   3.85523200
_cell_length_b   6.61121944
_cell_length_c   18.94445057
_cell_angle_alpha   90.32481178
_cell_angle_beta   90.00000000
_cell_angle_gamma   90.00000000
_symmetry_Int_Tables_number   1
_chemical_formula_structural   HoTh3(Si3Ni5)4
_chemical_formula_sum   'Ho1 Th3 Si12 Ni20'
_cell_volume   482.84431933
_cell_formula_units_Z   1
loop_
 _symmetry_equiv_pos_site_id
 _symmetry_equiv_pos_as_xyz
  1  'x, y, z'
loop_
 _atom_site_type_symbol
 _atom_site_label
 _atom_site_symmetry_multiplicity
 _atom_site_fract_x
 _atom_site_fract_y
 _atom_site_fract_z
 _atom_site_occupancy
  Ho  Ho0  1  0.250000  0.878838  0.144525  1
  Th  Th1  1  0.250000  0.622842  0.643671  1
  Th  Th2  1  0.750000  0.375116  0.355406  1
  Th  Th3  1  0.750000  0.123592  0.857081  1
  Si  Si4  1  0.250000  0.837956  0.929266  1
  Si  Si5  1  0.750000  0.153183  0.073381  1
  Si  Si6  1  0.750000  0.338216  0.569580  1
  Si  Si7  1  0.250000  0.660692  0.428425  1
  Si  Si8  1  0.750000  0.615871  0.767169  1
  Si  Si9  1  0.250000  0.385993  0.232143  1
  Si  Si10  1  0.250000  0.428031  0.917416  1
  Si  Si11  1  0.750000  0.583328  0.088695  1
  Si  Si12  1  0.750000  0.931600  0.586643  1
  Si  Si13  1  0.250000  0.064662  0.410736  1
  Si  Si14  1  0.250000  0.116392  0.733894  1
  Si  Si15  1  0.750000  0.885806  0.262123  1
  Ni  Ni16  1  0.250000  0.134792  0.994637  1
  Ni  Ni17  1  0.750000  0.391273  0.987353  1
  Ni  Ni18  1  0.750000  0.105647  0.480907  1
  Ni  Ni19  1  0.250000  0.616363  0.019809  1
  Ni  Ni20  1  0.250000  0.348259  0.112577  1
  Ni  Ni21  1  0.750000  0.644689  0.887380  1
  Ni  Ni22  1  0.750000  0.847521  0.383482  1
  Ni  Ni23  1  0.250000  0.150702  0.613774  1
  Ni  Ni24  1  0.250000  0.076248  0.289207  1
  Ni  Ni25  1  0.750000  0.923672  0.708145  1
  Ni  Ni26  1  0.750000  0.577171  0.207407  1
  Ni  Ni27  1  0.250000  0.423569  0.794841  1
  Ni  Ni28  1  0.750000  0.639211  0.506096  1
  Ni  Ni29  1  0.250000  0.359581  0.492234  1
  Ni  Ni30  1  0.250000  0.811070  0.802410  1
  Ni  Ni31  1  0.750000  0.189985  0.196934  1
  Ni  Ni32  1  0.750000  0.311492  0.698384  1
  Ni  Ni33  1  0.250000  0.691055  0.300380  1
  Ni  Ni34  1  0.250000  0.892748  0.516952  1
  Ni  Ni35  1  0.750000  0.862830  0.006940  1
