# generated using pymatgen
data_K8Li4LuSc3P8
_symmetry_space_group_name_H-M   'P 1'
_cell_length_a   9.86357626
_cell_length_b   9.86357494
_cell_length_c   6.42615003
_cell_angle_alpha   89.99135108
_cell_angle_beta   90.00865453
_cell_angle_gamma   98.88076804
_symmetry_Int_Tables_number   1
_chemical_formula_structural   K8Li4LuSc3P8
_chemical_formula_sum   'K8 Li4 Lu1 Sc3 P8'
_cell_volume   617.70584750
_cell_formula_units_Z   1
loop_
 _symmetry_equiv_pos_site_id
 _symmetry_equiv_pos_as_xyz
  1  'x, y, z'
loop_
 _atom_site_type_symbol
 _atom_site_label
 _atom_site_symmetry_multiplicity
 _atom_site_fract_x
 _atom_site_fract_y
 _atom_site_fract_z
 _atom_site_occupancy
  K  K0  1  0.568506  0.931622  0.750427  1
  K  K1  1  0.931622  0.568506  0.249573  1
  K  K2  1  0.432401  0.065617  0.248281  1
  K  K3  1  0.065617  0.432401  0.751719  1
  K  K4  1  0.679862  0.321752  0.788925  1
  K  K5  1  0.822086  0.177802  0.287449  1
  K  K6  1  0.321752  0.679862  0.211075  1
  K  K7  1  0.177802  0.822086  0.712551  1
  Li  Li8  1  0.619470  0.619470  0.000000  1
  Li  Li9  1  0.880956  0.880956  0.500000  1
  Li  Li10  1  0.381321  0.381321  0.000000  1
  Li  Li11  1  0.117178  0.117178  0.500000  1
  Lu  Lu12  1  0.368143  0.368143  0.500000  1
  Sc  Sc13  1  0.868548  0.868548  0.000000  1
  Sc  Sc14  1  0.632594  0.632594  0.500000  1
  Sc  Sc15  1  0.130391  0.130391  0.000000  1
  P  P16  1  0.341081  0.153621  0.756247  1
  P  P17  1  0.153621  0.341081  0.243753  1
  P  P18  1  0.660106  0.840451  0.250211  1
  P  P19  1  0.840451  0.660106  0.749789  1
  P  P20  1  0.909809  0.089420  0.775038  1
  P  P21  1  0.595937  0.411328  0.270593  1
  P  P22  1  0.089420  0.909809  0.224962  1
  P  P23  1  0.411328  0.595937  0.729407  1
