# generated using pymatgen
data_LiTi6Al6Ru11
_symmetry_space_group_name_H-M   'P 1'
_cell_length_a   4.30228700
_cell_length_b   6.14253200
_cell_length_c   12.88454100
_cell_angle_alpha   90.00000000
_cell_angle_beta   90.00239034
_cell_angle_gamma   90.00000000
_symmetry_Int_Tables_number   1
_chemical_formula_structural   LiTi6Al6Ru11
_chemical_formula_sum   'Li1 Ti6 Al6 Ru11'
_cell_volume   340.49893472
_cell_formula_units_Z   1
loop_
 _symmetry_equiv_pos_site_id
 _symmetry_equiv_pos_as_xyz
  1  'x, y, z'
loop_
 _atom_site_type_symbol
 _atom_site_label
 _atom_site_symmetry_multiplicity
 _atom_site_fract_x
 _atom_site_fract_y
 _atom_site_fract_z
 _atom_site_occupancy
  Li  Li0  1  0.500000  0.250632  0.000000  1
  Ti  Ti1  1  0.000000  0.983739  0.000000  1
  Ti  Ti2  1  0.499802  0.507344  0.171304  1
  Ti  Ti3  1  0.999819  0.001733  0.333708  1
  Ti  Ti4  1  0.500000  0.498411  0.500000  1
  Ti  Ti5  1  0.000179  0.001733  0.666292  1
  Ti  Ti6  1  0.500198  0.507344  0.828695  1
  Al  Al7  1  0.000000  0.502441  0.000000  1
  Al  Al8  1  0.499797  0.999128  0.168975  1
  Al  Al9  1  0.999828  0.499559  0.333188  1
  Al  Al10  1  0.500000  0.999972  0.500000  1
  Al  Al11  1  0.000172  0.499559  0.666811  1
  Al  Al12  1  0.500203  0.999128  0.831026  1
  Ru  Ru13  1  0.500000  0.753499  0.000000  1
  Ru  Ru14  1  0.999782  0.250666  0.162280  1
  Ru  Ru15  1  0.999835  0.749234  0.164876  1
  Ru  Ru16  1  0.499831  0.249285  0.332344  1
  Ru  Ru17  1  0.499837  0.749121  0.332544  1
  Ru  Ru18  1  0.000000  0.250069  0.500000  1
  Ru  Ru19  1  0.000000  0.749085  0.500000  1
  Ru  Ru20  1  0.500169  0.249285  0.667657  1
  Ru  Ru21  1  0.500163  0.749121  0.667457  1
  Ru  Ru22  1  0.000218  0.250666  0.837720  1
  Ru  Ru23  1  0.000165  0.749234  0.835124  1
