# generated using pymatgen
data_La4Nd6Co2Br15
_symmetry_space_group_name_H-M   'P 1'
_cell_length_a   9.59561970
_cell_length_b   10.43581252
_cell_length_c   11.22784200
_cell_angle_alpha   92.22125792
_cell_angle_beta   114.07676245
_cell_angle_gamma   110.65993725
_symmetry_Int_Tables_number   1
_chemical_formula_structural   La4Nd6Co2Br15
_chemical_formula_sum   'La4 Nd6 Co2 Br15'
_cell_volume   938.28150553
_cell_formula_units_Z   1
loop_
 _symmetry_equiv_pos_site_id
 _symmetry_equiv_pos_as_xyz
  1  'x, y, z'
loop_
 _atom_site_type_symbol
 _atom_site_label
 _atom_site_symmetry_multiplicity
 _atom_site_fract_x
 _atom_site_fract_y
 _atom_site_fract_z
 _atom_site_occupancy
  La  La0  1  0.806919  0.408328  0.273872  1
  La  La1  1  0.193081  0.591672  0.726128  1
  La  La2  1  0.669655  0.748960  0.819554  1
  La  La3  1  0.330345  0.251040  0.180446  1
  Nd  Nd4  1  0.529017  0.704534  0.105572  1
  Nd  Nd5  1  0.470983  0.295466  0.894428  1
  Nd  Nd6  1  0.595116  0.042411  0.340032  1
  Nd  Nd7  1  0.404884  0.957589  0.659968  1
  Nd  Nd8  1  0.727495  0.077923  0.048425  1
  Nd  Nd9  1  0.272505  0.922077  0.951575  1
  Co  Co10  1  0.465477  0.823481  0.878185  1
  Co  Co11  1  0.534523  0.176519  0.121815  1
  Br  Br12  1  0.000000  0.000000  0.000000  1
  Br  Br13  1  0.637211  0.888945  0.583960  1
  Br  Br14  1  0.362789  0.111055  0.416040  1
  Br  Br15  1  0.886472  0.300613  0.528905  1
  Br  Br16  1  0.113528  0.699387  0.471095  1
  Br  Br17  1  0.298680  0.766488  0.186745  1
  Br  Br18  1  0.701320  0.233512  0.813255  1
  Br  Br19  1  0.061323  0.338661  0.221430  1
  Br  Br20  1  0.166151  0.056430  0.700377  1
  Br  Br21  1  0.833849  0.943570  0.299623  1
  Br  Br22  1  0.246753  0.414510  0.948702  1
  Br  Br23  1  0.753247  0.585490  0.051298  1
  Br  Br24  1  0.403119  0.461598  0.663892  1
  Br  Br25  1  0.596881  0.538402  0.336108  1
  Br  Br26  1  0.938677  0.661339  0.778570  1
