# generated using pymatgen
data_TbDyCo9P6Os
_symmetry_space_group_name_H-M   'P 1'
_cell_length_a   3.68108100
_cell_length_b   10.33765900
_cell_length_c   11.73403400
_cell_angle_alpha   90.00000000
_cell_angle_beta   90.00000000
_cell_angle_gamma   90.00000000
_symmetry_Int_Tables_number   1
_chemical_formula_structural   TbDyCo9P6Os
_chemical_formula_sum   'Tb2 Dy2 Co18 P12 Os2'
_cell_volume   446.52411519
_cell_formula_units_Z   2
loop_
 _symmetry_equiv_pos_site_id
 _symmetry_equiv_pos_as_xyz
  1  'x, y, z'
loop_
 _atom_site_type_symbol
 _atom_site_label
 _atom_site_symmetry_multiplicity
 _atom_site_fract_x
 _atom_site_fract_y
 _atom_site_fract_z
 _atom_site_occupancy
  Tb  Tb0  1  0.250000  0.582531  0.701810  1
  Tb  Tb1  1  0.250000  0.917469  0.201810  1
  Dy  Dy2  1  0.750000  0.412884  0.295469  1
  Dy  Dy3  1  0.750000  0.087116  0.795469  1
  Co  Co4  1  0.750000  0.284226  0.008907  1
  Co  Co5  1  0.750000  0.215774  0.508907  1
  Co  Co6  1  0.250000  0.405604  0.487964  1
  Co  Co7  1  0.250000  0.094396  0.987964  1
  Co  Co8  1  0.750000  0.591534  0.509298  1
  Co  Co9  1  0.750000  0.908466  0.009298  1
  Co  Co10  1  0.250000  0.220181  0.177029  1
  Co  Co11  1  0.250000  0.279819  0.677029  1
  Co  Co12  1  0.750000  0.777815  0.822827  1
  Co  Co13  1  0.750000  0.722185  0.322827  1
  Co  Co14  1  0.250000  0.887830  0.701857  1
  Co  Co15  1  0.250000  0.612170  0.201857  1
  Co  Co16  1  0.750000  0.115642  0.301270  1
  Co  Co17  1  0.750000  0.384358  0.801270  1
  Co  Co18  1  0.250000  0.465491  0.933012  1
  Co  Co19  1  0.250000  0.034509  0.433012  1
  Co  Co20  1  0.750000  0.533037  0.068983  1
  Co  Co21  1  0.750000  0.966963  0.568983  1
  P  P22  1  0.250000  0.415985  0.112439  1
  P  P23  1  0.250000  0.084015  0.612439  1
  P  P24  1  0.750000  0.578851  0.887033  1
  P  P25  1  0.750000  0.921149  0.387033  1
  P  P26  1  0.250000  0.271273  0.869478  1
  P  P27  1  0.250000  0.228727  0.369478  1
  P  P28  1  0.750000  0.728513  0.132288  1
  P  P29  1  0.750000  0.771487  0.632288  1
  P  P30  1  0.250000  0.593488  0.390226  1
  P  P31  1  0.250000  0.906512  0.890226  1
  P  P32  1  0.750000  0.396614  0.608370  1
  P  P33  1  0.750000  0.103386  0.108370  1
  Os  Os34  1  0.250000  0.715288  0.991740  1
  Os  Os35  1  0.250000  0.784712  0.491740  1
