# generated using pymatgen
data_RbHo3CI6
_symmetry_space_group_name_H-M   'P 1'
_cell_length_a   9.33553505
_cell_length_b   9.41035520
_cell_length_c   9.89658000
_cell_angle_alpha   71.57724869
_cell_angle_beta   84.51775952
_cell_angle_gamma   89.37786435
_symmetry_Int_Tables_number   1
_chemical_formula_structural   RbHo3CI6
_chemical_formula_sum   'Rb2 Ho6 C2 I12'
_cell_volume   820.91903043
_cell_formula_units_Z   2
loop_
 _symmetry_equiv_pos_site_id
 _symmetry_equiv_pos_as_xyz
  1  'x, y, z'
loop_
 _atom_site_type_symbol
 _atom_site_label
 _atom_site_symmetry_multiplicity
 _atom_site_fract_x
 _atom_site_fract_y
 _atom_site_fract_z
 _atom_site_occupancy
  Rb  Rb0  1  0.464395  0.366557  0.327694  1
  Rb  Rb1  1  0.535606  0.633443  0.672306  1
  Ho  Ho2  1  0.920200  0.759471  0.003353  1
  Ho  Ho3  1  0.079800  0.240529  0.996646  1
  Ho  Ho4  1  0.756748  0.081228  0.001252  1
  Ho  Ho5  1  0.243251  0.918772  0.998749  1
  Ho  Ho6  1  0.972816  0.896320  0.310402  1
  Ho  Ho7  1  0.027183  0.103680  0.689599  1
  C  C8  1  0.006684  0.024771  0.923930  1
  C  C9  1  0.993315  0.975229  0.076070  1
  I  I10  1  0.075060  0.200339  0.328706  1
  I  I11  1  0.924940  0.799661  0.671294  1
  I  I12  1  0.202792  0.595776  0.999623  1
  I  I13  1  0.797209  0.404224  0.000377  1
  I  I14  1  0.402280  0.199297  0.002202  1
  I  I15  1  0.597719  0.800704  0.997797  1
  I  I16  1  0.663170  0.002630  0.327286  1
  I  I17  1  0.336830  0.997370  0.672714  1
  I  I18  1  0.278790  0.778438  0.323494  1
  I  I19  1  0.721210  0.221562  0.676506  1
  I  I20  1  0.852689  0.591635  0.327155  1
  I  I21  1  0.147310  0.408365  0.672845  1
