# generated using pymatgen
data_TbSm7(Si3Ni)4
_symmetry_space_group_name_H-M   'P 1'
_cell_length_a   8.00950900
_cell_length_b   8.00950815
_cell_length_c   8.31131500
_cell_angle_alpha   90.00000000
_cell_angle_beta   90.00000000
_cell_angle_gamma   120.00000763
_symmetry_Int_Tables_number   1
_chemical_formula_structural   TbSm7(Si3Ni)4
_chemical_formula_sum   'Tb1 Sm7 Si12 Ni4'
_cell_volume   461.75550561
_cell_formula_units_Z   1
loop_
 _symmetry_equiv_pos_site_id
 _symmetry_equiv_pos_as_xyz
  1  'x, y, z'
loop_
 _atom_site_type_symbol
 _atom_site_label
 _atom_site_symmetry_multiplicity
 _atom_site_fract_x
 _atom_site_fract_y
 _atom_site_fract_z
 _atom_site_occupancy
  Tb  Tb0  1  0.000000  0.000000  0.750000  1
  Sm  Sm1  1  0.499960  0.999918  0.250000  1
  Sm  Sm2  1  0.500053  0.000106  0.750000  1
  Sm  Sm3  1  0.000082  0.500040  0.250000  1
  Sm  Sm4  1  0.999894  0.499947  0.750000  1
  Sm  Sm5  1  0.499960  0.500040  0.250000  1
  Sm  Sm6  1  0.500053  0.499947  0.750000  1
  Sm  Sm7  1  0.000000  0.000000  0.250000  1
  Si  Si8  1  0.170649  0.341299  0.998724  1
  Si  Si9  1  0.829330  0.658660  0.998962  1
  Si  Si10  1  0.658701  0.829351  0.998724  1
  Si  Si11  1  0.829330  0.658660  0.501038  1
  Si  Si12  1  0.341340  0.170670  0.998962  1
  Si  Si13  1  0.170649  0.341299  0.501276  1
  Si  Si14  1  0.170649  0.829351  0.998724  1
  Si  Si15  1  0.341340  0.170670  0.501038  1
  Si  Si16  1  0.829330  0.170670  0.998962  1
  Si  Si17  1  0.658701  0.829351  0.501276  1
  Si  Si18  1  0.829330  0.170670  0.501038  1
  Si  Si19  1  0.170649  0.829351  0.501276  1
  Ni  Ni20  1  0.333333  0.666667  0.001321  1
  Ni  Ni21  1  0.666667  0.333333  0.002065  1
  Ni  Ni22  1  0.666667  0.333333  0.497935  1
  Ni  Ni23  1  0.333333  0.666667  0.498679  1
