# generated using pymatgen
data_Sr3Ir3RhPbO14
_symmetry_space_group_name_H-M   'P 1'
_cell_length_a   7.42052193
_cell_length_b   7.42051995
_cell_length_c   7.39579140
_cell_angle_alpha   59.88932099
_cell_angle_beta   59.88932922
_cell_angle_gamma   59.99999684
_symmetry_Int_Tables_number   1
_chemical_formula_structural   Sr3Ir3RhPbO14
_chemical_formula_sum   'Sr3 Ir3 Rh1 Pb1 O14'
_cell_volume   287.48149566
_cell_formula_units_Z   1
loop_
 _symmetry_equiv_pos_site_id
 _symmetry_equiv_pos_as_xyz
  1  'x, y, z'
loop_
 _atom_site_type_symbol
 _atom_site_label
 _atom_site_symmetry_multiplicity
 _atom_site_fract_x
 _atom_site_fract_y
 _atom_site_fract_z
 _atom_site_occupancy
  Sr  Sr0  1  0.625000  0.125000  0.125000  1
  Sr  Sr1  1  0.125000  0.625000  0.125000  1
  Sr  Sr2  1  0.125000  0.125000  0.125000  1
  Ir  Ir3  1  0.125000  0.625000  0.625000  1
  Ir  Ir4  1  0.625000  0.125000  0.625000  1
  Ir  Ir5  1  0.625000  0.625000  0.625000  1
  Rh  Rh6  1  0.625000  0.625000  0.125000  1
  Pb  Pb7  1  0.125000  0.125000  0.625000  1
  O  O8  1  0.699352  0.699352  0.306734  1
  O  O9  1  0.303723  0.303723  0.679315  1
  O  O10  1  0.713239  0.303723  0.679315  1
  O  O11  1  0.294563  0.699352  0.306734  1
  O  O12  1  0.303723  0.713239  0.679315  1
  O  O13  1  0.699352  0.294563  0.306734  1
  O  O14  1  0.550648  0.550648  0.943266  1
  O  O15  1  0.946277  0.946277  0.570685  1
  O  O16  1  0.536761  0.946277  0.570685  1
  O  O17  1  0.955437  0.550648  0.943266  1
  O  O18  1  0.946277  0.536761  0.570685  1
  O  O19  1  0.550648  0.955437  0.943266  1
  O  O20  1  0.238046  0.238046  0.285861  1
  O  O21  1  0.011954  0.011954  0.964139  1
