# generated using pymatgen
data_Er6Al17Si7Os8
_symmetry_space_group_name_H-M   'P 1'
_cell_length_a   8.67984193
_cell_length_b   8.67094098
_cell_length_c   9.45801400
_cell_angle_alpha   90.00000000
_cell_angle_beta   90.00000000
_cell_angle_gamma   120.08712910
_symmetry_Int_Tables_number   1
_chemical_formula_structural   Er6Al17Si7Os8
_chemical_formula_sum   'Er6 Al17 Si7 Os8'
_cell_volume   615.92334188
_cell_formula_units_Z   1
loop_
 _symmetry_equiv_pos_site_id
 _symmetry_equiv_pos_as_xyz
  1  'x, y, z'
loop_
 _atom_site_type_symbol
 _atom_site_label
 _atom_site_symmetry_multiplicity
 _atom_site_fract_x
 _atom_site_fract_y
 _atom_site_fract_z
 _atom_site_occupancy
  Er  Er0  1  0.193467  0.389608  0.250000  1
  Er  Er1  1  0.806121  0.612463  0.750000  1
  Er  Er2  1  0.609559  0.806629  0.250000  1
  Er  Er3  1  0.389547  0.191974  0.750000  1
  Er  Er4  1  0.196259  0.804566  0.250000  1
  Er  Er5  1  0.802098  0.192478  0.750000  1
  Al  Al6  1  0.164247  0.329235  0.578666  1
  Al  Al7  1  0.834302  0.671280  0.420812  1
  Al  Al8  1  0.671526  0.835074  0.578306  1
  Al  Al9  1  0.834302  0.671280  0.079188  1
  Al  Al10  1  0.329543  0.165948  0.421854  1
  Al  Al11  1  0.164247  0.329235  0.921334  1
  Al  Al12  1  0.163525  0.834414  0.577439  1
  Al  Al13  1  0.329543  0.165948  0.078146  1
  Al  Al14  1  0.835617  0.164176  0.421076  1
  Al  Al15  1  0.671526  0.835074  0.921694  1
  Al  Al16  1  0.835617  0.164176  0.078924  1
  Al  Al17  1  0.163525  0.834414  0.922561  1
  Al  Al18  1  0.125531  0.565241  0.750000  1
  Al  Al19  1  0.564462  0.435274  0.250000  1
  Al  Al20  1  0.438717  0.566105  0.750000  1
  Al  Al21  1  0.999443  0.999363  0.250000  1
  Al  Al22  1  0.000056  0.000792  0.750000  1
  Si  Si23  1  0.333401  0.664709  0.038916  1
  Si  Si24  1  0.666512  0.335600  0.960173  1
  Si  Si25  1  0.666512  0.335600  0.539827  1
  Si  Si26  1  0.333401  0.664709  0.461084  1
  Si  Si27  1  0.564434  0.124235  0.250000  1
  Si  Si28  1  0.436733  0.873530  0.750000  1
  Si  Si29  1  0.874939  0.435116  0.250000  1
  Os  Os30  1  0.500938  0.001030  0.001064  1
  Os  Os31  1  0.998530  0.499424  0.006594  1
  Os  Os32  1  0.500938  0.001030  0.498936  1
  Os  Os33  1  0.500670  0.500165  0.000418  1
  Os  Os34  1  0.998530  0.499424  0.493406  1
  Os  Os35  1  0.500670  0.500165  0.499582  1
  Os  Os36  1  0.000505  0.000260  0.000170  1
  Os  Os37  1  0.000505  0.000260  0.499830  1
