# generated using pymatgen
data_Nd2PaCoRh
_symmetry_space_group_name_H-M   'P 1'
_cell_length_a   6.22889948
_cell_length_b   6.22890095
_cell_length_c   6.22890026
_cell_angle_alpha   145.26307665
_cell_angle_beta   118.68441040
_cell_angle_gamma   72.43655047
_symmetry_Int_Tables_number   1
_chemical_formula_structural   Nd2PaCoRh
_chemical_formula_sum   'Nd2 Pa1 Co1 Rh1'
_cell_volume   118.71477007
_cell_formula_units_Z   1
loop_
 _symmetry_equiv_pos_site_id
 _symmetry_equiv_pos_as_xyz
  1  'x, y, z'
loop_
 _atom_site_type_symbol
 _atom_site_label
 _atom_site_symmetry_multiplicity
 _atom_site_fract_x
 _atom_site_fract_y
 _atom_site_fract_z
 _atom_site_occupancy
  Nd  Nd0  1  0.308008  0.804662  0.503347  1
  Nd  Nd1  1  0.698685  0.195338  0.503347  1
  Pa  Pa2  1  0.984455  0.000000  0.984455  1
  Co  Co3  1  0.725575  0.500000  0.225575  1
  Rh  Rh4  1  0.283276  0.500000  0.783276  1
