# generated using pymatgen
data_Ba12BiPb3I8
_symmetry_space_group_name_H-M   'P 1'
_cell_length_a   17.26085393
_cell_length_b   16.48230265
_cell_length_c   8.95172885
_cell_angle_alpha   79.48286925
_cell_angle_beta   69.85983507
_cell_angle_gamma   30.04947464
_symmetry_Int_Tables_number   1
_chemical_formula_structural   Ba12BiPb3I8
_chemical_formula_sum   'Ba12 Bi1 Pb3 I8'
_cell_volume   1160.60008276
_cell_formula_units_Z   1
loop_
 _symmetry_equiv_pos_site_id
 _symmetry_equiv_pos_as_xyz
  1  'x, y, z'
loop_
 _atom_site_type_symbol
 _atom_site_label
 _atom_site_symmetry_multiplicity
 _atom_site_fract_x
 _atom_site_fract_y
 _atom_site_fract_z
 _atom_site_occupancy
  Ba  Ba0  1  0.024751  0.472312  0.474077  1
  Ba  Ba1  1  0.778542  0.222281  0.219446  1
  Ba  Ba2  1  0.087029  0.589888  0.932322  1
  Ba  Ba3  1  0.860636  0.317149  0.663590  1
  Ba  Ba4  1  0.589888  0.087029  0.390762  1
  Ba  Ba5  1  0.158715  0.667413  0.315019  1
  Ba  Ba6  1  0.317149  0.860636  0.158624  1
  Ba  Ba7  1  0.389533  0.932016  0.586376  1
  Ba  Ba8  1  0.222281  0.778542  0.779731  1
  Ba  Ba9  1  0.472312  0.024751  0.028860  1
  Ba  Ba10  1  0.932016  0.389533  0.092076  1
  Ba  Ba11  1  0.667413  0.158715  0.858852  1
  Bi  Bi12  1  0.333280  0.333280  0.166720  1
  Pb  Pb13  1  0.166595  0.166595  0.333405  1
  Pb  Pb14  1  0.083858  0.083858  0.916142  1
  Pb  Pb15  1  0.916133  0.916133  0.083867  1
  I  I16  1  0.578942  0.578942  0.421058  1
  I  I17  1  0.671227  0.671227  0.828773  1
  I  I18  1  0.254157  0.254157  0.745843  1
  I  I19  1  0.419333  0.419333  0.580667  1
  I  I20  1  0.996983  0.996983  0.503017  1
  I  I21  1  0.747957  0.747957  0.252043  1
  I  I22  1  0.829504  0.829504  0.670496  1
  I  I23  1  0.501767  0.501767  0.998233  1
