# generated using pymatgen
data_Mn2SiMoW2C
_symmetry_space_group_name_H-M   'P 1'
_cell_length_a   7.86494883
_cell_length_b   7.86734100
_cell_length_c   7.86476335
_cell_angle_alpha   59.99070680
_cell_angle_beta   59.96832860
_cell_angle_gamma   59.98838663
_symmetry_Int_Tables_number   1
_chemical_formula_structural   Mn2SiMoW2C
_chemical_formula_sum   'Mn8 Si4 Mo4 W8 C4'
_cell_volume   343.97103564
_cell_formula_units_Z   4
loop_
 _symmetry_equiv_pos_site_id
 _symmetry_equiv_pos_as_xyz
  1  'x, y, z'
loop_
 _atom_site_type_symbol
 _atom_site_label
 _atom_site_symmetry_multiplicity
 _atom_site_fract_x
 _atom_site_fract_y
 _atom_site_fract_z
 _atom_site_occupancy
  Mn  Mn0  1  0.240867  0.919301  0.919479  1
  Mn  Mn1  1  0.919567  0.240687  0.920640  1
  Mn  Mn2  1  0.331335  0.329736  0.330251  1
  Mn  Mn3  1  0.330251  0.008678  0.331335  1
  Mn  Mn4  1  0.330243  0.330990  0.008861  1
  Mn  Mn5  1  0.008861  0.329906  0.330243  1
  Mn  Mn6  1  0.920640  0.919106  0.919567  1
  Mn  Mn7  1  0.919479  0.920353  0.240867  1
  Si  Si8  1  0.123665  0.126502  0.625412  1
  Si  Si9  1  0.124190  0.624631  0.126419  1
  Si  Si10  1  0.625412  0.124421  0.123665  1
  Si  Si11  1  0.126419  0.124760  0.124190  1
  Mo  Mo12  1  0.951318  0.548682  0.951318  1
  Mo  Mo13  1  0.949542  0.550398  0.550449  1
  Mo  Mo14  1  0.699973  0.300027  0.699973  1
  Mo  Mo15  1  0.550449  0.949610  0.949542  1
  W  W16  1  0.549523  0.549549  0.950393  1
  W  W17  1  0.950393  0.950534  0.549523  1
  W  W18  1  0.699281  0.699606  0.300332  1
  W  W19  1  0.298236  0.701511  0.701472  1
  W  W20  1  0.701472  0.298781  0.298236  1
  W  W21  1  0.300332  0.300782  0.699281  1
  W  W22  1  0.548791  0.951209  0.548791  1
  W  W23  1  0.299678  0.700322  0.299678  1
  C  C24  1  0.625272  0.624931  0.124675  1
  C  C25  1  0.124675  0.625122  0.625272  1
  C  C26  1  0.625131  0.124924  0.625004  1
  C  C27  1  0.625004  0.624941  0.625131  1
