# generated using pymatgen
data_LaEr11Nb8(ReN4)12
_symmetry_space_group_name_H-M   'P 1'
_cell_length_a   11.11573371
_cell_length_b   11.12277646
_cell_length_c   11.12277649
_cell_angle_alpha   109.33819567
_cell_angle_beta   109.55065423
_cell_angle_gamma   109.55065951
_symmetry_Int_Tables_number   1
_chemical_formula_structural   LaEr11Nb8(ReN4)12
_chemical_formula_sum   'La1 Er11 Nb8 Re12 N48'
_cell_volume   1058.28479563
_cell_formula_units_Z   1
loop_
 _symmetry_equiv_pos_site_id
 _symmetry_equiv_pos_as_xyz
  1  'x, y, z'
loop_
 _atom_site_type_symbol
 _atom_site_label
 _atom_site_symmetry_multiplicity
 _atom_site_fract_x
 _atom_site_fract_y
 _atom_site_fract_z
 _atom_site_occupancy
  La  La0  1  0.250000  0.375000  0.125000  1
  Er  Er1  1  0.377057  0.751809  0.125135  1
  Er  Er2  1  0.377057  0.125248  0.251922  1
  Er  Er3  1  0.874293  0.625092  0.249970  1
  Er  Er4  1  0.750000  0.125000  0.375000  1
  Er  Er5  1  0.122943  0.248078  0.374752  1
  Er  Er6  1  0.874293  0.749201  0.624322  1
  Er  Er7  1  0.250000  0.875000  0.625000  1
  Er  Er8  1  0.122943  0.374865  0.748191  1
  Er  Er9  1  0.625707  0.875678  0.750799  1
  Er  Er10  1  0.625707  0.250030  0.874908  1
  Er  Er11  1  0.750000  0.625000  0.875000  1
  Nb  Nb12  1  0.014886  0.010915  0.014014  1
  Nb  Nb13  1  0.499907  0.998538  0.015609  1
  Nb  Nb14  1  0.014886  0.503971  0.000872  1
  Nb  Nb15  1  0.485114  0.499128  0.996029  1
  Nb  Nb16  1  0.000093  0.015703  0.498632  1
  Nb  Nb17  1  0.499907  0.001368  0.484297  1
  Nb  Nb18  1  0.000093  0.484391  0.501462  1
  Nb  Nb19  1  0.485114  0.485986  0.489085  1
  Re  Re20  1  0.869201  0.248712  0.121789  1
  Re  Re21  1  0.750000  0.869638  0.119638  1
  Re  Re22  1  0.630799  0.378211  0.251288  1
  Re  Re23  1  0.120578  0.870821  0.249504  1
  Re  Re24  1  0.250000  0.633425  0.383425  1
  Re  Re25  1  0.630799  0.752588  0.379511  1
  Re  Re26  1  0.379422  0.250496  0.629179  1
  Re  Re27  1  0.750000  0.380362  0.630362  1
  Re  Re28  1  0.869201  0.120489  0.747412  1
  Re  Re29  1  0.379422  0.628926  0.750242  1
  Re  Re30  1  0.250000  0.116575  0.866575  1
  Re  Re31  1  0.120578  0.749758  0.871074  1
  N  N32  1  0.204415  0.110408  0.012583  1
  N  N33  1  0.313113  0.899893  0.020043  1
  N  N34  1  0.878699  0.400926  0.086311  1
  N  N35  1  0.710062  0.683802  0.085523  1
  N  N36  1  0.621301  0.413689  0.099074  1
  N  N37  1  0.973725  0.684430  0.097470  1
  N  N38  1  0.599083  0.910502  0.119160  1
  N  N39  1  0.012971  0.198684  0.118621  1
  N  N40  1  0.204415  0.594008  0.191832  1
  N  N41  1  0.487029  0.605649  0.185713  1
  N  N42  1  0.121370  0.021434  0.209085  1
  N  N43  1  0.588595  0.185924  0.206942  1
  N  N44  1  0.487029  0.381379  0.301316  1
  N  N45  1  0.313113  0.913221  0.293069  1
  N  N46  1  0.911406  0.293058  0.314076  1
  N  N47  1  0.900917  0.020077  0.311418  1
  N  N48  1  0.295585  0.487417  0.389592  1
  N  N49  1  0.588595  0.902671  0.381653  1
  N  N50  1  0.816828  0.524851  0.402388  1
  N  N51  1  0.085509  0.877730  0.400740  1
  N  N52  1  0.097116  0.624904  0.416786  1
  N  N53  1  0.816828  0.791976  0.414439  1
  N  N54  1  0.599083  0.188582  0.479923  1
  N  N55  1  0.378630  0.290915  0.478566  1
  N  N56  1  0.621301  0.707612  0.522228  1
  N  N57  1  0.402884  0.819671  0.527788  1
  N  N58  1  0.186887  0.206931  0.586780  1
  N  N59  1  0.900917  0.380840  0.589499  1
  N  N60  1  0.911406  0.118347  0.597329  1
  N  N61  1  0.186887  0.479957  0.600107  1
  N  N62  1  0.414491  0.099260  0.622270  1
  N  N63  1  0.710062  0.526260  0.624539  1
  N  N64  1  0.085509  0.707779  0.684769  1
  N  N65  1  0.097116  0.972212  0.680330  1
  N  N66  1  0.683173  0.085561  0.708024  1
  N  N67  1  0.526275  0.623745  0.710706  1
  N  N68  1  0.414491  0.815232  0.792221  1
  N  N69  1  0.878699  0.977772  0.792388  1
  N  N70  1  0.526275  0.402530  0.815571  1
  N  N71  1  0.789938  0.414477  0.816199  1
  N  N72  1  0.402884  0.083214  0.875096  1
  N  N73  1  0.973725  0.789294  0.876255  1
  N  N74  1  0.012971  0.314287  0.894351  1
  N  N75  1  0.378630  0.587715  0.900064  1
  N  N76  1  0.295585  0.308168  0.905993  1
  N  N77  1  0.121370  0.599936  0.912286  1
  N  N78  1  0.683173  0.097612  0.975149  1
  N  N79  1  0.789938  0.875461  0.973740  1
