# generated using pymatgen
data_Li6In5Pd12Pb
_symmetry_space_group_name_H-M   'P 1'
_cell_length_a   4.28291900
_cell_length_b   7.06986400
_cell_length_c   12.81848900
_cell_angle_alpha   90.00000000
_cell_angle_beta   90.00008518
_cell_angle_gamma   90.00000000
_symmetry_Int_Tables_number   1
_chemical_formula_structural   Li6In5Pd12Pb
_chemical_formula_sum   'Li6 In5 Pd12 Pb1'
_cell_volume   388.13942266
_cell_formula_units_Z   1
loop_
 _symmetry_equiv_pos_site_id
 _symmetry_equiv_pos_as_xyz
  1  'x, y, z'
loop_
 _atom_site_type_symbol
 _atom_site_label
 _atom_site_symmetry_multiplicity
 _atom_site_fract_x
 _atom_site_fract_y
 _atom_site_fract_z
 _atom_site_occupancy
  Li  Li0  1  0.000000  0.500000  0.000000  1
  Li  Li1  1  0.500003  0.000000  0.168827  1
  Li  Li2  1  0.999996  0.500000  0.334056  1
  Li  Li3  1  0.500000  0.000000  0.500000  1
  Li  Li4  1  0.000004  0.500000  0.665944  1
  Li  Li5  1  0.499997  0.000000  0.831173  1
  In  In6  1  0.500000  0.500000  0.168023  1
  In  In7  1  0.000000  0.000000  0.333465  1
  In  In8  1  0.500000  0.500000  0.500000  1
  In  In9  1  0.000000  0.000000  0.666534  1
  In  In10  1  0.500000  0.500000  0.831977  1
  Pd  Pd11  1  0.499999  0.256476  0.000000  1
  Pd  Pd12  1  0.499999  0.743524  0.000000  1
  Pd  Pd13  1  0.000000  0.255570  0.168801  1
  Pd  Pd14  1  0.000000  0.744429  0.168801  1
  Pd  Pd15  1  0.499999  0.248440  0.333960  1
  Pd  Pd16  1  0.499999  0.751560  0.333960  1
  Pd  Pd17  1  0.000000  0.252301  0.500000  1
  Pd  Pd18  1  0.000000  0.747700  0.500000  1
  Pd  Pd19  1  0.500001  0.248440  0.666041  1
  Pd  Pd20  1  0.500001  0.751560  0.666041  1
  Pd  Pd21  1  0.000000  0.255570  0.831199  1
  Pd  Pd22  1  0.000000  0.744429  0.831199  1
  Pb  Pb23  1  0.000000  0.000000  0.000000  1
