# generated using pymatgen
data_Dy2Ni3Ir
_symmetry_space_group_name_H-M   'P 1'
_cell_length_a   5.20623651
_cell_length_b   5.20623633
_cell_length_c   5.20623610
_cell_angle_alpha   58.06582032
_cell_angle_beta   58.06582169
_cell_angle_gamma   58.06582611
_symmetry_Int_Tables_number   1
_chemical_formula_structural   Dy2Ni3Ir
_chemical_formula_sum   'Dy2 Ni3 Ir1'
_cell_volume   95.35743735
_cell_formula_units_Z   1
loop_
 _symmetry_equiv_pos_site_id
 _symmetry_equiv_pos_as_xyz
  1  'x, y, z'
loop_
 _atom_site_type_symbol
 _atom_site_label
 _atom_site_symmetry_multiplicity
 _atom_site_fract_x
 _atom_site_fract_y
 _atom_site_fract_z
 _atom_site_occupancy
  Dy  Dy0  1  0.248522  0.248522  0.248522  1
  Dy  Dy1  1  0.001478  0.001478  0.001478  1
  Ni  Ni2  1  0.625000  0.625000  0.125000  1
  Ni  Ni3  1  0.625000  0.125000  0.625000  1
  Ni  Ni4  1  0.125000  0.625000  0.625000  1
  Ir  Ir5  1  0.625000  0.625000  0.625000  1
