# generated using pymatgen
data_Ta3Nb5Si2(B2W)2
_symmetry_space_group_name_H-M   'P 1'
_cell_length_a   7.28274028
_cell_length_b   7.28273958
_cell_length_c   7.28103213
_cell_angle_alpha   129.60272986
_cell_angle_beta   129.60272049
_cell_angle_gamma   74.03081895
_symmetry_Int_Tables_number   1
_chemical_formula_structural   Ta3Nb5Si2(B2W)2
_chemical_formula_sum   'Ta3 Nb5 Si2 B4 W2'
_cell_volume   223.57758625
_cell_formula_units_Z   1
loop_
 _symmetry_equiv_pos_site_id
 _symmetry_equiv_pos_as_xyz
  1  'x, y, z'
loop_
 _atom_site_type_symbol
 _atom_site_label
 _atom_site_symmetry_multiplicity
 _atom_site_fract_x
 _atom_site_fract_y
 _atom_site_fract_z
 _atom_site_occupancy
  Ta  Ta0  1  0.806100  0.306100  0.835356  1
  Ta  Ta1  1  0.193864  0.693864  0.164431  1
  Ta  Ta2  1  0.470764  0.970764  0.164356  1
  Nb  Nb3  1  0.306550  0.470701  0.499863  1
  Nb  Nb4  1  0.028806  0.193406  0.500247  1
  Nb  Nb5  1  0.529434  0.029434  0.836163  1
  Nb  Nb6  1  0.693406  0.528806  0.500247  1
  Nb  Nb7  1  0.970701  0.806550  0.499863  1
  Si  Si8  1  0.249699  0.250090  0.999996  1
  Si  Si9  1  0.750090  0.749699  0.999996  1
  B  B10  1  0.120611  0.620611  0.741250  1
  B  B11  1  0.880667  0.380667  0.260745  1
  B  B12  1  0.617448  0.882243  0.498974  1
  B  B13  1  0.382243  0.117448  0.498974  1
  W  W14  1  0.999770  0.999846  0.999770  1
  W  W15  1  0.499846  0.499770  0.999770  1
