# generated using pymatgen
data_Li4TbNd3(Si2Pb)2
_symmetry_space_group_name_H-M   'P 1'
_cell_length_a   9.81935044
_cell_length_b   9.81934987
_cell_length_c   6.94320600
_cell_angle_alpha   90.00000000
_cell_angle_beta   90.00000000
_cell_angle_gamma   153.64183523
_symmetry_Int_Tables_number   1
_chemical_formula_structural   Li4TbNd3(Si2Pb)2
_chemical_formula_sum   'Li4 Tb1 Nd3 Si4 Pb2'
_cell_volume   297.22817453
_cell_formula_units_Z   1
loop_
 _symmetry_equiv_pos_site_id
 _symmetry_equiv_pos_as_xyz
  1  'x, y, z'
loop_
 _atom_site_type_symbol
 _atom_site_label
 _atom_site_symmetry_multiplicity
 _atom_site_fract_x
 _atom_site_fract_y
 _atom_site_fract_z
 _atom_site_occupancy
  Li  Li0  1  0.182966  0.817034  0.054844  1
  Li  Li1  1  0.182966  0.817034  0.445156  1
  Li  Li2  1  0.817762  0.182238  0.947150  1
  Li  Li3  1  0.817762  0.182238  0.552850  1
  Tb  Tb4  1  0.353543  0.646457  0.250000  1
  Nd  Nd5  1  0.647982  0.352018  0.750000  1
  Nd  Nd6  1  0.547493  0.452507  0.250000  1
  Nd  Nd7  1  0.451295  0.548705  0.750000  1
  Si  Si8  1  0.055806  0.944194  0.924917  1
  Si  Si9  1  0.942490  0.057510  0.076236  1
  Si  Si10  1  0.942490  0.057510  0.423764  1
  Si  Si11  1  0.055806  0.944194  0.575083  1
  Pb  Pb12  1  0.720922  0.279078  0.250000  1
  Pb  Pb13  1  0.280715  0.719285  0.750000  1
