# generated using pymatgen
data_Y4RuCl4
_symmetry_space_group_name_H-M   'P 1'
_cell_length_a   8.59440350
_cell_length_b   8.59440505
_cell_length_c   6.53584136
_cell_angle_alpha   89.81351346
_cell_angle_beta   89.81351802
_cell_angle_gamma   89.45705716
_symmetry_Int_Tables_number   1
_chemical_formula_structural   Y4RuCl4
_chemical_formula_sum   'Y8 Ru2 Cl8'
_cell_volume   482.73523894
_cell_formula_units_Z   2
loop_
 _symmetry_equiv_pos_site_id
 _symmetry_equiv_pos_as_xyz
  1  'x, y, z'
loop_
 _atom_site_type_symbol
 _atom_site_label
 _atom_site_symmetry_multiplicity
 _atom_site_fract_x
 _atom_site_fract_y
 _atom_site_fract_z
 _atom_site_occupancy
  Y  Y0  1  0.105828  0.740147  0.988303  1
  Y  Y1  1  0.259853  0.894172  0.511697  1
  Y  Y2  1  0.894172  0.259853  0.011697  1
  Y  Y3  1  0.740147  0.105828  0.488303  1
  Y  Y4  1  0.741316  0.895174  0.008232  1
  Y  Y5  1  0.104826  0.258684  0.491768  1
  Y  Y6  1  0.258684  0.104826  0.991768  1
  Y  Y7  1  0.895174  0.741316  0.508232  1
  Ru  Ru8  1  0.007124  0.992876  0.250000  1
  Ru  Ru9  1  0.992876  0.007124  0.750000  1
  Cl  Cl10  1  0.421140  0.820700  0.898402  1
  Cl  Cl11  1  0.179300  0.578860  0.601598  1
  Cl  Cl12  1  0.578860  0.179300  0.101598  1
  Cl  Cl13  1  0.820700  0.421140  0.398402  1
  Cl  Cl14  1  0.812685  0.581619  0.899188  1
  Cl  Cl15  1  0.418381  0.187315  0.600812  1
  Cl  Cl16  1  0.187315  0.418381  0.100812  1
  Cl  Cl17  1  0.581619  0.812685  0.399188  1
