# generated using pymatgen
data_Eu2GaIrPd
_symmetry_space_group_name_H-M   'P 1'
_cell_length_a   5.78707709
_cell_length_b   5.78707631
_cell_length_c   5.78707751
_cell_angle_alpha   137.01134593
_cell_angle_beta   119.63387032
_cell_angle_gamma   76.94157973
_symmetry_Int_Tables_number   1
_chemical_formula_structural   Eu2GaIrPd
_chemical_formula_sum   'Eu2 Ga1 Ir1 Pd1'
_cell_volume   111.81214830
_cell_formula_units_Z   1
loop_
 _symmetry_equiv_pos_site_id
 _symmetry_equiv_pos_as_xyz
  1  'x, y, z'
loop_
 _atom_site_type_symbol
 _atom_site_label
 _atom_site_symmetry_multiplicity
 _atom_site_fract_x
 _atom_site_fract_y
 _atom_site_fract_z
 _atom_site_occupancy
  Eu  Eu0  1  0.703558  0.199530  0.504028  1
  Eu  Eu1  1  0.304498  0.800471  0.504029  1
  Ga  Ga2  1  0.985882  0.000000  0.985882  1
  Ir  Ir3  1  0.744874  0.500000  0.244874  1
  Pd  Pd4  1  0.261188  0.500001  0.761189  1
