# generated using pymatgen
data_Dy7ErIn3Os
_symmetry_space_group_name_H-M   'P 1'
_cell_length_a   10.39527800
_cell_length_b   10.39527765
_cell_length_c   7.05325200
_cell_angle_alpha   90.00000000
_cell_angle_beta   90.00000000
_cell_angle_gamma   119.99999475
_symmetry_Int_Tables_number   1
_chemical_formula_structural   Dy7ErIn3Os
_chemical_formula_sum   'Dy14 Er2 In6 Os2'
_cell_volume   660.07343842
_cell_formula_units_Z   2
loop_
 _symmetry_equiv_pos_site_id
 _symmetry_equiv_pos_as_xyz
  1  'x, y, z'
loop_
 _atom_site_type_symbol
 _atom_site_label
 _atom_site_symmetry_multiplicity
 _atom_site_fract_x
 _atom_site_fract_y
 _atom_site_fract_z
 _atom_site_occupancy
  Dy  Dy0  1  0.533090  0.066180  0.793863  1
  Dy  Dy1  1  0.933820  0.466910  0.793863  1
  Dy  Dy2  1  0.533090  0.466910  0.793863  1
  Dy  Dy3  1  0.466910  0.933820  0.293863  1
  Dy  Dy4  1  0.066180  0.533090  0.293863  1
  Dy  Dy5  1  0.466910  0.533090  0.293863  1
  Dy  Dy6  1  0.823137  0.646274  0.499646  1
  Dy  Dy7  1  0.353726  0.176863  0.499646  1
  Dy  Dy8  1  0.823137  0.176863  0.499646  1
  Dy  Dy9  1  0.176863  0.353726  0.999646  1
  Dy  Dy10  1  0.646274  0.823137  0.999646  1
  Dy  Dy11  1  0.176863  0.823137  0.999646  1
  Dy  Dy12  1  0.666667  0.333333  0.170821  1
  Dy  Dy13  1  0.333333  0.666667  0.670821  1
  Er  Er14  1  0.000000  0.000000  0.778748  1
  Er  Er15  1  0.000000  0.000000  0.278748  1
  In  In16  1  0.837230  0.674461  0.039314  1
  In  In17  1  0.325539  0.162770  0.039314  1
  In  In18  1  0.837230  0.162770  0.039314  1
  In  In19  1  0.162770  0.325539  0.539314  1
  In  In20  1  0.674461  0.837230  0.539314  1
  In  In21  1  0.162770  0.837230  0.539314  1
  Os  Os22  1  0.666667  0.333333  0.569914  1
  Os  Os23  1  0.333333  0.666667  0.069914  1
