# generated using pymatgen
data_DyBi3Pt3RhO14
_symmetry_space_group_name_H-M   'P 1'
_cell_length_a   7.36006416
_cell_length_b   7.39734858
_cell_length_c   7.36006400
_cell_angle_alpha   60.16658203
_cell_angle_beta   59.99999171
_cell_angle_gamma   60.16657962
_symmetry_Int_Tables_number   1
_chemical_formula_structural   DyBi3Pt3RhO14
_chemical_formula_sum   'Dy1 Bi3 Pt3 Rh1 O14'
_cell_volume   284.06201904
_cell_formula_units_Z   1
loop_
 _symmetry_equiv_pos_site_id
 _symmetry_equiv_pos_as_xyz
  1  'x, y, z'
loop_
 _atom_site_type_symbol
 _atom_site_label
 _atom_site_symmetry_multiplicity
 _atom_site_fract_x
 _atom_site_fract_y
 _atom_site_fract_z
 _atom_site_occupancy
  Dy  Dy0  1  0.125000  0.625000  0.125000  1
  Bi  Bi1  1  0.125000  0.125000  0.125000  1
  Bi  Bi2  1  0.625000  0.125000  0.125000  1
  Bi  Bi3  1  0.125000  0.125000  0.625000  1
  Pt  Pt4  1  0.625000  0.625000  0.625000  1
  Pt  Pt5  1  0.625000  0.625000  0.125000  1
  Pt  Pt6  1  0.125000  0.625000  0.625000  1
  Rh  Rh7  1  0.625000  0.125000  0.625000  1
  O  O8  1  0.245553  0.263341  0.245553  1
  O  O9  1  0.288916  0.704198  0.288916  1
  O  O10  1  0.959210  0.957545  0.541623  1
  O  O11  1  0.541623  0.957545  0.541623  1
  O  O12  1  0.717969  0.704198  0.288916  1
  O  O13  1  0.961084  0.545802  0.532031  1
  O  O14  1  0.708377  0.292455  0.708377  1
  O  O15  1  0.290790  0.292455  0.708377  1
  O  O16  1  0.708377  0.292455  0.290790  1
  O  O17  1  0.288916  0.704198  0.717969  1
  O  O18  1  0.961084  0.545802  0.961084  1
  O  O19  1  0.532031  0.545802  0.961084  1
  O  O20  1  0.004447  0.986659  0.004447  1
  O  O21  1  0.541623  0.957545  0.959210  1
