# generated using pymatgen
data_Cs3RbV3MoN8
_symmetry_space_group_name_H-M   'P 1'
_cell_length_a   5.99923200
_cell_length_b   8.50293300
_cell_length_c   11.99792400
_cell_angle_alpha   90.00000000
_cell_angle_beta   90.00000000
_cell_angle_gamma   90.00000000
_symmetry_Int_Tables_number   1
_chemical_formula_structural   Cs3RbV3MoN8
_chemical_formula_sum   'Cs6 Rb2 V6 Mo2 N16'
_cell_volume   612.02691399
_cell_formula_units_Z   2
loop_
 _symmetry_equiv_pos_site_id
 _symmetry_equiv_pos_as_xyz
  1  'x, y, z'
loop_
 _atom_site_type_symbol
 _atom_site_label
 _atom_site_symmetry_multiplicity
 _atom_site_fract_x
 _atom_site_fract_y
 _atom_site_fract_z
 _atom_site_occupancy
  Cs  Cs0  1  0.750000  0.124643  0.000000  1
  Cs  Cs1  1  0.250000  0.875357  0.500000  1
  Cs  Cs2  1  0.737829  0.367931  0.259351  1
  Cs  Cs3  1  0.237829  0.632069  0.240649  1
  Cs  Cs4  1  0.262171  0.632069  0.759351  1
  Cs  Cs5  1  0.762171  0.367931  0.740649  1
  Rb  Rb6  1  0.250000  0.894559  0.000000  1
  Rb  Rb7  1  0.750000  0.105441  0.500000  1
  V  V8  1  0.250000  0.364619  0.000000  1
  V  V9  1  0.750000  0.635381  0.500000  1
  V  V10  1  0.241355  0.120905  0.248178  1
  V  V11  1  0.741355  0.879095  0.251822  1
  V  V12  1  0.758645  0.879095  0.748178  1
  V  V13  1  0.258645  0.120905  0.751822  1
  Mo  Mo14  1  0.750000  0.622772  0.000000  1
  Mo  Mo15  1  0.250000  0.377228  0.500000  1
  N  N16  1  0.984602  0.006655  0.250298  1
  N  N17  1  0.484602  0.993345  0.249702  1
  N  N18  1  0.015398  0.993345  0.750298  1
  N  N19  1  0.515398  0.006655  0.749702  1
  N  N20  1  0.249228  0.249370  0.372503  1
  N  N21  1  0.749228  0.750630  0.127497  1
  N  N22  1  0.750772  0.750630  0.872503  1
  N  N23  1  0.250772  0.249370  0.627497  1
  N  N24  1  0.751754  0.758777  0.622773  1
  N  N25  1  0.251754  0.241223  0.877227  1
  N  N26  1  0.248246  0.241223  0.122773  1
  N  N27  1  0.748246  0.758777  0.377227  1
  N  N28  1  0.503070  0.506420  0.500088  1
  N  N29  1  0.003070  0.493580  0.999912  1
  N  N30  1  0.496930  0.493580  0.000088  1
  N  N31  1  0.996930  0.506420  0.499912  1
