# generated using pymatgen
data_Er2CdCo2
_symmetry_space_group_name_H-M   'P 1'
_cell_length_a   7.18107886
_cell_length_b   7.18107849
_cell_length_c   3.85423600
_cell_angle_alpha   90.00000000
_cell_angle_beta   90.00000000
_cell_angle_gamma   149.65205869
_symmetry_Int_Tables_number   1
_chemical_formula_structural   Er2CdCo2
_chemical_formula_sum   'Er2 Cd1 Co2'
_cell_volume   100.42084961
_cell_formula_units_Z   1
loop_
 _symmetry_equiv_pos_site_id
 _symmetry_equiv_pos_as_xyz
  1  'x, y, z'
loop_
 _atom_site_type_symbol
 _atom_site_label
 _atom_site_symmetry_multiplicity
 _atom_site_fract_x
 _atom_site_fract_y
 _atom_site_fract_z
 _atom_site_occupancy
  Er  Er0  1  0.641310  0.358687  0.499999  1
  Er  Er1  1  0.358687  0.641310  0.499999  1
  Cd  Cd2  1  0.000000  0.000000  0.000000  1
  Co  Co3  1  0.795273  0.204725  0.000000  1
  Co  Co4  1  0.204725  0.795273  0.000000  1
