# generated using pymatgen
data_Y10Ho2Zn(InFe)2
_symmetry_space_group_name_H-M   'P 1'
_cell_length_a   8.42479592
_cell_length_b   8.42479566
_cell_length_c   8.46836193
_cell_angle_alpha   109.70527638
_cell_angle_beta   109.70518536
_cell_angle_gamma   108.79323754
_symmetry_Int_Tables_number   1
_chemical_formula_structural   Y10Ho2Zn(InFe)2
_chemical_formula_sum   'Y10 Ho2 Zn1 In2 Fe2'
_cell_volume   463.86231616
_cell_formula_units_Z   1
loop_
 _symmetry_equiv_pos_site_id
 _symmetry_equiv_pos_as_xyz
  1  'x, y, z'
loop_
 _atom_site_type_symbol
 _atom_site_label
 _atom_site_symmetry_multiplicity
 _atom_site_fract_x
 _atom_site_fract_y
 _atom_site_fract_z
 _atom_site_occupancy
  Y  Y0  1  0.444594  0.199661  0.242947  1
  Y  Y1  1  0.555406  0.800339  0.757053  1
  Y  Y2  1  0.956714  0.201646  0.757053  1
  Y  Y3  1  0.201646  0.956714  0.757053  1
  Y  Y4  1  0.043286  0.798354  0.242947  1
  Y  Y5  1  0.798354  0.043286  0.242947  1
  Y  Y6  1  0.199661  0.444594  0.242948  1
  Y  Y7  1  0.800339  0.555406  0.757052  1
  Y  Y8  1  0.305822  0.305822  0.611643  1
  Y  Y9  1  0.694178  0.694178  0.388357  1
  Ho  Ho10  1  0.307984  0.692015  0.000000  1
  Ho  Ho11  1  0.692016  0.307985  0.000000  1
  Zn  Zn12  1  0.000000  0.000000  0.000000  1
  In  In13  1  0.500000  0.000000  0.500000  1
  In  In14  1  0.000000  0.500000  0.500000  1
  Fe  Fe15  1  0.388214  0.388214  0.000001  1
  Fe  Fe16  1  0.611786  0.611786  0.999999  1
