# generated using pymatgen
data_Ba6Nb5O18
_symmetry_space_group_name_H-M   'P 1'
_cell_length_a   14.74797737
_cell_length_b   14.74797712
_cell_length_c   14.74797700
_cell_angle_alpha   22.83084510
_cell_angle_beta   22.83084741
_cell_angle_gamma   22.83084287
_symmetry_Int_Tables_number   1
_chemical_formula_structural   Ba6Nb5O18
_chemical_formula_sum   'Ba6 Nb5 O18'
_cell_volume   423.76394038
_cell_formula_units_Z   1
loop_
 _symmetry_equiv_pos_site_id
 _symmetry_equiv_pos_as_xyz
  1  'x, y, z'
loop_
 _atom_site_type_symbol
 _atom_site_label
 _atom_site_symmetry_multiplicity
 _atom_site_fract_x
 _atom_site_fract_y
 _atom_site_fract_z
 _atom_site_occupancy
  Ba  Ba0  1  0.138085  0.138085  0.138085  1
  Ba  Ba1  1  0.313583  0.313583  0.313583  1
  Ba  Ba2  1  0.686417  0.686417  0.686417  1
  Ba  Ba3  1  0.861915  0.861915  0.861915  1
  Ba  Ba4  1  0.413427  0.413427  0.413427  1
  Ba  Ba5  1  0.586573  0.586573  0.586573  1
  Nb  Nb6  1  0.223250  0.223250  0.223250  1
  Nb  Nb7  1  0.500000  0.500000  0.500000  1
  Nb  Nb8  1  0.776750  0.776750  0.776750  1
  Nb  Nb9  1  0.051107  0.051107  0.051107  1
  Nb  Nb10  1  0.948893  0.948893  0.948893  1
  O  O11  1  0.082103  0.082103  0.578593  1
  O  O12  1  0.578593  0.082103  0.082103  1
  O  O13  1  0.082103  0.578593  0.082103  1
  O  O14  1  0.701758  0.195820  0.195820  1
  O  O15  1  0.195820  0.195820  0.701758  1
  O  O16  1  0.195820  0.701758  0.195820  1
  O  O17  1  0.639926  0.139189  0.639926  1
  O  O18  1  0.139189  0.639926  0.639926  1
  O  O19  1  0.639926  0.639926  0.139189  1
  O  O20  1  0.860811  0.360074  0.360074  1
  O  O21  1  0.360074  0.360074  0.860811  1
  O  O22  1  0.360074  0.860811  0.360074  1
  O  O23  1  0.804180  0.298242  0.804180  1
  O  O24  1  0.298242  0.804180  0.804180  1
  O  O25  1  0.804180  0.804180  0.298242  1
  O  O26  1  0.917897  0.421407  0.917897  1
  O  O27  1  0.917897  0.917897  0.421407  1
  O  O28  1  0.421407  0.917897  0.917897  1
