# generated using pymatgen
data_Tm8Si13Ge
_symmetry_space_group_name_H-M   'P 1'
_cell_length_a   7.16712117
_cell_length_b   7.16712049
_cell_length_c   11.23312102
_cell_angle_alpha   89.93688516
_cell_angle_beta   89.93689256
_cell_angle_gamma   133.78196405
_symmetry_Int_Tables_number   1
_chemical_formula_structural   Tm8Si13Ge
_chemical_formula_sum   'Tm8 Si13 Ge1'
_cell_volume   416.59320879
_cell_formula_units_Z   1
loop_
 _symmetry_equiv_pos_site_id
 _symmetry_equiv_pos_as_xyz
  1  'x, y, z'
loop_
 _atom_site_type_symbol
 _atom_site_label
 _atom_site_symmetry_multiplicity
 _atom_site_fract_x
 _atom_site_fract_y
 _atom_site_fract_z
 _atom_site_occupancy
  Tm  Tm0  1  0.516837  0.517255  0.501476  1
  Tm  Tm1  1  0.482745  0.483163  0.998524  1
  Tm  Tm2  1  0.000923  0.999077  0.250000  1
  Tm  Tm3  1  0.998345  0.001655  0.750000  1
  Tm  Tm4  1  0.021448  0.513285  0.620238  1
  Tm  Tm5  1  0.514589  0.020807  0.380632  1
  Tm  Tm6  1  0.979193  0.485411  0.119368  1
  Tm  Tm7  1  0.486715  0.978552  0.879762  1
  Si  Si8  1  0.437065  0.562935  0.750000  1
  Si  Si9  1  0.826517  0.525489  0.840695  1
  Si  Si10  1  0.525691  0.826858  0.158818  1
  Si  Si11  1  0.173142  0.474309  0.341182  1
  Si  Si12  1  0.474511  0.173483  0.659305  1
  Si  Si13  1  0.077531  0.418099  0.871214  1
  Si  Si14  1  0.415526  0.072489  0.126689  1
  Si  Si15  1  0.931385  0.107856  0.491346  1
  Si  Si16  1  0.109052  0.931954  0.509033  1
  Si  Si17  1  0.068046  0.890948  0.990967  1
  Si  Si18  1  0.892144  0.068615  0.008654  1
  Si  Si19  1  0.581901  0.922469  0.628786  1
  Si  Si20  1  0.927511  0.584474  0.373311  1
  Ge  Ge21  1  0.559184  0.440816  0.250000  1
