# generated using pymatgen
data_Cs(SnO2)6
_symmetry_space_group_name_H-M   'P 1'
_cell_length_a   9.76825857
_cell_length_b   11.24538322
_cell_length_c   9.18326952
_cell_angle_alpha   67.22994894
_cell_angle_beta   57.86073328
_cell_angle_gamma   43.65931293
_symmetry_Int_Tables_number   1
_chemical_formula_structural   Cs(SnO2)6
_chemical_formula_sum   'Cs2 Sn12 O24'
_cell_volume   589.69303726
_cell_formula_units_Z   2
loop_
 _symmetry_equiv_pos_site_id
 _symmetry_equiv_pos_as_xyz
  1  'x, y, z'
loop_
 _atom_site_type_symbol
 _atom_site_label
 _atom_site_symmetry_multiplicity
 _atom_site_fract_x
 _atom_site_fract_y
 _atom_site_fract_z
 _atom_site_occupancy
  Cs  Cs0  1  0.211833  0.998603  0.999493  1
  Cs  Cs1  1  0.790912  0.001508  0.000817  1
  Sn  Sn2  1  0.004758  0.485398  0.184425  1
  Sn  Sn3  1  0.257375  0.185289  0.512891  1
  Sn  Sn4  1  0.335197  0.489170  0.185153  1
  Sn  Sn5  1  0.078375  0.815127  0.487361  1
  Sn  Sn6  1  0.589532  0.184767  0.515745  1
  Sn  Sn7  1  0.333517  0.512716  0.815317  1
  Sn  Sn8  1  0.669766  0.487438  0.184994  1
  Sn  Sn9  1  0.413291  0.815252  0.484568  1
  Sn  Sn10  1  0.924495  0.184923  0.512998  1
  Sn  Sn11  1  0.668742  0.510701  0.814737  1
  Sn  Sn12  1  0.746161  0.814576  0.486488  1
  Sn  Sn13  1  0.998717  0.514611  0.815479  1
  O  O14  1  0.002066  0.367230  0.052991  1
  O  O15  1  0.141756  0.051477  0.634151  1
  O  O16  1  0.062201  0.299163  0.380517  1
  O  O17  1  0.999978  0.625953  0.292197  1
  O  O18  1  0.335999  0.367649  0.053759  1
  O  O19  1  0.475004  0.051535  0.632951  1
  O  O20  1  0.400061  0.296114  0.376463  1
  O  O21  1  0.334248  0.378665  0.703805  1
  O  O22  1  0.334171  0.626640  0.292249  1
  O  O23  1  0.670317  0.365229  0.053482  1
  O  O24  1  0.268921  0.705108  0.623824  1
  O  O25  1  0.194142  0.948293  0.366957  1
  O  O26  1  0.808530  0.051764  0.633508  1
  O  O27  1  0.733332  0.295484  0.377006  1
  O  O28  1  0.333597  0.634752  0.946489  1
  O  O29  1  0.669189  0.373478  0.707913  1
  O  O30  1  0.669017  0.621391  0.296441  1
  O  O31  1  0.603958  0.703382  0.622940  1
  O  O32  1  0.528225  0.948230  0.366756  1
  O  O33  1  0.667588  0.632433  0.946140  1
  O  O34  1  0.003817  0.374146  0.707144  1
  O  O35  1  0.941659  0.700265  0.618848  1
  O  O36  1  0.861336  0.948662  0.365951  1
  O  O37  1  0.001221  0.632876  0.947050  1
