# generated using pymatgen
data_Nd12Ni(IrI4)3
_symmetry_space_group_name_H-M   'P 1'
_cell_length_a   10.84203264
_cell_length_b   10.84125271
_cell_length_c   10.82900587
_cell_angle_alpha   109.29094371
_cell_angle_beta   109.28794618
_cell_angle_gamma   109.96077117
_symmetry_Int_Tables_number   1
_chemical_formula_structural   Nd12Ni(IrI4)3
_chemical_formula_sum   'Nd12 Ni1 Ir3 I12'
_cell_volume   978.28361932
_cell_formula_units_Z   1
loop_
 _symmetry_equiv_pos_site_id
 _symmetry_equiv_pos_as_xyz
  1  'x, y, z'
loop_
 _atom_site_type_symbol
 _atom_site_label
 _atom_site_symmetry_multiplicity
 _atom_site_fract_x
 _atom_site_fract_y
 _atom_site_fract_z
 _atom_site_occupancy
  Nd  Nd0  1  0.396899  0.603096  0.999948  1
  Nd  Nd1  1  0.603345  0.396605  0.000016  1
  Nd  Nd2  1  0.647254  0.147700  0.295410  1
  Nd  Nd3  1  0.852330  0.352733  0.704606  1
  Nd  Nd4  1  0.418713  0.400141  0.272400  1
  Nd  Nd5  1  0.128672  0.145791  0.728426  1
  Nd  Nd6  1  0.121088  0.350118  0.516996  1
  Nd  Nd7  1  0.829537  0.602077  0.482144  1
  Nd  Nd8  1  0.599847  0.581258  0.727616  1
  Nd  Nd9  1  0.854176  0.871385  0.271563  1
  Nd  Nd10  1  0.649914  0.878958  0.483023  1
  Nd  Nd11  1  0.397952  0.170333  0.517831  1
  Ni  Ni12  1  0.624018  0.376020  0.499978  1
  Ir  Ir13  1  0.625793  0.625266  0.252424  1
  Ir  Ir14  1  0.374741  0.374110  0.747513  1
  Ir  Ir15  1  0.875510  0.124539  0.500012  1
  I  I16  1  0.365571  0.634508  0.500055  1
  I  I17  1  0.134808  0.865052  0.499917  1
  I  I18  1  0.116105  0.115691  0.230805  1
  I  I19  1  0.884298  0.883970  0.769247  1
  I  I20  1  0.891415  0.633946  0.004270  1
  I  I21  1  0.629455  0.886737  0.994630  1
  I  I22  1  0.620645  0.115605  0.756912  1
  I  I23  1  0.358453  0.864265  0.243384  1
  I  I24  1  0.366028  0.108489  0.995737  1
  I  I25  1  0.113379  0.370625  0.005389  1
  I  I26  1  0.884389  0.379407  0.243127  1
  I  I27  1  0.135664  0.641575  0.756620  1
