# generated using pymatgen
data_DyY3Co8(PRu)12
_symmetry_space_group_name_H-M   'P 1'
_cell_length_a   3.78701600
_cell_length_b   10.62449200
_cell_length_c   12.12188100
_cell_angle_alpha   90.00099244
_cell_angle_beta   90.00000000
_cell_angle_gamma   90.00000000
_symmetry_Int_Tables_number   1
_chemical_formula_structural   DyY3Co8(PRu)12
_chemical_formula_sum   'Dy1 Y3 Co8 P12 Ru12'
_cell_volume   487.72535112
_cell_formula_units_Z   1
loop_
 _symmetry_equiv_pos_site_id
 _symmetry_equiv_pos_as_xyz
  1  'x, y, z'
loop_
 _atom_site_type_symbol
 _atom_site_label
 _atom_site_symmetry_multiplicity
 _atom_site_fract_x
 _atom_site_fract_y
 _atom_site_fract_z
 _atom_site_occupancy
  Dy  Dy0  1  0.250000  0.915691  0.206737  1
  Y  Y1  1  0.750000  0.084306  0.793258  1
  Y  Y2  1  0.750000  0.415701  0.293254  1
  Y  Y3  1  0.250000  0.584293  0.706749  1
  Co  Co4  1  0.250000  0.612515  0.195687  1
  Co  Co5  1  0.750000  0.387497  0.804319  1
  Co  Co6  1  0.750000  0.112475  0.304307  1
  Co  Co7  1  0.250000  0.887497  0.695683  1
  Co  Co8  1  0.250000  0.037032  0.435045  1
  Co  Co9  1  0.750000  0.962969  0.564934  1
  Co  Co10  1  0.750000  0.537036  0.064940  1
  Co  Co11  1  0.250000  0.462958  0.935051  1
  P  P12  1  0.250000  0.074239  0.612472  1
  P  P13  1  0.750000  0.925760  0.387499  1
  P  P14  1  0.750000  0.574242  0.887532  1
  P  P15  1  0.250000  0.425763  0.112468  1
  P  P16  1  0.250000  0.228175  0.371374  1
  P  P17  1  0.750000  0.771823  0.628626  1
  P  P18  1  0.750000  0.728204  0.128642  1
  P  P19  1  0.250000  0.271831  0.871376  1
  P  P20  1  0.250000  0.898539  0.887074  1
  P  P21  1  0.750000  0.101432  0.112940  1
  P  P22  1  0.750000  0.398541  0.612921  1
  P  P23  1  0.250000  0.601458  0.387076  1
  Ru  Ru24  1  0.250000  0.793962  0.486345  1
  Ru  Ru25  1  0.750000  0.206044  0.513642  1
  Ru  Ru26  1  0.750000  0.293954  0.013640  1
  Ru  Ru27  1  0.250000  0.706050  0.986367  1
  Ru  Ru28  1  0.250000  0.094696  0.985878  1
  Ru  Ru29  1  0.750000  0.905304  0.014178  1
  Ru  Ru30  1  0.750000  0.594702  0.514129  1
  Ru  Ru31  1  0.250000  0.405297  0.485872  1
  Ru  Ru32  1  0.250000  0.276246  0.680430  1
  Ru  Ru33  1  0.750000  0.723781  0.319553  1
  Ru  Ru34  1  0.750000  0.776242  0.819571  1
  Ru  Ru35  1  0.250000  0.223748  0.180431  1
