# generated using pymatgen
data_Nd5Tm(LuAu2)2
_symmetry_space_group_name_H-M   'P 1'
_cell_length_a   4.97391000
_cell_length_b   7.33429325
_cell_length_c   9.05761609
_cell_angle_alpha   90.02123775
_cell_angle_beta   90.00000000
_cell_angle_gamma   90.00000000
_symmetry_Int_Tables_number   1
_chemical_formula_structural   Nd5Tm(LuAu2)2
_chemical_formula_sum   'Nd5 Tm1 Lu2 Au4'
_cell_volume   330.42284944
_cell_formula_units_Z   1
loop_
 _symmetry_equiv_pos_site_id
 _symmetry_equiv_pos_as_xyz
  1  'x, y, z'
loop_
 _atom_site_type_symbol
 _atom_site_label
 _atom_site_symmetry_multiplicity
 _atom_site_fract_x
 _atom_site_fract_y
 _atom_site_fract_z
 _atom_site_occupancy
  Nd  Nd0  1  0.750000  0.653146  0.414636  1
  Nd  Nd1  1  0.250000  0.485110  0.177537  1
  Nd  Nd2  1  0.250000  0.994670  0.325091  1
  Nd  Nd3  1  0.750000  0.512309  0.820847  1
  Nd  Nd4  1  0.750000  0.013309  0.679861  1
  Tm  Tm5  1  0.750000  0.150143  0.076710  1
  Lu  Lu6  1  0.250000  0.852121  0.924374  1
  Lu  Lu7  1  0.250000  0.349204  0.582659  1
  Au  Au8  1  0.250000  0.240504  0.899590  1
  Au  Au9  1  0.250000  0.740536  0.613095  1
  Au  Au10  1  0.750000  0.761225  0.086391  1
  Au  Au11  1  0.750000  0.247723  0.399208  1
