# generated using pymatgen
data_DyMgTcH6
_symmetry_space_group_name_H-M   'P 1'
_cell_length_a   4.86342302
_cell_length_b   4.86345125
_cell_length_c   4.86338400
_cell_angle_alpha   119.99977383
_cell_angle_beta   119.99940814
_cell_angle_gamma   90.00059835
_symmetry_Int_Tables_number   1
_chemical_formula_structural   DyMgTcH6
_chemical_formula_sum   'Dy1 Mg1 Tc1 H6'
_cell_volume   81.34170638
_cell_formula_units_Z   1
loop_
 _symmetry_equiv_pos_site_id
 _symmetry_equiv_pos_as_xyz
  1  'x, y, z'
loop_
 _atom_site_type_symbol
 _atom_site_label
 _atom_site_symmetry_multiplicity
 _atom_site_fract_x
 _atom_site_fract_y
 _atom_site_fract_z
 _atom_site_occupancy
  Dy  Dy0  1  0.749982  0.249997  0.499983  1
  Mg  Mg1  1  0.250012  0.750002  0.500009  1
  Tc  Tc2  1  0.000135  0.000020  0.000103  1
  H  H3  1  0.254593  0.254597  0.999996  1
  H  H4  1  0.745365  0.254628  0.999996  1
  H  H5  1  0.254576  0.745417  0.999997  1
  H  H6  1  0.745382  0.745381  0.999999  1
  H  H7  1  0.745370  0.745371  0.490740  1
  H  H8  1  0.254582  0.254583  0.509170  1
