# generated using pymatgen
data_Ta6CoB5Os6
_symmetry_space_group_name_H-M   'P 1'
_cell_length_a   3.09912900
_cell_length_b   6.57567041
_cell_length_c   11.27928987
_cell_angle_alpha   90.15216875
_cell_angle_beta   90.00000000
_cell_angle_gamma   90.00000000
_symmetry_Int_Tables_number   1
_chemical_formula_structural   Ta6CoB5Os6
_chemical_formula_sum   'Ta6 Co1 B5 Os6'
_cell_volume   229.85815537
_cell_formula_units_Z   1
loop_
 _symmetry_equiv_pos_site_id
 _symmetry_equiv_pos_as_xyz
  1  'x, y, z'
loop_
 _atom_site_type_symbol
 _atom_site_label
 _atom_site_symmetry_multiplicity
 _atom_site_fract_x
 _atom_site_fract_y
 _atom_site_fract_z
 _atom_site_occupancy
  Ta  Ta0  1  0.000000  0.228341  0.952361  1
  Ta  Ta1  1  0.000000  0.764649  0.041643  1
  Ta  Ta2  1  0.000000  0.217609  0.542968  1
  Ta  Ta3  1  0.000000  0.778267  0.458460  1
  Ta  Ta4  1  0.000000  0.148595  0.261203  1
  Ta  Ta5  1  0.000000  0.854007  0.746550  1
  Co  Co6  1  0.500000  0.051514  0.084992  1
  B  B7  1  0.500000  0.944310  0.905905  1
  B  B8  1  0.500000  0.044785  0.420680  1
  B  B9  1  0.500000  0.951833  0.582689  1
  B  B10  1  0.000000  0.550780  0.250211  1
  B  B11  1  0.000000  0.452180  0.746781  1
  Os  Os12  1  0.500000  0.441305  0.124128  1
  Os  Os13  1  0.500000  0.572422  0.871593  1
  Os  Os14  1  0.500000  0.427967  0.379404  1
  Os  Os15  1  0.500000  0.570934  0.623650  1
  Os  Os16  1  0.500000  0.799988  0.259581  1
  Os  Os17  1  0.500000  0.200516  0.747201  1
