# generated using pymatgen
data_DyEr7Ga12CoAu3
_symmetry_space_group_name_H-M   'P 1'
_cell_length_a   7.10253600
_cell_length_b   8.83367119
_cell_length_c   8.83367100
_cell_angle_alpha   119.99999555
_cell_angle_beta   90.00000000
_cell_angle_gamma   90.00000000
_symmetry_Int_Tables_number   1
_chemical_formula_structural   DyEr7Ga12CoAu3
_chemical_formula_sum   'Dy1 Er7 Ga12 Co1 Au3'
_cell_volume   479.98376155
_cell_formula_units_Z   1
loop_
 _symmetry_equiv_pos_site_id
 _symmetry_equiv_pos_as_xyz
  1  'x, y, z'
loop_
 _atom_site_type_symbol
 _atom_site_label
 _atom_site_symmetry_multiplicity
 _atom_site_fract_x
 _atom_site_fract_y
 _atom_site_fract_z
 _atom_site_occupancy
  Dy  Dy0  1  0.739002  0.000000  0.000000  1
  Er  Er1  1  0.250744  0.000000  0.000000  1
  Er  Er2  1  0.749388  0.485810  0.514190  1
  Er  Er3  1  0.258269  0.523044  0.476956  1
  Er  Er4  1  0.749388  0.028380  0.514190  1
  Er  Er5  1  0.258269  0.953912  0.476956  1
  Er  Er6  1  0.749388  0.485810  0.971620  1
  Er  Er7  1  0.258269  0.523044  0.046088  1
  Ga  Ga8  1  0.955101  0.837307  0.162693  1
  Ga  Ga9  1  0.048967  0.164863  0.835137  1
  Ga  Ga10  1  0.955101  0.325387  0.162693  1
  Ga  Ga11  1  0.458953  0.163202  0.836798  1
  Ga  Ga12  1  0.048967  0.670274  0.835137  1
  Ga  Ga13  1  0.541693  0.825695  0.174305  1
  Ga  Ga14  1  0.955101  0.837307  0.674613  1
  Ga  Ga15  1  0.458953  0.673595  0.836798  1
  Ga  Ga16  1  0.048967  0.164863  0.329726  1
  Ga  Ga17  1  0.541693  0.348611  0.174305  1
  Ga  Ga18  1  0.458953  0.163202  0.326405  1
  Ga  Ga19  1  0.541693  0.825695  0.651389  1
  Co  Co20  1  0.514743  0.666667  0.333333  1
  Au  Au21  1  0.954533  0.666667  0.333333  1
  Au  Au22  1  0.032247  0.333333  0.666667  1
  Au  Au23  1  0.471623  0.333333  0.666667  1
