# generated using pymatgen
data_Dy11Ho(TmSn2)8
_symmetry_space_group_name_H-M   'P 1'
_cell_length_a   7.98740700
_cell_length_b   8.12169109
_cell_length_c   15.36069605
_cell_angle_alpha   90.00985840
_cell_angle_beta   89.98763500
_cell_angle_gamma   90.01309100
_symmetry_Int_Tables_number   1
_chemical_formula_structural   Dy11Ho(TmSn2)8
_chemical_formula_sum   'Dy11 Ho1 Tm8 Sn16'
_cell_volume   996.46752421
_cell_formula_units_Z   1
loop_
 _symmetry_equiv_pos_site_id
 _symmetry_equiv_pos_as_xyz
  1  'x, y, z'
loop_
 _atom_site_type_symbol
 _atom_site_label
 _atom_site_symmetry_multiplicity
 _atom_site_fract_x
 _atom_site_fract_y
 _atom_site_fract_z
 _atom_site_occupancy
  Dy  Dy0  1  0.132269  0.336775  0.377226  1
  Dy  Dy1  1  0.368097  0.836888  0.622323  1
  Dy  Dy2  1  0.867500  0.663361  0.878265  1
  Dy  Dy3  1  0.521166  0.320371  0.903569  1
  Dy  Dy4  1  0.021311  0.179274  0.597163  1
  Dy  Dy5  1  0.478735  0.679265  0.402570  1
  Dy  Dy6  1  0.978752  0.821078  0.097214  1
  Dy  Dy7  1  0.479583  0.679161  0.096901  1
  Dy  Dy8  1  0.979174  0.821255  0.402863  1
  Dy  Dy9  1  0.520499  0.320983  0.596829  1
  Dy  Dy10  1  0.020875  0.179171  0.903125  1
  Ho  Ho11  1  0.366544  0.837203  0.877242  1
  Tm  Tm12  1  0.866535  0.662663  0.622743  1
  Tm  Tm13  1  0.633410  0.162591  0.377051  1
  Tm  Tm14  1  0.133235  0.337638  0.122555  1
  Tm  Tm15  1  0.632457  0.162544  0.123051  1
  Tm  Tm16  1  0.198036  0.503387  0.750361  1
  Tm  Tm17  1  0.698510  0.996573  0.749800  1
  Tm  Tm18  1  0.801421  0.496165  0.250101  1
  Tm  Tm19  1  0.301759  0.003872  0.249306  1
  Sn  Sn20  1  0.294174  0.038203  0.041666  1
  Sn  Sn21  1  0.792018  0.462798  0.458556  1
  Sn  Sn22  1  0.708068  0.962905  0.541351  1
  Sn  Sn23  1  0.207784  0.536777  0.958715  1
  Sn  Sn24  1  0.704417  0.964097  0.958695  1
  Sn  Sn25  1  0.204308  0.536826  0.542404  1
  Sn  Sn26  1  0.295448  0.036937  0.457382  1
  Sn  Sn27  1  0.794240  0.461064  0.042718  1
  Sn  Sn28  1  0.564539  0.618713  0.750145  1
  Sn  Sn29  1  0.064085  0.880778  0.749889  1
  Sn  Sn30  1  0.436344  0.380069  0.249491  1
  Sn  Sn31  1  0.935137  0.119341  0.249252  1
  Sn  Sn32  1  0.330468  0.148997  0.750283  1
  Sn  Sn33  1  0.830439  0.351697  0.749802  1
  Sn  Sn34  1  0.669217  0.851813  0.249837  1
  Sn  Sn35  1  0.169445  0.648770  0.249557  1
