# generated using pymatgen
data_LuZn2Rh3
_symmetry_space_group_name_H-M   'P 1'
_cell_length_a   4.46380700
_cell_length_b   5.44590649
_cell_length_c   7.73666100
_cell_angle_alpha   90.20093888
_cell_angle_beta   90.00000000
_cell_angle_gamma   90.00000000
_symmetry_Int_Tables_number   1
_chemical_formula_structural   LuZn2Rh3
_chemical_formula_sum   'Lu2 Zn4 Rh6'
_cell_volume   188.07301454
_cell_formula_units_Z   2
loop_
 _symmetry_equiv_pos_site_id
 _symmetry_equiv_pos_as_xyz
  1  'x, y, z'
loop_
 _atom_site_type_symbol
 _atom_site_label
 _atom_site_symmetry_multiplicity
 _atom_site_fract_x
 _atom_site_fract_y
 _atom_site_fract_z
 _atom_site_occupancy
  Lu  Lu0  1  0.750000  0.999296  0.750414  1
  Lu  Lu1  1  0.250000  0.000704  0.249586  1
  Zn  Zn2  1  0.250000  0.673796  0.582152  1
  Zn  Zn3  1  0.750000  0.326204  0.417848  1
  Zn  Zn4  1  0.750000  0.676631  0.082990  1
  Zn  Zn5  1  0.250000  0.323369  0.917010  1
  Rh  Rh6  1  0.250000  0.501015  0.249526  1
  Rh  Rh7  1  0.750000  0.498985  0.750474  1
  Rh  Rh8  1  0.250000  0.804147  0.915875  1
  Rh  Rh9  1  0.750000  0.195853  0.084125  1
  Rh  Rh10  1  0.750000  0.808412  0.416494  1
  Rh  Rh11  1  0.250000  0.191588  0.583506  1
