# generated using pymatgen
data_CePr5(SnIr)6
_symmetry_space_group_name_H-M   'P 1'
_cell_length_a   7.71882400
_cell_length_b   7.68921477
_cell_length_c   8.08568900
_cell_angle_alpha   90.00000000
_cell_angle_beta   90.00000000
_cell_angle_gamma   120.14878880
_symmetry_Int_Tables_number   1
_chemical_formula_structural   CePr5(SnIr)6
_chemical_formula_sum   'Ce1 Pr5 Sn6 Ir6'
_cell_volume   414.98051474
_cell_formula_units_Z   1
loop_
 _symmetry_equiv_pos_site_id
 _symmetry_equiv_pos_as_xyz
  1  'x, y, z'
loop_
 _atom_site_type_symbol
 _atom_site_label
 _atom_site_symmetry_multiplicity
 _atom_site_fract_x
 _atom_site_fract_y
 _atom_site_fract_z
 _atom_site_occupancy
  Ce  Ce0  1  0.412149  0.999595  0.750000  1
  Pr  Pr1  1  0.407973  0.000418  0.250000  1
  Pr  Pr2  1  0.592364  0.592050  0.750000  1
  Pr  Pr3  1  0.589435  0.591064  0.250000  1
  Pr  Pr4  1  0.998203  0.408981  0.250000  1
  Pr  Pr5  1  0.000874  0.408190  0.750000  1
  Sn  Sn6  1  0.254486  0.255740  0.500641  1
  Sn  Sn7  1  0.254486  0.255740  0.999359  1
  Sn  Sn8  1  0.747383  0.000073  0.999147  1
  Sn  Sn9  1  0.998603  0.744200  0.500623  1
  Sn  Sn10  1  0.747383  0.000073  0.500853  1
  Sn  Sn11  1  0.998603  0.744200  0.999377  1
  Ir  Ir12  1  0.657579  0.321072  0.507634  1
  Ir  Ir13  1  0.657579  0.321072  0.992366  1
  Ir  Ir14  1  0.336394  0.678715  0.993312  1
  Ir  Ir15  1  0.336394  0.678715  0.506688  1
  Ir  Ir16  1  0.009794  0.000000  0.750000  1
  Ir  Ir17  1  0.000320  0.000100  0.250000  1
