# generated using pymatgen
data_HoGaFeCuSi
_symmetry_space_group_name_H-M   'P 1'
_cell_length_a   3.99394000
_cell_length_b   3.99394000
_cell_length_c   9.90882600
_cell_angle_alpha   90.00000000
_cell_angle_beta   90.00000000
_cell_angle_gamma   90.00000000
_symmetry_Int_Tables_number   1
_chemical_formula_structural   HoGaFeCuSi
_chemical_formula_sum   'Ho2 Ga2 Fe2 Cu2 Si2'
_cell_volume   158.06120000
_cell_formula_units_Z   2
loop_
 _symmetry_equiv_pos_site_id
 _symmetry_equiv_pos_as_xyz
  1  'x, y, z'
loop_
 _atom_site_type_symbol
 _atom_site_label
 _atom_site_symmetry_multiplicity
 _atom_site_fract_x
 _atom_site_fract_y
 _atom_site_fract_z
 _atom_site_occupancy
  Ho  Ho0  1  0.000000  0.500000  0.769557  1
  Ho  Ho1  1  0.500000  0.000000  0.230443  1
  Ga  Ga2  1  0.500000  0.500000  0.500000  1
  Ga  Ga3  1  0.000000  0.000000  0.500000  1
  Fe  Fe4  1  0.000000  0.000000  0.000000  1
  Fe  Fe5  1  0.500000  0.500000  0.000000  1
  Cu  Cu6  1  0.500000  0.000000  0.651627  1
  Cu  Cu7  1  0.000000  0.500000  0.348373  1
  Si  Si8  1  0.000000  0.500000  0.110517  1
  Si  Si9  1  0.500000  0.000000  0.889483  1
