# generated using pymatgen
data_Ho3Ni4P6Ru5
_symmetry_space_group_name_H-M   'P 1'
_cell_length_a   3.88226200
_cell_length_b   10.61141800
_cell_length_c   12.68339600
_cell_angle_alpha   90.00000000
_cell_angle_beta   90.00000000
_cell_angle_gamma   90.00000000
_symmetry_Int_Tables_number   1
_chemical_formula_structural   Ho3Ni4P6Ru5
_chemical_formula_sum   'Ho6 Ni8 P12 Ru10'
_cell_volume   522.50904837
_cell_formula_units_Z   2
loop_
 _symmetry_equiv_pos_site_id
 _symmetry_equiv_pos_as_xyz
  1  'x, y, z'
loop_
 _atom_site_type_symbol
 _atom_site_label
 _atom_site_symmetry_multiplicity
 _atom_site_fract_x
 _atom_site_fract_y
 _atom_site_fract_z
 _atom_site_occupancy
  Ho  Ho0  1  0.000000  0.500000  0.524880  1
  Ho  Ho1  1  0.500000  0.000000  0.475120  1
  Ho  Ho2  1  0.500000  0.816176  0.200114  1
  Ho  Ho3  1  0.500000  0.183824  0.200114  1
  Ho  Ho4  1  0.000000  0.683824  0.799886  1
  Ho  Ho5  1  0.000000  0.316176  0.799886  1
  Ni  Ni6  1  0.000000  0.500000  0.981229  1
  Ni  Ni7  1  0.500000  0.000000  0.018771  1
  Ni  Ni8  1  0.500000  0.331129  0.988070  1
  Ni  Ni9  1  0.500000  0.668871  0.988070  1
  Ni  Ni10  1  0.000000  0.168871  0.011930  1
  Ni  Ni11  1  0.000000  0.831129  0.011930  1
  Ni  Ni12  1  0.500000  0.500000  0.699359  1
  Ni  Ni13  1  0.000000  0.000000  0.300641  1
  P  P14  1  0.500000  0.314240  0.615824  1
  P  P15  1  0.500000  0.685760  0.615824  1
  P  P16  1  0.000000  0.185760  0.384176  1
  P  P17  1  0.000000  0.814240  0.384176  1
  P  P18  1  0.500000  0.500000  0.875587  1
  P  P19  1  0.000000  0.000000  0.124413  1
  P  P20  1  0.500000  0.849824  0.897317  1
  P  P21  1  0.500000  0.150176  0.897317  1
  P  P22  1  0.000000  0.650176  0.102683  1
  P  P23  1  0.000000  0.349824  0.102683  1
  P  P24  1  0.500000  0.500000  0.339042  1
  P  P25  1  0.000000  0.000000  0.660958  1
  Ru  Ru26  1  0.500000  0.298420  0.428995  1
  Ru  Ru27  1  0.500000  0.701580  0.428995  1
  Ru  Ru28  1  0.000000  0.201580  0.571005  1
  Ru  Ru29  1  0.000000  0.798420  0.571005  1
  Ru  Ru30  1  0.500000  0.874269  0.716919  1
  Ru  Ru31  1  0.500000  0.125731  0.716919  1
  Ru  Ru32  1  0.000000  0.625731  0.283081  1
  Ru  Ru33  1  0.000000  0.374269  0.283081  1
  Ru  Ru34  1  0.500000  0.500000  0.150285  1
  Ru  Ru35  1  0.000000  0.000000  0.849715  1
