# generated using pymatgen
data_YbEr3Al18OsPd5
_symmetry_space_group_name_H-M   'P 1'
_cell_length_a   7.62100710
_cell_length_b   7.62107742
_cell_length_c   9.46139328
_cell_angle_alpha   89.87869058
_cell_angle_beta   89.88342545
_cell_angle_gamma   119.50872292
_symmetry_Int_Tables_number   1
_chemical_formula_structural   YbEr3Al18OsPd5
_chemical_formula_sum   'Yb1 Er3 Al18 Os1 Pd5'
_cell_volume   478.23296259
_cell_formula_units_Z   1
loop_
 _symmetry_equiv_pos_site_id
 _symmetry_equiv_pos_as_xyz
  1  'x, y, z'
loop_
 _atom_site_type_symbol
 _atom_site_label
 _atom_site_symmetry_multiplicity
 _atom_site_fract_x
 _atom_site_fract_y
 _atom_site_fract_z
 _atom_site_occupancy
  Yb  Yb0  1  0.995534  0.671460  0.248769  1
  Er  Er1  1  0.004375  0.329331  0.751351  1
  Er  Er2  1  0.672225  0.995601  0.248708  1
  Er  Er3  1  0.327786  0.003692  0.751050  1
  Al  Al4  1  0.128438  0.129822  0.246746  1
  Al  Al5  1  0.871131  0.871086  0.752663  1
  Al  Al6  1  0.998909  0.329973  0.075021  1
  Al  Al7  1  0.000662  0.670308  0.925801  1
  Al  Al8  1  0.998669  0.664345  0.578249  1
  Al  Al9  1  0.336354  0.001263  0.422081  1
  Al  Al10  1  0.000889  0.335346  0.421474  1
  Al  Al11  1  0.664371  0.999130  0.578778  1
  Al  Al12  1  0.669828  0.000973  0.924620  1
  Al  Al13  1  0.328854  0.998284  0.074934  1
  Al  Al14  1  0.333113  0.333181  0.558716  1
  Al  Al15  1  0.665924  0.666376  0.442416  1
  Al  Al16  1  0.672036  0.671835  0.054157  1
  Al  Al17  1  0.329378  0.329306  0.944905  1
  Al  Al18  1  0.343276  0.548743  0.248851  1
  Al  Al19  1  0.659390  0.451562  0.751182  1
  Al  Al20  1  0.546139  0.338612  0.248995  1
  Al  Al21  1  0.452847  0.659166  0.751047  1
  Os  Os22  1  0.000264  0.001332  0.998980  1
  Pd  Pd23  1  0.671536  0.327085  0.999462  1
  Pd  Pd24  1  0.328172  0.672255  0.999001  1
  Pd  Pd25  1  0.327468  0.672129  0.500778  1
  Pd  Pd26  1  0.672227  0.327384  0.500523  1
  Pd  Pd27  1  0.000205  0.000417  0.500742  1
