# generated using pymatgen
data_Sc4TlCdAu4
_symmetry_space_group_name_H-M   'P 1'
_cell_length_a   3.37927800
_cell_length_b   7.82992100
_cell_length_c   7.82992100
_cell_angle_alpha   90.00000000
_cell_angle_beta   90.00000000
_cell_angle_gamma   90.00000000
_symmetry_Int_Tables_number   1
_chemical_formula_structural   Sc4TlCdAu4
_chemical_formula_sum   'Sc4 Tl1 Cd1 Au4'
_cell_volume   207.17563636
_cell_formula_units_Z   1
loop_
 _symmetry_equiv_pos_site_id
 _symmetry_equiv_pos_as_xyz
  1  'x, y, z'
loop_
 _atom_site_type_symbol
 _atom_site_label
 _atom_site_symmetry_multiplicity
 _atom_site_fract_x
 _atom_site_fract_y
 _atom_site_fract_z
 _atom_site_occupancy
  Sc  Sc0  1  0.500000  0.150718  0.679299  1
  Sc  Sc1  1  0.500000  0.849282  0.320701  1
  Sc  Sc2  1  0.500000  0.320701  0.150718  1
  Sc  Sc3  1  0.500000  0.679299  0.849282  1
  Tl  Tl4  1  0.000000  0.000000  0.000000  1
  Cd  Cd5  1  0.000000  0.500000  0.500000  1
  Au  Au6  1  0.000000  0.621063  0.141160  1
  Au  Au7  1  0.000000  0.378937  0.858840  1
  Au  Au8  1  0.000000  0.858840  0.621063  1
  Au  Au9  1  0.000000  0.141160  0.378937  1
