# generated using pymatgen
data_La5SbPdO12
_symmetry_space_group_name_H-M   'P 1'
_cell_length_a   7.24606783
_cell_length_b   7.24606680
_cell_length_c   7.77955661
_cell_angle_alpha   74.37549263
_cell_angle_beta   74.37549762
_cell_angle_gamma   50.32987617
_symmetry_Int_Tables_number   1
_chemical_formula_structural   La5SbPdO12
_chemical_formula_sum   'La5 Sb1 Pd1 O12'
_cell_volume   300.16881817
_cell_formula_units_Z   1
loop_
 _symmetry_equiv_pos_site_id
 _symmetry_equiv_pos_as_xyz
  1  'x, y, z'
loop_
 _atom_site_type_symbol
 _atom_site_label
 _atom_site_symmetry_multiplicity
 _atom_site_fract_x
 _atom_site_fract_y
 _atom_site_fract_z
 _atom_site_occupancy
  La  La0  1  0.312374  0.294631  0.359071  1
  La  La1  1  0.705369  0.687626  0.640929  1
  La  La2  1  0.700501  0.690914  0.165015  1
  La  La3  1  0.309086  0.299499  0.834985  1
  La  La4  1  0.000566  0.999434  0.500000  1
  Sb  Sb5  1  0.236174  0.763826  0.000000  1
  Pd  Pd6  1  0.746875  0.253125  0.000000  1
  O  O7  1  0.098764  0.596923  0.574796  1
  O  O8  1  0.995539  0.003450  0.175555  1
  O  O9  1  0.403077  0.901236  0.425204  1
  O  O10  1  0.493540  0.507239  0.173050  1
  O  O11  1  0.102433  0.581048  0.079660  1
  O  O12  1  0.910339  0.399918  0.422074  1
  O  O13  1  0.996550  0.004461  0.824445  1
  O  O14  1  0.600082  0.089660  0.577926  1
  O  O15  1  0.492761  0.506460  0.826950  1
  O  O16  1  0.574970  0.097951  0.080651  1
  O  O17  1  0.418952  0.897567  0.920340  1
  O  O18  1  0.902049  0.425030  0.919349  1
