# generated using pymatgen
data_Pr4As3(PIr2)4
_symmetry_space_group_name_H-M   'P 1'
_cell_length_a   4.06176300
_cell_length_b   13.08702650
_cell_length_c   13.41538106
_cell_angle_alpha   81.41800453
_cell_angle_beta   90.00000000
_cell_angle_gamma   90.00000000
_symmetry_Int_Tables_number   1
_chemical_formula_structural   Pr4As3(PIr2)4
_chemical_formula_sum   'Pr8 As6 P8 Ir16'
_cell_volume   705.12886122
_cell_formula_units_Z   2
loop_
 _symmetry_equiv_pos_site_id
 _symmetry_equiv_pos_as_xyz
  1  'x, y, z'
loop_
 _atom_site_type_symbol
 _atom_site_label
 _atom_site_symmetry_multiplicity
 _atom_site_fract_x
 _atom_site_fract_y
 _atom_site_fract_z
 _atom_site_occupancy
  Pr  Pr0  1  0.250000  0.103260  0.791747  1
  Pr  Pr1  1  0.750000  0.896740  0.208253  1
  Pr  Pr2  1  0.250000  0.278405  0.103023  1
  Pr  Pr3  1  0.750000  0.721595  0.896977  1
  Pr  Pr4  1  0.250000  0.515607  0.296043  1
  Pr  Pr5  1  0.750000  0.484393  0.703957  1
  Pr  Pr6  1  0.250000  0.210489  0.437935  1
  Pr  Pr7  1  0.750000  0.789511  0.562065  1
  As  As8  1  0.750000  0.253929  0.916371  1
  As  As9  1  0.250000  0.746071  0.083629  1
  As  As10  1  0.750000  0.095222  0.590940  1
  As  As11  1  0.250000  0.904778  0.409060  1
  As  As12  1  0.750000  0.468018  0.131520  1
  As  As13  1  0.250000  0.531982  0.868480  1
  P  P14  1  0.250000  0.053507  0.098564  1
  P  P15  1  0.750000  0.946493  0.901436  1
  P  P16  1  0.250000  0.314887  0.686630  1
  P  P17  1  0.750000  0.685113  0.313370  1
  P  P18  1  0.250000  0.607209  0.560500  1
  P  P19  1  0.750000  0.392791  0.439500  1
  P  P20  1  0.250000  0.847465  0.716919  1
  P  P21  1  0.750000  0.152535  0.283081  1
  Ir  Ir22  1  0.250000  0.985202  0.578188  1
  Ir  Ir23  1  0.750000  0.014798  0.421812  1
  Ir  Ir24  1  0.250000  0.671188  0.722283  1
  Ir  Ir25  1  0.750000  0.328812  0.277717  1
  Ir  Ir26  1  0.250000  0.556247  0.046614  1
  Ir  Ir27  1  0.750000  0.443753  0.953386  1
  Ir  Ir28  1  0.250000  0.063036  0.269691  1
  Ir  Ir29  1  0.750000  0.936964  0.730309  1
  Ir  Ir30  1  0.250000  0.425127  0.527282  1
  Ir  Ir31  1  0.750000  0.574873  0.472718  1
  Ir  Ir32  1  0.250000  0.923755  0.992538  1
  Ir  Ir33  1  0.750000  0.076245  0.007462  1
  Ir  Ir34  1  0.250000  0.718261  0.395610  1
  Ir  Ir35  1  0.750000  0.281739  0.604390  1
  Ir  Ir36  1  0.250000  0.343621  0.852484  1
  Ir  Ir37  1  0.750000  0.656379  0.147516  1
