# generated using pymatgen
data_Tm6Sc4Tl5In3Rh4
_symmetry_space_group_name_H-M   'P 1'
_cell_length_a   3.53061200
_cell_length_b   7.87411102
_cell_length_c   17.97416005
_cell_angle_alpha   90.00841353
_cell_angle_beta   90.00000000
_cell_angle_gamma   90.00000000
_symmetry_Int_Tables_number   1
_chemical_formula_structural   Tm6Sc4Tl5In3Rh4
_chemical_formula_sum   'Tm6 Sc4 Tl5 In3 Rh4'
_cell_volume   499.68938832
_cell_formula_units_Z   1
loop_
 _symmetry_equiv_pos_site_id
 _symmetry_equiv_pos_as_xyz
  1  'x, y, z'
loop_
 _atom_site_type_symbol
 _atom_site_label
 _atom_site_symmetry_multiplicity
 _atom_site_fract_x
 _atom_site_fract_y
 _atom_site_fract_z
 _atom_site_occupancy
  Tm  Tm0  1  0.000000  0.000255  0.999251  1
  Tm  Tm1  1  0.000000  0.500256  0.500215  1
  Tm  Tm2  1  0.000000  0.748291  0.781994  1
  Tm  Tm3  1  0.000000  0.251147  0.218212  1
  Tm  Tm4  1  0.000000  0.248504  0.717856  1
  Tm  Tm5  1  0.000000  0.751588  0.282075  1
  Sc  Sc6  1  0.000000  0.879603  0.590227  1
  Sc  Sc7  1  0.000000  0.121073  0.410464  1
  Sc  Sc8  1  0.000000  0.379442  0.909616  1
  Sc  Sc9  1  0.000000  0.619453  0.090352  1
  Tl  Tl10  1  0.500000  0.805768  0.438943  1
  Tl  Tl11  1  0.500000  0.194353  0.561221  1
  Tl  Tl12  1  0.500000  0.307699  0.060205  1
  Tl  Tl13  1  0.500000  0.694057  0.938740  1
  Tl  Tl14  1  0.500000  0.924486  0.148873  1
  In  In15  1  0.500000  0.077266  0.849722  1
  In  In16  1  0.500000  0.422814  0.350193  1
  In  In17  1  0.500000  0.576909  0.650033  1
  Rh  Rh18  1  0.500000  0.959241  0.694885  1
  Rh  Rh19  1  0.500000  0.041648  0.306789  1
  Rh  Rh20  1  0.500000  0.459150  0.805129  1
  Rh  Rh21  1  0.500000  0.536997  0.195004  1
