# generated using pymatgen
data_Dy3Lu17(Cd3Os)2
_symmetry_space_group_name_H-M   'P 1'
_cell_length_a   9.42336000
_cell_length_b   9.42335987
_cell_length_c   9.69654800
_cell_angle_alpha   90.00000000
_cell_angle_beta   90.00000000
_cell_angle_gamma   120.00000045
_symmetry_Int_Tables_number   1
_chemical_formula_structural   Dy3Lu17(Cd3Os)2
_chemical_formula_sum   'Dy3 Lu17 Cd6 Os2'
_cell_volume   745.69175456
_cell_formula_units_Z   1
loop_
 _symmetry_equiv_pos_site_id
 _symmetry_equiv_pos_as_xyz
  1  'x, y, z'
loop_
 _atom_site_type_symbol
 _atom_site_label
 _atom_site_symmetry_multiplicity
 _atom_site_fract_x
 _atom_site_fract_y
 _atom_site_fract_z
 _atom_site_occupancy
  Dy  Dy0  1  0.461477  0.538523  0.750000  1
  Dy  Dy1  1  0.461477  0.922954  0.750000  1
  Dy  Dy2  1  0.077046  0.538523  0.750000  1
  Lu  Lu3  1  0.000000  0.000000  0.499884  1
  Lu  Lu4  1  0.000000  0.000000  0.000116  1
  Lu  Lu5  1  0.209860  0.790140  0.440459  1
  Lu  Lu6  1  0.209860  0.419721  0.440459  1
  Lu  Lu7  1  0.580279  0.790140  0.440459  1
  Lu  Lu8  1  0.789826  0.210174  0.557301  1
  Lu  Lu9  1  0.789826  0.579653  0.557301  1
  Lu  Lu10  1  0.420347  0.210174  0.557301  1
  Lu  Lu11  1  0.789826  0.210174  0.942699  1
  Lu  Lu12  1  0.789826  0.579653  0.942699  1
  Lu  Lu13  1  0.420347  0.210174  0.942699  1
  Lu  Lu14  1  0.209860  0.790140  0.059541  1
  Lu  Lu15  1  0.209860  0.419721  0.059541  1
  Lu  Lu16  1  0.580279  0.790140  0.059541  1
  Lu  Lu17  1  0.539097  0.460903  0.250000  1
  Lu  Lu18  1  0.539097  0.078193  0.250000  1
  Lu  Lu19  1  0.921807  0.460903  0.250000  1
  Cd  Cd20  1  0.885607  0.114393  0.250000  1
  Cd  Cd21  1  0.885607  0.771216  0.250000  1
  Cd  Cd22  1  0.228784  0.114393  0.250000  1
  Cd  Cd23  1  0.112898  0.887102  0.750000  1
  Cd  Cd24  1  0.112898  0.225795  0.750000  1
  Cd  Cd25  1  0.774205  0.887102  0.750000  1
  Os  Os26  1  0.333333  0.666667  0.250000  1
  Os  Os27  1  0.666667  0.333333  0.750000  1
