# generated using pymatgen
data_Pr8Nd4Co(PtBr4)3
_symmetry_space_group_name_H-M   'P 1'
_cell_length_a   10.51202339
_cell_length_b   10.50928662
_cell_length_c   10.51029833
_cell_angle_alpha   109.27112727
_cell_angle_beta   109.28990777
_cell_angle_gamma   109.22423361
_symmetry_Int_Tables_number   1
_chemical_formula_structural   Pr8Nd4Co(PtBr4)3
_chemical_formula_sum   'Pr8 Nd4 Co1 Pt3 Br12'
_cell_volume   900.69031246
_cell_formula_units_Z   1
loop_
 _symmetry_equiv_pos_site_id
 _symmetry_equiv_pos_as_xyz
  1  'x, y, z'
loop_
 _atom_site_type_symbol
 _atom_site_label
 _atom_site_symmetry_multiplicity
 _atom_site_fract_x
 _atom_site_fract_y
 _atom_site_fract_z
 _atom_site_occupancy
  Pr  Pr0  1  0.263345  0.749897  0.237087  1
  Pr  Pr1  1  0.032791  0.260810  0.023252  1
  Pr  Pr2  1  0.022404  0.032780  0.261040  1
  Pr  Pr3  1  0.486701  0.750357  0.014081  1
  Pr  Pr4  1  0.477424  0.239616  0.467357  1
  Pr  Pr5  1  0.013395  0.485872  0.749348  1
  Pr  Pr6  1  0.261004  0.022988  0.032477  1
  Pr  Pr7  1  0.236833  0.263201  0.749892  1
  Nd  Nd8  1  0.466608  0.476860  0.239190  1
  Nd  Nd9  1  0.750244  0.236363  0.263948  1
  Nd  Nd10  1  0.750004  0.014421  0.485604  1
  Nd  Nd11  1  0.238873  0.466343  0.476463  1
  Co  Co12  1  0.250466  0.250877  0.250446  1
  Pt  Pt13  1  0.500599  0.001209  0.250607  1
  Pt  Pt14  1  0.000086  0.250105  0.498910  1
  Pt  Pt15  1  0.250618  0.499415  0.001129  1
  Br  Br16  1  0.249967  0.752966  0.745824  1
  Br  Br17  1  0.509215  0.505301  0.753983  1
  Br  Br18  1  0.990213  0.745403  0.994939  1
  Br  Br19  1  0.746411  0.249000  0.752739  1
  Br  Br20  1  0.994262  0.990219  0.744629  1
  Br  Br21  1  0.250007  0.994641  0.505361  1
  Br  Br22  1  0.753929  0.509191  0.503312  1
  Br  Br23  1  0.506279  0.250901  0.996316  1
  Br  Br24  1  0.753120  0.746751  0.251121  1
  Br  Br25  1  0.745239  0.995801  0.990826  1
  Br  Br26  1  0.994807  0.504838  0.250943  1
  Br  Br27  1  0.505154  0.753873  0.509178  1
