# generated using pymatgen
data_Er5Tm3Sc11Si16Au
_symmetry_space_group_name_H-M   'P 1'
_cell_length_a   6.97455302
_cell_length_b   7.35736580
_cell_length_c   13.95837603
_cell_angle_alpha   90.00089121
_cell_angle_beta   90.00806442
_cell_angle_gamma   89.82706091
_symmetry_Int_Tables_number   1
_chemical_formula_structural   Er5Tm3Sc11Si16Au
_chemical_formula_sum   'Er5 Tm3 Sc11 Si16 Au1'
_cell_volume   716.26155355
_cell_formula_units_Z   1
loop_
 _symmetry_equiv_pos_site_id
 _symmetry_equiv_pos_as_xyz
  1  'x, y, z'
loop_
 _atom_site_type_symbol
 _atom_site_label
 _atom_site_symmetry_multiplicity
 _atom_site_fract_x
 _atom_site_fract_y
 _atom_site_fract_z
 _atom_site_occupancy
  Er  Er0  1  0.010438  0.175585  0.096173  1
  Er  Er1  1  0.990474  0.813582  0.902259  1
  Er  Er2  1  0.486532  0.672552  0.902323  1
  Er  Er3  1  0.990351  0.813796  0.597111  1
  Er  Er4  1  0.509959  0.322756  0.096317  1
  Tm  Tm5  1  0.010691  0.175961  0.404022  1
  Tm  Tm6  1  0.509762  0.322526  0.403963  1
  Tm  Tm7  1  0.486709  0.672693  0.597443  1
  Sc  Sc8  1  0.837864  0.496836  0.250286  1
  Sc  Sc9  1  0.340370  0.004560  0.250345  1
  Sc  Sc10  1  0.654880  0.996794  0.749899  1
  Sc  Sc11  1  0.322510  0.183060  0.627427  1
  Sc  Sc12  1  0.671382  0.824006  0.375632  1
  Sc  Sc13  1  0.170521  0.678777  0.374144  1
  Sc  Sc14  1  0.671669  0.824030  0.124968  1
  Sc  Sc15  1  0.839460  0.327679  0.627460  1
  Sc  Sc16  1  0.321897  0.182534  0.872211  1
  Sc  Sc17  1  0.839574  0.327791  0.872096  1
  Sc  Sc18  1  0.170463  0.678986  0.126308  1
  Si  Si19  1  0.024285  0.089501  0.749602  1
  Si  Si20  1  0.969260  0.890486  0.250404  1
  Si  Si21  1  0.467489  0.615784  0.250332  1
  Si  Si22  1  0.535593  0.385330  0.749789  1
  Si  Si23  1  0.288369  0.877571  0.749613  1
  Si  Si24  1  0.713809  0.130300  0.250619  1
  Si  Si25  1  0.212901  0.370369  0.250518  1
  Si  Si26  1  0.777864  0.630784  0.749591  1
  Si  Si27  1  0.164893  0.459173  0.530033  1
  Si  Si28  1  0.841083  0.533773  0.462007  1
  Si  Si29  1  0.343153  0.965860  0.463391  1
  Si  Si30  1  0.841517  0.534471  0.037800  1
  Si  Si31  1  0.657652  0.034016  0.540722  1
  Si  Si32  1  0.164085  0.459232  0.970093  1
  Si  Si33  1  0.657984  0.034023  0.959309  1
  Si  Si34  1  0.343578  0.965492  0.036611  1
  Au  Au35  1  0.160976  0.529332  0.749178  1
