# generated using pymatgen
data_TbHo2Al12Os3Pt
_symmetry_space_group_name_H-M   'P 1'
_cell_length_a   8.79299800
_cell_length_b   8.83450826
_cell_length_c   9.55963042
_cell_angle_alpha   89.82507348
_cell_angle_beta   90.00000000
_cell_angle_gamma   119.84469124
_symmetry_Int_Tables_number   1
_chemical_formula_structural   TbHo2Al12Os3Pt
_chemical_formula_sum   'Tb2 Ho4 Al24 Os6 Pt2'
_cell_volume   644.11875207
_cell_formula_units_Z   2
loop_
 _symmetry_equiv_pos_site_id
 _symmetry_equiv_pos_as_xyz
  1  'x, y, z'
loop_
 _atom_site_type_symbol
 _atom_site_label
 _atom_site_symmetry_multiplicity
 _atom_site_fract_x
 _atom_site_fract_y
 _atom_site_fract_z
 _atom_site_occupancy
  Tb  Tb0  1  0.192475  0.384951  0.252705  1
  Tb  Tb1  1  0.807525  0.615049  0.747295  1
  Ho  Ho2  1  0.612387  0.809120  0.253015  1
  Ho  Ho3  1  0.387613  0.190880  0.746985  1
  Ho  Ho4  1  0.196733  0.809120  0.253015  1
  Ho  Ho5  1  0.803267  0.190880  0.746985  1
  Al  Al6  1  0.335803  0.671605  0.025966  1
  Al  Al7  1  0.664197  0.328395  0.974034  1
  Al  Al8  1  0.666542  0.333083  0.522348  1
  Al  Al9  1  0.333458  0.666917  0.477652  1
  Al  Al10  1  0.163487  0.326975  0.575586  1
  Al  Al11  1  0.836513  0.673025  0.424414  1
  Al  Al12  1  0.672143  0.835591  0.575936  1
  Al  Al13  1  0.838335  0.676670  0.079259  1
  Al  Al14  1  0.327857  0.164409  0.424064  1
  Al  Al15  1  0.161665  0.323330  0.920741  1
  Al  Al16  1  0.163448  0.835591  0.575936  1
  Al  Al17  1  0.325708  0.158265  0.077929  1
  Al  Al18  1  0.836552  0.164409  0.424064  1
  Al  Al19  1  0.674292  0.841735  0.922071  1
  Al  Al20  1  0.832557  0.158265  0.077929  1
  Al  Al21  1  0.167443  0.841735  0.922071  1
  Al  Al22  1  0.561697  0.123395  0.248941  1
  Al  Al23  1  0.438303  0.876605  0.751059  1
  Al  Al24  1  0.874940  0.438008  0.251811  1
  Al  Al25  1  0.125060  0.561992  0.748189  1
  Al  Al26  1  0.563067  0.438008  0.251811  1
  Al  Al27  1  0.436933  0.561992  0.748189  1
  Al  Al28  1  0.000940  0.001881  0.250319  1
  Al  Al29  1  0.999060  0.998119  0.749681  1
  Os  Os30  1  0.500000  0.000000  0.000000  1
  Os  Os31  1  0.500000  0.000000  0.500000  1
  Os  Os32  1  0.000000  0.500000  0.500000  1
  Os  Os33  1  0.500000  0.500000  0.500000  1
  Os  Os34  1  0.000000  0.000000  0.000000  1
  Os  Os35  1  0.000000  0.000000  0.500000  1
  Pt  Pt36  1  0.000000  0.500000  0.000000  1
  Pt  Pt37  1  0.500000  0.500000  0.000000  1
