# generated using pymatgen
data_La5Co2
_symmetry_space_group_name_H-M   'P 1'
_cell_length_a   9.09561089
_cell_length_b   9.09561112
_cell_length_c   7.09893278
_cell_angle_alpha   86.03040615
_cell_angle_beta   86.03040817
_cell_angle_gamma   42.98785187
_symmetry_Int_Tables_number   1
_chemical_formula_structural   La5Co2
_chemical_formula_sum   'La10 Co4'
_cell_volume   399.33375308
_cell_formula_units_Z   2
loop_
 _symmetry_equiv_pos_site_id
 _symmetry_equiv_pos_as_xyz
  1  'x, y, z'
loop_
 _atom_site_type_symbol
 _atom_site_label
 _atom_site_symmetry_multiplicity
 _atom_site_fract_x
 _atom_site_fract_y
 _atom_site_fract_z
 _atom_site_occupancy
  La  La0  1  0.019104  0.795070  0.899428  1
  La  La1  1  0.204930  0.980896  0.600572  1
  La  La2  1  0.980896  0.204930  0.100572  1
  La  La3  1  0.795070  0.019104  0.399428  1
  La  La4  1  0.358786  0.215490  0.833010  1
  La  La5  1  0.784510  0.641214  0.666990  1
  La  La6  1  0.641214  0.784510  0.166990  1
  La  La7  1  0.215490  0.358786  0.333010  1
  La  La8  1  0.576461  0.423539  0.750000  1
  La  La9  1  0.423539  0.576461  0.250000  1
  Co  Co10  1  0.183324  0.598730  0.583340  1
  Co  Co11  1  0.401270  0.816676  0.916660  1
  Co  Co12  1  0.816676  0.401270  0.416660  1
  Co  Co13  1  0.598730  0.183324  0.083340  1
