# generated using pymatgen
data_Nd5Tm(In4Te)2
_symmetry_space_group_name_H-M   'P 1'
_cell_length_a   8.55099064
_cell_length_b   8.55099064
_cell_length_c   8.55099100
_cell_angle_alpha   119.18754751
_cell_angle_beta   119.18754749
_cell_angle_gamma   91.41307036
_symmetry_Int_Tables_number   1
_chemical_formula_structural   Nd5Tm(In4Te)2
_chemical_formula_sum   'Nd5 Tm1 In8 Te2'
_cell_volume   447.39602671
_cell_formula_units_Z   1
loop_
 _symmetry_equiv_pos_site_id
 _symmetry_equiv_pos_as_xyz
  1  'x, y, z'
loop_
 _atom_site_type_symbol
 _atom_site_label
 _atom_site_symmetry_multiplicity
 _atom_site_fract_x
 _atom_site_fract_y
 _atom_site_fract_z
 _atom_site_occupancy
  Nd  Nd0  1  0.250000  0.250000  0.000000  1
  Nd  Nd1  1  0.658502  0.158502  0.817005  1
  Nd  Nd2  1  0.341498  0.841498  0.182995  1
  Nd  Nd3  1  0.158502  0.341498  0.500000  1
  Nd  Nd4  1  0.841498  0.658502  0.500000  1
  Tm  Tm5  1  0.750000  0.750000  0.000000  1
  In  In6  1  0.333088  0.831041  0.792245  1
  In  In7  1  0.668959  0.166912  0.207755  1
  In  In8  1  0.038795  0.540842  0.207755  1
  In  In9  1  0.831041  0.038795  0.497953  1
  In  In10  1  0.461205  0.668959  0.502047  1
  In  In11  1  0.959158  0.461205  0.792245  1
  In  In12  1  0.166912  0.959158  0.497953  1
  In  In13  1  0.540842  0.333088  0.502047  1
  Te  Te14  1  0.505554  0.505554  0.000000  1
  Te  Te15  1  0.994446  0.994446  0.000000  1
