# generated using pymatgen
data_Tb7Ho7Th2CdHg3Ir4
_symmetry_space_group_name_H-M   'P 1'
_cell_length_a   9.69567675
_cell_length_b   9.69566829
_cell_length_c   9.68515700
_cell_angle_alpha   60.03538876
_cell_angle_beta   60.03555398
_cell_angle_gamma   60.21387239
_symmetry_Int_Tables_number   1
_chemical_formula_structural   Tb7Ho7Th2CdHg3Ir4
_chemical_formula_sum   'Tb7 Ho7 Th2 Cd1 Hg3 Ir4'
_cell_volume   645.17568552
_cell_formula_units_Z   1
loop_
 _symmetry_equiv_pos_site_id
 _symmetry_equiv_pos_as_xyz
  1  'x, y, z'
loop_
 _atom_site_type_symbol
 _atom_site_label
 _atom_site_symmetry_multiplicity
 _atom_site_fract_x
 _atom_site_fract_y
 _atom_site_fract_z
 _atom_site_occupancy
  Tb  Tb0  1  0.060927  0.060764  0.439142  1
  Tb  Tb1  1  0.187987  0.813062  0.813023  1
  Tb  Tb2  1  0.812677  0.189018  0.185283  1
  Tb  Tb3  1  0.812639  0.189064  0.813021  1
  Tb  Tb4  1  0.187986  0.813057  0.185948  1
  Tb  Tb5  1  0.813493  0.813757  0.186395  1
  Tb  Tb6  1  0.190411  0.193050  0.808279  1
  Ho  Ho7  1  0.602635  0.195985  0.600676  1
  Ho  Ho8  1  0.194583  0.602915  0.601238  1
  Ho  Ho9  1  0.061800  0.440128  0.438434  1
  Ho  Ho10  1  0.439349  0.062205  0.060097  1
  Ho  Ho11  1  0.439410  0.062214  0.438282  1
  Ho  Ho12  1  0.061810  0.440069  0.059679  1
  Ho  Ho13  1  0.434911  0.435850  0.064599  1
  Th  Th14  1  0.596994  0.596567  0.601186  1
  Th  Th15  1  0.596985  0.596514  0.205295  1
  Cd  Cd16  1  0.503689  0.833096  0.831616  1
  Hg  Hg17  1  0.834080  0.835741  0.832751  1
  Hg  Hg18  1  0.834080  0.835754  0.497421  1
  Hg  Hg19  1  0.835963  0.493392  0.835336  1
  Ir  Ir20  1  0.390642  0.390822  0.395881  1
  Ir  Ir21  1  0.390679  0.390819  0.822622  1
  Ir  Ir22  1  0.393938  0.822226  0.391922  1
  Ir  Ir23  1  0.822333  0.393934  0.391872  1
