# generated using pymatgen
data_YErIrRu3
_symmetry_space_group_name_H-M   'P 1'
_cell_length_a   5.25599500
_cell_length_b   5.25599458
_cell_length_c   8.96363900
_cell_angle_alpha   90.00000000
_cell_angle_beta   90.00000000
_cell_angle_gamma   119.99999633
_symmetry_Int_Tables_number   1
_chemical_formula_structural   YErIrRu3
_chemical_formula_sum   'Y2 Er2 Ir2 Ru6'
_cell_volume   214.44941097
_cell_formula_units_Z   2
loop_
 _symmetry_equiv_pos_site_id
 _symmetry_equiv_pos_as_xyz
  1  'x, y, z'
loop_
 _atom_site_type_symbol
 _atom_site_label
 _atom_site_symmetry_multiplicity
 _atom_site_fract_x
 _atom_site_fract_y
 _atom_site_fract_z
 _atom_site_occupancy
  Y  Y0  1  0.333333  0.666667  0.430581  1
  Y  Y1  1  0.666667  0.333333  0.569419  1
  Er  Er2  1  0.666667  0.333333  0.930827  1
  Er  Er3  1  0.333333  0.666667  0.069173  1
  Ir  Ir4  1  0.000000  0.000000  0.000000  1
  Ir  Ir5  1  0.000000  0.000000  0.500000  1
  Ru  Ru6  1  0.170238  0.340477  0.750543  1
  Ru  Ru7  1  0.170238  0.829762  0.750543  1
  Ru  Ru8  1  0.340477  0.170238  0.249457  1
  Ru  Ru9  1  0.829762  0.659523  0.249457  1
  Ru  Ru10  1  0.659523  0.829762  0.750543  1
  Ru  Ru11  1  0.829762  0.170238  0.249457  1
