# generated using pymatgen
data_Ho4Er8InNi5
_symmetry_space_group_name_H-M   'P 1'
_cell_length_a   8.25120752
_cell_length_b   8.25120747
_cell_length_c   8.25120800
_cell_angle_alpha   110.90688127
_cell_angle_beta   110.61551639
_cell_angle_gamma   106.92110454
_symmetry_Int_Tables_number   1
_chemical_formula_structural   Ho4Er8InNi5
_chemical_formula_sum   'Ho4 Er8 In1 Ni5'
_cell_volume   431.80297909
_cell_formula_units_Z   1
loop_
 _symmetry_equiv_pos_site_id
 _symmetry_equiv_pos_as_xyz
  1  'x, y, z'
loop_
 _atom_site_type_symbol
 _atom_site_label
 _atom_site_symmetry_multiplicity
 _atom_site_fract_x
 _atom_site_fract_y
 _atom_site_fract_z
 _atom_site_occupancy
  Ho  Ho0  1  0.293588  0.182966  0.476554  1
  Ho  Ho1  1  0.706412  0.817034  0.523446  1
  Ho  Ho2  1  0.293588  0.817034  0.110621  1
  Ho  Ho3  1  0.706412  0.182966  0.889379  1
  Er  Er4  1  0.627244  0.321220  0.306025  1
  Er  Er5  1  0.372756  0.678780  0.693975  1
  Er  Er6  1  0.015196  0.321220  0.693975  1
  Er  Er7  1  0.984804  0.678780  0.306025  1
  Er  Er8  1  0.214008  0.403829  0.189821  1
  Er  Er9  1  0.785992  0.596171  0.810179  1
  Er  Er10  1  0.214008  0.024187  0.810179  1
  Er  Er11  1  0.785992  0.975813  0.189821  1
  In  In12  1  0.500000  0.500000  0.000000  1
  Ni  Ni13  1  0.000000  0.363948  0.363948  1
  Ni  Ni14  1  0.000000  0.636052  0.636052  1
  Ni  Ni15  1  0.374976  0.874976  0.500000  1
  Ni  Ni16  1  0.625024  0.125024  0.500000  1
  Ni  Ni17  1  0.000000  0.000000  0.000000  1
