# generated using pymatgen
data_Dy3Ho(Tc3Os)2
_symmetry_space_group_name_H-M   'P 1'
_cell_length_a   5.29241500
_cell_length_b   5.29241452
_cell_length_c   9.10563200
_cell_angle_alpha   90.00000000
_cell_angle_beta   90.00000000
_cell_angle_gamma   120.00000922
_symmetry_Int_Tables_number   1
_chemical_formula_structural   Dy3Ho(Tc3Os)2
_chemical_formula_sum   'Dy3 Ho1 Tc6 Os2'
_cell_volume   220.87594987
_cell_formula_units_Z   1
loop_
 _symmetry_equiv_pos_site_id
 _symmetry_equiv_pos_as_xyz
  1  'x, y, z'
loop_
 _atom_site_type_symbol
 _atom_site_label
 _atom_site_symmetry_multiplicity
 _atom_site_fract_x
 _atom_site_fract_y
 _atom_site_fract_z
 _atom_site_occupancy
  Dy  Dy0  1  0.333333  0.666667  0.436419  1
  Dy  Dy1  1  0.666667  0.333333  0.563116  1
  Dy  Dy2  1  0.666667  0.333333  0.936951  1
  Ho  Ho3  1  0.333333  0.666667  0.063705  1
  Tc  Tc4  1  0.829520  0.170480  0.249724  1
  Tc  Tc5  1  0.829520  0.659042  0.249724  1
  Tc  Tc6  1  0.340958  0.170480  0.249724  1
  Tc  Tc7  1  0.170566  0.829434  0.750205  1
  Tc  Tc8  1  0.170566  0.341132  0.750205  1
  Tc  Tc9  1  0.658868  0.829434  0.750205  1
  Os  Os10  1  0.000000  0.000000  0.499981  1
  Os  Os11  1  0.000000  0.000000  0.000039  1
