# generated using pymatgen
data_Pr12Ir3Au
_symmetry_space_group_name_H-M   'P 1'
_cell_length_a   6.65542325
_cell_length_b   7.43155026
_cell_length_c   10.07079900
_cell_angle_alpha   90.00000000
_cell_angle_beta   90.00000000
_cell_angle_gamma   90.03076680
_symmetry_Int_Tables_number   1
_chemical_formula_structural   Pr12Ir3Au
_chemical_formula_sum   'Pr12 Ir3 Au1'
_cell_volume   498.10277830
_cell_formula_units_Z   1
loop_
 _symmetry_equiv_pos_site_id
 _symmetry_equiv_pos_as_xyz
  1  'x, y, z'
loop_
 _atom_site_type_symbol
 _atom_site_label
 _atom_site_symmetry_multiplicity
 _atom_site_fract_x
 _atom_site_fract_y
 _atom_site_fract_z
 _atom_site_occupancy
  Pr  Pr0  1  0.339216  0.669166  0.060813  1
  Pr  Pr1  1  0.172916  0.185797  0.441227  1
  Pr  Pr2  1  0.673757  0.324140  0.566338  1
  Pr  Pr3  1  0.828650  0.825589  0.931193  1
  Pr  Pr4  1  0.673757  0.324140  0.933662  1
  Pr  Pr5  1  0.828650  0.825589  0.568807  1
  Pr  Pr6  1  0.339216  0.669166  0.439187  1
  Pr  Pr7  1  0.172916  0.185797  0.058773  1
  Pr  Pr8  1  0.851419  0.519443  0.250000  1
  Pr  Pr9  1  0.625995  0.039895  0.250000  1
  Pr  Pr10  1  0.141490  0.462780  0.750000  1
  Pr  Pr11  1  0.358426  0.963091  0.750000  1
  Ir  Ir12  1  0.431391  0.382047  0.250000  1
  Ir  Ir13  1  0.936269  0.119144  0.750000  1
  Ir  Ir14  1  0.562200  0.618882  0.750000  1
  Au  Au15  1  0.063731  0.885336  0.250000  1
