# generated using pymatgen
data_Nd8CoHg3
_symmetry_space_group_name_H-M   'P 1'
_cell_length_a   10.57000200
_cell_length_b   10.57000315
_cell_length_c   7.29118400
_cell_angle_alpha   90.00000000
_cell_angle_beta   90.00000000
_cell_angle_gamma   120.00000266
_symmetry_Int_Tables_number   1
_chemical_formula_structural   Nd8CoHg3
_chemical_formula_sum   'Nd16 Co2 Hg6'
_cell_volume   705.47051051
_cell_formula_units_Z   2
loop_
 _symmetry_equiv_pos_site_id
 _symmetry_equiv_pos_as_xyz
  1  'x, y, z'
loop_
 _atom_site_type_symbol
 _atom_site_label
 _atom_site_symmetry_multiplicity
 _atom_site_fract_x
 _atom_site_fract_y
 _atom_site_fract_z
 _atom_site_occupancy
  Nd  Nd0  1  0.828784  0.657567  0.481057  1
  Nd  Nd1  1  0.342433  0.171216  0.481057  1
  Nd  Nd2  1  0.828784  0.171216  0.481057  1
  Nd  Nd3  1  0.171216  0.342433  0.981057  1
  Nd  Nd4  1  0.657567  0.828784  0.981057  1
  Nd  Nd5  1  0.171216  0.828784  0.981057  1
  Nd  Nd6  1  0.666667  0.333333  0.189035  1
  Nd  Nd7  1  0.333333  0.666667  0.689035  1
  Nd  Nd8  1  0.540766  0.081532  0.789525  1
  Nd  Nd9  1  0.918468  0.459234  0.789525  1
  Nd  Nd10  1  0.540766  0.459234  0.789525  1
  Nd  Nd11  1  0.459234  0.918468  0.289525  1
  Nd  Nd12  1  0.081532  0.540766  0.289525  1
  Nd  Nd13  1  0.459234  0.540766  0.289525  1
  Nd  Nd14  1  0.000000  0.000000  0.788027  1
  Nd  Nd15  1  0.000000  0.000000  0.288027  1
  Co  Co16  1  0.666667  0.333333  0.550196  1
  Co  Co17  1  0.333333  0.666667  0.050196  1
  Hg  Hg18  1  0.832341  0.664682  0.041373  1
  Hg  Hg19  1  0.335318  0.167659  0.041373  1
  Hg  Hg20  1  0.832341  0.167659  0.041373  1
  Hg  Hg21  1  0.167659  0.335318  0.541373  1
  Hg  Hg22  1  0.664682  0.832341  0.541373  1
  Hg  Hg23  1  0.167659  0.832341  0.541373  1
