# generated using pymatgen
data_Tb3Cu2(AgSn2)2
_symmetry_space_group_name_H-M   'P 1'
_cell_length_a   4.53544490
_cell_length_b   7.22976082
_cell_length_c   8.68193809
_cell_angle_alpha   115.42669291
_cell_angle_beta   105.14128736
_cell_angle_gamma   89.99999990
_symmetry_Int_Tables_number   1
_chemical_formula_structural   Tb3Cu2(AgSn2)2
_chemical_formula_sum   'Tb3 Cu2 Ag2 Sn4'
_cell_volume   246.11902158
_cell_formula_units_Z   1
loop_
 _symmetry_equiv_pos_site_id
 _symmetry_equiv_pos_as_xyz
  1  'x, y, z'
loop_
 _atom_site_type_symbol
 _atom_site_label
 _atom_site_symmetry_multiplicity
 _atom_site_fract_x
 _atom_site_fract_y
 _atom_site_fract_z
 _atom_site_occupancy
  Tb  Tb0  1  0.870999  0.347662  0.741999  1
  Tb  Tb1  1  0.129001  0.652338  0.258001  1
  Tb  Tb2  1  0.000000  0.000000  0.000000  1
  Cu  Cu3  1  0.339291  0.027150  0.678581  1
  Cu  Cu4  1  0.660709  0.972850  0.321419  1
  Ag  Ag5  1  0.318790  0.623559  0.637580  1
  Ag  Ag6  1  0.681210  0.376441  0.362420  1
  Sn  Sn7  1  0.216934  0.179698  0.433867  1
  Sn  Sn8  1  0.783066  0.820302  0.566133  1
  Sn  Sn9  1  0.504339  0.305677  0.008677  1
  Sn  Sn10  1  0.495661  0.694323  0.991323  1
