# generated using pymatgen
data_Y5Ho3Re3RuC8
_symmetry_space_group_name_H-M   'P 1'
_cell_length_a   5.11152100
_cell_length_b   6.56824049
_cell_length_c   9.83836357
_cell_angle_alpha   90.07260423
_cell_angle_beta   90.00000000
_cell_angle_gamma   90.00000000
_symmetry_Int_Tables_number   1
_chemical_formula_structural   Y5Ho3Re3RuC8
_chemical_formula_sum   'Y5 Ho3 Re3 Ru1 C8'
_cell_volume   330.30999376
_cell_formula_units_Z   1
loop_
 _symmetry_equiv_pos_site_id
 _symmetry_equiv_pos_as_xyz
  1  'x, y, z'
loop_
 _atom_site_type_symbol
 _atom_site_label
 _atom_site_symmetry_multiplicity
 _atom_site_fract_x
 _atom_site_fract_y
 _atom_site_fract_z
 _atom_site_occupancy
  Y  Y0  1  0.250000  0.467417  0.784678  1
  Y  Y1  1  0.750000  0.033648  0.284341  1
  Y  Y2  1  0.250000  0.968216  0.716851  1
  Y  Y3  1  0.750000  0.531467  0.212980  1
  Y  Y4  1  0.750000  0.679495  0.556302  1
  Ho  Ho5  1  0.250000  0.826170  0.055564  1
  Ho  Ho6  1  0.250000  0.320724  0.442505  1
  Ho  Ho7  1  0.750000  0.178393  0.942694  1
  Re  Re8  1  0.750000  0.221061  0.633294  1
  Re  Re9  1  0.250000  0.779516  0.365118  1
  Re  Re10  1  0.750000  0.721376  0.866709  1
  Ru  Ru11  1  0.250000  0.278936  0.134317  1
  C  C12  1  0.250000  0.172828  0.951395  1
  C  C13  1  0.750000  0.823516  0.051202  1
  C  C14  1  0.250000  0.675375  0.549205  1
  C  C15  1  0.750000  0.322219  0.448877  1
  C  C16  1  0.250000  0.044856  0.259905  1
  C  C17  1  0.750000  0.453556  0.759862  1
  C  C18  1  0.250000  0.547072  0.242992  1
  C  C19  1  0.750000  0.954160  0.741209  1
