# generated using pymatgen
data_Ho12Th4MnCd4Ir3
_symmetry_space_group_name_H-M   'P 1'
_cell_length_a   9.69418515
_cell_length_b   9.69418570
_cell_length_c   9.69418500
_cell_angle_alpha   59.78326491
_cell_angle_beta   59.78326711
_cell_angle_gamma   59.78326891
_symmetry_Int_Tables_number   1
_chemical_formula_structural   Ho12Th4MnCd4Ir3
_chemical_formula_sum   'Ho12 Th4 Mn1 Cd4 Ir3'
_cell_volume   641.02757805
_cell_formula_units_Z   1
loop_
 _symmetry_equiv_pos_site_id
 _symmetry_equiv_pos_as_xyz
  1  'x, y, z'
loop_
 _atom_site_type_symbol
 _atom_site_label
 _atom_site_symmetry_multiplicity
 _atom_site_fract_x
 _atom_site_fract_y
 _atom_site_fract_z
 _atom_site_occupancy
  Ho  Ho0  1  0.067831  0.437271  0.437271  1
  Ho  Ho1  1  0.436915  0.060976  0.060976  1
  Ho  Ho2  1  0.437271  0.067831  0.437271  1
  Ho  Ho3  1  0.060976  0.436915  0.060976  1
  Ho  Ho4  1  0.437271  0.437271  0.067831  1
  Ho  Ho5  1  0.060976  0.060976  0.436915  1
  Ho  Ho6  1  0.186431  0.813291  0.813291  1
  Ho  Ho7  1  0.812300  0.184679  0.184679  1
  Ho  Ho8  1  0.813291  0.186431  0.813291  1
  Ho  Ho9  1  0.184679  0.812300  0.184679  1
  Ho  Ho10  1  0.813291  0.813291  0.186431  1
  Ho  Ho11  1  0.184679  0.184679  0.812300  1
  Th  Th12  1  0.600446  0.600446  0.600446  1
  Th  Th13  1  0.593438  0.593438  0.208690  1
  Th  Th14  1  0.593438  0.208690  0.593438  1
  Th  Th15  1  0.208690  0.593438  0.593438  1
  Mn  Mn16  1  0.396664  0.396664  0.396664  1
  Cd  Cd17  1  0.830555  0.830555  0.830555  1
  Cd  Cd18  1  0.832695  0.832695  0.501287  1
  Cd  Cd19  1  0.832695  0.501287  0.832695  1
  Cd  Cd20  1  0.501287  0.832695  0.832695  1
  Ir  Ir21  1  0.394762  0.394762  0.824655  1
  Ir  Ir22  1  0.394762  0.824655  0.394762  1
  Ir  Ir23  1  0.824655  0.394762  0.394762  1
