# generated using pymatgen
data_Er6Zn(P3Rh5)4
_symmetry_space_group_name_H-M   'P 1'
_cell_length_a   13.38015700
_cell_length_b   13.38015550
_cell_length_c   3.90868000
_cell_angle_alpha   90.00000000
_cell_angle_beta   90.00000000
_cell_angle_gamma   119.99999630
_symmetry_Int_Tables_number   1
_chemical_formula_structural   Er6Zn(P3Rh5)4
_chemical_formula_sum   'Er6 Zn1 P12 Rh20'
_cell_volume   606.01466596
_cell_formula_units_Z   1
loop_
 _symmetry_equiv_pos_site_id
 _symmetry_equiv_pos_as_xyz
  1  'x, y, z'
loop_
 _atom_site_type_symbol
 _atom_site_label
 _atom_site_symmetry_multiplicity
 _atom_site_fract_x
 _atom_site_fract_y
 _atom_site_fract_z
 _atom_site_occupancy
  Er  Er0  1  0.529419  0.717584  0.249946  1
  Er  Er1  1  0.282416  0.811833  0.249946  1
  Er  Er2  1  0.188167  0.470581  0.249946  1
  Er  Er3  1  0.470581  0.282416  0.750054  1
  Er  Er4  1  0.717584  0.188167  0.750054  1
  Er  Er5  1  0.811833  0.529419  0.750054  1
  Zn  Zn6  1  0.000000  0.000000  0.000000  1
  P  P7  1  0.527754  0.139304  0.250373  1
  P  P8  1  0.860696  0.388452  0.250373  1
  P  P9  1  0.611548  0.472246  0.250373  1
  P  P10  1  0.946743  0.718418  0.247700  1
  P  P11  1  0.281582  0.228325  0.247700  1
  P  P12  1  0.771675  0.053257  0.247700  1
  P  P13  1  0.388452  0.527754  0.749627  1
  P  P14  1  0.472246  0.860696  0.749627  1
  P  P15  1  0.139304  0.611548  0.749627  1
  P  P16  1  0.718418  0.771675  0.752300  1
  P  P17  1  0.228325  0.946743  0.752300  1
  P  P18  1  0.053257  0.281582  0.752300  1
  Rh  Rh19  1  0.333333  0.666667  0.751273  1
  Rh  Rh20  1  0.919819  0.253017  0.247399  1
  Rh  Rh21  1  0.746983  0.666802  0.247399  1
  Rh  Rh22  1  0.333198  0.080181  0.247399  1
  Rh  Rh23  1  0.438819  0.022434  0.749406  1
  Rh  Rh24  1  0.977566  0.416386  0.749406  1
  Rh  Rh25  1  0.583614  0.561181  0.749406  1
  Rh  Rh26  1  0.666667  0.333333  0.248727  1
  Rh  Rh27  1  0.097121  0.203567  0.256139  1
  Rh  Rh28  1  0.796433  0.893554  0.256139  1
  Rh  Rh29  1  0.106446  0.902879  0.256139  1
  Rh  Rh30  1  0.022434  0.583614  0.250594  1
  Rh  Rh31  1  0.416386  0.438819  0.250594  1
  Rh  Rh32  1  0.561181  0.977566  0.250594  1
  Rh  Rh33  1  0.666802  0.919819  0.752601  1
  Rh  Rh34  1  0.080181  0.746983  0.752601  1
  Rh  Rh35  1  0.253017  0.333198  0.752601  1
  Rh  Rh36  1  0.902879  0.796433  0.743861  1
  Rh  Rh37  1  0.203567  0.106446  0.743861  1
  Rh  Rh38  1  0.893554  0.097121  0.743861  1
