# generated using pymatgen
data_YbY7AsPd24
_symmetry_space_group_name_H-M   'P 1'
_cell_length_a   8.36955000
_cell_length_b   8.36954999
_cell_length_c   8.36954900
_cell_angle_alpha   90.02794432
_cell_angle_beta   89.97205568
_cell_angle_gamma   89.97206247
_symmetry_Int_Tables_number   1
_chemical_formula_structural   YbY7AsPd24
_chemical_formula_sum   'Yb1 Y7 As1 Pd24'
_cell_volume   586.28140107
_cell_formula_units_Z   1
loop_
 _symmetry_equiv_pos_site_id
 _symmetry_equiv_pos_as_xyz
  1  'x, y, z'
loop_
 _atom_site_type_symbol
 _atom_site_label
 _atom_site_symmetry_multiplicity
 _atom_site_fract_x
 _atom_site_fract_y
 _atom_site_fract_z
 _atom_site_occupancy
  Yb  Yb0  1  0.747300  0.252700  0.252700  1
  Y  Y1  1  0.254054  0.254065  0.254065  1
  Y  Y2  1  0.745981  0.745808  0.745808  1
  Y  Y3  1  0.745935  0.745946  0.254065  1
  Y  Y4  1  0.745935  0.254065  0.745946  1
  Y  Y5  1  0.254192  0.254019  0.745808  1
  Y  Y6  1  0.254192  0.745808  0.254019  1
  Y  Y7  1  0.253778  0.746222  0.746222  1
  As  As8  1  0.999234  0.000766  0.000766  1
  Pd  Pd9  1  0.259892  0.500019  0.999766  1
  Pd  Pd10  1  0.739885  0.499903  0.000089  1
  Pd  Pd11  1  0.999911  0.260115  0.499903  1
  Pd  Pd12  1  0.500097  0.260115  0.000089  1
  Pd  Pd13  1  0.000234  0.740108  0.500019  1
  Pd  Pd14  1  0.499981  0.740108  0.999766  1
  Pd  Pd15  1  0.500097  0.000089  0.260115  1
  Pd  Pd16  1  0.259892  0.999766  0.500019  1
  Pd  Pd17  1  0.499981  0.999766  0.740108  1
  Pd  Pd18  1  0.739885  0.000089  0.499903  1
  Pd  Pd19  1  0.999911  0.499903  0.260115  1
  Pd  Pd20  1  0.000234  0.500019  0.740108  1
  Pd  Pd21  1  0.253484  0.500140  0.500140  1
  Pd  Pd22  1  0.746692  0.499504  0.499504  1
  Pd  Pd23  1  0.500496  0.253308  0.499504  1
  Pd  Pd24  1  0.499860  0.746516  0.500140  1
  Pd  Pd25  1  0.500496  0.499504  0.253308  1
  Pd  Pd26  1  0.499860  0.500140  0.746516  1
  Pd  Pd27  1  0.288583  0.000091  0.000091  1
  Pd  Pd28  1  0.710990  0.000441  0.000441  1
  Pd  Pd29  1  0.999559  0.289010  0.000441  1
  Pd  Pd30  1  0.999909  0.711417  0.000091  1
  Pd  Pd31  1  0.999559  0.000441  0.289010  1
  Pd  Pd32  1  0.999909  0.000091  0.711417  1
