# generated using pymatgen
data_Sm2Co2As4IrRh
_symmetry_space_group_name_H-M   'P 1'
_cell_length_a   4.22841000
_cell_length_b   4.22841000
_cell_length_c   9.58521900
_cell_angle_alpha   90.00000000
_cell_angle_beta   90.00000000
_cell_angle_gamma   90.00000000
_symmetry_Int_Tables_number   1
_chemical_formula_structural   Sm2Co2As4IrRh
_chemical_formula_sum   'Sm2 Co2 As4 Ir1 Rh1'
_cell_volume   171.37845466
_cell_formula_units_Z   1
loop_
 _symmetry_equiv_pos_site_id
 _symmetry_equiv_pos_as_xyz
  1  'x, y, z'
loop_
 _atom_site_type_symbol
 _atom_site_label
 _atom_site_symmetry_multiplicity
 _atom_site_fract_x
 _atom_site_fract_y
 _atom_site_fract_z
 _atom_site_occupancy
  Sm  Sm0  1  0.000000  0.500000  0.262164  1
  Sm  Sm1  1  0.500000  0.000000  0.737836  1
  Co  Co2  1  0.000000  0.500000  0.609042  1
  Co  Co3  1  0.500000  0.000000  0.390958  1
  As  As4  1  0.000000  0.000000  0.500000  1
  As  As5  1  0.500000  0.500000  0.500000  1
  As  As6  1  0.000000  0.500000  0.850091  1
  As  As7  1  0.500000  0.000000  0.149909  1
  Ir  Ir8  1  0.000000  0.000000  0.000000  1
  Rh  Rh9  1  0.500000  0.500000  0.000000  1
