# generated using pymatgen
data_Ac3La4Sm3C4I15
_symmetry_space_group_name_H-M   'P 1'
_cell_length_a   10.01130581
_cell_length_b   10.82821412
_cell_length_c   12.06071595
_cell_angle_alpha   93.98703658
_cell_angle_beta   114.47914026
_cell_angle_gamma   109.08110534
_symmetry_Int_Tables_number   1
_chemical_formula_structural   Ac3La4Sm3C4I15
_chemical_formula_sum   'Ac3 La4 Sm3 C4 I15'
_cell_volume   1092.13230463
_cell_formula_units_Z   1
loop_
 _symmetry_equiv_pos_site_id
 _symmetry_equiv_pos_as_xyz
  1  'x, y, z'
loop_
 _atom_site_type_symbol
 _atom_site_label
 _atom_site_symmetry_multiplicity
 _atom_site_fract_x
 _atom_site_fract_y
 _atom_site_fract_z
 _atom_site_occupancy
  Ac  Ac0  1  0.601582  0.535848  0.348076  1
  Ac  Ac1  1  0.336193  0.747525  0.165081  1
  Ac  Ac2  1  0.787177  0.893719  0.262933  1
  La  La3  1  0.470421  0.811283  0.896138  1
  La  La4  1  0.700882  0.563607  0.041241  1
  La  La5  1  0.295681  0.431181  0.953852  1
  La  La6  1  0.651771  0.251001  0.834469  1
  Sm  Sm7  1  0.524744  0.187543  0.093748  1
  Sm  Sm8  1  0.231764  0.124087  0.747430  1
  Sm  Sm9  1  0.404895  0.456361  0.667480  1
  C  C10  1  0.480577  0.299790  0.936869  1
  C  C11  1  0.518514  0.700634  0.062481  1
  C  C12  1  0.452345  0.361651  0.835555  1
  C  C13  1  0.548166  0.638308  0.164672  1
  I  I14  1  0.211977  0.916243  0.933823  1
  I  I15  1  0.115918  0.194895  0.479720  1
  I  I16  1  0.156088  0.551357  0.701003  1
  I  I17  1  0.394939  0.969834  0.648311  1
  I  I18  1  0.707034  0.726336  0.818434  1
  I  I19  1  0.286563  0.257620  0.170830  1
  I  I20  1  0.844578  0.433152  0.286365  1
  I  I21  1  0.903807  0.818181  0.541084  1
  I  I22  1  0.356731  0.626577  0.419814  1
  I  I23  1  0.056455  0.831585  0.217514  1
  I  I24  1  0.786513  0.096692  0.059876  1
  I  I25  1  0.632024  0.368572  0.591462  1
  I  I26  1  0.955971  0.166020  0.778240  1
  I  I27  1  0.593148  0.046250  0.348420  1
  I  I28  1  0.993544  0.494150  0.995079  1
