# generated using pymatgen
data_Yb2Dy3Lu3(B6Os)4
_symmetry_space_group_name_H-M   'P 1'
_cell_length_a   3.62196400
_cell_length_b   9.10230078
_cell_length_c   11.50052100
_cell_angle_alpha   89.87302894
_cell_angle_beta   90.00000000
_cell_angle_gamma   90.00000000
_symmetry_Int_Tables_number   1
_chemical_formula_structural   Yb2Dy3Lu3(B6Os)4
_chemical_formula_sum   'Yb2 Dy3 Lu3 B24 Os4'
_cell_volume   379.15061136
_cell_formula_units_Z   1
loop_
 _symmetry_equiv_pos_site_id
 _symmetry_equiv_pos_as_xyz
  1  'x, y, z'
loop_
 _atom_site_type_symbol
 _atom_site_label
 _atom_site_symmetry_multiplicity
 _atom_site_fract_x
 _atom_site_fract_y
 _atom_site_fract_z
 _atom_site_occupancy
  Yb  Yb0  1  0.000000  0.324256  0.414756  1
  Yb  Yb1  1  0.000000  0.675606  0.585683  1
  Dy  Dy2  1  0.000000  0.821327  0.085950  1
  Dy  Dy3  1  0.000000  0.178699  0.913540  1
  Dy  Dy4  1  0.000000  0.942526  0.371146  1
  Lu  Lu5  1  0.000000  0.058002  0.630221  1
  Lu  Lu6  1  0.000000  0.443108  0.129575  1
  Lu  Lu7  1  0.000000  0.556983  0.870032  1
  B  B8  1  0.500000  0.553133  0.432372  1
  B  B9  1  0.500000  0.445798  0.567878  1
  B  B10  1  0.500000  0.054245  0.066495  1
  B  B11  1  0.500000  0.946033  0.932913  1
  B  B12  1  0.500000  0.747163  0.417802  1
  B  B13  1  0.500000  0.251068  0.582395  1
  B  B14  1  0.500000  0.250105  0.081184  1
  B  B15  1  0.500000  0.750278  0.918462  1
  B  B16  1  0.500000  0.790169  0.264334  1
  B  B17  1  0.500000  0.208480  0.735362  1
  B  B18  1  0.500000  0.291722  0.234060  1
  B  B19  1  0.500000  0.708938  0.765588  1
  B  B20  1  0.500000  0.629788  0.184373  1
  B  B21  1  0.500000  0.369774  0.815325  1
  B  B22  1  0.500000  0.131685  0.313737  1
  B  B23  1  0.500000  0.869706  0.685683  1
  B  B24  1  0.500000  0.983450  0.211329  1
  B  B25  1  0.500000  0.017375  0.787696  1
  B  B26  1  0.500000  0.482303  0.287192  1
  B  B27  1  0.500000  0.517235  0.712614  1
  B  B28  1  0.500000  0.600806  0.027563  1
  B  B29  1  0.500000  0.399223  0.972093  1
  B  B30  1  0.500000  0.100259  0.474272  1
  B  B31  1  0.500000  0.901379  0.529051  1
  Os  Os32  1  0.000000  0.638140  0.318281  1
  Os  Os33  1  0.000000  0.360237  0.681827  1
  Os  Os34  1  0.000000  0.138552  0.177705  1
  Os  Os35  1  0.000000  0.862447  0.821513  1
