# generated using pymatgen
data_Sc16CdCo4Ag3
_symmetry_space_group_name_H-M   'P 1'
_cell_length_a   8.84318934
_cell_length_b   8.83924155
_cell_length_c   8.84318900
_cell_angle_alpha   59.98522980
_cell_angle_beta   60.00000499
_cell_angle_gamma   59.98523462
_symmetry_Int_Tables_number   1
_chemical_formula_structural   Sc16CdCo4Ag3
_chemical_formula_sum   'Sc16 Cd1 Co4 Ag3'
_cell_volume   488.67584629
_cell_formula_units_Z   1
loop_
 _symmetry_equiv_pos_site_id
 _symmetry_equiv_pos_as_xyz
  1  'x, y, z'
loop_
 _atom_site_type_symbol
 _atom_site_label
 _atom_site_symmetry_multiplicity
 _atom_site_fract_x
 _atom_site_fract_y
 _atom_site_fract_z
 _atom_site_occupancy
  Sc  Sc0  1  0.436807  0.436515  0.063339  1
  Sc  Sc1  1  0.598677  0.599398  0.598677  1
  Sc  Sc2  1  0.187222  0.812466  0.813089  1
  Sc  Sc3  1  0.062834  0.062698  0.437234  1
  Sc  Sc4  1  0.437234  0.062698  0.062834  1
  Sc  Sc5  1  0.813425  0.183675  0.813425  1
  Sc  Sc6  1  0.437234  0.062698  0.437234  1
  Sc  Sc7  1  0.599512  0.201464  0.599512  1
  Sc  Sc8  1  0.813089  0.812466  0.187222  1
  Sc  Sc9  1  0.203250  0.599398  0.598677  1
  Sc  Sc10  1  0.813425  0.183675  0.189475  1
  Sc  Sc11  1  0.063339  0.436515  0.436807  1
  Sc  Sc12  1  0.187222  0.812466  0.187222  1
  Sc  Sc13  1  0.598677  0.599398  0.203250  1
  Sc  Sc14  1  0.189475  0.183675  0.813425  1
  Sc  Sc15  1  0.063339  0.436515  0.063339  1
  Cd  Cd16  1  0.830592  0.508222  0.830592  1
  Co  Co17  1  0.392353  0.392224  0.392353  1
  Co  Co18  1  0.823069  0.392224  0.392353  1
  Co  Co19  1  0.391862  0.824413  0.391862  1
  Co  Co20  1  0.392353  0.392224  0.823069  1
  Ag  Ag21  1  0.832932  0.834990  0.499144  1
  Ag  Ag22  1  0.832932  0.834990  0.832932  1
  Ag  Ag23  1  0.499144  0.834990  0.832932  1
