# generated using pymatgen
data_Yb4Al17SiIrRh5
_symmetry_space_group_name_H-M   'P 1'
_cell_length_a   7.52461910
_cell_length_b   7.52461815
_cell_length_c   9.41706400
_cell_angle_alpha   90.03090703
_cell_angle_beta   90.03091464
_cell_angle_gamma   119.49513596
_symmetry_Int_Tables_number   1
_chemical_formula_structural   Yb4Al17SiIrRh5
_chemical_formula_sum   'Yb4 Al17 Si1 Ir1 Rh5'
_cell_volume   464.08966007
_cell_formula_units_Z   1
loop_
 _symmetry_equiv_pos_site_id
 _symmetry_equiv_pos_as_xyz
  1  'x, y, z'
loop_
 _atom_site_type_symbol
 _atom_site_label
 _atom_site_symmetry_multiplicity
 _atom_site_fract_x
 _atom_site_fract_y
 _atom_site_fract_z
 _atom_site_occupancy
  Yb  Yb0  1  0.989992  0.679021  0.250059  1
  Yb  Yb1  1  0.003993  0.329899  0.749770  1
  Yb  Yb2  1  0.679021  0.989992  0.250059  1
  Yb  Yb3  1  0.329899  0.003993  0.749770  1
  Al  Al4  1  0.873575  0.873575  0.750440  1
  Al  Al5  1  0.001493  0.337001  0.075357  1
  Al  Al6  1  0.000445  0.666597  0.925661  1
  Al  Al7  1  0.000511  0.666673  0.574032  1
  Al  Al8  1  0.337216  0.001025  0.425019  1
  Al  Al9  1  0.001025  0.337216  0.425019  1
  Al  Al10  1  0.666673  0.000511  0.574032  1
  Al  Al11  1  0.666597  0.000445  0.925661  1
  Al  Al12  1  0.337001  0.001493  0.075357  1
  Al  Al13  1  0.331253  0.331253  0.554003  1
  Al  Al14  1  0.661885  0.661885  0.460937  1
  Al  Al15  1  0.661988  0.661988  0.038277  1
  Al  Al16  1  0.331129  0.331129  0.945651  1
  Al  Al17  1  0.333512  0.545276  0.249941  1
  Al  Al18  1  0.662291  0.452257  0.750336  1
  Al  Al19  1  0.545276  0.333512  0.249941  1
  Al  Al20  1  0.452257  0.662291  0.750336  1
  Si  Si21  1  0.136387  0.136387  0.249714  1
  Ir  Ir22  1  0.999653  0.999653  0.492299  1
  Rh  Rh23  1  0.671038  0.327340  0.001007  1
  Rh  Rh24  1  0.327340  0.671038  0.001007  1
  Rh  Rh25  1  0.327730  0.670746  0.499392  1
  Rh  Rh26  1  0.670746  0.327730  0.499392  1
  Rh  Rh27  1  0.000077  0.000077  0.007531  1
