# generated using pymatgen
data_Ho2(AlCu)5
_symmetry_space_group_name_H-M   'P 1'
_cell_length_a   4.08839400
_cell_length_b   5.26485400
_cell_length_c   8.97724700
_cell_angle_alpha   90.00000000
_cell_angle_beta   90.00000000
_cell_angle_gamma   90.00000000
_symmetry_Int_Tables_number   1
_chemical_formula_structural   Ho2(AlCu)5
_chemical_formula_sum   'Ho2 Al5 Cu5'
_cell_volume   193.23342382
_cell_formula_units_Z   1
loop_
 _symmetry_equiv_pos_site_id
 _symmetry_equiv_pos_as_xyz
  1  'x, y, z'
loop_
 _atom_site_type_symbol
 _atom_site_label
 _atom_site_symmetry_multiplicity
 _atom_site_fract_x
 _atom_site_fract_y
 _atom_site_fract_z
 _atom_site_occupancy
  Ho  Ho0  1  0.000000  0.500000  0.000000  1
  Ho  Ho1  1  0.000000  0.000000  0.500000  1
  Al  Al2  1  0.500000  0.000000  0.000000  1
  Al  Al3  1  0.500000  0.750326  0.261211  1
  Al  Al4  1  0.500000  0.249674  0.738789  1
  Al  Al5  1  0.500000  0.249674  0.261211  1
  Al  Al6  1  0.500000  0.750326  0.738789  1
  Cu  Cu7  1  0.000000  0.500000  0.335868  1
  Cu  Cu8  1  0.000000  0.000000  0.834085  1
  Cu  Cu9  1  0.000000  0.000000  0.165915  1
  Cu  Cu10  1  0.000000  0.500000  0.664132  1
  Cu  Cu11  1  0.500000  0.500000  0.500000  1
