# generated using pymatgen
data_Tm4V5ReSi8
_symmetry_space_group_name_H-M   'P 1'
_cell_length_a   6.75957792
_cell_length_b   6.65123316
_cell_length_c   6.75238218
_cell_angle_alpha   70.60414743
_cell_angle_beta   90.37340714
_cell_angle_gamma   90.02022610
_symmetry_Int_Tables_number   1
_chemical_formula_structural   Tm4V5ReSi8
_chemical_formula_sum   'Tm4 V5 Re1 Si8'
_cell_volume   286.34792212
_cell_formula_units_Z   1
loop_
 _symmetry_equiv_pos_site_id
 _symmetry_equiv_pos_as_xyz
  1  'x, y, z'
loop_
 _atom_site_type_symbol
 _atom_site_label
 _atom_site_symmetry_multiplicity
 _atom_site_fract_x
 _atom_site_fract_y
 _atom_site_fract_z
 _atom_site_occupancy
  Tm  Tm0  1  0.330548  0.557837  0.812731  1
  Tm  Tm1  1  0.832515  0.940097  0.188164  1
  Tm  Tm2  1  0.669452  0.442163  0.187269  1
  Tm  Tm3  1  0.167485  0.059903  0.811836  1
  V  V4  1  0.500000  0.000000  0.500000  1
  V  V5  1  0.827450  0.750561  0.744666  1
  V  V6  1  0.331851  0.752907  0.254906  1
  V  V7  1  0.172550  0.249439  0.255334  1
  V  V8  1  0.668149  0.247093  0.745094  1
  Re  Re9  1  0.000000  0.500000  0.500000  1
  Si  Si10  1  0.543238  0.869419  0.910857  1
  Si  Si11  1  0.045596  0.632818  0.087819  1
  Si  Si12  1  0.456762  0.130581  0.089143  1
  Si  Si13  1  0.954404  0.367182  0.912181  1
  Si  Si14  1  0.130360  0.869684  0.500494  1
  Si  Si15  1  0.628497  0.631108  0.501243  1
  Si  Si16  1  0.869640  0.130316  0.499506  1
  Si  Si17  1  0.371503  0.368892  0.498757  1
