# generated using pymatgen
data_MnNb8VS16
_symmetry_space_group_name_H-M   'P 1'
_cell_length_a   6.70063500
_cell_length_b   6.70063564
_cell_length_c   12.31461300
_cell_angle_alpha   90.00000000
_cell_angle_beta   90.00000000
_cell_angle_gamma   120.00001167
_symmetry_Int_Tables_number   1
_chemical_formula_structural   MnNb8VS16
_chemical_formula_sum   'Mn1 Nb8 V1 S16'
_cell_volume   478.83216182
_cell_formula_units_Z   1
loop_
 _symmetry_equiv_pos_site_id
 _symmetry_equiv_pos_as_xyz
  1  'x, y, z'
loop_
 _atom_site_type_symbol
 _atom_site_label
 _atom_site_symmetry_multiplicity
 _atom_site_fract_x
 _atom_site_fract_y
 _atom_site_fract_z
 _atom_site_occupancy
  Mn  Mn0  1  0.000000  0.000000  0.000000  1
  Nb  Nb1  1  0.505638  0.494362  0.748573  1
  Nb  Nb2  1  0.011275  0.505638  0.251427  1
  Nb  Nb3  1  0.494362  0.988725  0.251427  1
  Nb  Nb4  1  0.505638  0.011275  0.748573  1
  Nb  Nb5  1  0.988725  0.494362  0.748573  1
  Nb  Nb6  1  0.494362  0.505638  0.251427  1
  Nb  Nb7  1  0.000000  0.000000  0.749883  1
  Nb  Nb8  1  0.000000  0.000000  0.250117  1
  V  V9  1  0.000000  0.000000  0.500000  1
  S  S10  1  0.834686  0.165314  0.378527  1
  S  S11  1  0.834686  0.669371  0.378527  1
  S  S12  1  0.330629  0.165314  0.378527  1
  S  S13  1  0.663693  0.831846  0.876489  1
  S  S14  1  0.165314  0.330629  0.621473  1
  S  S15  1  0.168154  0.831846  0.876489  1
  S  S16  1  0.168154  0.336307  0.876489  1
  S  S17  1  0.831846  0.168154  0.123511  1
  S  S18  1  0.336307  0.168154  0.123511  1
  S  S19  1  0.669371  0.834686  0.621473  1
  S  S20  1  0.333333  0.666667  0.121353  1
  S  S21  1  0.666667  0.333333  0.618045  1
  S  S22  1  0.666667  0.333333  0.878647  1
  S  S23  1  0.333333  0.666667  0.381955  1
  S  S24  1  0.831846  0.663693  0.123511  1
  S  S25  1  0.165314  0.834686  0.621473  1
