# generated using pymatgen
data_Zr7ScTi2(Co2Si5)4
_symmetry_space_group_name_H-M   'P 1'
_cell_length_a   11.94447501
_cell_length_b   11.94091301
_cell_length_c   3.91504900
_cell_angle_alpha   90.00000000
_cell_angle_beta   90.00000000
_cell_angle_gamma   89.99653616
_symmetry_Int_Tables_number   1
_chemical_formula_structural   Zr7ScTi2(Co2Si5)4
_chemical_formula_sum   'Zr7 Sc1 Ti2 Co8 Si20'
_cell_volume   558.39536085
_cell_formula_units_Z   1
loop_
 _symmetry_equiv_pos_site_id
 _symmetry_equiv_pos_as_xyz
  1  'x, y, z'
loop_
 _atom_site_type_symbol
 _atom_site_label
 _atom_site_symmetry_multiplicity
 _atom_site_fract_x
 _atom_site_fract_y
 _atom_site_fract_z
 _atom_site_occupancy
  Zr  Zr0  1  0.998972  0.000866  0.000000  1
  Zr  Zr1  1  0.821041  0.677733  0.500000  1
  Zr  Zr2  1  0.321932  0.821394  0.500000  1
  Zr  Zr3  1  0.888895  0.387949  0.500000  1
  Zr  Zr4  1  0.389759  0.112797  0.500000  1
  Zr  Zr5  1  0.610875  0.890181  0.500000  1
  Zr  Zr6  1  0.111689  0.609076  0.500000  1
  Sc  Sc7  1  0.499000  0.498906  0.000000  1
  Ti  Ti8  1  0.676846  0.177784  0.500000  1
  Ti  Ti9  1  0.177596  0.322936  0.500000  1
  Co  Co10  1  0.525184  0.254782  0.000000  1
  Co  Co11  1  0.254617  0.470752  0.000000  1
  Co  Co12  1  0.743764  0.524000  0.000000  1
  Co  Co13  1  0.471867  0.743782  0.000000  1
  Co  Co14  1  0.971716  0.755969  0.000000  1
  Co  Co15  1  0.025219  0.245472  0.000000  1
  Co  Co16  1  0.754380  0.029507  0.000000  1
  Co  Co17  1  0.244001  0.975802  0.000000  1
  Si  Si18  1  0.570906  0.072135  0.000000  1
  Si  Si19  1  0.071166  0.428098  0.000000  1
  Si  Si20  1  0.932518  0.566229  0.000000  1
  Si  Si21  1  0.432817  0.933529  0.000000  1
  Si  Si22  1  0.198219  0.159288  0.000000  1
  Si  Si23  1  0.154046  0.800046  0.000000  1
  Si  Si24  1  0.842007  0.200106  0.000000  1
  Si  Si25  1  0.798466  0.847199  0.000000  1
  Si  Si26  1  0.300185  0.651496  0.000000  1
  Si  Si27  1  0.696520  0.342170  0.000000  1
  Si  Si28  1  0.652754  0.698320  0.000000  1
  Si  Si29  1  0.343503  0.301571  0.000000  1
  Si  Si30  1  0.010387  0.166337  0.500000  1
  Si  Si31  1  0.164478  0.001187  0.500000  1
  Si  Si32  1  0.832829  0.009742  0.500000  1
  Si  Si33  1  0.002211  0.834618  0.500000  1
  Si  Si34  1  0.500387  0.662348  0.500000  1
  Si  Si35  1  0.512277  0.336699  0.500000  1
  Si  Si36  1  0.661161  0.500984  0.500000  1
  Si  Si37  1  0.335809  0.488212  0.500000  1
