# generated using pymatgen
data_Yb4Ti2NbGaO12
_symmetry_space_group_name_H-M   'P 1'
_cell_length_a   5.36173770
_cell_length_b   5.52242877
_cell_length_c   7.67095824
_cell_angle_alpha   90.01705453
_cell_angle_beta   89.82517290
_cell_angle_gamma   90.11057595
_symmetry_Int_Tables_number   1
_chemical_formula_structural   Yb4Ti2NbGaO12
_chemical_formula_sum   'Yb4 Ti2 Nb1 Ga1 O12'
_cell_volume   227.13416069
_cell_formula_units_Z   1
loop_
 _symmetry_equiv_pos_site_id
 _symmetry_equiv_pos_as_xyz
  1  'x, y, z'
loop_
 _atom_site_type_symbol
 _atom_site_label
 _atom_site_symmetry_multiplicity
 _atom_site_fract_x
 _atom_site_fract_y
 _atom_site_fract_z
 _atom_site_occupancy
  Yb  Yb0  1  0.988007  0.451177  0.743941  1
  Yb  Yb1  1  0.513552  0.940647  0.745690  1
  Yb  Yb2  1  0.486448  0.059353  0.254310  1
  Yb  Yb3  1  0.011993  0.548823  0.256059  1
  Ti  Ti4  1  0.000000  0.000000  0.500000  1
  Ti  Ti5  1  0.500000  0.500000  0.500000  1
  Nb  Nb6  1  0.000000  0.000000  0.000000  1
  Ga  Ga7  1  0.500000  0.500000  0.000000  1
  O  O8  1  0.092312  0.027203  0.746921  1
  O  O9  1  0.199188  0.297931  0.050426  1
  O  O10  1  0.204368  0.291181  0.454837  1
  O  O11  1  0.291558  0.795029  0.455011  1
  O  O12  1  0.300583  0.799406  0.048318  1
  O  O13  1  0.411822  0.525412  0.745625  1
  O  O14  1  0.588178  0.474588  0.254375  1
  O  O15  1  0.699417  0.200594  0.951682  1
  O  O16  1  0.708442  0.204971  0.544989  1
  O  O17  1  0.795632  0.708819  0.545163  1
  O  O18  1  0.800812  0.702069  0.949574  1
  O  O19  1  0.907688  0.972797  0.253079  1
