# generated using pymatgen
data_La2Nd4Zn4Pd12Rh
_symmetry_space_group_name_H-M   'P 1'
_cell_length_a   8.40154815
_cell_length_b   8.40203008
_cell_length_c   8.40203044
_cell_angle_alpha   109.21844397
_cell_angle_beta   109.59892061
_cell_angle_gamma   109.59893156
_symmetry_Int_Tables_number   1
_chemical_formula_structural   La2Nd4Zn4Pd12Rh
_chemical_formula_sum   'La2 Nd4 Zn4 Pd12 Rh1'
_cell_volume   456.54859443
_cell_formula_units_Z   1
loop_
 _symmetry_equiv_pos_site_id
 _symmetry_equiv_pos_as_xyz
  1  'x, y, z'
loop_
 _atom_site_type_symbol
 _atom_site_label
 _atom_site_symmetry_multiplicity
 _atom_site_fract_x
 _atom_site_fract_y
 _atom_site_fract_z
 _atom_site_occupancy
  La  La0  1  0.702185  0.702481  0.999704  1
  La  La1  1  0.297815  0.000296  0.297519  1
  Nd  Nd2  1  0.000000  0.299949  0.299166  1
  Nd  Nd3  1  0.297547  0.297941  0.999605  1
  Nd  Nd4  1  0.702453  0.000395  0.702059  1
  Nd  Nd5  1  0.000000  0.700834  0.700051  1
  Zn  Zn6  1  0.000000  0.000490  0.501667  1
  Zn  Zn7  1  0.000000  0.498333  0.999510  1
  Zn  Zn8  1  0.500000  0.000459  0.999541  1
  Zn  Zn9  1  0.500000  0.500459  0.499541  1
  Pd  Pd10  1  0.331562  0.331918  0.663804  1
  Pd  Pd11  1  0.668438  0.000356  0.332243  1
  Pd  Pd12  1  0.000000  0.667538  0.332462  1
  Pd  Pd13  1  0.668224  0.331451  0.000011  1
  Pd  Pd14  1  0.331776  0.663226  0.331787  1
  Pd  Pd15  1  0.000000  0.331897  0.668103  1
  Pd  Pd16  1  0.331562  0.667757  0.999644  1
  Pd  Pd17  1  0.331776  0.999989  0.668549  1
  Pd  Pd18  1  0.664357  0.332361  0.331997  1
  Pd  Pd19  1  0.668224  0.668213  0.336774  1
  Pd  Pd20  1  0.668438  0.336196  0.668082  1
  Pd  Pd21  1  0.335643  0.668003  0.667639  1
  Rh  Rh22  1  0.000000  0.999458  0.000542  1
