# generated using pymatgen
data_DySiPtRh
_symmetry_space_group_name_H-M   'P 1'
_cell_length_a   9.21885433
_cell_length_b   9.21885445
_cell_length_c   4.09216100
_cell_angle_alpha   90.00000000
_cell_angle_beta   90.00000000
_cell_angle_gamma   155.11189287
_symmetry_Int_Tables_number   1
_chemical_formula_structural   DySiPtRh
_chemical_formula_sum   'Dy2 Si2 Pt2 Rh2'
_cell_volume   146.36303443
_cell_formula_units_Z   2
loop_
 _symmetry_equiv_pos_site_id
 _symmetry_equiv_pos_as_xyz
  1  'x, y, z'
loop_
 _atom_site_type_symbol
 _atom_site_label
 _atom_site_symmetry_multiplicity
 _atom_site_fract_x
 _atom_site_fract_y
 _atom_site_fract_z
 _atom_site_occupancy
  Dy  Dy0  1  0.103625  0.896375  0.750000  1
  Dy  Dy1  1  0.896375  0.103625  0.250000  1
  Si  Si2  1  0.321093  0.678907  0.750000  1
  Si  Si3  1  0.678907  0.321093  0.250000  1
  Pt  Pt4  1  0.548393  0.451607  0.250000  1
  Pt  Pt5  1  0.451607  0.548393  0.750000  1
  Rh  Rh6  1  0.250613  0.749387  0.250000  1
  Rh  Rh7  1  0.749387  0.250613  0.750000  1
