# generated using pymatgen
data_TbNd3B4I5
_symmetry_space_group_name_H-M   'P 1'
_cell_length_a   9.85305661
_cell_length_b   9.85305695
_cell_length_c   10.01180539
_cell_angle_alpha   74.79711888
_cell_angle_beta   74.79712445
_cell_angle_gamma   25.34456139
_symmetry_Int_Tables_number   1
_chemical_formula_structural   TbNd3B4I5
_chemical_formula_sum   'Tb1 Nd3 B4 I5'
_cell_volume   400.75270790
_cell_formula_units_Z   1
loop_
 _symmetry_equiv_pos_site_id
 _symmetry_equiv_pos_as_xyz
  1  'x, y, z'
loop_
 _atom_site_type_symbol
 _atom_site_label
 _atom_site_symmetry_multiplicity
 _atom_site_fract_x
 _atom_site_fract_y
 _atom_site_fract_z
 _atom_site_occupancy
  Tb  Tb0  1  0.504489  0.504489  0.757368  1
  Nd  Nd1  1  0.496712  0.496712  0.250377  1
  Nd  Nd2  1  0.132706  0.132706  0.931829  1
  Nd  Nd3  1  0.868213  0.868213  0.064101  1
  B  B4  1  0.315627  0.685312  0.999017  1
  B  B5  1  0.685312  0.315627  0.999017  1
  B  B6  1  0.999812  0.999812  0.094131  1
  B  B7  1  0.001171  0.001171  0.903134  1
  I  I8  1  0.672853  0.672853  0.678669  1
  I  I9  1  0.324400  0.324400  0.318119  1
  I  I10  1  0.332502  0.332502  0.842782  1
  I  I11  1  0.673711  0.673711  0.145718  1
  I  I12  1  0.006793  0.006793  0.505936  1
