# generated using pymatgen
data_KDy(PSe3)2
_symmetry_space_group_name_H-M   'P 1'
_cell_length_a   7.66487200
_cell_length_b   6.88271498
_cell_length_c   10.62106026
_cell_angle_alpha   87.54611925
_cell_angle_beta   90.00000000
_cell_angle_gamma   90.00000000
_symmetry_Int_Tables_number   1
_chemical_formula_structural   KDy(PSe3)2
_chemical_formula_sum   'K2 Dy2 P4 Se12'
_cell_volume   559.80160292
_cell_formula_units_Z   2
loop_
 _symmetry_equiv_pos_site_id
 _symmetry_equiv_pos_as_xyz
  1  'x, y, z'
loop_
 _atom_site_type_symbol
 _atom_site_label
 _atom_site_symmetry_multiplicity
 _atom_site_fract_x
 _atom_site_fract_y
 _atom_site_fract_z
 _atom_site_occupancy
  K  K0  1  0.045812  0.311793  0.494242  1
  K  K1  1  0.545812  0.688207  0.505758  1
  Dy  Dy2  1  0.264514  0.218532  0.998059  1
  Dy  Dy3  1  0.764514  0.781468  0.001941  1
  P  P4  1  0.750667  0.319223  0.830503  1
  P  P5  1  0.250667  0.680777  0.169497  1
  P  P6  1  0.032673  0.802054  0.287378  1
  P  P7  1  0.532673  0.197946  0.712622  1
  Se  Se8  1  0.625221  0.372727  0.017467  1
  Se  Se9  1  0.122405  0.833015  0.477680  1
  Se  Se10  1  0.950385  0.081974  0.836800  1
  Se  Se11  1  0.818969  0.595369  0.262511  1
  Se  Se12  1  0.346602  0.401438  0.249539  1
  Se  Se13  1  0.318969  0.404631  0.737489  1
  Se  Se14  1  0.456252  0.939710  0.837726  1
  Se  Se15  1  0.956252  0.060290  0.162274  1
  Se  Se16  1  0.622405  0.166985  0.522320  1
  Se  Se17  1  0.125221  0.627273  0.982533  1
  Se  Se18  1  0.450385  0.918026  0.163200  1
  Se  Se19  1  0.846602  0.598562  0.750461  1
