# generated using pymatgen
data_Tb3Er7Cd3Ru
_symmetry_space_group_name_H-M   'P 1'
_cell_length_a   9.55088800
_cell_length_b   9.55088831
_cell_length_c   9.78733600
_cell_angle_alpha   90.00000000
_cell_angle_beta   90.00000000
_cell_angle_gamma   119.99999891
_symmetry_Int_Tables_number   1
_chemical_formula_structural   Tb3Er7Cd3Ru
_chemical_formula_sum   'Tb6 Er14 Cd6 Ru2'
_cell_volume   773.18363493
_cell_formula_units_Z   2
loop_
 _symmetry_equiv_pos_site_id
 _symmetry_equiv_pos_as_xyz
  1  'x, y, z'
loop_
 _atom_site_type_symbol
 _atom_site_label
 _atom_site_symmetry_multiplicity
 _atom_site_fract_x
 _atom_site_fract_y
 _atom_site_fract_z
 _atom_site_occupancy
  Tb  Tb0  1  0.540804  0.459196  0.250000  1
  Tb  Tb1  1  0.540804  0.081610  0.250000  1
  Tb  Tb2  1  0.918390  0.459196  0.250000  1
  Tb  Tb3  1  0.459196  0.540804  0.750000  1
  Tb  Tb4  1  0.459196  0.918390  0.750000  1
  Tb  Tb5  1  0.081610  0.540804  0.750000  1
  Er  Er6  1  0.000000  0.000000  0.500000  1
  Er  Er7  1  0.000000  0.000000  0.000000  1
  Er  Er8  1  0.209913  0.790087  0.439934  1
  Er  Er9  1  0.209913  0.419827  0.439934  1
  Er  Er10  1  0.580173  0.790087  0.439934  1
  Er  Er11  1  0.790087  0.209913  0.560066  1
  Er  Er12  1  0.790087  0.580173  0.560066  1
  Er  Er13  1  0.419827  0.209913  0.560066  1
  Er  Er14  1  0.790087  0.209913  0.939934  1
  Er  Er15  1  0.790087  0.580173  0.939934  1
  Er  Er16  1  0.419827  0.209913  0.939934  1
  Er  Er17  1  0.209913  0.790087  0.060066  1
  Er  Er18  1  0.209913  0.419827  0.060066  1
  Er  Er19  1  0.580173  0.790087  0.060066  1
  Cd  Cd20  1  0.885948  0.114052  0.250000  1
  Cd  Cd21  1  0.885948  0.771897  0.250000  1
  Cd  Cd22  1  0.228103  0.114052  0.250000  1
  Cd  Cd23  1  0.114052  0.885948  0.750000  1
  Cd  Cd24  1  0.114052  0.228103  0.750000  1
  Cd  Cd25  1  0.771897  0.885948  0.750000  1
  Ru  Ru26  1  0.333333  0.666667  0.250000  1
  Ru  Ru27  1  0.666667  0.333333  0.750000  1
