# generated using pymatgen
data_TbErZr2(Ga3Rh)6
_symmetry_space_group_name_H-M   'P 1'
_cell_length_a   7.53154113
_cell_length_b   7.52291021
_cell_length_c   9.42046900
_cell_angle_alpha   90.00000000
_cell_angle_beta   90.00000000
_cell_angle_gamma   119.91574406
_symmetry_Int_Tables_number   1
_chemical_formula_structural   TbErZr2(Ga3Rh)6
_chemical_formula_sum   'Tb1 Er1 Zr2 Ga18 Rh6'
_cell_volume   462.63766301
_cell_formula_units_Z   1
loop_
 _symmetry_equiv_pos_site_id
 _symmetry_equiv_pos_as_xyz
  1  'x, y, z'
loop_
 _atom_site_type_symbol
 _atom_site_label
 _atom_site_symmetry_multiplicity
 _atom_site_fract_x
 _atom_site_fract_y
 _atom_site_fract_z
 _atom_site_occupancy
  Tb  Tb0  1  0.668735  0.995562  0.250000  1
  Er  Er1  1  0.330926  0.004267  0.750000  1
  Zr  Zr2  1  0.996006  0.670724  0.250000  1
  Zr  Zr3  1  0.004181  0.329583  0.750000  1
  Ga  Ga4  1  0.126374  0.125909  0.250000  1
  Ga  Ga5  1  0.874595  0.874122  0.750000  1
  Ga  Ga6  1  0.999275  0.338058  0.078308  1
  Ga  Ga7  1  0.001643  0.662877  0.920746  1
  Ga  Ga8  1  0.001643  0.662877  0.579254  1
  Ga  Ga9  1  0.330819  0.997242  0.418613  1
  Ga  Ga10  1  0.999275  0.338058  0.421692  1
  Ga  Ga11  1  0.668146  0.002973  0.583236  1
  Ga  Ga12  1  0.668146  0.002973  0.916764  1
  Ga  Ga13  1  0.330819  0.997242  0.081387  1
  Ga  Ga14  1  0.330501  0.332851  0.569427  1
  Ga  Ga15  1  0.669392  0.666303  0.432203  1
  Ga  Ga16  1  0.669392  0.666303  0.067797  1
  Ga  Ga17  1  0.330501  0.332851  0.930573  1
  Ga  Ga18  1  0.334770  0.545747  0.250000  1
  Ga  Ga19  1  0.664878  0.453127  0.750000  1
  Ga  Ga20  1  0.552654  0.340649  0.250000  1
  Ga  Ga21  1  0.447350  0.659813  0.750000  1
  Rh  Rh22  1  0.670630  0.327297  0.999142  1
  Rh  Rh23  1  0.329031  0.672299  0.000766  1
  Rh  Rh24  1  0.329031  0.672299  0.499234  1
  Rh  Rh25  1  0.670630  0.327297  0.500858  1
  Rh  Rh26  1  0.000326  0.000350  0.999784  1
  Rh  Rh27  1  0.000326  0.000350  0.500216  1
