# generated using pymatgen
data_ThNp2Ni3Sb4
_symmetry_space_group_name_H-M   'P 1'
_cell_length_a   8.25683006
_cell_length_b   8.25682965
_cell_length_c   8.25682931
_cell_angle_alpha   109.33523572
_cell_angle_beta   109.74352322
_cell_angle_gamma   109.33524779
_symmetry_Int_Tables_number   1
_chemical_formula_structural   ThNp2Ni3Sb4
_chemical_formula_sum   'Th2 Np4 Ni6 Sb8'
_cell_volume   433.32198061
_cell_formula_units_Z   2
loop_
 _symmetry_equiv_pos_site_id
 _symmetry_equiv_pos_as_xyz
  1  'x, y, z'
loop_
 _atom_site_type_symbol
 _atom_site_label
 _atom_site_symmetry_multiplicity
 _atom_site_fract_x
 _atom_site_fract_y
 _atom_site_fract_z
 _atom_site_occupancy
  Th  Th0  1  0.875000  0.250000  0.125000  1
  Th  Th1  1  0.625000  0.750000  0.375000  1
  Np  Np2  1  0.250000  0.126454  0.876454  1
  Np  Np3  1  0.750000  0.373546  0.623546  1
  Np  Np4  1  0.123546  0.873546  0.250000  1
  Np  Np5  1  0.376454  0.626454  0.750000  1
  Ni  Ni6  1  0.375000  0.250000  0.625000  1
  Ni  Ni7  1  0.125000  0.750000  0.875000  1
  Ni  Ni8  1  0.250000  0.624929  0.374929  1
  Ni  Ni9  1  0.750000  0.875071  0.125071  1
  Ni  Ni10  1  0.625071  0.375071  0.250000  1
  Ni  Ni11  1  0.874929  0.124929  0.750000  1
  Sb  Sb12  1  0.660831  0.499794  0.995076  1
  Sb  Sb13  1  0.495282  0.000206  0.661037  1
  Sb  Sb14  1  0.004718  0.665755  0.504924  1
  Sb  Sb15  1  0.839169  0.834245  0.838963  1
  Sb  Sb16  1  0.495076  0.999794  0.160831  1
  Sb  Sb17  1  0.161037  0.500206  0.995282  1
  Sb  Sb18  1  0.004924  0.165755  0.504718  1
  Sb  Sb19  1  0.338963  0.334245  0.339169  1
