# generated using pymatgen
data_La4Hg2Pt3Au
_symmetry_space_group_name_H-M   'P 1'
_cell_length_a   8.07153984
_cell_length_b   8.07154024
_cell_length_c   3.91431300
_cell_angle_alpha   90.00000000
_cell_angle_beta   90.00000000
_cell_angle_gamma   90.31257613
_symmetry_Int_Tables_number   1
_chemical_formula_structural   La4Hg2Pt3Au
_chemical_formula_sum   'La4 Hg2 Pt3 Au1'
_cell_volume   255.01275210
_cell_formula_units_Z   1
loop_
 _symmetry_equiv_pos_site_id
 _symmetry_equiv_pos_as_xyz
  1  'x, y, z'
loop_
 _atom_site_type_symbol
 _atom_site_label
 _atom_site_symmetry_multiplicity
 _atom_site_fract_x
 _atom_site_fract_y
 _atom_site_fract_z
 _atom_site_occupancy
  La  La0  1  0.174448  0.325552  0.500000  1
  La  La1  1  0.315403  0.832132  0.500000  1
  La  La2  1  0.839244  0.660756  0.500000  1
  La  La3  1  0.667868  0.184597  0.500000  1
  Hg  Hg4  1  0.498231  0.502106  0.000000  1
  Hg  Hg5  1  0.997894  0.001769  0.000000  1
  Pt  Pt6  1  0.131149  0.626114  0.000000  1
  Pt  Pt7  1  0.873886  0.368851  0.000000  1
  Pt  Pt8  1  0.373141  0.126859  0.000000  1
  Au  Au9  1  0.628736  0.871264  0.000000  1
