# generated using pymatgen
data_Zr3Al12Fe3Co
_symmetry_space_group_name_H-M   'P 1'
_cell_length_a   8.51414414
_cell_length_b   8.51414315
_cell_length_c   9.11397380
_cell_angle_alpha   90.13811637
_cell_angle_beta   89.86188473
_cell_angle_gamma   120.11039112
_symmetry_Int_Tables_number   1
_chemical_formula_structural   Zr3Al12Fe3Co
_chemical_formula_sum   'Zr6 Al24 Fe6 Co2'
_cell_volume   571.52403579
_cell_formula_units_Z   2
loop_
 _symmetry_equiv_pos_site_id
 _symmetry_equiv_pos_as_xyz
  1  'x, y, z'
loop_
 _atom_site_type_symbol
 _atom_site_label
 _atom_site_symmetry_multiplicity
 _atom_site_fract_x
 _atom_site_fract_y
 _atom_site_fract_z
 _atom_site_occupancy
  Zr  Zr0  1  0.805559  0.194441  0.750160  1
  Zr  Zr1  1  0.194441  0.805559  0.249840  1
  Zr  Zr2  1  0.389961  0.195784  0.750033  1
  Zr  Zr3  1  0.610039  0.804216  0.249967  1
  Zr  Zr4  1  0.804216  0.610039  0.750033  1
  Zr  Zr5  1  0.195784  0.389961  0.249967  1
  Al  Al6  1  0.666209  0.333791  0.975283  1
  Al  Al7  1  0.333791  0.666209  0.024717  1
  Al  Al8  1  0.333252  0.666748  0.475167  1
  Al  Al9  1  0.666748  0.333252  0.524833  1
  Al  Al10  1  0.837926  0.162074  0.425724  1
  Al  Al11  1  0.162074  0.837926  0.574276  1
  Al  Al12  1  0.324022  0.161712  0.425683  1
  Al  Al13  1  0.161724  0.838276  0.924960  1
  Al  Al14  1  0.675978  0.838288  0.574317  1
  Al  Al15  1  0.838276  0.161724  0.075040  1
  Al  Al16  1  0.838288  0.675978  0.425683  1
  Al  Al17  1  0.676211  0.837330  0.925173  1
  Al  Al18  1  0.161712  0.324022  0.574317  1
  Al  Al19  1  0.323789  0.162670  0.074827  1
  Al  Al20  1  0.162670  0.323789  0.925173  1
  Al  Al21  1  0.837330  0.676211  0.074827  1
  Al  Al22  1  0.443856  0.556144  0.750598  1
  Al  Al23  1  0.556144  0.443856  0.249402  1
  Al  Al24  1  0.112302  0.556160  0.750063  1
  Al  Al25  1  0.887698  0.443840  0.249937  1
  Al  Al26  1  0.443840  0.887698  0.750063  1
  Al  Al27  1  0.556160  0.112302  0.249937  1
  Al  Al28  1  0.999948  0.000052  0.749915  1
  Al  Al29  1  0.000052  0.999948  0.250085  1
  Fe  Fe30  1  0.500000  0.500000  0.000000  1
  Fe  Fe31  1  0.500000  0.500000  0.500000  1
  Fe  Fe32  1  0.000000  0.500000  0.500000  1
  Fe  Fe33  1  0.500000  0.000000  0.500000  1
  Fe  Fe34  1  0.000000  0.000000  0.000000  1
  Fe  Fe35  1  0.000000  0.000000  0.500000  1
  Co  Co36  1  0.000000  0.500000  0.000000  1
  Co  Co37  1  0.500000  0.000000  0.000000  1
