# generated using pymatgen
data_La7PaZn8IrRh7
_symmetry_space_group_name_H-M   'P 1'
_cell_length_a   3.98342900
_cell_length_b   7.54422500
_cell_length_c   16.67856602
_cell_angle_alpha   89.99784612
_cell_angle_beta   90.00000000
_cell_angle_gamma   90.00000000
_symmetry_Int_Tables_number   1
_chemical_formula_structural   La7PaZn8IrRh7
_chemical_formula_sum   'La7 Pa1 Zn8 Ir1 Rh7'
_cell_volume   501.22234169
_cell_formula_units_Z   1
loop_
 _symmetry_equiv_pos_site_id
 _symmetry_equiv_pos_as_xyz
  1  'x, y, z'
loop_
 _atom_site_type_symbol
 _atom_site_label
 _atom_site_symmetry_multiplicity
 _atom_site_fract_x
 _atom_site_fract_y
 _atom_site_fract_z
 _atom_site_occupancy
  La  La0  1  0.250000  0.052305  0.715581  1
  La  La1  1  0.250000  0.550063  0.783286  1
  La  La2  1  0.250000  0.674223  0.560493  1
  La  La3  1  0.750000  0.826432  0.059558  1
  La  La4  1  0.250000  0.174507  0.940520  1
  La  La5  1  0.750000  0.450178  0.217261  1
  La  La6  1  0.750000  0.945522  0.284885  1
  Pa  Pa7  1  0.750000  0.325452  0.440705  1
  Zn  Zn8  1  0.250000  0.120357  0.150023  1
  Zn  Zn9  1  0.250000  0.989400  0.439296  1
  Zn  Zn10  1  0.750000  0.876205  0.849659  1
  Zn  Zn11  1  0.750000  0.001978  0.556648  1
  Zn  Zn12  1  0.250000  0.498497  0.059165  1
  Zn  Zn13  1  0.750000  0.376112  0.647849  1
  Zn  Zn14  1  0.750000  0.501951  0.940752  1
  Zn  Zn15  1  0.250000  0.615859  0.350099  1
  Ir  Ir16  1  0.250000  0.257316  0.331767  1
  Rh  Rh17  1  0.750000  0.254072  0.812600  1
  Rh  Rh18  1  0.250000  0.742272  0.934498  1
  Rh  Rh19  1  0.250000  0.256937  0.551166  1
  Rh  Rh20  1  0.250000  0.750902  0.185797  1
  Rh  Rh21  1  0.750000  0.739512  0.435808  1
  Rh  Rh22  1  0.750000  0.260220  0.067457  1
  Rh  Rh23  1  0.750000  0.759727  0.685126  1
