# generated using pymatgen
data_Lu3HfN4
_symmetry_space_group_name_H-M   'P 1'
_cell_length_a   5.73510764
_cell_length_b   5.73510773
_cell_length_c   5.73510909
_cell_angle_alpha   131.74462542
_cell_angle_beta   131.74462556
_cell_angle_gamma   70.63266532
_symmetry_Int_Tables_number   1
_chemical_formula_structural   Lu3HfN4
_chemical_formula_sum   'Lu3 Hf1 N4'
_cell_volume   102.87783060
_cell_formula_units_Z   1
loop_
 _symmetry_equiv_pos_site_id
 _symmetry_equiv_pos_as_xyz
  1  'x, y, z'
loop_
 _atom_site_type_symbol
 _atom_site_label
 _atom_site_symmetry_multiplicity
 _atom_site_fract_x
 _atom_site_fract_y
 _atom_site_fract_z
 _atom_site_occupancy
  Lu  Lu0  1  0.250000  0.750000  0.500000  1
  Lu  Lu1  1  0.500000  0.500000  0.000000  1
  Lu  Lu2  1  0.750000  0.250000  0.500000  1
  Hf  Hf3  1  0.000000  0.000000  0.000000  1
  N  N4  1  0.000000  0.500000  0.500000  1
  N  N5  1  0.241487  0.241487  0.000000  1
  N  N6  1  0.500000  0.000000  0.500000  1
  N  N7  1  0.758513  0.758513  0.000000  1
