# generated using pymatgen
data_PrEr2Ga8Ag3
_symmetry_space_group_name_H-M   'P 1'
_cell_length_a   4.36174961
_cell_length_b   8.40416228
_cell_length_c   8.40416234
_cell_angle_alpha   69.05907948
_cell_angle_beta   74.95962827
_cell_angle_gamma   74.95963331
_symmetry_Int_Tables_number   1
_chemical_formula_structural   PrEr2Ga8Ag3
_chemical_formula_sum   'Pr1 Er2 Ga8 Ag3'
_cell_volume   273.07543665
_cell_formula_units_Z   1
loop_
 _symmetry_equiv_pos_site_id
 _symmetry_equiv_pos_as_xyz
  1  'x, y, z'
loop_
 _atom_site_type_symbol
 _atom_site_label
 _atom_site_symmetry_multiplicity
 _atom_site_fract_x
 _atom_site_fract_y
 _atom_site_fract_z
 _atom_site_occupancy
  Pr  Pr0  1  0.500000  0.500000  0.500000  1
  Er  Er1  1  0.200500  0.799500  0.799500  1
  Er  Er2  1  0.799500  0.200500  0.200500  1
  Ga  Ga3  1  0.355059  0.360755  0.929126  1
  Ga  Ga4  1  0.644941  0.639245  0.070874  1
  Ga  Ga5  1  0.355059  0.929126  0.360755  1
  Ga  Ga6  1  0.644941  0.070874  0.639245  1
  Ga  Ga7  1  0.160637  0.472233  0.206494  1
  Ga  Ga8  1  0.839363  0.527767  0.793506  1
  Ga  Ga9  1  0.160637  0.206494  0.472233  1
  Ga  Ga10  1  0.839363  0.793506  0.527767  1
  Ag  Ag11  1  0.500000  0.000000  0.000000  1
  Ag  Ag12  1  0.000000  0.807913  0.192087  1
  Ag  Ag13  1  0.000000  0.192087  0.807913  1
