# generated using pymatgen
data_Tm8Ta3Ti9Si16
_symmetry_space_group_name_H-M   'P 1'
_cell_length_a   6.99867789
_cell_length_b   6.99867789
_cell_length_c   12.87550893
_cell_angle_alpha   89.96908041
_cell_angle_beta   90.03091959
_cell_angle_gamma   89.95140819
_symmetry_Int_Tables_number   1
_chemical_formula_structural   Tm8Ta3Ti9Si16
_chemical_formula_sum   'Tm8 Ta3 Ti9 Si16'
_cell_volume   630.66122905
_cell_formula_units_Z   1
loop_
 _symmetry_equiv_pos_site_id
 _symmetry_equiv_pos_as_xyz
  1  'x, y, z'
loop_
 _atom_site_type_symbol
 _atom_site_label
 _atom_site_symmetry_multiplicity
 _atom_site_fract_x
 _atom_site_fract_y
 _atom_site_fract_z
 _atom_site_occupancy
  Tm  Tm0  1  0.340559  0.001784  0.466805  1
  Tm  Tm1  1  0.498056  0.840548  0.717263  1
  Tm  Tm2  1  0.501755  0.158917  0.217071  1
  Tm  Tm3  1  0.840548  0.498056  0.282737  1
  Tm  Tm4  1  0.158917  0.501755  0.782929  1
  Tm  Tm5  1  0.659158  0.998455  0.966887  1
  Tm  Tm6  1  0.001784  0.340559  0.533195  1
  Tm  Tm7  1  0.998455  0.659158  0.033113  1
  Ta  Ta8  1  0.326915  0.326915  0.000000  1
  Ta  Ta9  1  0.173114  0.827008  0.249990  1
  Ta  Ta10  1  0.827008  0.173114  0.750010  1
  Ti  Ti11  1  0.673225  0.673225  0.500000  1
  Ti  Ti12  1  0.152145  0.007991  0.875179  1
  Ti  Ti13  1  0.491966  0.652040  0.125547  1
  Ti  Ti14  1  0.507931  0.347748  0.626039  1
  Ti  Ti15  1  0.652040  0.491966  0.874453  1
  Ti  Ti16  1  0.347748  0.507931  0.373961  1
  Ti  Ti17  1  0.848676  0.992590  0.375019  1
  Ti  Ti18  1  0.007991  0.152145  0.124821  1
  Ti  Ti19  1  0.992590  0.848676  0.624981  1
  Si  Si20  1  0.202873  0.130986  0.683362  1
  Si  Si21  1  0.368930  0.703312  0.933366  1
  Si  Si22  1  0.631222  0.297032  0.433491  1
  Si  Si23  1  0.703312  0.368930  0.066634  1
  Si  Si24  1  0.297032  0.631222  0.566509  1
  Si  Si25  1  0.796799  0.868857  0.183593  1
  Si  Si26  1  0.130986  0.202873  0.316638  1
  Si  Si27  1  0.868857  0.796799  0.816407  1
  Si  Si28  1  0.293605  0.953791  0.064260  1
  Si  Si29  1  0.546991  0.793042  0.315066  1
  Si  Si30  1  0.453565  0.206198  0.814322  1
  Si  Si31  1  0.793042  0.546991  0.684934  1
  Si  Si32  1  0.206198  0.453565  0.185678  1
  Si  Si33  1  0.706394  0.045823  0.564236  1
  Si  Si34  1  0.953791  0.293605  0.935740  1
  Si  Si35  1  0.045823  0.706394  0.435764  1
