# generated using pymatgen
data_Hf16PtRh7C4
_symmetry_space_group_name_H-M   'P 1'
_cell_length_a   8.75899617
_cell_length_b   8.76841717
_cell_length_c   8.76841600
_cell_angle_alpha   60.00000441
_cell_angle_beta   59.96441815
_cell_angle_gamma   59.96441832
_symmetry_Int_Tables_number   1
_chemical_formula_structural   Hf16PtRh7C4
_chemical_formula_sum   'Hf16 Pt1 Rh7 C4'
_cell_volume   475.93530481
_cell_formula_units_Z   1
loop_
 _symmetry_equiv_pos_site_id
 _symmetry_equiv_pos_as_xyz
  1  'x, y, z'
loop_
 _atom_site_type_symbol
 _atom_site_label
 _atom_site_symmetry_multiplicity
 _atom_site_fract_x
 _atom_site_fract_y
 _atom_site_fract_z
 _atom_site_occupancy
  Hf  Hf0  1  0.124661  0.625113  0.625113  1
  Hf  Hf1  1  0.624442  0.121411  0.627074  1
  Hf  Hf2  1  0.624442  0.627074  0.121411  1
  Hf  Hf3  1  0.624442  0.627074  0.627074  1
  Hf  Hf4  1  0.816074  0.817415  0.183255  1
  Hf  Hf5  1  0.183433  0.183340  0.816613  1
  Hf  Hf6  1  0.816074  0.183255  0.817415  1
  Hf  Hf7  1  0.183433  0.816613  0.183340  1
  Hf  Hf8  1  0.183433  0.816613  0.816613  1
  Hf  Hf9  1  0.816074  0.183255  0.183255  1
  Hf  Hf10  1  0.433204  0.433634  0.066581  1
  Hf  Hf11  1  0.068441  0.064030  0.433765  1
  Hf  Hf12  1  0.433204  0.066581  0.433634  1
  Hf  Hf13  1  0.068441  0.433765  0.064030  1
  Hf  Hf14  1  0.068441  0.433765  0.433765  1
  Hf  Hf15  1  0.433204  0.066581  0.066581  1
  Pt  Pt16  1  0.762954  0.412348  0.412348  1
  Rh  Rh17  1  0.412782  0.760486  0.413365  1
  Rh  Rh18  1  0.412782  0.413365  0.760486  1
  Rh  Rh19  1  0.412782  0.413365  0.413365  1
  Rh  Rh20  1  0.484825  0.838392  0.838392  1
  Rh  Rh21  1  0.837843  0.486725  0.837717  1
  Rh  Rh22  1  0.837843  0.837717  0.486725  1
  Rh  Rh23  1  0.837843  0.837717  0.837717  1
  C  C24  1  0.625104  0.124965  0.124965  1
  C  C25  1  0.124600  0.625123  0.125138  1
  C  C26  1  0.124600  0.125138  0.625123  1
  C  C27  1  0.124600  0.125138  0.125138  1
