# generated using pymatgen
data_Nd2TcNi11P7
_symmetry_space_group_name_H-M   'P 1'
_cell_length_a   9.13008547
_cell_length_b   9.18193467
_cell_length_c   3.74486100
_cell_angle_alpha   90.00000000
_cell_angle_beta   90.00000000
_cell_angle_gamma   120.26100353
_symmetry_Int_Tables_number   1
_chemical_formula_structural   Nd2TcNi11P7
_chemical_formula_sum   'Nd2 Tc1 Ni11 P7'
_cell_volume   271.16094775
_cell_formula_units_Z   1
loop_
 _symmetry_equiv_pos_site_id
 _symmetry_equiv_pos_as_xyz
  1  'x, y, z'
loop_
 _atom_site_type_symbol
 _atom_site_label
 _atom_site_symmetry_multiplicity
 _atom_site_fract_x
 _atom_site_fract_y
 _atom_site_fract_z
 _atom_site_occupancy
  Nd  Nd0  1  0.335203  0.665723  0.000000  1
  Nd  Nd1  1  0.663471  0.330313  0.500001  1
  Tc  Tc2  1  0.207324  0.093072  0.500001  1
  Ni  Ni3  1  0.431224  0.059516  0.000000  1
  Ni  Ni4  1  0.148208  0.277246  0.000000  1
  Ni  Ni5  1  0.940355  0.377125  0.000000  1
  Ni  Ni6  1  0.630402  0.569518  0.000000  1
  Ni  Ni7  1  0.122582  0.843111  0.000000  1
  Ni  Ni8  1  0.729798  0.879053  0.000000  1
  Ni  Ni9  1  0.902290  0.120040  0.500001  1
  Ni  Ni10  1  0.382718  0.433625  0.500001  1
  Ni  Ni11  1  0.049923  0.619681  0.500001  1
  Ni  Ni12  1  0.878715  0.778002  0.500001  1
  Ni  Ni13  1  0.571743  0.952402  0.500001  1
  P  P14  1  0.002428  0.000195  0.000000  1
  P  P15  1  0.707327  0.109333  0.000000  1
  P  P16  1  0.402959  0.298691  0.000000  1
  P  P17  1  0.890105  0.594804  0.000000  1
  P  P18  1  0.105131  0.398501  0.500001  1
  P  P19  1  0.601705  0.708019  0.500001  1
  P  P20  1  0.296392  0.892030  0.500001  1
