# generated using pymatgen
data_Yb8Si(AgPd7)3
_symmetry_space_group_name_H-M   'P 1'
_cell_length_a   8.23354300
_cell_length_b   8.16623600
_cell_length_c   8.33223200
_cell_angle_alpha   90.00000000
_cell_angle_beta   90.00000000
_cell_angle_gamma   90.00000000
_symmetry_Int_Tables_number   1
_chemical_formula_structural   Yb8Si(AgPd7)3
_chemical_formula_sum   'Yb8 Si1 Ag3 Pd21'
_cell_volume   560.23474337
_cell_formula_units_Z   1
loop_
 _symmetry_equiv_pos_site_id
 _symmetry_equiv_pos_as_xyz
  1  'x, y, z'
loop_
 _atom_site_type_symbol
 _atom_site_label
 _atom_site_symmetry_multiplicity
 _atom_site_fract_x
 _atom_site_fract_y
 _atom_site_fract_z
 _atom_site_occupancy
  Yb  Yb0  1  0.258592  0.248149  0.253099  1
  Yb  Yb1  1  0.749141  0.752294  0.742331  1
  Yb  Yb2  1  0.749141  0.752294  0.257669  1
  Yb  Yb3  1  0.741408  0.248149  0.746901  1
  Yb  Yb4  1  0.258592  0.248149  0.746901  1
  Yb  Yb5  1  0.250859  0.752294  0.257669  1
  Yb  Yb6  1  0.250859  0.752294  0.742331  1
  Yb  Yb7  1  0.741408  0.248149  0.253099  1
  Si  Si8  1  0.000000  0.995100  0.000000  1
  Ag  Ag9  1  0.260229  0.499821  0.000000  1
  Ag  Ag10  1  0.739771  0.499821  0.000000  1
  Ag  Ag11  1  0.000000  0.259372  0.500000  1
  Pd  Pd12  1  0.500000  0.256133  0.000000  1
  Pd  Pd13  1  0.000000  0.744171  0.500000  1
  Pd  Pd14  1  0.500000  0.743181  0.000000  1
  Pd  Pd15  1  0.500000  0.997876  0.256562  1
  Pd  Pd16  1  0.256257  0.001788  0.500000  1
  Pd  Pd17  1  0.500000  0.997876  0.743438  1
  Pd  Pd18  1  0.743743  0.001788  0.500000  1
  Pd  Pd19  1  0.000000  0.497770  0.257406  1
  Pd  Pd20  1  0.000000  0.497770  0.742594  1
  Pd  Pd21  1  0.252127  0.500676  0.500000  1
  Pd  Pd22  1  0.747873  0.500676  0.500000  1
  Pd  Pd23  1  0.500000  0.252687  0.500000  1
  Pd  Pd24  1  0.500000  0.748831  0.500000  1
  Pd  Pd25  1  0.500000  0.502401  0.253934  1
  Pd  Pd26  1  0.500000  0.502401  0.746066  1
  Pd  Pd27  1  0.280190  0.999178  0.000000  1
  Pd  Pd28  1  0.719810  0.999178  0.000000  1
  Pd  Pd29  1  0.000000  0.278391  0.000000  1
  Pd  Pd30  1  0.000000  0.713899  0.000000  1
  Pd  Pd31  1  0.000000  0.003720  0.278099  1
  Pd  Pd32  1  0.000000  0.003720  0.721901  1
