# generated using pymatgen
data_Ta4Si4IrOsRu2
_symmetry_space_group_name_H-M   'P 1'
_cell_length_a   3.86671700
_cell_length_b   6.35710983
_cell_length_c   7.30162760
_cell_angle_alpha   89.73075384
_cell_angle_beta   90.00000000
_cell_angle_gamma   90.00000000
_symmetry_Int_Tables_number   1
_chemical_formula_structural   Ta4Si4IrOsRu2
_chemical_formula_sum   'Ta4 Si4 Ir1 Os1 Ru2'
_cell_volume   179.48038234
_cell_formula_units_Z   1
loop_
 _symmetry_equiv_pos_site_id
 _symmetry_equiv_pos_as_xyz
  1  'x, y, z'
loop_
 _atom_site_type_symbol
 _atom_site_label
 _atom_site_symmetry_multiplicity
 _atom_site_fract_x
 _atom_site_fract_y
 _atom_site_fract_z
 _atom_site_occupancy
  Ta  Ta0  1  0.750000  0.526703  0.822612  1
  Ta  Ta1  1  0.250000  0.977993  0.320798  1
  Ta  Ta2  1  0.750000  0.018128  0.679323  1
  Ta  Ta3  1  0.250000  0.479882  0.177892  1
  Si  Si4  1  0.250000  0.227325  0.878230  1
  Si  Si5  1  0.250000  0.727377  0.620335  1
  Si  Si6  1  0.750000  0.775355  0.126523  1
  Si  Si7  1  0.750000  0.271691  0.374350  1
  Ir  Ir8  1  0.250000  0.347247  0.563479  1
  Os  Os9  1  0.250000  0.846177  0.937730  1
  Ru  Ru10  1  0.750000  0.648956  0.438168  1
  Ru  Ru11  1  0.750000  0.153168  0.060561  1
