# generated using pymatgen
data_Li3La8Dy9Si16
_symmetry_space_group_name_H-M   'P 1'
_cell_length_a   7.81403592
_cell_length_b   7.81403604
_cell_length_c   14.02375500
_cell_angle_alpha   89.77190253
_cell_angle_beta   90.22809747
_cell_angle_gamma   90.03159399
_symmetry_Int_Tables_number   1
_chemical_formula_structural   Li3La8Dy9Si16
_chemical_formula_sum   'Li3 La8 Dy9 Si16'
_cell_volume   856.26498313
_cell_formula_units_Z   1
loop_
 _symmetry_equiv_pos_site_id
 _symmetry_equiv_pos_as_xyz
  1  'x, y, z'
loop_
 _atom_site_type_symbol
 _atom_site_label
 _atom_site_symmetry_multiplicity
 _atom_site_fract_x
 _atom_site_fract_y
 _atom_site_fract_z
 _atom_site_occupancy
  Li  Li0  1  0.685520  0.685520  0.500000  1
  Li  Li1  1  0.815571  0.185601  0.748516  1
  Li  Li2  1  0.185601  0.815571  0.251484  1
  La  La3  1  0.992810  0.643744  0.042297  1
  La  La4  1  0.001529  0.362799  0.540985  1
  La  La5  1  0.643744  0.992810  0.957703  1
  La  La6  1  0.135151  0.502131  0.785430  1
  La  La7  1  0.865446  0.500792  0.294378  1
  La  La8  1  0.502131  0.135151  0.214570  1
  La  La9  1  0.500792  0.865446  0.705622  1
  La  La10  1  0.362799  0.001529  0.459015  1
  Dy  Dy11  1  0.366046  0.505346  0.376363  1
  Dy  Dy12  1  0.868774  0.996123  0.376246  1
  Dy  Dy13  1  0.997273  0.128534  0.130009  1
  Dy  Dy14  1  0.996123  0.868774  0.623754  1
  Dy  Dy15  1  0.637627  0.496913  0.872397  1
  Dy  Dy16  1  0.505346  0.366046  0.623637  1
  Dy  Dy17  1  0.496913  0.637627  0.127603  1
  Dy  Dy18  1  0.128534  0.997273  0.869991  1
  Dy  Dy19  1  0.315265  0.315265  0.000000  1
  Si  Si20  1  0.080498  0.713388  0.440461  1
  Si  Si21  1  0.931331  0.290261  0.941153  1
  Si  Si22  1  0.713388  0.080498  0.559539  1
  Si  Si23  1  0.210665  0.422288  0.190536  1
  Si  Si24  1  0.784264  0.580424  0.687000  1
  Si  Si25  1  0.422288  0.210665  0.809464  1
  Si  Si26  1  0.580424  0.784264  0.313000  1
  Si  Si27  1  0.290261  0.931331  0.058847  1
  Si  Si28  1  0.850436  0.781506  0.812762  1
  Si  Si29  1  0.146943  0.217776  0.318392  1
  Si  Si30  1  0.781506  0.850436  0.187238  1
  Si  Si31  1  0.285072  0.648547  0.565758  1
  Si  Si32  1  0.706621  0.346982  0.062959  1
  Si  Si33  1  0.648547  0.285072  0.434242  1
  Si  Si34  1  0.346982  0.706621  0.937041  1
  Si  Si35  1  0.217776  0.146943  0.681608  1
