# generated using pymatgen
data_Zr10Al3Bi5
_symmetry_space_group_name_H-M   'P 1'
_cell_length_a   8.82041400
_cell_length_b   8.86928095
_cell_length_c   5.92154700
_cell_angle_alpha   90.00000000
_cell_angle_beta   90.00000000
_cell_angle_gamma   119.81791525
_symmetry_Int_Tables_number   1
_chemical_formula_structural   Zr10Al3Bi5
_chemical_formula_sum   'Zr10 Al3 Bi5'
_cell_volume   401.91768893
_cell_formula_units_Z   1
loop_
 _symmetry_equiv_pos_site_id
 _symmetry_equiv_pos_as_xyz
  1  'x, y, z'
loop_
 _atom_site_type_symbol
 _atom_site_label
 _atom_site_symmetry_multiplicity
 _atom_site_fract_x
 _atom_site_fract_y
 _atom_site_fract_z
 _atom_site_occupancy
  Zr  Zr0  1  0.334294  0.673077  0.995914  1
  Zr  Zr1  1  0.661218  0.326923  0.504086  1
  Zr  Zr2  1  0.661218  0.326923  0.995914  1
  Zr  Zr3  1  0.334294  0.673077  0.504086  1
  Zr  Zr4  1  0.264766  0.000000  0.250000  1
  Zr  Zr5  1  0.276760  0.261209  0.750000  1
  Zr  Zr6  1  0.015552  0.738791  0.750000  1
  Zr  Zr7  1  0.996671  0.261413  0.250000  1
  Zr  Zr8  1  0.735258  0.738587  0.250000  1
  Zr  Zr9  1  0.721759  0.000000  0.750000  1
  Al  Al10  1  0.999526  0.000000  0.991545  1
  Al  Al11  1  0.999526  0.000000  0.508455  1
  Al  Al12  1  0.387572  0.000000  0.750000  1
  Bi  Bi13  1  0.605160  0.000000  0.250000  1
  Bi  Bi14  1  0.618440  0.616149  0.750000  1
  Bi  Bi15  1  0.002291  0.383851  0.750000  1
  Bi  Bi16  1  0.997708  0.609716  0.250000  1
  Bi  Bi17  1  0.387992  0.390284  0.250000  1
