# generated using pymatgen
data_Th4MgNp3N12
_symmetry_space_group_name_H-M   'P 1'
_cell_length_a   5.74447936
_cell_length_b   5.87874262
_cell_length_c   8.26731600
_cell_angle_alpha   90.44802084
_cell_angle_beta   90.02036703
_cell_angle_gamma   89.54053339
_symmetry_Int_Tables_number   1
_chemical_formula_structural   Th4MgNp3N12
_chemical_formula_sum   'Th4 Mg1 Np3 N12'
_cell_volume   279.17234706
_cell_formula_units_Z   1
loop_
 _symmetry_equiv_pos_site_id
 _symmetry_equiv_pos_as_xyz
  1  'x, y, z'
loop_
 _atom_site_type_symbol
 _atom_site_label
 _atom_site_symmetry_multiplicity
 _atom_site_fract_x
 _atom_site_fract_y
 _atom_site_fract_z
 _atom_site_occupancy
  Th  Th0  1  0.507858  0.542258  0.233367  1
  Th  Th1  1  0.983940  0.058751  0.234006  1
  Th  Th2  1  0.492142  0.457742  0.766633  1
  Th  Th3  1  0.016060  0.941249  0.765994  1
  Mg  Mg4  1  0.000000  0.500000  0.000000  1
  Np  Np5  1  0.500000  0.000000  0.500000  1
  Np  Np6  1  0.000000  0.500000  0.500000  1
  Np  Np7  1  0.500000  0.000000  0.000000  1
  N  N8  1  0.380221  0.958979  0.257940  1
  N  N9  1  0.107564  0.462875  0.265431  1
  N  N10  1  0.619779  0.041021  0.742060  1
  N  N11  1  0.892436  0.537125  0.734569  1
  N  N12  1  0.787914  0.808816  0.043319  1
  N  N13  1  0.700425  0.303608  0.430384  1
  N  N14  1  0.209595  0.190736  0.570722  1
  N  N15  1  0.300227  0.705326  0.947370  1
  N  N16  1  0.212086  0.191184  0.956681  1
  N  N17  1  0.299575  0.696392  0.569616  1
  N  N18  1  0.790405  0.809264  0.429278  1
  N  N19  1  0.699773  0.294674  0.052630  1
