# generated using pymatgen
data_TlInBr4
_symmetry_space_group_name_H-M   'P 1'
_cell_length_a   13.61085732
_cell_length_b   13.61085681
_cell_length_c   13.61085700
_cell_angle_alpha   115.18209925
_cell_angle_beta   115.18209823
_cell_angle_gamma   115.18210689
_symmetry_Int_Tables_number   1
_chemical_formula_structural   TlInBr4
_chemical_formula_sum   'Tl6 In6 Br24'
_cell_volume   1387.47642633
_cell_formula_units_Z   6
loop_
 _symmetry_equiv_pos_site_id
 _symmetry_equiv_pos_as_xyz
  1  'x, y, z'
loop_
 _atom_site_type_symbol
 _atom_site_label
 _atom_site_symmetry_multiplicity
 _atom_site_fract_x
 _atom_site_fract_y
 _atom_site_fract_z
 _atom_site_occupancy
  Tl  Tl0  1  0.876239  0.688462  0.092793  1
  Tl  Tl1  1  0.092793  0.876239  0.688462  1
  Tl  Tl2  1  0.688462  0.092793  0.876239  1
  Tl  Tl3  1  0.188462  0.376239  0.592793  1
  Tl  Tl4  1  0.592793  0.188462  0.376239  1
  Tl  Tl5  1  0.376239  0.592793  0.188462  1
  In  In6  1  0.863907  0.075519  0.681520  1
  In  In7  1  0.681520  0.863907  0.075519  1
  In  In8  1  0.075519  0.681520  0.863907  1
  In  In9  1  0.575519  0.363907  0.181520  1
  In  In10  1  0.181520  0.575519  0.363907  1
  In  In11  1  0.363907  0.181520  0.575519  1
  Br  Br12  1  0.964927  0.115922  0.914961  1
  Br  Br13  1  0.914961  0.964927  0.115922  1
  Br  Br14  1  0.115922  0.914961  0.964927  1
  Br  Br15  1  0.615922  0.464927  0.414961  1
  Br  Br16  1  0.414961  0.615922  0.464927  1
  Br  Br17  1  0.464927  0.414961  0.615922  1
  Br  Br18  1  0.078820  0.335266  0.784567  1
  Br  Br19  1  0.784567  0.078820  0.335266  1
  Br  Br20  1  0.335266  0.784567  0.078820  1
  Br  Br21  1  0.835266  0.578820  0.284567  1
  Br  Br22  1  0.284567  0.835266  0.578820  1
  Br  Br23  1  0.578820  0.284567  0.835266  1
  Br  Br24  1  0.611081  0.006267  0.547877  1
  Br  Br25  1  0.547877  0.611081  0.006267  1
  Br  Br26  1  0.006267  0.547877  0.611081  1
  Br  Br27  1  0.506267  0.111081  0.047877  1
  Br  Br28  1  0.047877  0.506267  0.111081  1
  Br  Br29  1  0.111081  0.047877  0.506267  1
  Br  Br30  1  0.790554  0.840584  0.471133  1
  Br  Br31  1  0.471133  0.790554  0.840584  1
  Br  Br32  1  0.840584  0.471133  0.790554  1
  Br  Br33  1  0.340584  0.290554  0.971133  1
  Br  Br34  1  0.971133  0.340584  0.290554  1
  Br  Br35  1  0.290554  0.971133  0.340584  1
