# generated using pymatgen
data_Ho7Er9Cd4NiOs3
_symmetry_space_group_name_H-M   'P 1'
_cell_length_a   9.50084565
_cell_length_b   9.61690162
_cell_length_c   9.59364966
_cell_angle_alpha   59.92136372
_cell_angle_beta   59.52475677
_cell_angle_gamma   59.60832776
_symmetry_Int_Tables_number   1
_chemical_formula_structural   Ho7Er9Cd4NiOs3
_chemical_formula_sum   'Ho7 Er9 Cd4 Ni1 Os3'
_cell_volume   615.36648770
_cell_formula_units_Z   1
loop_
 _symmetry_equiv_pos_site_id
 _symmetry_equiv_pos_as_xyz
  1  'x, y, z'
loop_
 _atom_site_type_symbol
 _atom_site_label
 _atom_site_symmetry_multiplicity
 _atom_site_fract_x
 _atom_site_fract_y
 _atom_site_fract_z
 _atom_site_occupancy
  Ho  Ho0  1  0.809386  0.812273  0.188733  1
  Ho  Ho1  1  0.940901  0.558560  0.558530  1
  Ho  Ho2  1  0.555706  0.938459  0.938690  1
  Ho  Ho3  1  0.555207  0.938713  0.567524  1
  Ho  Ho4  1  0.941038  0.558446  0.941732  1
  Ho  Ho5  1  0.555808  0.566951  0.938838  1
  Ho  Ho6  1  0.940735  0.942053  0.558489  1
  Er  Er7  1  0.351767  0.344847  0.346095  1
  Er  Er8  1  0.352153  0.344944  0.957986  1
  Er  Er9  1  0.351482  0.957447  0.346166  1
  Er  Er10  1  0.960571  0.346122  0.346847  1
  Er  Er11  1  0.809491  0.189699  0.188730  1
  Er  Er12  1  0.186259  0.811828  0.810477  1
  Er  Er13  1  0.187286  0.811474  0.189984  1
  Er  Er14  1  0.809691  0.189921  0.810673  1
  Er  Er15  1  0.186007  0.191378  0.810723  1
  Cd  Cd16  1  0.579156  0.581163  0.580715  1
  Cd  Cd17  1  0.579369  0.581119  0.258205  1
  Cd  Cd18  1  0.579224  0.258921  0.580652  1
  Cd  Cd19  1  0.256304  0.581281  0.581121  1
  Ni  Ni20  1  0.578562  0.140159  0.141601  1
  Os  Os21  1  0.144366  0.137753  0.139351  1
  Os  Os22  1  0.144940  0.138123  0.578773  1
  Os  Os23  1  0.144593  0.578367  0.139367  1
