# generated using pymatgen
data_HoErMn2Co10P7
_symmetry_space_group_name_H-M   'P 1'
_cell_length_a   9.04234913
_cell_length_b   9.05710464
_cell_length_c   3.59779400
_cell_angle_alpha   90.00000000
_cell_angle_beta   90.00000000
_cell_angle_gamma   120.11610265
_symmetry_Int_Tables_number   1
_chemical_formula_structural   HoErMn2Co10P7
_chemical_formula_sum   'Ho1 Er1 Mn2 Co10 P7'
_cell_volume   254.87562204
_cell_formula_units_Z   1
loop_
 _symmetry_equiv_pos_site_id
 _symmetry_equiv_pos_as_xyz
  1  'x, y, z'
loop_
 _atom_site_type_symbol
 _atom_site_label
 _atom_site_symmetry_multiplicity
 _atom_site_fract_x
 _atom_site_fract_y
 _atom_site_fract_z
 _atom_site_occupancy
  Ho  Ho0  1  0.668840  0.334610  0.000000  1
  Er  Er1  1  0.333293  0.666291  0.500000  1
  Mn  Mn2  1  0.778388  0.879068  0.500000  1
  Mn  Mn3  1  0.121379  0.900596  0.500000  1
  Co  Co4  1  0.060664  0.429446  0.000000  1
  Co  Co5  1  0.568061  0.629226  0.000000  1
  Co  Co6  1  0.370132  0.938885  0.000000  1
  Co  Co7  1  0.274878  0.157855  0.000000  1
  Co  Co8  1  0.843538  0.118367  0.000000  1
  Co  Co9  1  0.883570  0.724908  0.000000  1
  Co  Co10  1  0.434939  0.385721  0.500000  1
  Co  Co11  1  0.615062  0.051607  0.500000  1
  Co  Co12  1  0.949865  0.562598  0.500000  1
  Co  Co13  1  0.094604  0.220936  0.500000  1
  P  P14  1  0.297404  0.410286  0.000000  1
  P  P15  1  0.588063  0.886990  0.000000  1
  P  P16  1  0.113064  0.699322  0.000000  1
  P  P17  1  0.408241  0.118061  0.500000  1
  P  P18  1  0.886038  0.288753  0.500000  1
  P  P19  1  0.710413  0.595564  0.500000  1
  P  P20  1  0.999562  0.000907  0.000000  1
