# generated using pymatgen
data_Ta4Al6OsRh
_symmetry_space_group_name_H-M   'P 1'
_cell_length_a   5.16779500
_cell_length_b   5.16779410
_cell_length_c   8.06735900
_cell_angle_alpha   90.00000000
_cell_angle_beta   90.00000000
_cell_angle_gamma   119.99999937
_symmetry_Int_Tables_number   1
_chemical_formula_structural   Ta4Al6OsRh
_chemical_formula_sum   'Ta4 Al6 Os1 Rh1'
_cell_volume   186.58318282
_cell_formula_units_Z   1
loop_
 _symmetry_equiv_pos_site_id
 _symmetry_equiv_pos_as_xyz
  1  'x, y, z'
loop_
 _atom_site_type_symbol
 _atom_site_label
 _atom_site_symmetry_multiplicity
 _atom_site_fract_x
 _atom_site_fract_y
 _atom_site_fract_z
 _atom_site_occupancy
  Ta  Ta0  1  0.666668  0.333334  0.069806  1
  Ta  Ta1  1  0.666668  0.333334  0.427731  1
  Ta  Ta2  1  0.333334  0.666667  0.572269  1
  Ta  Ta3  1  0.333334  0.666667  0.930194  1
  Al  Al4  1  0.169413  0.338825  0.247664  1
  Al  Al5  1  0.169412  0.830587  0.247664  1
  Al  Al6  1  0.661175  0.830587  0.247664  1
  Al  Al7  1  0.338825  0.169412  0.752336  1
  Al  Al8  1  0.830586  0.169412  0.752336  1
  Al  Al9  1  0.830588  0.661175  0.752336  1
  Os  Os10  1  0.000000  0.000000  0.500000  1
  Rh  Rh11  1  0.000000  0.000000  0.000000  1
