# generated using pymatgen
data_Yb3YGa18(CoPd2)2
_symmetry_space_group_name_H-M   'P 1'
_cell_length_a   7.57868979
_cell_length_b   7.57373007
_cell_length_c   9.47379700
_cell_angle_alpha   90.00000000
_cell_angle_beta   90.00000000
_cell_angle_gamma   119.57665924
_symmetry_Int_Tables_number   1
_chemical_formula_structural   Yb3YGa18(CoPd2)2
_chemical_formula_sum   'Yb3 Y1 Ga18 Co2 Pd4'
_cell_volume   472.92855637
_cell_formula_units_Z   1
loop_
 _symmetry_equiv_pos_site_id
 _symmetry_equiv_pos_as_xyz
  1  'x, y, z'
loop_
 _atom_site_type_symbol
 _atom_site_label
 _atom_site_symmetry_multiplicity
 _atom_site_fract_x
 _atom_site_fract_y
 _atom_site_fract_z
 _atom_site_occupancy
  Yb  Yb0  1  0.009067  0.682649  0.750000  1
  Yb  Yb1  1  0.667257  0.986544  0.750000  1
  Yb  Yb2  1  0.013198  0.333400  0.250000  1
  Y  Y3  1  0.316907  0.990323  0.250000  1
  Ga  Ga4  1  0.347840  0.014274  0.920343  1
  Ga  Ga5  1  0.984872  0.651035  0.078470  1
  Ga  Ga6  1  0.347840  0.014274  0.579657  1
  Ga  Ga7  1  0.984872  0.651035  0.421530  1
  Ga  Ga8  1  0.666332  0.018217  0.079591  1
  Ga  Ga9  1  0.981597  0.335087  0.920276  1
  Ga  Ga10  1  0.666332  0.018217  0.420409  1
  Ga  Ga11  1  0.981597  0.335087  0.579724  1
  Ga  Ga12  1  0.667106  0.657281  0.936238  1
  Ga  Ga13  1  0.342114  0.333885  0.063966  1
  Ga  Ga14  1  0.667106  0.657281  0.563762  1
  Ga  Ga15  1  0.342114  0.333885  0.436034  1
  Ga  Ga16  1  0.131328  0.135546  0.750000  1
  Ga  Ga17  1  0.864011  0.868501  0.250000  1
  Ga  Ga18  1  0.462865  0.663892  0.250000  1
  Ga  Ga19  1  0.336099  0.537917  0.750000  1
  Ga  Ga20  1  0.572306  0.339580  0.750000  1
  Ga  Ga21  1  0.661700  0.428854  0.250000  1
  Co  Co22  1  0.666908  0.331601  0.000545  1
  Co  Co23  1  0.666908  0.331601  0.499455  1
  Pd  Pd24  1  0.998454  0.001897  0.000350  1
  Pd  Pd25  1  0.998454  0.001897  0.499650  1
  Pd  Pd26  1  0.327410  0.673117  0.000439  1
  Pd  Pd27  1  0.327410  0.673117  0.499561  1
