# generated using pymatgen
data_Y3ThPt4
_symmetry_space_group_name_H-M   'P 1'
_cell_length_a   4.57481500
_cell_length_b   5.65667847
_cell_length_c   7.11950250
_cell_angle_alpha   90.69054620
_cell_angle_beta   90.00000000
_cell_angle_gamma   90.00000000
_symmetry_Int_Tables_number   1
_chemical_formula_structural   Y3ThPt4
_chemical_formula_sum   'Y3 Th1 Pt4'
_cell_volume   184.22693794
_cell_formula_units_Z   1
loop_
 _symmetry_equiv_pos_site_id
 _symmetry_equiv_pos_as_xyz
  1  'x, y, z'
loop_
 _atom_site_type_symbol
 _atom_site_label
 _atom_site_symmetry_multiplicity
 _atom_site_fract_x
 _atom_site_fract_y
 _atom_site_fract_z
 _atom_site_occupancy
  Y  Y0  1  0.250000  0.140475  0.182925  1
  Y  Y1  1  0.750000  0.642613  0.314610  1
  Y  Y2  1  0.750000  0.857876  0.820587  1
  Th  Th3  1  0.250000  0.360022  0.682790  1
  Pt  Pt4  1  0.250000  0.843495  0.544429  1
  Pt  Pt5  1  0.250000  0.654494  0.041829  1
  Pt  Pt6  1  0.750000  0.156996  0.456413  1
  Pt  Pt7  1  0.750000  0.344028  0.956416  1
