# generated using pymatgen
data_Er3Tm3(CrB7)2
_symmetry_space_group_name_H-M   'P 1'
_cell_length_a   7.99400702
_cell_length_b   7.99400700
_cell_length_c   9.27678451
_cell_angle_alpha   89.96268196
_cell_angle_beta   90.03731746
_cell_angle_gamma   155.39359833
_symmetry_Int_Tables_number   1
_chemical_formula_structural   Er3Tm3(CrB7)2
_chemical_formula_sum   'Er3 Tm3 Cr2 B14'
_cell_volume   246.84183343
_cell_formula_units_Z   1
loop_
 _symmetry_equiv_pos_site_id
 _symmetry_equiv_pos_as_xyz
  1  'x, y, z'
loop_
 _atom_site_type_symbol
 _atom_site_label
 _atom_site_symmetry_multiplicity
 _atom_site_fract_x
 _atom_site_fract_y
 _atom_site_fract_z
 _atom_site_occupancy
  Er  Er0  1  0.758289  0.241711  0.249994  1
  Er  Er1  1  0.241435  0.758565  0.750002  1
  Er  Er2  1  0.894820  0.105180  0.940554  1
  Tm  Tm3  1  0.895182  0.104818  0.558890  1
  Tm  Tm4  1  0.105025  0.894975  0.440964  1
  Tm  Tm5  1  0.104778  0.895222  0.058996  1
  Cr  Cr6  1  0.947885  0.052115  0.250248  1
  Cr  Cr7  1  0.052365  0.947635  0.750003  1
  B  B8  1  0.543131  0.456869  0.250089  1
  B  B9  1  0.457242  0.542758  0.749466  1
  B  B10  1  0.520638  0.479362  0.904012  1
  B  B11  1  0.479506  0.520494  0.096030  1
  B  B12  1  0.479606  0.520394  0.404285  1
  B  B13  1  0.520671  0.479329  0.595427  1
  B  B14  1  0.630923  0.369077  0.848934  1
  B  B15  1  0.369004  0.630996  0.151547  1
  B  B16  1  0.726847  0.273153  0.968451  1
  B  B17  1  0.272389  0.727611  0.032021  1
  B  B18  1  0.272840  0.727160  0.468317  1
  B  B19  1  0.727317  0.272683  0.531750  1
  B  B20  1  0.631008  0.368992  0.651011  1
  B  B21  1  0.369099  0.630901  0.349008  1
