# generated using pymatgen
data_CaTmNp2(NiAs)4
_symmetry_space_group_name_H-M   'P 1'
_cell_length_a   4.05748000
_cell_length_b   4.05748058
_cell_length_c   15.67716400
_cell_angle_alpha   90.00000000
_cell_angle_beta   90.00000000
_cell_angle_gamma   119.99997898
_symmetry_Int_Tables_number   1
_chemical_formula_structural   CaTmNp2(NiAs)4
_chemical_formula_sum   'Ca1 Tm1 Np2 Ni4 As4'
_cell_volume   223.51725881
_cell_formula_units_Z   1
loop_
 _symmetry_equiv_pos_site_id
 _symmetry_equiv_pos_as_xyz
  1  'x, y, z'
loop_
 _atom_site_type_symbol
 _atom_site_label
 _atom_site_symmetry_multiplicity
 _atom_site_fract_x
 _atom_site_fract_y
 _atom_site_fract_z
 _atom_site_occupancy
  Ca  Ca0  1  0.000000  0.000000  0.250000  1
  Tm  Tm1  1  0.000000  0.000000  0.750000  1
  Np  Np2  1  0.000000  0.000000  0.995725  1
  Np  Np3  1  0.000000  0.000000  0.504275  1
  Ni  Ni4  1  0.333333  0.666667  0.112720  1
  Ni  Ni5  1  0.666667  0.333333  0.856025  1
  Ni  Ni6  1  0.666667  0.333333  0.643975  1
  Ni  Ni7  1  0.333333  0.666667  0.387280  1
  As  As8  1  0.333333  0.666667  0.623462  1
  As  As9  1  0.666667  0.333333  0.383307  1
  As  As10  1  0.666667  0.333333  0.116693  1
  As  As11  1  0.333333  0.666667  0.876538  1
