# generated using pymatgen
data_Pr8Al5Ga3
_symmetry_space_group_name_H-M   'P 1'
_cell_length_a   5.96555811
_cell_length_b   11.82909615
_cell_length_c   5.78653600
_cell_angle_alpha   90.00000000
_cell_angle_beta   90.00000000
_cell_angle_gamma   90.06940853
_symmetry_Int_Tables_number   1
_chemical_formula_structural   Pr8Al5Ga3
_chemical_formula_sum   'Pr8 Al5 Ga3'
_cell_volume   408.33911448
_cell_formula_units_Z   1
loop_
 _symmetry_equiv_pos_site_id
 _symmetry_equiv_pos_as_xyz
  1  'x, y, z'
loop_
 _atom_site_type_symbol
 _atom_site_label
 _atom_site_symmetry_multiplicity
 _atom_site_fract_x
 _atom_site_fract_y
 _atom_site_fract_z
 _atom_site_occupancy
  Pr  Pr0  1  0.165667  0.489672  0.750000  1
  Pr  Pr1  1  0.834215  0.510458  0.250000  1
  Pr  Pr2  1  0.165762  0.011072  0.250000  1
  Pr  Pr3  1  0.833309  0.991454  0.750000  1
  Pr  Pr4  1  0.406551  0.166401  0.750000  1
  Pr  Pr5  1  0.594319  0.834054  0.250000  1
  Pr  Pr6  1  0.406106  0.335290  0.250000  1
  Pr  Pr7  1  0.595141  0.663707  0.750000  1
  Al  Al8  1  0.927533  0.250503  0.499763  1
  Al  Al9  1  0.072374  0.749191  0.000539  1
  Al  Al10  1  0.072374  0.749191  0.499461  1
  Al  Al11  1  0.927533  0.250503  0.000237  1
  Al  Al12  1  0.331068  0.896956  0.750000  1
  Ga  Ga13  1  0.668218  0.398104  0.750000  1
  Ga  Ga14  1  0.332160  0.601290  0.250000  1
  Ga  Ga15  1  0.667670  0.102153  0.250000  1
