# generated using pymatgen
data_Ho(NbSe2)5
_symmetry_space_group_name_H-M   'P 1'
_cell_length_a   6.09483093
_cell_length_b   8.12430823
_cell_length_c   8.89321596
_cell_angle_alpha   113.98422452
_cell_angle_beta   96.75871209
_cell_angle_gamma   104.25978509
_symmetry_Int_Tables_number   1
_chemical_formula_structural   Ho(NbSe2)5
_chemical_formula_sum   'Ho1 Nb5 Se10'
_cell_volume   377.96023957
_cell_formula_units_Z   1
loop_
 _symmetry_equiv_pos_site_id
 _symmetry_equiv_pos_as_xyz
  1  'x, y, z'
loop_
 _atom_site_type_symbol
 _atom_site_label
 _atom_site_symmetry_multiplicity
 _atom_site_fract_x
 _atom_site_fract_y
 _atom_site_fract_z
 _atom_site_occupancy
  Ho  Ho0  1  0.667385  0.508033  0.994416  1
  Nb  Nb1  1  0.002464  0.996797  0.000624  1
  Nb  Nb2  1  0.599474  0.204949  0.201334  1
  Nb  Nb3  1  0.197929  0.400134  0.398829  1
  Nb  Nb4  1  0.798307  0.599353  0.602889  1
  Nb  Nb5  1  0.401242  0.795344  0.798720  1
  Se  Se6  1  0.236724  0.060027  0.294414  1
  Se  Se7  1  0.047592  0.654441  0.895821  1
  Se  Se8  1  0.834107  0.257988  0.492144  1
  Se  Se9  1  0.635566  0.867512  0.104244  1
  Se  Se10  1  0.424578  0.444299  0.684997  1
  Se  Se11  1  0.901365  0.550513  0.311527  1
  Se  Se12  1  0.699100  0.136446  0.902085  1
  Se  Se13  1  0.497792  0.741058  0.507705  1
  Se  Se14  1  0.290087  0.342273  0.103710  1
  Se  Se15  1  0.099090  0.938432  0.708140  1
