# generated using pymatgen
data_EuDy3Pt4F28
_symmetry_space_group_name_H-M   'P 1'
_cell_length_a   5.54421424
_cell_length_b   8.91696352
_cell_length_c   12.04754142
_cell_angle_alpha   62.46384061
_cell_angle_beta   89.98949132
_cell_angle_gamma   89.93527031
_symmetry_Int_Tables_number   1
_chemical_formula_structural   EuDy3Pt4F28
_chemical_formula_sum   'Eu1 Dy3 Pt4 F28'
_cell_volume   528.13049890
_cell_formula_units_Z   1
loop_
 _symmetry_equiv_pos_site_id
 _symmetry_equiv_pos_as_xyz
  1  'x, y, z'
loop_
 _atom_site_type_symbol
 _atom_site_label
 _atom_site_symmetry_multiplicity
 _atom_site_fract_x
 _atom_site_fract_y
 _atom_site_fract_z
 _atom_site_occupancy
  Eu  Eu0  1  0.762043  0.814296  0.764813  1
  Dy  Dy1  1  0.262622  0.188343  0.735745  1
  Dy  Dy2  1  0.237944  0.185507  0.235999  1
  Dy  Dy3  1  0.738869  0.814344  0.264331  1
  Pt  Pt4  1  0.757862  0.269768  0.958042  1
  Pt  Pt5  1  0.258012  0.727019  0.540823  1
  Pt  Pt6  1  0.241904  0.727003  0.045379  1
  Pt  Pt7  1  0.740375  0.274260  0.455661  1
  F  F8  1  0.431023  0.704156  0.916382  1
  F  F9  1  0.934205  0.296560  0.583999  1
  F  F10  1  0.564238  0.294295  0.085531  1
  F  F11  1  0.067647  0.703648  0.412061  1
  F  F12  1  0.438698  0.276616  0.542044  1
  F  F13  1  0.939261  0.722017  0.962131  1
  F  F14  1  0.563026  0.724502  0.456862  1
  F  F15  1  0.059776  0.274094  0.043239  1
  F  F16  1  0.774061  0.517349  0.860433  1
  F  F17  1  0.275429  0.478632  0.639446  1
  F  F18  1  0.226249  0.478340  0.142841  1
  F  F19  1  0.723228  0.522709  0.358481  1
  F  F20  1  0.752739  0.021435  0.051490  1
  F  F21  1  0.252279  0.975339  0.448270  1
  F  F22  1  0.246110  0.975206  0.950252  1
  F  F23  1  0.746592  0.026659  0.547927  1
  F  F24  1  0.961335  0.723092  0.630669  1
  F  F25  1  0.461872  0.274759  0.866319  1
  F  F26  1  0.034717  0.276609  0.363657  1
  F  F27  1  0.538187  0.724343  0.135911  1
  F  F28  1  0.057128  0.746297  0.177989  1
  F  F29  1  0.552335  0.255007  0.323833  1
  F  F30  1  0.945816  0.252031  0.825303  1
  F  F31  1  0.439412  0.746122  0.673963  1
  F  F32  1  0.412780  0.969463  0.232264  1
  F  F33  1  0.912064  0.031099  0.267813  1
  F  F34  1  0.593088  0.038726  0.768041  1
  F  F35  1  0.097071  0.970357  0.732058  1
