# generated using pymatgen
data_TbDy3Ga18Co5Ni
_symmetry_space_group_name_H-M   'P 1'
_cell_length_a   7.38605604
_cell_length_b   7.38543063
_cell_length_c   9.40145614
_cell_angle_alpha   89.94311037
_cell_angle_beta   89.94581482
_cell_angle_gamma   119.86800713
_symmetry_Int_Tables_number   1
_chemical_formula_structural   TbDy3Ga18Co5Ni
_chemical_formula_sum   'Tb1 Dy3 Ga18 Co5 Ni1'
_cell_volume   444.72286787
_cell_formula_units_Z   1
loop_
 _symmetry_equiv_pos_site_id
 _symmetry_equiv_pos_as_xyz
  1  'x, y, z'
loop_
 _atom_site_type_symbol
 _atom_site_label
 _atom_site_symmetry_multiplicity
 _atom_site_fract_x
 _atom_site_fract_y
 _atom_site_fract_z
 _atom_site_occupancy
  Tb  Tb0  1  0.331926  0.003115  0.250440  1
  Dy  Dy1  1  0.996918  0.668007  0.749552  1
  Dy  Dy2  1  0.668040  0.996894  0.749580  1
  Dy  Dy3  1  0.003127  0.331976  0.250406  1
  Ga  Ga4  1  0.336244  0.999415  0.926700  1
  Ga  Ga5  1  0.000491  0.663628  0.073186  1
  Ga  Ga6  1  0.333924  0.999324  0.571902  1
  Ga  Ga7  1  0.000603  0.666004  0.428214  1
  Ga  Ga8  1  0.663845  0.000610  0.073207  1
  Ga  Ga9  1  0.999418  0.336263  0.926772  1
  Ga  Ga10  1  0.666141  0.000677  0.428210  1
  Ga  Ga11  1  0.999321  0.333925  0.571843  1
  Ga  Ga12  1  0.663788  0.663787  0.941577  1
  Ga  Ga13  1  0.336198  0.336252  0.058386  1
  Ga  Ga14  1  0.666713  0.666679  0.557336  1
  Ga  Ga15  1  0.333311  0.333366  0.442708  1
  Ga  Ga16  1  0.121545  0.121571  0.748042  1
  Ga  Ga17  1  0.878322  0.878395  0.251965  1
  Ga  Ga18  1  0.449555  0.663957  0.250146  1
  Ga  Ga19  1  0.336042  0.550562  0.749857  1
  Ga  Ga20  1  0.550532  0.336013  0.749851  1
  Ga  Ga21  1  0.664046  0.449593  0.250114  1
  Co  Co22  1  0.999962  0.999989  0.500021  1
  Co  Co23  1  0.328972  0.671031  0.999982  1
  Co  Co24  1  0.328916  0.671099  0.500012  1
  Co  Co25  1  0.671034  0.328981  0.999984  1
  Co  Co26  1  0.671083  0.328900  0.500021  1
  Ni  Ni27  1  0.999982  0.999986  0.999987  1
