# generated using pymatgen
data_Dy9Tm2PaGa20
_symmetry_space_group_name_H-M   'P 1'
_cell_length_a   6.14536376
_cell_length_b   9.57564268
_cell_length_c   11.50485201
_cell_angle_alpha   90.01906260
_cell_angle_beta   89.92811242
_cell_angle_gamma   90.04634820
_symmetry_Int_Tables_number   1
_chemical_formula_structural   Dy9Tm2PaGa20
_chemical_formula_sum   'Dy9 Tm2 Pa1 Ga20'
_cell_volume   677.01151510
_cell_formula_units_Z   1
loop_
 _symmetry_equiv_pos_site_id
 _symmetry_equiv_pos_as_xyz
  1  'x, y, z'
loop_
 _atom_site_type_symbol
 _atom_site_label
 _atom_site_symmetry_multiplicity
 _atom_site_fract_x
 _atom_site_fract_y
 _atom_site_fract_z
 _atom_site_occupancy
  Dy  Dy0  1  0.149250  0.249874  0.924109  1
  Dy  Dy1  1  0.353049  0.252336  0.425185  1
  Dy  Dy2  1  0.610404  0.987997  0.851988  1
  Dy  Dy3  1  0.112320  0.010076  0.648594  1
  Dy  Dy4  1  0.389114  0.490215  0.149330  1
  Dy  Dy5  1  0.110713  0.489722  0.648832  1
  Dy  Dy6  1  0.388389  0.010751  0.149091  1
  Dy  Dy7  1  0.888509  0.989145  0.351595  1
  Dy  Dy8  1  0.610395  0.511020  0.850674  1
  Tm  Tm9  1  0.851404  0.748963  0.075506  1
  Tm  Tm10  1  0.650162  0.749362  0.575597  1
  Pa  Pa11  1  0.887162  0.510646  0.352530  1
  Ga  Ga12  1  0.873343  0.052450  0.091342  1
  Ga  Ga13  1  0.628010  0.446204  0.589095  1
  Ga  Ga14  1  0.126305  0.554485  0.909032  1
  Ga  Ga15  1  0.373977  0.947423  0.408836  1
  Ga  Ga16  1  0.126240  0.945735  0.910206  1
  Ga  Ga17  1  0.376815  0.554735  0.409029  1
  Ga  Ga18  1  0.873903  0.446577  0.090493  1
  Ga  Ga19  1  0.627561  0.052614  0.591426  1
  Ga  Ga20  1  0.171185  0.749378  0.254163  1
  Ga  Ga21  1  0.325723  0.749683  0.752542  1
  Ga  Ga22  1  0.823803  0.249223  0.747802  1
  Ga  Ga23  1  0.674640  0.250280  0.246269  1
  Ga  Ga24  1  0.376490  0.750158  0.005216  1
  Ga  Ga25  1  0.121998  0.749292  0.502053  1
  Ga  Ga26  1  0.624709  0.249514  0.994576  1
  Ga  Ga27  1  0.874906  0.250111  0.494435  1
  Ga  Ga28  1  0.602058  0.750197  0.298125  1
  Ga  Ga29  1  0.899360  0.750161  0.797803  1
  Ga  Ga30  1  0.399511  0.249581  0.700924  1
  Ga  Ga31  1  0.098589  0.252090  0.203599  1
