# generated using pymatgen
data_Tb8Zn3Si12Ag
_symmetry_space_group_name_H-M   'P 1'
_cell_length_a   8.16565100
_cell_length_b   8.16564971
_cell_length_c   8.11172700
_cell_angle_alpha   90.00000000
_cell_angle_beta   90.00000000
_cell_angle_gamma   120.00000119
_symmetry_Int_Tables_number   1
_chemical_formula_structural   Tb8Zn3Si12Ag
_chemical_formula_sum   'Tb8 Zn3 Si12 Ag1'
_cell_volume   468.40930335
_cell_formula_units_Z   1
loop_
 _symmetry_equiv_pos_site_id
 _symmetry_equiv_pos_as_xyz
  1  'x, y, z'
loop_
 _atom_site_type_symbol
 _atom_site_label
 _atom_site_symmetry_multiplicity
 _atom_site_fract_x
 _atom_site_fract_y
 _atom_site_fract_z
 _atom_site_occupancy
  Tb  Tb0  1  0.502088  0.004175  0.248366  1
  Tb  Tb1  1  0.500976  0.001953  0.751662  1
  Tb  Tb2  1  0.995825  0.497912  0.248366  1
  Tb  Tb3  1  0.998047  0.499024  0.751662  1
  Tb  Tb4  1  0.502088  0.497912  0.248366  1
  Tb  Tb5  1  0.500976  0.499024  0.751662  1
  Tb  Tb6  1  0.000000  0.000000  0.249914  1
  Tb  Tb7  1  0.000000  0.000000  0.750209  1
  Zn  Zn8  1  0.333333  0.666667  0.005328  1
  Zn  Zn9  1  0.666667  0.333333  0.995150  1
  Zn  Zn10  1  0.666667  0.333333  0.500244  1
  Si  Si11  1  0.166104  0.332208  0.997768  1
  Si  Si12  1  0.832893  0.665787  0.002165  1
  Si  Si13  1  0.667792  0.833896  0.997768  1
  Si  Si14  1  0.833336  0.666672  0.501954  1
  Si  Si15  1  0.334213  0.167107  0.002165  1
  Si  Si16  1  0.163454  0.326906  0.498140  1
  Si  Si17  1  0.166104  0.833896  0.997768  1
  Si  Si18  1  0.333328  0.166664  0.501954  1
  Si  Si19  1  0.832893  0.167107  0.002165  1
  Si  Si20  1  0.673094  0.836546  0.498140  1
  Si  Si21  1  0.833336  0.166664  0.501954  1
  Si  Si22  1  0.163454  0.836546  0.498140  1
  Ag  Ag23  1  0.333333  0.666667  0.498989  1
