# generated using pymatgen
data_Ta4NbRe24
_symmetry_space_group_name_H-M   'P 1'
_cell_length_a   8.41157618
_cell_length_b   8.41157602
_cell_length_c   8.41873400
_cell_angle_alpha   109.48846212
_cell_angle_beta   109.48846172
_cell_angle_gamma   109.45397444
_symmetry_Int_Tables_number   1
_chemical_formula_structural   Ta4NbRe24
_chemical_formula_sum   'Ta4 Nb1 Re24'
_cell_volume   458.44495402
_cell_formula_units_Z   1
loop_
 _symmetry_equiv_pos_site_id
 _symmetry_equiv_pos_as_xyz
  1  'x, y, z'
loop_
 _atom_site_type_symbol
 _atom_site_label
 _atom_site_symmetry_multiplicity
 _atom_site_fract_x
 _atom_site_fract_y
 _atom_site_fract_z
 _atom_site_occupancy
  Ta  Ta0  1  0.000000  0.000000  0.999735  1
  Ta  Ta1  1  0.635559  0.000000  0.000125  1
  Ta  Ta2  1  0.000000  0.635559  0.000125  1
  Ta  Ta3  1  0.364441  0.364441  0.364566  1
  Nb  Nb4  1  0.000000  0.000000  0.635494  1
  Re  Re5  1  0.377454  0.194013  0.000294  1
  Re  Re6  1  0.194013  0.377454  0.000294  1
  Re  Re7  1  0.683157  0.399461  0.000049  1
  Re  Re8  1  0.399461  0.683157  0.000049  1
  Re  Re9  1  0.806165  0.806165  0.182856  1
  Re  Re10  1  0.377191  0.000000  0.193755  1
  Re  Re11  1  0.000000  0.377191  0.193755  1
  Re  Re12  1  0.601168  0.601168  0.284330  1
  Re  Re13  1  0.716304  0.316843  0.316892  1
  Re  Re14  1  0.316843  0.716304  0.316892  1
  Re  Re15  1  0.193835  0.000000  0.376690  1
  Re  Re16  1  0.000000  0.193835  0.376690  1
  Re  Re17  1  0.683405  0.000000  0.399503  1
  Re  Re18  1  0.000000  0.683405  0.399503  1
  Re  Re19  1  0.600539  0.283696  0.600588  1
  Re  Re20  1  0.283696  0.600539  0.600588  1
  Re  Re21  1  0.622546  0.816558  0.622840  1
  Re  Re22  1  0.816558  0.622546  0.622840  1
  Re  Re23  1  0.398832  0.000000  0.683162  1
  Re  Re24  1  0.000000  0.398832  0.683162  1
  Re  Re25  1  0.316595  0.316595  0.716099  1
  Re  Re26  1  0.805987  0.183442  0.806281  1
  Re  Re27  1  0.183442  0.805987  0.806281  1
  Re  Re28  1  0.622809  0.622809  0.816562  1
