# generated using pymatgen
data_Yb2SmPt9
_symmetry_space_group_name_H-M   'P 1'
_cell_length_a   9.38939369
_cell_length_b   9.38939401
_cell_length_c   9.38939289
_cell_angle_alpha   33.37758945
_cell_angle_beta   33.37758823
_cell_angle_gamma   33.37758808
_symmetry_Int_Tables_number   1
_chemical_formula_structural   Yb2SmPt9
_chemical_formula_sum   'Yb2 Sm1 Pt9'
_cell_volume   223.09831657
_cell_formula_units_Z   1
loop_
 _symmetry_equiv_pos_site_id
 _symmetry_equiv_pos_as_xyz
  1  'x, y, z'
loop_
 _atom_site_type_symbol
 _atom_site_label
 _atom_site_symmetry_multiplicity
 _atom_site_fract_x
 _atom_site_fract_y
 _atom_site_fract_z
 _atom_site_occupancy
  Yb  Yb0  1  0.142068  0.142068  0.142068  1
  Yb  Yb1  1  0.857932  0.857932  0.857932  1
  Sm  Sm2  1  0.000000  0.000000  0.000000  1
  Pt  Pt3  1  0.586502  0.586502  0.081984  1
  Pt  Pt4  1  0.332701  0.332701  0.332701  1
  Pt  Pt5  1  0.918015  0.413498  0.413499  1
  Pt  Pt6  1  0.413498  0.918015  0.413499  1
  Pt  Pt7  1  0.500000  0.500000  0.500000  1
  Pt  Pt8  1  0.586502  0.081985  0.586501  1
  Pt  Pt9  1  0.081985  0.586502  0.586501  1
  Pt  Pt10  1  0.667299  0.667299  0.667299  1
  Pt  Pt11  1  0.413498  0.413498  0.918016  1
