# generated using pymatgen
data_NdHo3(ZrIr)4
_symmetry_space_group_name_H-M   'P 1'
_cell_length_a   4.58100500
_cell_length_b   7.17807694
_cell_length_c   8.37374100
_cell_angle_alpha   89.97070587
_cell_angle_beta   90.00000000
_cell_angle_gamma   90.00000000
_symmetry_Int_Tables_number   1
_chemical_formula_structural   NdHo3(ZrIr)4
_chemical_formula_sum   'Nd1 Ho3 Zr4 Ir4'
_cell_volume   275.35206769
_cell_formula_units_Z   1
loop_
 _symmetry_equiv_pos_site_id
 _symmetry_equiv_pos_as_xyz
  1  'x, y, z'
loop_
 _atom_site_type_symbol
 _atom_site_label
 _atom_site_symmetry_multiplicity
 _atom_site_fract_x
 _atom_site_fract_y
 _atom_site_fract_z
 _atom_site_occupancy
  Nd  Nd0  1  0.250000  0.985272  0.322132  1
  Ho  Ho1  1  0.250000  0.485301  0.173796  1
  Ho  Ho2  1  0.750000  0.015935  0.678368  1
  Ho  Ho3  1  0.750000  0.516426  0.824526  1
  Zr  Zr4  1  0.250000  0.356751  0.578005  1
  Zr  Zr5  1  0.250000  0.857693  0.921927  1
  Zr  Zr6  1  0.750000  0.639078  0.426145  1
  Zr  Zr7  1  0.750000  0.144583  0.071238  1
  Ir  Ir8  1  0.250000  0.232919  0.908299  1
  Ir  Ir9  1  0.250000  0.728255  0.595128  1
  Ir  Ir10  1  0.750000  0.767479  0.088240  1
  Ir  Ir11  1  0.750000  0.270308  0.412195  1
