# generated using pymatgen
data_HfSiPd4Pt
_symmetry_space_group_name_H-M   'P 1'
_cell_length_a   4.00948700
_cell_length_b   4.03787700
_cell_length_c   6.91542700
_cell_angle_alpha   90.00000000
_cell_angle_beta   90.00000000
_cell_angle_gamma   90.00000000
_symmetry_Int_Tables_number   1
_chemical_formula_structural   HfSiPd4Pt
_chemical_formula_sum   'Hf1 Si1 Pd4 Pt1'
_cell_volume   111.95948612
_cell_formula_units_Z   1
loop_
 _symmetry_equiv_pos_site_id
 _symmetry_equiv_pos_as_xyz
  1  'x, y, z'
loop_
 _atom_site_type_symbol
 _atom_site_label
 _atom_site_symmetry_multiplicity
 _atom_site_fract_x
 _atom_site_fract_y
 _atom_site_fract_z
 _atom_site_occupancy
  Hf  Hf0  1  0.500000  0.500000  0.997166  1
  Si  Si1  1  0.000000  0.000000  0.501010  1
  Pd  Pd2  1  0.000000  0.000000  0.001069  1
  Pd  Pd3  1  0.000000  0.500000  0.709904  1
  Pd  Pd4  1  0.500000  0.000000  0.288968  1
  Pd  Pd5  1  0.000000  0.500000  0.290075  1
  Pt  Pt6  1  0.500000  0.000000  0.711807  1
