# generated using pymatgen
data_La2In3HgRh2
_symmetry_space_group_name_H-M   'P 1'
_cell_length_a   5.49751336
_cell_length_b   5.49751334
_cell_length_c   8.49927976
_cell_angle_alpha   89.95173030
_cell_angle_beta   90.04826794
_cell_angle_gamma   132.70576976
_symmetry_Int_Tables_number   1
_chemical_formula_structural   La2In3HgRh2
_chemical_formula_sum   'La2 In3 Hg1 Rh2'
_cell_volume   188.76046500
_cell_formula_units_Z   1
loop_
 _symmetry_equiv_pos_site_id
 _symmetry_equiv_pos_as_xyz
  1  'x, y, z'
loop_
 _atom_site_type_symbol
 _atom_site_label
 _atom_site_symmetry_multiplicity
 _atom_site_fract_x
 _atom_site_fract_y
 _atom_site_fract_z
 _atom_site_occupancy
  La  La0  1  0.062117  0.937883  0.252298  1
  La  La1  1  0.938513  0.061487  0.743657  1
  In  In2  1  0.346039  0.653961  0.453878  1
  In  In3  1  0.650337  0.349663  0.949553  1
  In  In4  1  0.351892  0.648108  0.049818  1
  Hg  Hg5  1  0.641426  0.358574  0.546016  1
  Rh  Rh6  1  0.215237  0.784763  0.758712  1
  Rh  Rh7  1  0.794438  0.205562  0.246067  1
