# generated using pymatgen
data_ErTm15In4IrPt3
_symmetry_space_group_name_H-M   'P 1'
_cell_length_a   9.57419430
_cell_length_b   9.57659672
_cell_length_c   9.57419439
_cell_angle_alpha   60.12634836
_cell_angle_beta   60.01210164
_cell_angle_gamma   60.12634226
_symmetry_Int_Tables_number   1
_chemical_formula_structural   ErTm15In4IrPt3
_chemical_formula_sum   'Er1 Tm15 In4 Ir1 Pt3'
_cell_volume   621.96690401
_cell_formula_units_Z   1
loop_
 _symmetry_equiv_pos_site_id
 _symmetry_equiv_pos_as_xyz
  1  'x, y, z'
loop_
 _atom_site_type_symbol
 _atom_site_label
 _atom_site_symmetry_multiplicity
 _atom_site_fract_x
 _atom_site_fract_y
 _atom_site_fract_z
 _atom_site_occupancy
  Er  Er0  1  0.060717  0.436918  0.060717  1
  Tm  Tm1  1  0.061222  0.060642  0.439425  1
  Tm  Tm2  1  0.647814  0.056901  0.647814  1
  Tm  Tm3  1  0.191238  0.807071  0.191238  1
  Tm  Tm4  1  0.437046  0.063507  0.437046  1
  Tm  Tm5  1  0.187505  0.193186  0.808516  1
  Tm  Tm6  1  0.652171  0.648309  0.652171  1
  Tm  Tm7  1  0.052230  0.646358  0.650580  1
  Tm  Tm8  1  0.439425  0.060642  0.061222  1
  Tm  Tm9  1  0.650580  0.646358  0.052230  1
  Tm  Tm10  1  0.190179  0.809290  0.809761  1
  Tm  Tm11  1  0.810598  0.191954  0.810598  1
  Tm  Tm12  1  0.808516  0.193186  0.187505  1
  Tm  Tm13  1  0.809761  0.809290  0.190179  1
  Tm  Tm14  1  0.062865  0.435386  0.439929  1
  Tm  Tm15  1  0.439929  0.435386  0.062865  1
  In  In16  1  0.748727  0.417258  0.416904  1
  In  In17  1  0.416904  0.417258  0.748727  1
  In  In18  1  0.416249  0.750687  0.416249  1
  In  In19  1  0.415781  0.416322  0.415781  1
  Ir  Ir20  1  0.858634  0.426338  0.858634  1
  Pt  Pt21  1  0.856434  0.858262  0.856434  1
  Pt  Pt22  1  0.427199  0.859747  0.858280  1
  Pt  Pt23  1  0.858280  0.859747  0.427199  1
