# generated using pymatgen
data_CuIr3(RuO6)2
_symmetry_space_group_name_H-M   'P 1'
_cell_length_a   4.53850406
_cell_length_b   4.53850406
_cell_length_c   9.47137200
_cell_angle_alpha   90.00000000
_cell_angle_beta   90.00000000
_cell_angle_gamma   90.43074471
_symmetry_Int_Tables_number   1
_chemical_formula_structural   CuIr3(RuO6)2
_chemical_formula_sum   'Cu1 Ir3 Ru2 O12'
_cell_volume   195.08598856
_cell_formula_units_Z   1
loop_
 _symmetry_equiv_pos_site_id
 _symmetry_equiv_pos_as_xyz
  1  'x, y, z'
loop_
 _atom_site_type_symbol
 _atom_site_label
 _atom_site_symmetry_multiplicity
 _atom_site_fract_x
 _atom_site_fract_y
 _atom_site_fract_z
 _atom_site_occupancy
  Cu  Cu0  1  0.500000  0.500000  0.166500  1
  Ir  Ir1  1  0.000000  0.000000  0.332386  1
  Ir  Ir2  1  0.000000  0.000000  0.667210  1
  Ir  Ir3  1  0.500000  0.500000  0.833872  1
  Ru  Ru4  1  0.000000  0.000000  0.002919  1
  Ru  Ru5  1  0.500000  0.500000  0.496827  1
  O  O6  1  0.299124  0.299124  0.993845  1
  O  O7  1  0.700876  0.700876  0.993845  1
  O  O8  1  0.808768  0.191232  0.166995  1
  O  O9  1  0.191232  0.808768  0.166995  1
  O  O10  1  0.300885  0.300885  0.339549  1
  O  O11  1  0.699115  0.699115  0.339549  1
  O  O12  1  0.806416  0.193584  0.500530  1
  O  O13  1  0.193584  0.806416  0.500530  1
  O  O14  1  0.307751  0.307751  0.665645  1
  O  O15  1  0.692249  0.692249  0.665645  1
  O  O16  1  0.806743  0.193257  0.833577  1
  O  O17  1  0.193257  0.806743  0.833577  1
