# generated using pymatgen
data_Yb(TiS2)8
_symmetry_space_group_name_H-M   'P 1'
_cell_length_a   6.84661800
_cell_length_b   6.84661826
_cell_length_c   13.33782100
_cell_angle_alpha   90.00000000
_cell_angle_beta   90.00000000
_cell_angle_gamma   119.99998906
_symmetry_Int_Tables_number   1
_chemical_formula_structural   Yb(TiS2)8
_chemical_formula_sum   'Yb1 Ti8 S16'
_cell_volume   541.46174186
_cell_formula_units_Z   1
loop_
 _symmetry_equiv_pos_site_id
 _symmetry_equiv_pos_as_xyz
  1  'x, y, z'
loop_
 _atom_site_type_symbol
 _atom_site_label
 _atom_site_symmetry_multiplicity
 _atom_site_fract_x
 _atom_site_fract_y
 _atom_site_fract_z
 _atom_site_occupancy
  Yb  Yb0  1  0.000000  0.000000  0.000000  1
  Ti  Ti1  1  0.502224  0.497776  0.742548  1
  Ti  Ti2  1  0.497776  0.502224  0.257452  1
  Ti  Ti3  1  0.502224  0.004447  0.742548  1
  Ti  Ti4  1  0.497776  0.995553  0.257452  1
  Ti  Ti5  1  0.995553  0.497776  0.742548  1
  Ti  Ti6  1  0.004447  0.502224  0.257452  1
  Ti  Ti7  1  0.000000  0.000000  0.737509  1
  Ti  Ti8  1  0.000000  0.000000  0.262491  1
  S  S9  1  0.833420  0.666841  0.148555  1
  S  S10  1  0.832680  0.665360  0.635856  1
  S  S11  1  0.833420  0.166580  0.148555  1
  S  S12  1  0.832680  0.167320  0.635856  1
  S  S13  1  0.333333  0.666667  0.148234  1
  S  S14  1  0.333333  0.666667  0.639524  1
  S  S15  1  0.333159  0.166580  0.148555  1
  S  S16  1  0.334640  0.167320  0.635856  1
  S  S17  1  0.666841  0.833420  0.851445  1
  S  S18  1  0.665360  0.832680  0.364144  1
  S  S19  1  0.666667  0.333333  0.851766  1
  S  S20  1  0.666667  0.333333  0.360476  1
  S  S21  1  0.166580  0.833420  0.851445  1
  S  S22  1  0.167320  0.832680  0.364144  1
  S  S23  1  0.166580  0.333159  0.851445  1
  S  S24  1  0.167320  0.334640  0.364144  1
