# generated using pymatgen
data_Ho5Er5In8PdPt3
_symmetry_space_group_name_H-M   'P 1'
_cell_length_a   3.60461000
_cell_length_b   8.14464101
_cell_length_c   18.19865102
_cell_angle_alpha   89.99398887
_cell_angle_beta   90.00000000
_cell_angle_gamma   90.00000000
_symmetry_Int_Tables_number   1
_chemical_formula_structural   Ho5Er5In8PdPt3
_chemical_formula_sum   'Ho5 Er5 In8 Pd1 Pt3'
_cell_volume   534.28062426
_cell_formula_units_Z   1
loop_
 _symmetry_equiv_pos_site_id
 _symmetry_equiv_pos_as_xyz
  1  'x, y, z'
loop_
 _atom_site_type_symbol
 _atom_site_label
 _atom_site_symmetry_multiplicity
 _atom_site_fract_x
 _atom_site_fract_y
 _atom_site_fract_z
 _atom_site_occupancy
  Ho  Ho0  1  0.000000  0.500548  0.499954  1
  Ho  Ho1  1  0.000000  0.999863  0.000137  1
  Ho  Ho2  1  0.000000  0.736077  0.280141  1
  Ho  Ho3  1  0.000000  0.258688  0.720244  1
  Ho  Ho4  1  0.000000  0.758496  0.779926  1
  Er  Er5  1  0.000000  0.245270  0.219065  1
  Er  Er6  1  0.000000  0.617618  0.084945  1
  Er  Er7  1  0.000000  0.384141  0.914798  1
  Er  Er8  1  0.000000  0.883527  0.585108  1
  Er  Er9  1  0.000000  0.116290  0.415836  1
  In  In10  1  0.500000  0.707575  0.933919  1
  In  In11  1  0.500000  0.293286  0.065822  1
  In  In12  1  0.500000  0.793090  0.432722  1
  In  In13  1  0.500000  0.207279  0.566235  1
  In  In14  1  0.500000  0.578536  0.648747  1
  In  In15  1  0.500000  0.416836  0.351260  1
  In  In16  1  0.500000  0.924576  0.150167  1
  In  In17  1  0.500000  0.077670  0.851308  1
  Pd  Pd18  1  0.500000  0.024731  0.303870  1
  Pt  Pt19  1  0.500000  0.523382  0.195875  1
  Pt  Pt20  1  0.500000  0.476273  0.803897  1
  Pt  Pt21  1  0.500000  0.976249  0.696022  1
