# generated using pymatgen
data_CsGaPt3O8
_symmetry_space_group_name_H-M   'P 1'
_cell_length_a   3.17759100
_cell_length_b   10.26076785
_cell_length_c   10.36317100
_cell_angle_alpha   90.57117660
_cell_angle_beta   90.00001803
_cell_angle_gamma   89.99932416
_symmetry_Int_Tables_number   1
_chemical_formula_structural   CsGaPt3O8
_chemical_formula_sum   'Cs2 Ga2 Pt6 O16'
_cell_volume   337.86946384
_cell_formula_units_Z   2
loop_
 _symmetry_equiv_pos_site_id
 _symmetry_equiv_pos_as_xyz
  1  'x, y, z'
loop_
 _atom_site_type_symbol
 _atom_site_label
 _atom_site_symmetry_multiplicity
 _atom_site_fract_x
 _atom_site_fract_y
 _atom_site_fract_z
 _atom_site_occupancy
  Cs  Cs0  1  0.505870  0.998861  0.004913  1
  Cs  Cs1  1  0.994205  0.498857  0.504872  1
  Ga  Ga2  1  0.996385  0.162214  0.647765  1
  Ga  Ga3  1  0.503599  0.662233  0.147761  1
  Pt  Pt4  1  0.494663  0.332132  0.848780  1
  Pt  Pt5  1  0.005364  0.832123  0.348747  1
  Pt  Pt6  1  0.002069  0.651335  0.835017  1
  Pt  Pt7  1  0.497921  0.151357  0.335072  1
  Pt  Pt8  1  0.996330  0.353042  0.167517  1
  Pt  Pt9  1  0.503661  0.853036  0.667487  1
  O  O10  1  0.502577  0.669532  0.956055  1
  O  O11  1  0.997389  0.169532  0.456118  1
  O  O12  1  0.496041  0.329187  0.047601  1
  O  O13  1  0.003916  0.829128  0.547568  1
  O  O14  1  0.995510  0.454507  0.826446  1
  O  O15  1  0.504475  0.954506  0.326495  1
  O  O16  1  0.001003  0.547485  0.158985  1
  O  O17  1  0.499038  0.047511  0.659055  1
  O  O18  1  0.994975  0.205299  0.846051  1
  O  O19  1  0.505065  0.705266  0.345995  1
  O  O20  1  0.008052  0.794163  0.157369  1
  O  O21  1  0.491858  0.294168  0.657407  1
  O  O22  1  0.495784  0.349557  0.296985  1
  O  O23  1  0.004297  0.849506  0.796967  1
  O  O24  1  0.502802  0.652709  0.706481  1
  O  O25  1  0.997151  0.152753  0.206491  1
