# generated using pymatgen
data_Zr18Be4Si7P
_symmetry_space_group_name_H-M   'P 1'
_cell_length_a   12.20132633
_cell_length_b   12.20723632
_cell_length_c   3.69743300
_cell_angle_alpha   90.00000000
_cell_angle_beta   90.00000000
_cell_angle_gamma   90.05338845
_symmetry_Int_Tables_number   1
_chemical_formula_structural   Zr18Be4Si7P
_chemical_formula_sum   'Zr18 Be4 Si7 P1'
_cell_volume   550.71197395
_cell_formula_units_Z   1
loop_
 _symmetry_equiv_pos_site_id
 _symmetry_equiv_pos_as_xyz
  1  'x, y, z'
loop_
 _atom_site_type_symbol
 _atom_site_label
 _atom_site_symmetry_multiplicity
 _atom_site_fract_x
 _atom_site_fract_y
 _atom_site_fract_z
 _atom_site_occupancy
  Zr  Zr0  1  0.000621  0.000449  0.000000  1
  Zr  Zr1  1  0.499383  0.497870  0.000000  1
  Zr  Zr2  1  0.108195  0.184817  0.500000  1
  Zr  Zr3  1  0.184901  0.892935  0.500000  1
  Zr  Zr4  1  0.815203  0.107579  0.500000  1
  Zr  Zr5  1  0.892211  0.816229  0.500000  1
  Zr  Zr6  1  0.392730  0.683372  0.500000  1
  Zr  Zr7  1  0.604516  0.315215  0.500000  1
  Zr  Zr8  1  0.683297  0.606923  0.500000  1
  Zr  Zr9  1  0.318638  0.391588  0.500000  1
  Zr  Zr10  1  0.097386  0.402414  0.000000  1
  Zr  Zr11  1  0.403432  0.902928  0.000000  1
  Zr  Zr12  1  0.596621  0.098171  0.000000  1
  Zr  Zr13  1  0.903095  0.596802  0.000000  1
  Zr  Zr14  1  0.385034  0.119830  0.500000  1
  Zr  Zr15  1  0.117073  0.616305  0.500000  1
  Zr  Zr16  1  0.882510  0.383198  0.500000  1
  Zr  Zr17  1  0.615944  0.883598  0.500000  1
  Be  Be18  1  0.262340  0.240080  0.000000  1
  Be  Be19  1  0.239465  0.738863  0.000000  1
  Be  Be20  1  0.759811  0.260922  0.000000  1
  Be  Be21  1  0.738777  0.760777  0.000000  1
  Si  Si22  1  0.226551  0.057005  0.000000  1
  Si  Si23  1  0.056428  0.774735  0.000000  1
  Si  Si24  1  0.943452  0.225177  0.000000  1
  Si  Si25  1  0.774142  0.944021  0.000000  1
  Si  Si26  1  0.274949  0.555712  0.000000  1
  Si  Si27  1  0.724623  0.443149  0.000000  1
  Si  Si28  1  0.556148  0.724696  0.000000  1
  P  P29  1  0.442526  0.274643  0.000000  1
