# generated using pymatgen
data_Er3ZnCd3Ga2
_symmetry_space_group_name_H-M   'P 1'
_cell_length_a   7.20663500
_cell_length_b   7.20663576
_cell_length_c   4.37628900
_cell_angle_alpha   90.00000000
_cell_angle_beta   90.00000000
_cell_angle_gamma   120.00001027
_symmetry_Int_Tables_number   1
_chemical_formula_structural   Er3ZnCd3Ga2
_chemical_formula_sum   'Er3 Zn1 Cd3 Ga2'
_cell_volume   196.83470782
_cell_formula_units_Z   1
loop_
 _symmetry_equiv_pos_site_id
 _symmetry_equiv_pos_as_xyz
  1  'x, y, z'
loop_
 _atom_site_type_symbol
 _atom_site_label
 _atom_site_symmetry_multiplicity
 _atom_site_fract_x
 _atom_site_fract_y
 _atom_site_fract_z
 _atom_site_occupancy
  Er  Er0  1  0.422760  0.422760  0.500000  1
  Er  Er1  1  0.577240  0.000000  0.500000  1
  Er  Er2  1  0.000000  0.577240  0.500000  1
  Zn  Zn3  1  0.000000  0.000000  0.500000  1
  Cd  Cd4  1  0.753664  0.753664  0.000000  1
  Cd  Cd5  1  0.246336  0.000000  0.000000  1
  Cd  Cd6  1  0.000000  0.246336  0.000000  1
  Ga  Ga7  1  0.666667  0.333333  0.000000  1
  Ga  Ga8  1  0.333333  0.666667  0.000000  1
