# generated using pymatgen
data_LaPr3Ga9SiPt6
_symmetry_space_group_name_H-M   'P 1'
_cell_length_a   8.59309927
_cell_length_b   8.64453094
_cell_length_c   8.64453038
_cell_angle_alpha   138.12589736
_cell_angle_beta   106.32704398
_cell_angle_gamma   88.61304314
_symmetry_Int_Tables_number   1
_chemical_formula_structural   LaPr3Ga9SiPt6
_chemical_formula_sum   'La1 Pr3 Ga9 Si1 Pt6'
_cell_volume   393.79217323
_cell_formula_units_Z   1
loop_
 _symmetry_equiv_pos_site_id
 _symmetry_equiv_pos_as_xyz
  1  'x, y, z'
loop_
 _atom_site_type_symbol
 _atom_site_label
 _atom_site_symmetry_multiplicity
 _atom_site_fract_x
 _atom_site_fract_y
 _atom_site_fract_z
 _atom_site_occupancy
  La  La0  1  0.864464  0.630507  0.233958  1
  Pr  Pr1  1  0.135084  0.370710  0.764374  1
  Pr  Pr2  1  0.392126  0.129524  0.262602  1
  Pr  Pr3  1  0.600961  0.868597  0.732363  1
  Ga  Ga4  1  0.501721  0.749663  0.248393  1
  Ga  Ga5  1  0.501721  0.253328  0.752058  1
  Ga  Ga6  1  0.230289  0.970549  0.745243  1
  Ga  Ga7  1  0.769126  0.522835  0.751052  1
  Ga  Ga8  1  0.769126  0.018074  0.246291  1
  Ga  Ga9  1  0.230289  0.485046  0.259740  1
  Ga  Ga10  1  0.041466  0.892851  0.148615  1
  Ga  Ga11  1  0.957950  0.104661  0.853289  1
  Ga  Ga12  1  0.742494  0.391709  0.350785  1
  Si  Si13  1  0.253946  0.605558  0.648388  1
  Pt  Pt14  1  0.009869  0.747205  0.750371  1
  Pt  Pt15  1  0.009869  0.259499  0.262664  1
  Pt  Pt16  1  0.250566  0.864291  0.386275  1
  Pt  Pt17  1  0.754522  0.138450  0.616071  1
  Pt  Pt18  1  0.473344  0.361041  0.112302  1
  Pt  Pt19  1  0.511068  0.635902  0.875166  1
