# generated using pymatgen
data_Dy17Mg3(Ir2Pt)4
_symmetry_space_group_name_H-M   'P 1'
_cell_length_a   10.82304900
_cell_length_b   10.82304900
_cell_length_c   6.28337900
_cell_angle_alpha   90.00000000
_cell_angle_beta   90.00000000
_cell_angle_gamma   90.00000000
_symmetry_Int_Tables_number   1
_chemical_formula_structural   Dy17Mg3(Ir2Pt)4
_chemical_formula_sum   'Dy17 Mg3 Ir8 Pt4'
_cell_volume   736.02489766
_cell_formula_units_Z   1
loop_
 _symmetry_equiv_pos_site_id
 _symmetry_equiv_pos_as_xyz
  1  'x, y, z'
loop_
 _atom_site_type_symbol
 _atom_site_label
 _atom_site_symmetry_multiplicity
 _atom_site_fract_x
 _atom_site_fract_y
 _atom_site_fract_z
 _atom_site_occupancy
  Dy  Dy0  1  0.288852  0.088365  0.378930  1
  Dy  Dy1  1  0.289306  0.913692  0.876862  1
  Dy  Dy2  1  0.710694  0.086308  0.876862  1
  Dy  Dy3  1  0.711148  0.911635  0.378930  1
  Dy  Dy4  1  0.583342  0.784443  0.879892  1
  Dy  Dy5  1  0.587374  0.207859  0.381234  1
  Dy  Dy6  1  0.412626  0.792141  0.381234  1
  Dy  Dy7  1  0.416658  0.215557  0.879892  1
  Dy  Dy8  1  0.207859  0.412626  0.618766  1
  Dy  Dy9  1  0.215557  0.583342  0.120108  1
  Dy  Dy10  1  0.784443  0.416658  0.120108  1
  Dy  Dy11  1  0.792141  0.587374  0.618766  1
  Dy  Dy12  1  0.913692  0.710694  0.123138  1
  Dy  Dy13  1  0.911635  0.288852  0.621070  1
  Dy  Dy14  1  0.088365  0.711148  0.621070  1
  Dy  Dy15  1  0.086308  0.289306  0.123138  1
  Dy  Dy16  1  0.500000  0.500000  0.500000  1
  Mg  Mg17  1  0.000000  0.000000  0.500000  1
  Mg  Mg18  1  0.000000  0.000000  0.000000  1
  Mg  Mg19  1  0.500000  0.500000  0.000000  1
  Ir  Ir20  1  0.656761  0.344962  0.746655  1
  Ir  Ir21  1  0.655038  0.656761  0.253345  1
  Ir  Ir22  1  0.344962  0.343239  0.253345  1
  Ir  Ir23  1  0.343239  0.655038  0.746655  1
  Ir  Ir24  1  0.500000  0.000000  0.120689  1
  Ir  Ir25  1  0.500000  0.000000  0.624205  1
  Ir  Ir26  1  0.000000  0.500000  0.879311  1
  Ir  Ir27  1  0.000000  0.500000  0.375795  1
  Pt  Pt28  1  0.849687  0.150678  0.248066  1
  Pt  Pt29  1  0.849322  0.849687  0.751934  1
  Pt  Pt30  1  0.150678  0.150313  0.751934  1
  Pt  Pt31  1  0.150313  0.849322  0.248066  1
