# generated using pymatgen
data_V10GeB4As
_symmetry_space_group_name_H-M   'P 1'
_cell_length_a   6.80774100
_cell_length_b   6.80773036
_cell_length_c   6.80766219
_cell_angle_alpha   129.46537808
_cell_angle_beta   129.46401751
_cell_angle_gamma   74.26608219
_symmetry_Int_Tables_number   1
_chemical_formula_structural   V10GeB4As
_chemical_formula_sum   'V10 Ge1 B4 As1'
_cell_volume   183.31390815
_cell_formula_units_Z   1
loop_
 _symmetry_equiv_pos_site_id
 _symmetry_equiv_pos_as_xyz
  1  'x, y, z'
loop_
 _atom_site_type_symbol
 _atom_site_label
 _atom_site_symmetry_multiplicity
 _atom_site_fract_x
 _atom_site_fract_y
 _atom_site_fract_z
 _atom_site_occupancy
  V  V0  1  0.531948  0.696329  0.498709  1
  V  V1  1  0.033236  0.531950  0.835618  1
  V  V2  1  0.696329  0.197627  0.164390  1
  V  V3  1  0.968039  0.466762  0.164406  1
  V  V4  1  0.197653  0.033231  0.501293  1
  V  V5  1  0.466758  0.302364  0.498724  1
  V  V6  1  0.803634  0.968041  0.501281  1
  V  V7  1  0.302343  0.803620  0.835585  1
  V  V8  1  0.999361  0.999371  0.999976  1
  V  V9  1  0.500701  0.500707  0.000022  1
  Ge  Ge10  1  0.749970  0.749972  0.999968  1
  B  B11  1  0.615917  0.115917  0.731811  1
  B  B12  1  0.115919  0.384138  0.500024  1
  B  B13  1  0.884102  0.615900  0.499977  1
  B  B14  1  0.384122  0.884091  0.268192  1
  As  As15  1  0.249969  0.249981  0.000025  1
