# generated using pymatgen
data_Ac2Pr(InPt)3
_symmetry_space_group_name_H-M   'P 1'
_cell_length_a   7.89187800
_cell_length_b   7.89187724
_cell_length_c   4.24583900
_cell_angle_alpha   90.00000000
_cell_angle_beta   90.00000000
_cell_angle_gamma   120.39547948
_symmetry_Int_Tables_number   1
_chemical_formula_structural   Ac2Pr(InPt)3
_chemical_formula_sum   'Ac2 Pr1 In3 Pt3'
_cell_volume   228.09212623
_cell_formula_units_Z   1
loop_
 _symmetry_equiv_pos_site_id
 _symmetry_equiv_pos_as_xyz
  1  'x, y, z'
loop_
 _atom_site_type_symbol
 _atom_site_label
 _atom_site_symmetry_multiplicity
 _atom_site_fract_x
 _atom_site_fract_y
 _atom_site_fract_z
 _atom_site_occupancy
  Ac  Ac0  1  0.588611  0.999952  0.000000  1
  Ac  Ac1  1  0.999952  0.588611  0.000000  1
  Pr  Pr2  1  0.408845  0.408845  0.000000  1
  In  In3  1  0.245683  0.007043  0.500000  1
  In  In4  1  0.007043  0.245683  0.500000  1
  In  In5  1  0.748824  0.748824  0.500000  1
  Pt  Pt6  1  0.334343  0.663837  0.500000  1
  Pt  Pt7  1  0.663837  0.334343  0.500000  1
  Pt  Pt8  1  0.002861  0.002861  0.000000  1
