# generated using pymatgen
data_ErTmGa(Co2P)6
_symmetry_space_group_name_H-M   'P 1'
_cell_length_a   9.08350000
_cell_length_b   9.08350094
_cell_length_c   3.57626500
_cell_angle_alpha   90.00000000
_cell_angle_beta   90.00000000
_cell_angle_gamma   119.99998200
_symmetry_Int_Tables_number   1
_chemical_formula_structural   ErTmGa(Co2P)6
_chemical_formula_sum   'Er1 Tm1 Ga1 Co12 P6'
_cell_volume   255.54470644
_cell_formula_units_Z   1
loop_
 _symmetry_equiv_pos_site_id
 _symmetry_equiv_pos_as_xyz
  1  'x, y, z'
loop_
 _atom_site_type_symbol
 _atom_site_label
 _atom_site_symmetry_multiplicity
 _atom_site_fract_x
 _atom_site_fract_y
 _atom_site_fract_z
 _atom_site_occupancy
  Er  Er0  1  0.666667  0.333333  0.500000  1
  Tm  Tm1  1  0.333333  0.666667  0.000000  1
  Ga  Ga2  1  0.000000  0.000000  0.000000  1
  Co  Co3  1  0.128939  0.837151  0.000000  1
  Co  Co4  1  0.386332  0.439978  0.500000  1
  Co  Co5  1  0.708213  0.871061  0.000000  1
  Co  Co6  1  0.560022  0.946355  0.500000  1
  Co  Co7  1  0.256069  0.114658  0.500000  1
  Co  Co8  1  0.858589  0.743931  0.500000  1
  Co  Co9  1  0.885342  0.141411  0.500000  1
  Co  Co10  1  0.939127  0.377792  0.000000  1
  Co  Co11  1  0.622208  0.561335  0.000000  1
  Co  Co12  1  0.438665  0.060873  0.000000  1
  Co  Co13  1  0.053645  0.613668  0.500000  1
  Co  Co14  1  0.162849  0.291787  0.000000  1
  P  P15  1  0.596864  0.708412  0.500000  1
  P  P16  1  0.708879  0.113273  0.000000  1
  P  P17  1  0.886727  0.595606  0.000000  1
  P  P18  1  0.404394  0.291121  0.000000  1
  P  P19  1  0.291588  0.888452  0.500000  1
  P  P20  1  0.111548  0.403136  0.500000  1
