# generated using pymatgen
data_Ti2AlFe4As
_symmetry_space_group_name_H-M   'P 1'
_cell_length_a   7.08375647
_cell_length_b   7.08375672
_cell_length_c   7.08375610
_cell_angle_alpha   33.59191055
_cell_angle_beta   33.59190384
_cell_angle_gamma   33.59191944
_symmetry_Int_Tables_number   1
_chemical_formula_structural   Ti2AlFe4As
_chemical_formula_sum   'Ti2 Al1 Fe4 As1'
_cell_volume   96.92570531
_cell_formula_units_Z   1
loop_
 _symmetry_equiv_pos_site_id
 _symmetry_equiv_pos_as_xyz
  1  'x, y, z'
loop_
 _atom_site_type_symbol
 _atom_site_label
 _atom_site_symmetry_multiplicity
 _atom_site_fract_x
 _atom_site_fract_y
 _atom_site_fract_z
 _atom_site_occupancy
  Ti  Ti0  1  0.251340  0.251340  0.251340  1
  Ti  Ti1  1  0.748660  0.748660  0.748660  1
  Al  Al2  1  0.000000  0.000000  0.000000  1
  Fe  Fe3  1  0.376119  0.376119  0.376119  1
  Fe  Fe4  1  0.873862  0.873862  0.873862  1
  Fe  Fe5  1  0.623881  0.623881  0.623881  1
  Fe  Fe6  1  0.126138  0.126138  0.126138  1
  As  As7  1  0.500000  0.500000  0.500000  1
