# generated using pymatgen
data_Cs2Sr(SiSe3)2
_symmetry_space_group_name_H-M   'P 1'
_cell_length_a   9.45321899
_cell_length_b   9.45322029
_cell_length_c   9.63892259
_cell_angle_alpha   90.75646445
_cell_angle_beta   90.75646579
_cell_angle_gamma   112.88535615
_symmetry_Int_Tables_number   1
_chemical_formula_structural   Cs2Sr(SiSe3)2
_chemical_formula_sum   'Cs4 Sr2 Si4 Se12'
_cell_volume   793.33753491
_cell_formula_units_Z   2
loop_
 _symmetry_equiv_pos_site_id
 _symmetry_equiv_pos_as_xyz
  1  'x, y, z'
loop_
 _atom_site_type_symbol
 _atom_site_label
 _atom_site_symmetry_multiplicity
 _atom_site_fract_x
 _atom_site_fract_y
 _atom_site_fract_z
 _atom_site_occupancy
  Cs  Cs0  1  0.257944  0.538502  0.523903  1
  Cs  Cs1  1  0.742056  0.461498  0.476097  1
  Cs  Cs2  1  0.461498  0.742056  0.976097  1
  Cs  Cs3  1  0.538502  0.257944  0.023903  1
  Sr  Sr4  1  0.000154  0.999846  0.250000  1
  Sr  Sr5  1  0.999846  0.000154  0.750000  1
  Si  Si6  1  0.979252  0.653829  0.043163  1
  Si  Si7  1  0.020748  0.346171  0.956837  1
  Si  Si8  1  0.346171  0.020748  0.456837  1
  Si  Si9  1  0.653829  0.979252  0.543163  1
  Se  Se10  1  0.664086  0.774649  0.653019  1
  Se  Se11  1  0.910289  0.498023  0.841257  1
  Se  Se12  1  0.225351  0.335914  0.846981  1
  Se  Se13  1  0.498023  0.910289  0.341257  1
  Se  Se14  1  0.335914  0.225351  0.346981  1
  Se  Se15  1  0.891188  0.155771  0.502422  1
  Se  Se16  1  0.844229  0.108812  0.997578  1
  Se  Se17  1  0.155771  0.891188  0.002422  1
  Se  Se18  1  0.089711  0.501977  0.158743  1
  Se  Se19  1  0.501977  0.089711  0.658743  1
  Se  Se20  1  0.108812  0.844229  0.497578  1
  Se  Se21  1  0.774649  0.664086  0.153019  1
