# generated using pymatgen
data_Ti4SiTcB2
_symmetry_space_group_name_H-M   'P 1'
_cell_length_a   7.17092328
_cell_length_b   7.17105413
_cell_length_c   7.17085996
_cell_angle_alpha   130.44441103
_cell_angle_beta   130.44390138
_cell_angle_gamma   72.70133612
_symmetry_Int_Tables_number   1
_chemical_formula_structural   Ti4SiTcB2
_chemical_formula_sum   'Ti8 Si2 Tc2 B4'
_cell_volume   208.66197487
_cell_formula_units_Z   2
loop_
 _symmetry_equiv_pos_site_id
 _symmetry_equiv_pos_as_xyz
  1  'x, y, z'
loop_
 _atom_site_type_symbol
 _atom_site_label
 _atom_site_symmetry_multiplicity
 _atom_site_fract_x
 _atom_site_fract_y
 _atom_site_fract_z
 _atom_site_occupancy
  Ti  Ti0  1  0.807752  0.957141  0.499975  1
  Ti  Ti1  1  0.307783  0.807795  0.850640  1
  Ti  Ti2  1  0.192248  0.042859  0.500025  1
  Ti  Ti3  1  0.542849  0.692266  0.500025  1
  Ti  Ti4  1  0.042840  0.542829  0.850586  1
  Ti  Ti5  1  0.692217  0.192205  0.149360  1
  Ti  Ti6  1  0.957160  0.457171  0.149414  1
  Ti  Ti7  1  0.457151  0.307734  0.499975  1
  Si  Si8  1  0.749991  0.750032  0.000023  1
  Si  Si9  1  0.250009  0.249968  0.999977  1
  Tc  Tc10  1  0.000000  0.000000  0.000000  1
  Tc  Tc11  1  0.500000  0.500000  0.000000  1
  B  B12  1  0.389870  0.889870  0.279731  1
  B  B13  1  0.889846  0.610159  0.500000  1
  B  B14  1  0.610130  0.110130  0.720269  1
  B  B15  1  0.110154  0.389841  0.500000  1
