# generated using pymatgen
data_LiLa5Nd11Cd3Ir4
_symmetry_space_group_name_H-M   'P 1'
_cell_length_a   9.99823648
_cell_length_b   10.02659539
_cell_length_c   10.02659617
_cell_angle_alpha   60.03667129
_cell_angle_beta   60.28553610
_cell_angle_gamma   60.28554440
_symmetry_Int_Tables_number   1
_chemical_formula_structural   LiLa5Nd11Cd3Ir4
_chemical_formula_sum   'Li1 La5 Nd11 Cd3 Ir4'
_cell_volume   713.99904799
_cell_formula_units_Z   1
loop_
 _symmetry_equiv_pos_site_id
 _symmetry_equiv_pos_as_xyz
  1  'x, y, z'
loop_
 _atom_site_type_symbol
 _atom_site_label
 _atom_site_symmetry_multiplicity
 _atom_site_fract_x
 _atom_site_fract_y
 _atom_site_fract_z
 _atom_site_occupancy
  Li  Li0  1  0.570819  0.570944  0.570944  1
  La  La1  1  0.347008  0.349310  0.349310  1
  La  La2  1  0.347812  0.347342  0.958072  1
  La  La3  1  0.347812  0.958072  0.347342  1
  La  La4  1  0.956725  0.348828  0.348828  1
  La  La5  1  0.812858  0.188637  0.188637  1
  Nd  Nd6  1  0.185643  0.813207  0.813207  1
  Nd  Nd7  1  0.192198  0.809373  0.189919  1
  Nd  Nd8  1  0.812476  0.186164  0.810934  1
  Nd  Nd9  1  0.192198  0.189919  0.809373  1
  Nd  Nd10  1  0.812476  0.810934  0.186164  1
  Nd  Nd11  1  0.936801  0.563476  0.563476  1
  Nd  Nd12  1  0.562988  0.936483  0.936483  1
  Nd  Nd13  1  0.562658  0.936658  0.563922  1
  Nd  Nd14  1  0.938018  0.563181  0.936230  1
  Nd  Nd15  1  0.562658  0.563922  0.936658  1
  Nd  Nd16  1  0.938018  0.936230  0.563181  1
  Cd  Cd17  1  0.580682  0.583659  0.256381  1
  Cd  Cd18  1  0.580682  0.256381  0.583659  1
  Cd  Cd19  1  0.256224  0.581702  0.581702  1
  Ir  Ir20  1  0.138653  0.143435  0.143435  1
  Ir  Ir21  1  0.143570  0.142727  0.575319  1
  Ir  Ir22  1  0.143570  0.575319  0.142727  1
  Ir  Ir23  1  0.577455  0.144096  0.144096  1
