# generated using pymatgen
data_Y3Cd3CuHgAu
_symmetry_space_group_name_H-M   'P 1'
_cell_length_a   7.88047400
_cell_length_b   7.88047428
_cell_length_c   3.82593400
_cell_angle_alpha   90.00000000
_cell_angle_beta   90.00000000
_cell_angle_gamma   119.99999883
_symmetry_Int_Tables_number   1
_chemical_formula_structural   Y3Cd3CuHgAu
_chemical_formula_sum   'Y3 Cd3 Cu1 Hg1 Au1'
_cell_volume   205.76561714
_cell_formula_units_Z   1
loop_
 _symmetry_equiv_pos_site_id
 _symmetry_equiv_pos_as_xyz
  1  'x, y, z'
loop_
 _atom_site_type_symbol
 _atom_site_label
 _atom_site_symmetry_multiplicity
 _atom_site_fract_x
 _atom_site_fract_y
 _atom_site_fract_z
 _atom_site_occupancy
  Y  Y0  1  0.602564  0.012810  0.000000  1
  Y  Y1  1  0.987190  0.589753  0.000000  1
  Y  Y2  1  0.410247  0.397436  0.000000  1
  Cd  Cd3  1  0.248182  0.999091  0.500000  1
  Cd  Cd4  1  0.000909  0.249090  0.500000  1
  Cd  Cd5  1  0.750910  0.751818  0.500000  1
  Cu  Cu6  1  0.000000  0.000000  0.000000  1
  Hg  Hg7  1  0.333333  0.666667  0.500000  1
  Au  Au8  1  0.666667  0.333333  0.500000  1
