# generated using pymatgen
data_Ho6Hf4Al12Ir7
_symmetry_space_group_name_H-M   'P 1'
_cell_length_a   9.08310826
_cell_length_b   9.08310868
_cell_length_c   9.08310800
_cell_angle_alpha   59.99999520
_cell_angle_beta   59.99999368
_cell_angle_gamma   59.99999941
_symmetry_Int_Tables_number   1
_chemical_formula_structural   Ho6Hf4Al12Ir7
_chemical_formula_sum   'Ho6 Hf4 Al12 Ir7'
_cell_volume   529.89331814
_cell_formula_units_Z   1
loop_
 _symmetry_equiv_pos_site_id
 _symmetry_equiv_pos_as_xyz
  1  'x, y, z'
loop_
 _atom_site_type_symbol
 _atom_site_label
 _atom_site_symmetry_multiplicity
 _atom_site_fract_x
 _atom_site_fract_y
 _atom_site_fract_z
 _atom_site_occupancy
  Ho  Ho0  1  0.700559  0.700559  0.299441  1
  Ho  Ho1  1  0.299441  0.700559  0.299441  1
  Ho  Ho2  1  0.700559  0.299441  0.299441  1
  Ho  Ho3  1  0.299441  0.299441  0.700559  1
  Ho  Ho4  1  0.700559  0.299441  0.700559  1
  Ho  Ho5  1  0.299441  0.700559  0.700559  1
  Hf  Hf6  1  0.880405  0.880405  0.358785  1
  Hf  Hf7  1  0.880405  0.358785  0.880405  1
  Hf  Hf8  1  0.358785  0.880405  0.880405  1
  Hf  Hf9  1  0.880405  0.880405  0.880405  1
  Al  Al10  1  0.120855  0.120855  0.637434  1
  Al  Al11  1  0.120855  0.637434  0.120855  1
  Al  Al12  1  0.637434  0.120855  0.120855  1
  Al  Al13  1  0.120855  0.120855  0.120855  1
  Al  Al14  1  0.666793  0.666793  0.999621  1
  Al  Al15  1  0.666793  0.999621  0.666793  1
  Al  Al16  1  0.999621  0.666793  0.666793  1
  Al  Al17  1  0.666793  0.666793  0.666793  1
  Al  Al18  1  0.329164  0.329164  0.012509  1
  Al  Al19  1  0.329164  0.012509  0.329164  1
  Al  Al20  1  0.012509  0.329164  0.329164  1
  Al  Al21  1  0.329164  0.329164  0.329164  1
  Ir  Ir22  1  0.000000  0.000000  0.000000  1
  Ir  Ir23  1  0.999280  0.999280  0.500720  1
  Ir  Ir24  1  0.500720  0.999280  0.500720  1
  Ir  Ir25  1  0.999280  0.500720  0.500720  1
  Ir  Ir26  1  0.500720  0.500720  0.999280  1
  Ir  Ir27  1  0.999280  0.500720  0.999280  1
  Ir  Ir28  1  0.500720  0.999280  0.999280  1
