# generated using pymatgen
data_Er7LuTcOsBr8
_symmetry_space_group_name_H-M   'P 1'
_cell_length_a   8.90386168
_cell_length_b   8.93270630
_cell_length_c   6.50749468
_cell_angle_alpha   89.41426744
_cell_angle_beta   89.54898544
_cell_angle_gamma   89.11284276
_symmetry_Int_Tables_number   1
_chemical_formula_structural   Er7LuTcOsBr8
_chemical_formula_sum   'Er7 Lu1 Tc1 Os1 Br8'
_cell_volume   517.47288796
_cell_formula_units_Z   1
loop_
 _symmetry_equiv_pos_site_id
 _symmetry_equiv_pos_as_xyz
  1  'x, y, z'
loop_
 _atom_site_type_symbol
 _atom_site_label
 _atom_site_symmetry_multiplicity
 _atom_site_fract_x
 _atom_site_fract_y
 _atom_site_fract_z
 _atom_site_occupancy
  Er  Er0  1  0.752076  0.098847  0.990006  1
  Er  Er1  1  0.099403  0.752376  0.489143  1
  Er  Er2  1  0.901587  0.247654  0.510287  1
  Er  Er3  1  0.753309  0.903526  0.508122  1
  Er  Er4  1  0.247372  0.096032  0.491618  1
  Er  Er5  1  0.097109  0.246391  0.992771  1
  Er  Er6  1  0.902821  0.753082  0.009343  1
  Lu  Lu7  1  0.243042  0.902635  0.012380  1
  Tc  Tc8  1  0.994649  0.005232  0.250477  1
  Os  Os9  1  0.005670  0.994407  0.750799  1
  Br  Br10  1  0.419662  0.816192  0.410321  1
  Br  Br11  1  0.580924  0.183975  0.588402  1
  Br  Br12  1  0.185070  0.581824  0.085825  1
  Br  Br13  1  0.816632  0.419181  0.911634  1
  Br  Br14  1  0.414683  0.187350  0.090194  1
  Br  Br15  1  0.584319  0.812375  0.907855  1
  Br  Br16  1  0.811694  0.585650  0.410132  1
  Br  Br17  1  0.189978  0.413273  0.590689  1
