# generated using pymatgen
data_Ba4BeCr3N8
_symmetry_space_group_name_H-M   'P 1'
_cell_length_a   6.39041737
_cell_length_b   6.39041730
_cell_length_c   7.77596081
_cell_angle_alpha   91.71638779
_cell_angle_beta   88.28361490
_cell_angle_gamma   126.12688662
_symmetry_Int_Tables_number   1
_chemical_formula_structural   Ba4BeCr3N8
_chemical_formula_sum   'Ba4 Be1 Cr3 N8'
_cell_volume   256.34479170
_cell_formula_units_Z   1
loop_
 _symmetry_equiv_pos_site_id
 _symmetry_equiv_pos_as_xyz
  1  'x, y, z'
loop_
 _atom_site_type_symbol
 _atom_site_label
 _atom_site_symmetry_multiplicity
 _atom_site_fract_x
 _atom_site_fract_y
 _atom_site_fract_z
 _atom_site_occupancy
  Ba  Ba0  1  0.831105  0.168895  0.565366  1
  Ba  Ba1  1  0.150371  0.849629  0.436221  1
  Ba  Ba2  1  0.660511  0.339489  0.047490  1
  Ba  Ba3  1  0.347449  0.652551  0.936639  1
  Be  Be4  1  0.551398  0.448602  0.640273  1
  Cr  Cr5  1  0.456045  0.543955  0.381436  1
  Cr  Cr6  1  0.951141  0.048859  0.138654  1
  Cr  Cr7  1  0.050551  0.949449  0.853673  1
  N  N8  1  0.891379  0.108621  0.912033  1
  N  N9  1  0.108813  0.891187  0.078058  1
  N  N10  1  0.605748  0.394252  0.416292  1
  N  N11  1  0.392026  0.607974  0.586145  1
  N  N12  1  0.342402  0.162076  0.744323  1
  N  N13  1  0.159080  0.335946  0.259537  1
  N  N14  1  0.664054  0.840920  0.259537  1
  N  N15  1  0.837924  0.657598  0.744323  1
