# generated using pymatgen
data_CaTbErGa8Ag3
_symmetry_space_group_name_H-M   'P 1'
_cell_length_a   4.36357255
_cell_length_b   8.39579567
_cell_length_c   8.39579704
_cell_angle_alpha   70.00073664
_cell_angle_beta   74.93784787
_cell_angle_gamma   74.93784925
_symmetry_Int_Tables_number   1
_chemical_formula_structural   CaTbErGa8Ag3
_chemical_formula_sum   'Ca1 Tb1 Er1 Ga8 Ag3'
_cell_volume   274.10712293
_cell_formula_units_Z   1
loop_
 _symmetry_equiv_pos_site_id
 _symmetry_equiv_pos_as_xyz
  1  'x, y, z'
loop_
 _atom_site_type_symbol
 _atom_site_label
 _atom_site_symmetry_multiplicity
 _atom_site_fract_x
 _atom_site_fract_y
 _atom_site_fract_z
 _atom_site_occupancy
  Ca  Ca0  1  0.500175  0.499825  0.499825  1
  Tb  Tb1  1  0.202331  0.797669  0.797669  1
  Er  Er2  1  0.797904  0.202096  0.202096  1
  Ga  Ga3  1  0.355465  0.361744  0.927325  1
  Ga  Ga4  1  0.644523  0.637684  0.073272  1
  Ga  Ga5  1  0.355465  0.927325  0.361744  1
  Ga  Ga6  1  0.644523  0.073272  0.637684  1
  Ga  Ga7  1  0.160229  0.471613  0.207932  1
  Ga  Ga8  1  0.840015  0.527883  0.792084  1
  Ga  Ga9  1  0.160229  0.207932  0.471613  1
  Ga  Ga10  1  0.840015  0.792084  0.527883  1
  Ag  Ag11  1  0.499705  0.000295  0.000295  1
  Ag  Ag12  1  0.999712  0.810324  0.190253  1
  Ag  Ag13  1  0.999712  0.190253  0.810324  1
