# generated using pymatgen
data_Ac3Ti2S8I
_symmetry_space_group_name_H-M   'P 1'
_cell_length_a   9.52946123
_cell_length_b   9.52946084
_cell_length_c   11.46008800
_cell_angle_alpha   83.03659966
_cell_angle_beta   96.96340005
_cell_angle_gamma   127.67150382
_symmetry_Int_Tables_number   1
_chemical_formula_structural   Ac3Ti2S8I
_chemical_formula_sum   'Ac6 Ti4 S16 I2'
_cell_volume   816.19160595
_cell_formula_units_Z   2
loop_
 _symmetry_equiv_pos_site_id
 _symmetry_equiv_pos_as_xyz
  1  'x, y, z'
loop_
 _atom_site_type_symbol
 _atom_site_label
 _atom_site_symmetry_multiplicity
 _atom_site_fract_x
 _atom_site_fract_y
 _atom_site_fract_z
 _atom_site_occupancy
  Ac  Ac0  1  0.594290  0.594290  0.750000  1
  Ac  Ac1  1  0.405709  0.405709  0.250000  1
  Ac  Ac2  1  0.315973  0.924821  0.680921  1
  Ac  Ac3  1  0.924821  0.315972  0.819079  1
  Ac  Ac4  1  0.684027  0.075178  0.319079  1
  Ac  Ac5  1  0.075178  0.684027  0.180920  1
  Ti  Ti6  1  0.617821  0.301257  0.030203  1
  Ti  Ti7  1  0.301257  0.617821  0.469796  1
  Ti  Ti8  1  0.382180  0.698743  0.969796  1
  Ti  Ti9  1  0.698743  0.382180  0.530203  1
  S  S10  1  0.851927  0.296646  0.085029  1
  S  S11  1  0.296645  0.851928  0.414970  1
  S  S12  1  0.148072  0.703354  0.914970  1
  S  S13  1  0.703354  0.148072  0.585030  1
  S  S14  1  0.403138  0.106754  0.156506  1
  S  S15  1  0.106754  0.403137  0.343494  1
  S  S16  1  0.596862  0.893245  0.843494  1
  S  S17  1  0.893245  0.596862  0.656506  1
  S  S18  1  0.554991  0.249494  0.836269  1
  S  S19  1  0.249493  0.554991  0.663731  1
  S  S20  1  0.445009  0.750507  0.163731  1
  S  S21  1  0.750507  0.445009  0.336269  1
  S  S22  1  0.716689  0.582390  0.044048  1
  S  S23  1  0.582390  0.716689  0.455951  1
  S  S24  1  0.283310  0.417610  0.955951  1
  S  S25  1  0.417610  0.283310  0.544049  1
  I  I26  1  0.993725  0.993724  0.250000  1
  I  I27  1  0.006276  0.006276  0.750000  1
