# generated using pymatgen
data_SmEr2AuO7
_symmetry_space_group_name_H-M   'P 1'
_cell_length_a   6.48363306
_cell_length_b   6.48363295
_cell_length_c   7.45518600
_cell_angle_alpha   90.00000000
_cell_angle_beta   90.00000000
_cell_angle_gamma   108.79752881
_symmetry_Int_Tables_number   1
_chemical_formula_structural   SmEr2AuO7
_chemical_formula_sum   'Sm2 Er4 Au2 O14'
_cell_volume   296.68173365
_cell_formula_units_Z   2
loop_
 _symmetry_equiv_pos_site_id
 _symmetry_equiv_pos_as_xyz
  1  'x, y, z'
loop_
 _atom_site_type_symbol
 _atom_site_label
 _atom_site_symmetry_multiplicity
 _atom_site_fract_x
 _atom_site_fract_y
 _atom_site_fract_z
 _atom_site_occupancy
  Sm  Sm0  1  0.500324  0.500324  0.500000  1
  Sm  Sm1  1  0.499676  0.499676  0.000000  1
  Er  Er2  1  0.001460  0.471916  0.749905  1
  Er  Er3  1  0.998540  0.528084  0.249905  1
  Er  Er4  1  0.528084  0.998540  0.750095  1
  Er  Er5  1  0.471916  0.001460  0.250095  1
  Au  Au6  1  0.999982  0.999982  0.500000  1
  Au  Au7  1  0.000018  0.000018  0.000000  1
  O  O8  1  0.643385  0.356615  0.750000  1
  O  O9  1  0.356615  0.643385  0.250000  1
  O  O10  1  0.919936  0.080064  0.750000  1
  O  O11  1  0.080064  0.919936  0.250000  1
  O  O12  1  0.921077  0.669449  0.524273  1
  O  O13  1  0.078923  0.330551  0.024273  1
  O  O14  1  0.330551  0.078923  0.975727  1
  O  O15  1  0.669449  0.921077  0.475727  1
  O  O16  1  0.362095  0.637905  0.750000  1
  O  O17  1  0.637905  0.362095  0.250000  1
  O  O18  1  0.921263  0.669602  0.975580  1
  O  O19  1  0.078737  0.330398  0.475580  1
  O  O20  1  0.330398  0.078737  0.524420  1
  O  O21  1  0.669602  0.921263  0.024420  1
