# generated using pymatgen
data_La15PrCd4Ir3Pd
_symmetry_space_group_name_H-M   'P 1'
_cell_length_a   10.12744208
_cell_length_b   10.12744139
_cell_length_c   10.12932656
_cell_angle_alpha   60.24509981
_cell_angle_beta   60.24510668
_cell_angle_gamma   60.22089023
_symmetry_Int_Tables_number   1
_chemical_formula_structural   La15PrCd4Ir3Pd
_chemical_formula_sum   'La15 Pr1 Cd4 Ir3 Pd1'
_cell_volume   738.56587026
_cell_formula_units_Z   1
loop_
 _symmetry_equiv_pos_site_id
 _symmetry_equiv_pos_as_xyz
  1  'x, y, z'
loop_
 _atom_site_type_symbol
 _atom_site_label
 _atom_site_symmetry_multiplicity
 _atom_site_fract_x
 _atom_site_fract_y
 _atom_site_fract_z
 _atom_site_occupancy
  La  La0  1  0.346468  0.346468  0.346514  1
  La  La1  1  0.351678  0.351678  0.952194  1
  La  La2  1  0.351344  0.952123  0.351959  1
  La  La3  1  0.952123  0.351344  0.351959  1
  La  La4  1  0.803676  0.190786  0.191220  1
  La  La5  1  0.189084  0.809787  0.809427  1
  La  La6  1  0.190786  0.803676  0.191220  1
  La  La7  1  0.809787  0.189084  0.809427  1
  La  La8  1  0.190887  0.190887  0.803684  1
  La  La9  1  0.809730  0.809730  0.189244  1
  La  La10  1  0.940392  0.562127  0.561746  1
  La  La11  1  0.563268  0.938538  0.938290  1
  La  La12  1  0.562127  0.940392  0.561746  1
  La  La13  1  0.938538  0.563268  0.938290  1
  La  La14  1  0.561630  0.561630  0.940615  1
  Pr  Pr15  1  0.938497  0.938497  0.562734  1
  Cd  Cd16  1  0.579800  0.579800  0.579847  1
  Cd  Cd17  1  0.579678  0.579678  0.260787  1
  Cd  Cd18  1  0.580039  0.260599  0.579614  1
  Cd  Cd19  1  0.260599  0.580039  0.579614  1
  Ir  Ir20  1  0.141517  0.141517  0.574567  1
  Ir  Ir21  1  0.141357  0.574724  0.141395  1
  Ir  Ir22  1  0.574724  0.141357  0.141395  1
  Pd  Pd23  1  0.142266  0.142266  0.142510  1
