# generated using pymatgen
data_DyTh(SnHg)3
_symmetry_space_group_name_H-M   'P 1'
_cell_length_a   4.78935500
_cell_length_b   4.67723500
_cell_length_c   9.16015900
_cell_angle_alpha   90.00000000
_cell_angle_beta   90.00000000
_cell_angle_gamma   90.00000000
_symmetry_Int_Tables_number   1
_chemical_formula_structural   DyTh(SnHg)3
_chemical_formula_sum   'Dy1 Th1 Sn3 Hg3'
_cell_volume   205.19616146
_cell_formula_units_Z   1
loop_
 _symmetry_equiv_pos_site_id
 _symmetry_equiv_pos_as_xyz
  1  'x, y, z'
loop_
 _atom_site_type_symbol
 _atom_site_label
 _atom_site_symmetry_multiplicity
 _atom_site_fract_x
 _atom_site_fract_y
 _atom_site_fract_z
 _atom_site_occupancy
  Dy  Dy0  1  0.000000  0.000000  0.503263  1
  Th  Th1  1  0.000000  0.000000  0.998247  1
  Sn  Sn2  1  0.500000  0.000000  0.743498  1
  Sn  Sn3  1  0.000000  0.500000  0.256294  1
  Sn  Sn4  1  0.000000  0.500000  0.744301  1
  Hg  Hg5  1  0.500000  0.500000  0.001624  1
  Hg  Hg6  1  0.500000  0.500000  0.498472  1
  Hg  Hg7  1  0.500000  0.000000  0.254302  1
