# generated using pymatgen
data_Pa(CrC)4
_symmetry_space_group_name_H-M   'P 1'
_cell_length_a   5.83239932
_cell_length_b   5.83239970
_cell_length_c   5.83239946
_cell_angle_alpha   94.04406757
_cell_angle_beta   94.04407961
_cell_angle_gamma   149.19916669
_symmetry_Int_Tables_number   1
_chemical_formula_structural   Pa(CrC)4
_chemical_formula_sum   'Pa1 Cr4 C4'
_cell_volume   97.94399913
_cell_formula_units_Z   1
loop_
 _symmetry_equiv_pos_site_id
 _symmetry_equiv_pos_as_xyz
  1  'x, y, z'
loop_
 _atom_site_type_symbol
 _atom_site_label
 _atom_site_symmetry_multiplicity
 _atom_site_fract_x
 _atom_site_fract_y
 _atom_site_fract_z
 _atom_site_occupancy
  Pa  Pa0  1  0.000000  0.000000  0.000000  1
  Cr  Cr1  1  0.819898  0.635131  0.455028  1
  Cr  Cr2  1  0.180102  0.364869  0.544972  1
  Cr  Cr3  1  0.635131  0.180102  0.815233  1
  Cr  Cr4  1  0.364869  0.819898  0.184767  1
  C  C5  1  0.260587  0.597437  0.858025  1
  C  C6  1  0.739413  0.402563  0.141975  1
  C  C7  1  0.597437  0.739413  0.336850  1
  C  C8  1  0.402563  0.260587  0.663150  1
