# generated using pymatgen
data_Tb2NdDy(Mo2O7)2
_symmetry_space_group_name_H-M   'P 1'
_cell_length_a   7.45330544
_cell_length_b   7.47574272
_cell_length_c   7.45884351
_cell_angle_alpha   59.25629401
_cell_angle_beta   58.97822500
_cell_angle_gamma   59.26210108
_symmetry_Int_Tables_number   1
_chemical_formula_structural   Tb2NdDy(Mo2O7)2
_chemical_formula_sum   'Tb2 Nd1 Dy1 Mo4 O14'
_cell_volume   288.28005277
_cell_formula_units_Z   1
loop_
 _symmetry_equiv_pos_site_id
 _symmetry_equiv_pos_as_xyz
  1  'x, y, z'
loop_
 _atom_site_type_symbol
 _atom_site_label
 _atom_site_symmetry_multiplicity
 _atom_site_fract_x
 _atom_site_fract_y
 _atom_site_fract_z
 _atom_site_occupancy
  Tb  Tb0  1  0.625000  0.125000  0.125000  1
  Tb  Tb1  1  0.125000  0.125000  0.625000  1
  Nd  Nd2  1  0.125000  0.125000  0.125000  1
  Dy  Dy3  1  0.125000  0.625000  0.125000  1
  Mo  Mo4  1  0.625000  0.625000  0.625000  1
  Mo  Mo5  1  0.125000  0.625000  0.625000  1
  Mo  Mo6  1  0.625000  0.625000  0.125000  1
  Mo  Mo7  1  0.625000  0.125000  0.625000  1
  O  O8  1  0.000171  0.995175  0.999957  1
  O  O9  1  0.249829  0.254825  0.250043  1
  O  O10  1  0.288353  0.290256  0.706485  1
  O  O11  1  0.539537  0.535099  0.961764  1
  O  O12  1  0.716096  0.280016  0.717878  1
  O  O13  1  0.706304  0.290875  0.287285  1
  O  O14  1  0.287981  0.716439  0.709303  1
  O  O15  1  0.286712  0.702149  0.287674  1
  O  O16  1  0.710463  0.714901  0.288236  1
  O  O17  1  0.962019  0.533561  0.540697  1
  O  O18  1  0.543696  0.959125  0.962715  1
  O  O19  1  0.961647  0.959744  0.543515  1
  O  O20  1  0.963288  0.547851  0.962326  1
  O  O21  1  0.533904  0.969984  0.532122  1
