# generated using pymatgen
data_Pr3NdAl18ZnRh5
_symmetry_space_group_name_H-M   'P 1'
_cell_length_a   7.66191715
_cell_length_b   7.66203373
_cell_length_c   9.63443730
_cell_angle_alpha   89.87870881
_cell_angle_beta   89.89171662
_cell_angle_gamma   119.32587424
_symmetry_Int_Tables_number   1
_chemical_formula_structural   Pr3NdAl18ZnRh5
_chemical_formula_sum   'Pr3 Nd1 Al18 Zn1 Rh5'
_cell_volume   493.11170602
_cell_formula_units_Z   1
loop_
 _symmetry_equiv_pos_site_id
 _symmetry_equiv_pos_as_xyz
  1  'x, y, z'
loop_
 _atom_site_type_symbol
 _atom_site_label
 _atom_site_symmetry_multiplicity
 _atom_site_fract_x
 _atom_site_fract_y
 _atom_site_fract_z
 _atom_site_occupancy
  Pr  Pr0  1  0.995464  0.675955  0.747806  1
  Pr  Pr1  1  0.004546  0.324001  0.252218  1
  Pr  Pr2  1  0.675892  0.995476  0.747790  1
  Nd  Nd3  1  0.324043  0.004485  0.252119  1
  Al  Al4  1  0.139069  0.138968  0.759460  1
  Al  Al5  1  0.861591  0.861184  0.240593  1
  Al  Al6  1  0.005607  0.346122  0.577330  1
  Al  Al7  1  0.994914  0.654490  0.422361  1
  Al  Al8  1  0.999814  0.664546  0.070125  1
  Al  Al9  1  0.335951  0.000651  0.930661  1
  Al  Al10  1  0.000664  0.335951  0.930233  1
  Al  Al11  1  0.663630  0.999325  0.070090  1
  Al  Al12  1  0.653418  0.994433  0.422296  1
  Al  Al13  1  0.346000  0.005554  0.576935  1
  Al  Al14  1  0.334223  0.333824  0.046502  1
  Al  Al15  1  0.665774  0.665774  0.953904  1
  Al  Al16  1  0.655313  0.655311  0.554180  1
  Al  Al17  1  0.344642  0.344227  0.445428  1
  Al  Al18  1  0.339274  0.548983  0.751739  1
  Al  Al19  1  0.660209  0.450340  0.248256  1
  Al  Al20  1  0.548948  0.339210  0.751730  1
  Al  Al21  1  0.450900  0.661198  0.248271  1
  Zn  Zn22  1  0.000089  0.999986  0.499894  1
  Rh  Rh23  1  0.670947  0.328965  0.499910  1
  Rh  Rh24  1  0.329023  0.671041  0.499913  1
  Rh  Rh25  1  0.329343  0.670669  0.000080  1
  Rh  Rh26  1  0.670602  0.329301  0.000093  1
  Rh  Rh27  1  0.000110  0.000033  0.000084  1
