# generated using pymatgen
data_SmMgCo3P3Rh
_symmetry_space_group_name_H-M   'P 1'
_cell_length_a   3.76080300
_cell_length_b   10.57938700
_cell_length_c   12.44626100
_cell_angle_alpha   90.00000000
_cell_angle_beta   90.00000000
_cell_angle_gamma   90.00000000
_symmetry_Int_Tables_number   1
_chemical_formula_structural   SmMgCo3P3Rh
_chemical_formula_sum   'Sm4 Mg4 Co12 P12 Rh4'
_cell_volume   495.19926652
_cell_formula_units_Z   4
loop_
 _symmetry_equiv_pos_site_id
 _symmetry_equiv_pos_as_xyz
  1  'x, y, z'
loop_
 _atom_site_type_symbol
 _atom_site_label
 _atom_site_symmetry_multiplicity
 _atom_site_fract_x
 _atom_site_fract_y
 _atom_site_fract_z
 _atom_site_occupancy
  Sm  Sm0  1  0.250000  0.581535  0.709398  1
  Sm  Sm1  1  0.250000  0.918465  0.209398  1
  Sm  Sm2  1  0.750000  0.418465  0.290602  1
  Sm  Sm3  1  0.750000  0.081535  0.790602  1
  Mg  Mg4  1  0.250000  0.704816  0.991362  1
  Mg  Mg5  1  0.250000  0.795184  0.491362  1
  Mg  Mg6  1  0.750000  0.295184  0.008638  1
  Mg  Mg7  1  0.750000  0.204816  0.508638  1
  Co  Co8  1  0.250000  0.219356  0.177392  1
  Co  Co9  1  0.250000  0.280644  0.677392  1
  Co  Co10  1  0.750000  0.780644  0.822608  1
  Co  Co11  1  0.750000  0.719356  0.322608  1
  Co  Co12  1  0.250000  0.882542  0.695889  1
  Co  Co13  1  0.250000  0.617458  0.195889  1
  Co  Co14  1  0.750000  0.117458  0.304111  1
  Co  Co15  1  0.750000  0.382542  0.804111  1
  Co  Co16  1  0.250000  0.467543  0.934642  1
  Co  Co17  1  0.250000  0.032457  0.434642  1
  Co  Co18  1  0.750000  0.532457  0.065358  1
  Co  Co19  1  0.750000  0.967543  0.565358  1
  P  P20  1  0.250000  0.424483  0.114787  1
  P  P21  1  0.250000  0.075517  0.614787  1
  P  P22  1  0.750000  0.575517  0.885213  1
  P  P23  1  0.750000  0.924483  0.385213  1
  P  P24  1  0.250000  0.278419  0.855631  1
  P  P25  1  0.250000  0.221581  0.355631  1
  P  P26  1  0.750000  0.721581  0.144369  1
  P  P27  1  0.750000  0.778419  0.644369  1
  P  P28  1  0.250000  0.601186  0.378030  1
  P  P29  1  0.250000  0.898814  0.878030  1
  P  P30  1  0.750000  0.398814  0.621970  1
  P  P31  1  0.750000  0.101186  0.121970  1
  Rh  Rh32  1  0.250000  0.399661  0.483423  1
  Rh  Rh33  1  0.250000  0.100339  0.983423  1
  Rh  Rh34  1  0.750000  0.600339  0.516577  1
  Rh  Rh35  1  0.750000  0.899661  0.016577  1
