# generated using pymatgen
data_SrV2PtO8
_symmetry_space_group_name_H-M   'P 1'
_cell_length_a   5.18831475
_cell_length_b   5.18831527
_cell_length_c   7.34587579
_cell_angle_alpha   91.30967199
_cell_angle_beta   91.30967255
_cell_angle_gamma   66.80318293
_symmetry_Int_Tables_number   1
_chemical_formula_structural   SrV2PtO8
_chemical_formula_sum   'Sr1 V2 Pt1 O8'
_cell_volume   181.68673997
_cell_formula_units_Z   1
loop_
 _symmetry_equiv_pos_site_id
 _symmetry_equiv_pos_as_xyz
  1  'x, y, z'
loop_
 _atom_site_type_symbol
 _atom_site_label
 _atom_site_symmetry_multiplicity
 _atom_site_fract_x
 _atom_site_fract_y
 _atom_site_fract_z
 _atom_site_occupancy
  Sr  Sr0  1  0.000000  0.000000  0.000000  1
  V  V1  1  0.634215  0.634215  0.289087  1
  V  V2  1  0.365784  0.365784  0.710913  1
  Pt  Pt3  1  0.000000  0.000000  0.500000  1
  O  O4  1  0.709446  0.709446  0.080969  1
  O  O5  1  0.777714  0.256758  0.298532  1
  O  O6  1  0.256758  0.777714  0.298532  1
  O  O7  1  0.773015  0.773015  0.461584  1
  O  O8  1  0.226985  0.226985  0.538416  1
  O  O9  1  0.743241  0.222285  0.701468  1
  O  O10  1  0.222285  0.743241  0.701468  1
  O  O11  1  0.290553  0.290553  0.919031  1
