# generated using pymatgen
data_Li4TbY3Si8
_symmetry_space_group_name_H-M   'P 1'
_cell_length_a   3.80018100
_cell_length_b   7.60100642
_cell_length_c   10.20252954
_cell_angle_alpha   90.00046359
_cell_angle_beta   90.00000000
_cell_angle_gamma   90.00000000
_symmetry_Int_Tables_number   1
_chemical_formula_structural   Li4TbY3Si8
_chemical_formula_sum   'Li4 Tb1 Y3 Si8'
_cell_volume   294.70210796
_cell_formula_units_Z   1
loop_
 _symmetry_equiv_pos_site_id
 _symmetry_equiv_pos_as_xyz
  1  'x, y, z'
loop_
 _atom_site_type_symbol
 _atom_site_label
 _atom_site_symmetry_multiplicity
 _atom_site_fract_x
 _atom_site_fract_y
 _atom_site_fract_z
 _atom_site_occupancy
  Li  Li0  1  0.250000  0.989776  0.391825  1
  Li  Li1  1  0.750000  0.010697  0.608036  1
  Li  Li2  1  0.250000  0.489803  0.108444  1
  Li  Li3  1  0.750000  0.509154  0.891870  1
  Tb  Tb4  1  0.750000  0.360797  0.363802  1
  Y  Y5  1  0.250000  0.139643  0.863817  1
  Y  Y6  1  0.750000  0.860220  0.136279  1
  Y  Y7  1  0.250000  0.639829  0.635989  1
  Si  Si8  1  0.750000  0.267646  0.068642  1
  Si  Si9  1  0.250000  0.731370  0.931562  1
  Si  Si10  1  0.750000  0.768306  0.431480  1
  Si  Si11  1  0.250000  0.233096  0.567741  1
  Si  Si12  1  0.750000  0.842932  0.820544  1
  Si  Si13  1  0.250000  0.156765  0.179964  1
  Si  Si14  1  0.750000  0.343385  0.679163  1
  Si  Si15  1  0.250000  0.656577  0.320841  1
