# generated using pymatgen
data_YEr9In8(IrPd)2
_symmetry_space_group_name_H-M   'P 1'
_cell_length_a   3.59907000
_cell_length_b   8.09781433
_cell_length_c   18.17297584
_cell_angle_alpha   90.11729606
_cell_angle_beta   90.00000000
_cell_angle_gamma   90.00000000
_symmetry_Int_Tables_number   1
_chemical_formula_structural   YEr9In8(IrPd)2
_chemical_formula_sum   'Y1 Er9 In8 Ir2 Pd2'
_cell_volume   529.64301316
_cell_formula_units_Z   1
loop_
 _symmetry_equiv_pos_site_id
 _symmetry_equiv_pos_as_xyz
  1  'x, y, z'
loop_
 _atom_site_type_symbol
 _atom_site_label
 _atom_site_symmetry_multiplicity
 _atom_site_fract_x
 _atom_site_fract_y
 _atom_site_fract_z
 _atom_site_occupancy
  Y  Y0  1  0.000000  0.000000  0.000000  1
  Er  Er1  1  0.000000  0.500000  0.500000  1
  Er  Er2  1  0.000000  0.728117  0.277489  1
  Er  Er3  1  0.000000  0.271883  0.722511  1
  Er  Er4  1  0.000000  0.747191  0.779888  1
  Er  Er5  1  0.000000  0.252809  0.220112  1
  Er  Er6  1  0.000000  0.613353  0.087176  1
  Er  Er7  1  0.000000  0.386647  0.912824  1
  Er  Er8  1  0.000000  0.884856  0.584515  1
  Er  Er9  1  0.000000  0.115144  0.415485  1
  In  In10  1  0.500000  0.709065  0.932105  1
  In  In11  1  0.500000  0.290935  0.067895  1
  In  In12  1  0.500000  0.790550  0.432129  1
  In  In13  1  0.500000  0.209450  0.567871  1
  In  In14  1  0.500000  0.579118  0.648097  1
  In  In15  1  0.500000  0.420882  0.351903  1
  In  In16  1  0.500000  0.922067  0.149943  1
  In  In17  1  0.500000  0.077933  0.850057  1
  Ir  Ir18  1  0.500000  0.519364  0.195819  1
  Ir  Ir19  1  0.500000  0.480636  0.804181  1
  Pd  Pd20  1  0.500000  0.980471  0.696027  1
  Pd  Pd21  1  0.500000  0.019529  0.303973  1
