# generated using pymatgen
data_Sr2GePdI
_symmetry_space_group_name_H-M   'P 1'
_cell_length_a   4.42560000
_cell_length_b   4.42560048
_cell_length_c   9.19757700
_cell_angle_alpha   90.00000000
_cell_angle_beta   90.00000000
_cell_angle_gamma   120.00001139
_symmetry_Int_Tables_number   1
_chemical_formula_structural   Sr2GePdI
_chemical_formula_sum   'Sr2 Ge1 Pd1 I1'
_cell_volume   156.00854190
_cell_formula_units_Z   1
loop_
 _symmetry_equiv_pos_site_id
 _symmetry_equiv_pos_as_xyz
  1  'x, y, z'
loop_
 _atom_site_type_symbol
 _atom_site_label
 _atom_site_symmetry_multiplicity
 _atom_site_fract_x
 _atom_site_fract_y
 _atom_site_fract_z
 _atom_site_occupancy
  Sr  Sr0  1  0.000000  0.000000  0.219727  1
  Sr  Sr1  1  0.000000  0.000000  0.780273  1
  Ge  Ge2  1  0.333333  0.666667  0.000000  1
  Pd  Pd3  1  0.666667  0.333333  0.000000  1
  I  I4  1  0.666667  0.333333  0.500000  1
