# generated using pymatgen
data_Ba12Si15Sn
_symmetry_space_group_name_H-M   'P 1'
_cell_length_a   8.64697336
_cell_length_b   8.64697336
_cell_length_c   12.00032136
_cell_angle_alpha   89.73653430
_cell_angle_beta   89.73653430
_cell_angle_gamma   89.86593463
_symmetry_Int_Tables_number   1
_chemical_formula_structural   Ba12Si15Sn
_chemical_formula_sum   'Ba12 Si15 Sn1'
_cell_volume   897.24442367
_cell_formula_units_Z   1
loop_
 _symmetry_equiv_pos_site_id
 _symmetry_equiv_pos_as_xyz
  1  'x, y, z'
loop_
 _atom_site_type_symbol
 _atom_site_label
 _atom_site_symmetry_multiplicity
 _atom_site_fract_x
 _atom_site_fract_y
 _atom_site_fract_z
 _atom_site_occupancy
  Ba  Ba0  1  0.491052  0.008551  0.754578  1
  Ba  Ba1  1  0.499356  0.999680  0.248315  1
  Ba  Ba2  1  0.008551  0.491052  0.754578  1
  Ba  Ba3  1  0.999680  0.499356  0.248315  1
  Ba  Ba4  1  0.009166  0.009166  0.836901  1
  Ba  Ba5  1  0.496976  0.496976  0.327468  1
  Ba  Ba6  1  0.498094  0.498094  0.668901  1
  Ba  Ba7  1  0.000251  0.000251  0.170671  1
  Ba  Ba8  1  0.665621  0.665621  0.998272  1
  Ba  Ba9  1  0.836494  0.170356  0.496994  1
  Ba  Ba10  1  0.170356  0.836494  0.496994  1
  Ba  Ba11  1  0.338994  0.338994  0.002610  1
  Si  Si12  1  0.197737  0.197737  0.640745  1
  Si  Si13  1  0.800892  0.800892  0.355327  1
  Si  Si14  1  0.300100  0.699253  0.145067  1
  Si  Si15  1  0.699253  0.300100  0.145067  1
  Si  Si16  1  0.699371  0.300365  0.856058  1
  Si  Si17  1  0.300365  0.699371  0.856058  1
  Si  Si18  1  0.199346  0.199346  0.355896  1
  Si  Si19  1  0.700794  0.101855  0.000837  1
  Si  Si20  1  0.301374  0.895409  0.000883  1
  Si  Si21  1  0.101855  0.700794  0.000837  1
  Si  Si22  1  0.593555  0.793263  0.492042  1
  Si  Si23  1  0.895409  0.301374  0.000883  1
  Si  Si24  1  0.200279  0.398419  0.498706  1
  Si  Si25  1  0.793263  0.593555  0.492042  1
  Si  Si26  1  0.398419  0.200279  0.498706  1
  Sn  Sn27  1  0.803397  0.803397  0.656249  1
