# generated using pymatgen
data_Ho7Sn21(BiRu3)2
_symmetry_space_group_name_H-M   'P 1'
_cell_length_a   9.88419300
_cell_length_b   9.88419255
_cell_length_c   10.09011800
_cell_angle_alpha   90.00000000
_cell_angle_beta   90.00000000
_cell_angle_gamma   119.99999817
_symmetry_Int_Tables_number   1
_chemical_formula_structural   Ho7Sn21(BiRu3)2
_chemical_formula_sum   'Ho7 Sn21 Bi2 Ru6'
_cell_volume   853.70789707
_cell_formula_units_Z   1
loop_
 _symmetry_equiv_pos_site_id
 _symmetry_equiv_pos_as_xyz
  1  'x, y, z'
loop_
 _atom_site_type_symbol
 _atom_site_label
 _atom_site_symmetry_multiplicity
 _atom_site_fract_x
 _atom_site_fract_y
 _atom_site_fract_z
 _atom_site_occupancy
  Ho  Ho0  1  0.000000  0.000000  0.002646  1
  Ho  Ho1  1  0.515496  0.484504  0.696677  1
  Ho  Ho2  1  0.515496  0.030991  0.696677  1
  Ho  Ho3  1  0.969009  0.484504  0.696677  1
  Ho  Ho4  1  0.034079  0.517040  0.305342  1
  Ho  Ho5  1  0.482960  0.965921  0.305342  1
  Ho  Ho6  1  0.482960  0.517040  0.305342  1
  Sn  Sn7  1  0.666667  0.333333  0.870025  1
  Sn  Sn8  1  0.333333  0.666667  0.127896  1
  Sn  Sn9  1  0.348319  0.349358  0.999172  1
  Sn  Sn10  1  0.001040  0.651681  0.999172  1
  Sn  Sn11  1  0.650642  0.998960  0.999172  1
  Sn  Sn12  1  0.650642  0.651681  0.999172  1
  Sn  Sn13  1  0.333333  0.666667  0.821527  1
  Sn  Sn14  1  0.440364  0.220183  0.462166  1
  Sn  Sn15  1  0.221566  0.778434  0.538843  1
  Sn  Sn16  1  0.221566  0.443130  0.538843  1
  Sn  Sn17  1  0.556870  0.778434  0.538843  1
  Sn  Sn18  1  0.120105  0.879895  0.273265  1
  Sn  Sn19  1  0.779817  0.559636  0.462166  1
  Sn  Sn20  1  0.779817  0.220183  0.462166  1
  Sn  Sn21  1  0.348319  0.998960  0.999172  1
  Sn  Sn22  1  0.120105  0.240210  0.273265  1
  Sn  Sn23  1  0.759790  0.879895  0.273265  1
  Sn  Sn24  1  0.238288  0.119145  0.728213  1
  Sn  Sn25  1  0.880855  0.761712  0.728213  1
  Sn  Sn26  1  0.880855  0.119145  0.728213  1
  Sn  Sn27  1  0.001040  0.349358  0.999172  1
  Bi  Bi28  1  0.666667  0.333333  0.172259  1
  Bi  Bi29  1  0.000000  0.000000  0.499758  1
  Ru  Ru30  1  0.169831  0.830169  0.798006  1
  Ru  Ru31  1  0.169831  0.339661  0.798006  1
  Ru  Ru32  1  0.660339  0.830169  0.798006  1
  Ru  Ru33  1  0.336550  0.168276  0.201107  1
  Ru  Ru34  1  0.831724  0.663450  0.201107  1
  Ru  Ru35  1  0.831724  0.168276  0.201107  1
