# generated using pymatgen
data_Tb4Tm4B24Ir3Ru
_symmetry_space_group_name_H-M   'P 1'
_cell_length_a   3.63872500
_cell_length_b   9.15613506
_cell_length_c   11.50722207
_cell_angle_alpha   90.01286802
_cell_angle_beta   90.00000000
_cell_angle_gamma   90.00000000
_symmetry_Int_Tables_number   1
_chemical_formula_structural   Tb4Tm4B24Ir3Ru
_chemical_formula_sum   'Tb4 Tm4 B24 Ir3 Ru1'
_cell_volume   383.38216734
_cell_formula_units_Z   1
loop_
 _symmetry_equiv_pos_site_id
 _symmetry_equiv_pos_as_xyz
  1  'x, y, z'
loop_
 _atom_site_type_symbol
 _atom_site_label
 _atom_site_symmetry_multiplicity
 _atom_site_fract_x
 _atom_site_fract_y
 _atom_site_fract_z
 _atom_site_occupancy
  Tb  Tb0  1  0.000000  0.320282  0.413684  1
  Tb  Tb1  1  0.000000  0.680648  0.587596  1
  Tb  Tb2  1  0.000000  0.820515  0.084710  1
  Tb  Tb3  1  0.000000  0.177805  0.913216  1
  Tm  Tm4  1  0.000000  0.943926  0.373818  1
  Tm  Tm5  1  0.000000  0.054254  0.627221  1
  Tm  Tm6  1  0.000000  0.443999  0.125978  1
  Tm  Tm7  1  0.000000  0.557764  0.873974  1
  B  B8  1  0.500000  0.554688  0.434250  1
  B  B9  1  0.500000  0.445567  0.566030  1
  B  B10  1  0.500000  0.054365  0.066065  1
  B  B11  1  0.500000  0.945192  0.933016  1
  B  B12  1  0.500000  0.750788  0.420265  1
  B  B13  1  0.500000  0.249179  0.579934  1
  B  B14  1  0.500000  0.250453  0.079756  1
  B  B15  1  0.500000  0.750653  0.919133  1
  B  B16  1  0.500000  0.793013  0.264885  1
  B  B17  1  0.500000  0.207154  0.734504  1
  B  B18  1  0.500000  0.293431  0.235174  1
  B  B19  1  0.500000  0.707899  0.765703  1
  B  B20  1  0.500000  0.631164  0.183332  1
  B  B21  1  0.500000  0.368916  0.816541  1
  B  B22  1  0.500000  0.131669  0.316621  1
  B  B23  1  0.500000  0.868828  0.684617  1
  B  B24  1  0.500000  0.982286  0.213915  1
  B  B25  1  0.500000  0.016266  0.786131  1
  B  B26  1  0.500000  0.482384  0.285806  1
  B  B27  1  0.500000  0.517585  0.714520  1
  B  B28  1  0.500000  0.606483  0.029234  1
  B  B29  1  0.500000  0.393163  0.971093  1
  B  B30  1  0.500000  0.106513  0.470943  1
  B  B31  1  0.500000  0.893509  0.528712  1
  Ir  Ir32  1  0.000000  0.638871  0.320896  1
  Ir  Ir33  1  0.000000  0.361495  0.679463  1
  Ir  Ir34  1  0.000000  0.138031  0.178860  1
  Ru  Ru35  1  0.000000  0.861263  0.820402  1
