# generated using pymatgen
data_DyTm4Mo3(P3Ir4)4
_symmetry_space_group_name_H-M   'P 1'
_cell_length_a   12.66203400
_cell_length_b   12.66203391
_cell_length_c   3.97824800
_cell_angle_alpha   90.00000000
_cell_angle_beta   90.00000000
_cell_angle_gamma   120.00000024
_symmetry_Int_Tables_number   1
_chemical_formula_structural   DyTm4Mo3(P3Ir4)4
_chemical_formula_sum   'Dy1 Tm4 Mo3 P12 Ir16'
_cell_volume   552.36917055
_cell_formula_units_Z   1
loop_
 _symmetry_equiv_pos_site_id
 _symmetry_equiv_pos_as_xyz
  1  'x, y, z'
loop_
 _atom_site_type_symbol
 _atom_site_label
 _atom_site_symmetry_multiplicity
 _atom_site_fract_x
 _atom_site_fract_y
 _atom_site_fract_z
 _atom_site_occupancy
  Dy  Dy0  1  0.666667  0.333333  0.500000  1
  Tm  Tm1  1  0.333333  0.666667  0.500000  1
  Tm  Tm2  1  0.999971  0.813130  0.000000  1
  Tm  Tm3  1  0.186870  0.186842  0.000000  1
  Tm  Tm4  1  0.813158  0.000029  0.000000  1
  Mo  Mo5  1  0.000257  0.453794  0.500000  1
  Mo  Mo6  1  0.546206  0.546463  0.500000  1
  Mo  Mo7  1  0.453537  0.999743  0.500000  1
  P  P8  1  0.999846  0.639547  0.500000  1
  P  P9  1  0.360453  0.360299  0.500000  1
  P  P10  1  0.639701  0.000154  0.500000  1
  P  P11  1  0.515793  0.684079  0.000000  1
  P  P12  1  0.315921  0.831714  0.000000  1
  P  P13  1  0.168286  0.484207  0.000000  1
  P  P14  1  0.483712  0.167604  0.000000  1
  P  P15  1  0.683891  0.516288  0.000000  1
  P  P16  1  0.832396  0.316109  0.000000  1
  P  P17  1  0.000187  0.176335  0.500000  1
  P  P18  1  0.823665  0.823852  0.500000  1
  P  P19  1  0.176148  0.999813  0.500000  1
  Ir  Ir20  1  0.508476  0.865435  0.000000  1
  Ir  Ir21  1  0.134565  0.643042  0.000000  1
  Ir  Ir22  1  0.356958  0.491524  0.000000  1
  Ir  Ir23  1  0.490359  0.357057  0.000000  1
  Ir  Ir24  1  0.866698  0.509641  0.000000  1
  Ir  Ir25  1  0.642943  0.133302  0.000000  1
  Ir  Ir26  1  0.000219  0.286104  0.000000  1
  Ir  Ir27  1  0.713896  0.714115  0.000000  1
  Ir  Ir28  1  0.285885  0.999781  0.000000  1
  Ir  Ir29  1  0.626797  0.805750  0.500000  1
  Ir  Ir30  1  0.194250  0.821047  0.500000  1
  Ir  Ir31  1  0.178953  0.373203  0.500000  1
  Ir  Ir32  1  0.372788  0.178540  0.500000  1
  Ir  Ir33  1  0.805751  0.627212  0.500000  1
  Ir  Ir34  1  0.821460  0.194249  0.500000  1
  Ir  Ir35  1  0.000000  0.000000  0.500000  1
