# generated using pymatgen
data_DyHoCr2(Fe4P3)2
_symmetry_space_group_name_H-M   'P 1'
_cell_length_a   3.65491900
_cell_length_b   10.36196200
_cell_length_c   11.84048300
_cell_angle_alpha   90.00000000
_cell_angle_beta   90.00000000
_cell_angle_gamma   90.00000000
_symmetry_Int_Tables_number   1
_chemical_formula_structural   DyHoCr2(Fe4P3)2
_chemical_formula_sum   'Dy2 Ho2 Cr4 Fe16 P12'
_cell_volume   448.42433265
_cell_formula_units_Z   2
loop_
 _symmetry_equiv_pos_site_id
 _symmetry_equiv_pos_as_xyz
  1  'x, y, z'
loop_
 _atom_site_type_symbol
 _atom_site_label
 _atom_site_symmetry_multiplicity
 _atom_site_fract_x
 _atom_site_fract_y
 _atom_site_fract_z
 _atom_site_occupancy
  Dy  Dy0  1  0.250000  0.580850  0.704831  1
  Dy  Dy1  1  0.250000  0.919150  0.204831  1
  Ho  Ho2  1  0.750000  0.418799  0.295118  1
  Ho  Ho3  1  0.750000  0.081201  0.795118  1
  Cr  Cr4  1  0.250000  0.702849  0.988956  1
  Cr  Cr5  1  0.250000  0.797151  0.488956  1
  Cr  Cr6  1  0.750000  0.297380  0.010977  1
  Cr  Cr7  1  0.750000  0.202620  0.510977  1
  Fe  Fe8  1  0.250000  0.404854  0.490471  1
  Fe  Fe9  1  0.250000  0.095146  0.990471  1
  Fe  Fe10  1  0.750000  0.594614  0.509042  1
  Fe  Fe11  1  0.750000  0.905386  0.009042  1
  Fe  Fe12  1  0.250000  0.218675  0.175615  1
  Fe  Fe13  1  0.250000  0.281325  0.675615  1
  Fe  Fe14  1  0.750000  0.781820  0.824076  1
  Fe  Fe15  1  0.750000  0.718180  0.324076  1
  Fe  Fe16  1  0.250000  0.874436  0.702314  1
  Fe  Fe17  1  0.250000  0.625564  0.202314  1
  Fe  Fe18  1  0.750000  0.125854  0.298066  1
  Fe  Fe19  1  0.750000  0.374146  0.798066  1
  Fe  Fe20  1  0.250000  0.463222  0.932643  1
  Fe  Fe21  1  0.250000  0.036778  0.432643  1
  Fe  Fe22  1  0.750000  0.536604  0.067900  1
  Fe  Fe23  1  0.750000  0.963396  0.567900  1
  P  P24  1  0.250000  0.423428  0.113260  1
  P  P25  1  0.250000  0.076572  0.613260  1
  P  P26  1  0.750000  0.576346  0.887313  1
  P  P27  1  0.750000  0.923654  0.387313  1
  P  P28  1  0.250000  0.264942  0.870430  1
  P  P29  1  0.250000  0.235058  0.370430  1
  P  P30  1  0.750000  0.735048  0.128863  1
  P  P31  1  0.750000  0.764952  0.628863  1
  P  P32  1  0.250000  0.596409  0.394929  1
  P  P33  1  0.250000  0.903591  0.894929  1
  P  P34  1  0.750000  0.402658  0.605197  1
  P  P35  1  0.750000  0.097342  0.105197  1
