# generated using pymatgen
data_Rb8TmLu5BBr20
_symmetry_space_group_name_H-M   'P 1'
_cell_length_a   12.23634198
_cell_length_b   12.24865868
_cell_length_c   12.24865919
_cell_angle_alpha   59.93348005
_cell_angle_beta   60.03326031
_cell_angle_gamma   60.03326213
_symmetry_Int_Tables_number   1
_chemical_formula_structural   Rb8TmLu5BBr20
_chemical_formula_sum   'Rb8 Tm1 Lu5 B1 Br20'
_cell_volume   1298.11396683
_cell_formula_units_Z   1
loop_
 _symmetry_equiv_pos_site_id
 _symmetry_equiv_pos_as_xyz
  1  'x, y, z'
loop_
 _atom_site_type_symbol
 _atom_site_label
 _atom_site_symmetry_multiplicity
 _atom_site_fract_x
 _atom_site_fract_y
 _atom_site_fract_z
 _atom_site_occupancy
  Rb  Rb0  1  0.359999  0.359613  0.359613  1
  Rb  Rb1  1  0.640029  0.640376  0.640376  1
  Rb  Rb2  1  0.359624  0.359971  0.920782  1
  Rb  Rb3  1  0.359624  0.920782  0.359971  1
  Rb  Rb4  1  0.640387  0.640001  0.079224  1
  Rb  Rb5  1  0.640387  0.079224  0.640001  1
  Rb  Rb6  1  0.920776  0.359613  0.359613  1
  Rb  Rb7  1  0.079218  0.640376  0.640376  1
  Tm  Tm8  1  0.852200  0.147800  0.147800  1
  Lu  Lu9  1  0.147133  0.852867  0.852867  1
  Lu  Lu10  1  0.147305  0.852695  0.146946  1
  Lu  Lu11  1  0.853054  0.146946  0.852695  1
  Lu  Lu12  1  0.147305  0.146946  0.852695  1
  Lu  Lu13  1  0.853054  0.852695  0.146946  1
  B  B14  1  0.000547  0.999453  0.999453  1
  Br  Br15  1  0.323845  0.999963  0.999963  1
  Br  Br16  1  0.676230  0.999963  0.999963  1
  Br  Br17  1  0.000037  0.323770  0.676155  1
  Br  Br18  1  0.000037  0.676155  0.323770  1
  Br  Br19  1  0.001746  0.325070  0.998254  1
  Br  Br20  1  0.674930  0.998254  0.325070  1
  Br  Br21  1  0.999824  0.676137  0.000176  1
  Br  Br22  1  0.323863  0.000176  0.676137  1
  Br  Br23  1  0.001746  0.998254  0.325070  1
  Br  Br24  1  0.999824  0.000176  0.676137  1
  Br  Br25  1  0.674930  0.325070  0.998254  1
  Br  Br26  1  0.323863  0.676137  0.000176  1
  Br  Br27  1  0.685218  0.314782  0.314782  1
  Br  Br28  1  0.312946  0.687054  0.687054  1
  Br  Br29  1  0.313078  0.686922  0.312866  1
  Br  Br30  1  0.687134  0.312866  0.686922  1
  Br  Br31  1  0.313078  0.312866  0.686922  1
  Br  Br32  1  0.687134  0.686922  0.312866  1
  Br  Br33  1  0.249945  0.250055  0.250055  1
  Br  Br34  1  0.749945  0.750055  0.750055  1
