# generated using pymatgen
data_Li4CoB4Ru3
_symmetry_space_group_name_H-M   'P 1'
_cell_length_a   6.69545238
_cell_length_b   5.92772979
_cell_length_c   5.37668680
_cell_angle_alpha   72.45308904
_cell_angle_beta   57.58019318
_cell_angle_gamma   51.80971883
_symmetry_Int_Tables_number   1
_chemical_formula_structural   Li4CoB4Ru3
_chemical_formula_sum   'Li4 Co1 B4 Ru3'
_cell_volume   141.43484627
_cell_formula_units_Z   1
loop_
 _symmetry_equiv_pos_site_id
 _symmetry_equiv_pos_as_xyz
  1  'x, y, z'
loop_
 _atom_site_type_symbol
 _atom_site_label
 _atom_site_symmetry_multiplicity
 _atom_site_fract_x
 _atom_site_fract_y
 _atom_site_fract_z
 _atom_site_occupancy
  Li  Li0  1  0.125174  0.634776  0.628002  1
  Li  Li1  1  0.638939  0.615146  0.620733  1
  Li  Li2  1  0.615146  0.638939  0.125181  1
  Li  Li3  1  0.634776  0.125174  0.612048  1
  Co  Co4  1  0.115703  0.115703  0.384297  1
  B  B5  1  0.430835  0.059169  0.424770  1
  B  B6  1  0.171780  0.827641  0.187015  1
  B  B7  1  0.059169  0.430835  0.085227  1
  B  B8  1  0.827641  0.171780  0.813563  1
  Ru  Ru9  1  0.383725  0.383725  0.116275  1
  Ru  Ru10  1  0.861738  0.861738  0.138262  1
  Ru  Ru11  1  0.135373  0.135373  0.864627  1
