# generated using pymatgen
data_Ho10NiIrPb6
_symmetry_space_group_name_H-M   'P 1'
_cell_length_a   9.15438800
_cell_length_b   9.15438873
_cell_length_c   6.74135400
_cell_angle_alpha   90.00002610
_cell_angle_beta   90.00002952
_cell_angle_gamma   120.00019019
_symmetry_Int_Tables_number   1
_chemical_formula_structural   Ho10NiIrPb6
_chemical_formula_sum   'Ho10 Ni1 Ir1 Pb6'
_cell_volume   489.25536698
_cell_formula_units_Z   1
loop_
 _symmetry_equiv_pos_site_id
 _symmetry_equiv_pos_as_xyz
  1  'x, y, z'
loop_
 _atom_site_type_symbol
 _atom_site_label
 _atom_site_symmetry_multiplicity
 _atom_site_fract_x
 _atom_site_fract_y
 _atom_site_fract_z
 _atom_site_occupancy
  Ho  Ho0  1  0.666648  0.333322  0.000000  1
  Ho  Ho1  1  0.333323  0.666649  0.000000  1
  Ho  Ho2  1  0.762597  0.762597  0.250091  1
  Ho  Ho3  1  0.237404  0.999998  0.250090  1
  Ho  Ho4  1  0.999998  0.237404  0.250090  1
  Ho  Ho5  1  0.666675  0.333352  0.500000  1
  Ho  Ho6  1  0.333351  0.666675  0.500000  1
  Ho  Ho7  1  0.237405  0.237404  0.749910  1
  Ho  Ho8  1  0.762593  0.000001  0.749909  1
  Ho  Ho9  1  0.000002  0.762595  0.749909  1
  Ni  Ni10  1  0.000005  0.000006  0.500007  1
  Ir  Ir11  1  0.999998  0.999998  0.000000  1
  Pb  Pb12  1  0.598100  0.000001  0.251491  1
  Pb  Pb13  1  0.000001  0.598099  0.251491  1
  Pb  Pb14  1  0.401894  0.401894  0.251507  1
  Pb  Pb15  1  0.401900  0.999994  0.748493  1
  Pb  Pb16  1  0.999995  0.401901  0.748493  1
  Pb  Pb17  1  0.598111  0.598111  0.748521  1
