# generated using pymatgen
data_La12Ge3BBr12
_symmetry_space_group_name_H-M   'P 1'
_cell_length_a   10.75849855
_cell_length_b   10.57108814
_cell_length_c   10.57108924
_cell_angle_alpha   109.10930969
_cell_angle_beta   109.83075086
_cell_angle_gamma   109.83075756
_symmetry_Int_Tables_number   1
_chemical_formula_structural   La12Ge3BBr12
_chemical_formula_sum   'La12 Ge3 B1 Br12'
_cell_volume   921.34631658
_cell_formula_units_Z   1
loop_
 _symmetry_equiv_pos_site_id
 _symmetry_equiv_pos_as_xyz
  1  'x, y, z'
loop_
 _atom_site_type_symbol
 _atom_site_label
 _atom_site_symmetry_multiplicity
 _atom_site_fract_x
 _atom_site_fract_y
 _atom_site_fract_z
 _atom_site_occupancy
  La  La0  1  0.468652  0.495092  0.226115  1
  La  La1  1  0.750000  0.241360  0.258640  1
  La  La2  1  0.750000  0.007284  0.492716  1
  La  La3  1  0.242716  0.485432  0.492716  1
  La  La4  1  0.257464  0.731023  0.226115  1
  La  La5  1  0.031348  0.273885  0.004908  1
  La  La6  1  0.008640  0.017280  0.258640  1
  La  La7  1  0.473559  0.731023  0.004908  1
  La  La8  1  0.491360  0.241360  0.482720  1
  La  La9  1  0.026441  0.495092  0.768977  1
  La  La10  1  0.257284  0.007284  0.014568  1
  La  La11  1  0.242536  0.273885  0.768977  1
  Ge  Ge12  1  0.250000  0.249448  0.250552  1
  Ge  Ge13  1  0.500552  0.001104  0.250552  1
  Ge  Ge14  1  0.999448  0.249448  0.498896  1
  B  B15  1  0.250000  0.500000  0.000000  1
  Br  Br16  1  0.250000  0.754701  0.745299  1
  Br  Br17  1  0.508902  0.504510  0.755443  1
  Br  Br18  1  0.991098  0.744557  0.995490  1
  Br  Br19  1  0.746542  0.250933  0.755443  1
  Br  Br20  1  0.995299  0.990599  0.745299  1
  Br  Br21  1  0.250000  0.997231  0.502769  1
  Br  Br22  1  0.752769  0.505538  0.502769  1
  Br  Br23  1  0.504392  0.250933  0.995490  1
  Br  Br24  1  0.753458  0.744557  0.249067  1
  Br  Br25  1  0.747231  0.997231  0.994462  1
  Br  Br26  1  0.995608  0.504510  0.249067  1
  Br  Br27  1  0.504701  0.754701  0.509401  1
