# generated using pymatgen
data_DyAg(PSe3)2
_symmetry_space_group_name_H-M   'P 1'
_cell_length_a   14.96297065
_cell_length_b   14.96297041
_cell_length_c   14.96297056
_cell_angle_alpha   25.78243923
_cell_angle_beta   25.78244061
_cell_angle_gamma   25.78244108
_symmetry_Int_Tables_number   1
_chemical_formula_structural   DyAg(PSe3)2
_chemical_formula_sum   'Dy2 Ag2 P4 Se12'
_cell_volume   558.12904531
_cell_formula_units_Z   2
loop_
 _symmetry_equiv_pos_site_id
 _symmetry_equiv_pos_as_xyz
  1  'x, y, z'
loop_
 _atom_site_type_symbol
 _atom_site_label
 _atom_site_symmetry_multiplicity
 _atom_site_fract_x
 _atom_site_fract_y
 _atom_site_fract_z
 _atom_site_occupancy
  Dy  Dy0  1  0.087285  0.087285  0.087285  1
  Dy  Dy1  1  0.912715  0.912715  0.912715  1
  Ag  Ag2  1  0.593538  0.593538  0.593538  1
  Ag  Ag3  1  0.406462  0.406462  0.406462  1
  P  P4  1  0.724275  0.724275  0.724275  1
  P  P5  1  0.776660  0.776660  0.776660  1
  P  P6  1  0.223340  0.223340  0.223340  1
  P  P7  1  0.275725  0.275725  0.275725  1
  Se  Se8  1  0.486959  0.766073  0.119865  1
  Se  Se9  1  0.005070  0.744147  0.375730  1
  Se  Se10  1  0.624270  0.994930  0.255853  1
  Se  Se11  1  0.744147  0.375730  0.005070  1
  Se  Se12  1  0.766073  0.119865  0.486959  1
  Se  Se13  1  0.375730  0.005070  0.744147  1
  Se  Se14  1  0.255853  0.624270  0.994930  1
  Se  Se15  1  0.119865  0.486959  0.766073  1
  Se  Se16  1  0.994930  0.255853  0.624270  1
  Se  Se17  1  0.880135  0.513041  0.233927  1
  Se  Se18  1  0.233927  0.880135  0.513041  1
  Se  Se19  1  0.513041  0.233927  0.880135  1
