# generated using pymatgen
data_SrY4Hf3(Ni4As3)4
_symmetry_space_group_name_H-M   'P 1'
_cell_length_a   12.80054500
_cell_length_b   12.80054425
_cell_length_c   3.94158300
_cell_angle_alpha   90.00000000
_cell_angle_beta   90.00000000
_cell_angle_gamma   120.00000004
_symmetry_Int_Tables_number   1
_chemical_formula_structural   SrY4Hf3(Ni4As3)4
_chemical_formula_sum   'Sr1 Y4 Hf3 Ni16 As12'
_cell_volume   559.31723714
_cell_formula_units_Z   1
loop_
 _symmetry_equiv_pos_site_id
 _symmetry_equiv_pos_as_xyz
  1  'x, y, z'
loop_
 _atom_site_type_symbol
 _atom_site_label
 _atom_site_symmetry_multiplicity
 _atom_site_fract_x
 _atom_site_fract_y
 _atom_site_fract_z
 _atom_site_occupancy
  Sr  Sr0  1  0.333333  0.666667  0.000000  1
  Y  Y1  1  0.185043  0.186166  0.500000  1
  Y  Y2  1  0.813834  0.998877  0.500000  1
  Y  Y3  1  0.001123  0.814957  0.500000  1
  Y  Y4  1  0.666667  0.333333  0.000000  1
  Hf  Hf5  1  0.567512  0.565676  0.000000  1
  Hf  Hf6  1  0.434324  0.001836  0.000000  1
  Hf  Hf7  1  0.998164  0.432488  0.000000  1
  Ni  Ni8  1  0.725604  0.721814  0.500000  1
  Ni  Ni9  1  0.278186  0.003790  0.500000  1
  Ni  Ni10  1  0.996210  0.274396  0.500000  1
  Ni  Ni11  1  0.178588  0.371229  0.000000  1
  Ni  Ni12  1  0.628771  0.807359  0.000000  1
  Ni  Ni13  1  0.192641  0.821412  0.000000  1
  Ni  Ni14  1  0.807096  0.621582  0.000000  1
  Ni  Ni15  1  0.814486  0.192904  0.000000  1
  Ni  Ni16  1  0.378418  0.185514  0.000000  1
  Ni  Ni17  1  0.366365  0.481615  0.500000  1
  Ni  Ni18  1  0.518385  0.884752  0.500000  1
  Ni  Ni19  1  0.115248  0.633635  0.500000  1
  Ni  Ni20  1  0.878689  0.514401  0.500000  1
  Ni  Ni21  1  0.635714  0.121311  0.500000  1
  Ni  Ni22  1  0.485599  0.364286  0.500000  1
  Ni  Ni23  1  0.000000  0.000000  0.000000  1
  As  As24  1  0.824473  0.821659  0.000000  1
  As  As25  1  0.178341  0.002814  0.000000  1
  As  As26  1  0.997186  0.175527  0.000000  1
  As  As27  1  0.168734  0.472679  0.500000  1
  As  As28  1  0.527321  0.696057  0.500000  1
  As  As29  1  0.303943  0.831266  0.500000  1
  As  As30  1  0.694600  0.520828  0.500000  1
  As  As31  1  0.826229  0.305400  0.500000  1
  As  As32  1  0.479172  0.173771  0.500000  1
  As  As33  1  0.356973  0.358604  0.000000  1
  As  As34  1  0.641396  0.998370  0.000000  1
  As  As35  1  0.001630  0.643027  0.000000  1
