# generated using pymatgen
data_Ho5Zr3(Si3Rh4)4
_symmetry_space_group_name_H-M   'P 1'
_cell_length_a   13.01194500
_cell_length_b   13.01194582
_cell_length_c   4.01432400
_cell_angle_alpha   90.00000000
_cell_angle_beta   90.00000000
_cell_angle_gamma   120.00000555
_symmetry_Int_Tables_number   1
_chemical_formula_structural   Ho5Zr3(Si3Rh4)4
_chemical_formula_sum   'Ho5 Zr3 Si12 Rh16'
_cell_volume   588.60980787
_cell_formula_units_Z   1
loop_
 _symmetry_equiv_pos_site_id
 _symmetry_equiv_pos_as_xyz
  1  'x, y, z'
loop_
 _atom_site_type_symbol
 _atom_site_label
 _atom_site_symmetry_multiplicity
 _atom_site_fract_x
 _atom_site_fract_y
 _atom_site_fract_z
 _atom_site_occupancy
  Ho  Ho0  1  0.186264  0.186264  0.500000  1
  Ho  Ho1  1  0.813736  0.000000  0.500000  1
  Ho  Ho2  1  0.000000  0.813736  0.500000  1
  Ho  Ho3  1  0.333333  0.666667  0.000000  1
  Ho  Ho4  1  0.666667  0.333333  0.000000  1
  Zr  Zr5  1  0.560896  0.560896  0.000000  1
  Zr  Zr6  1  0.439104  0.000000  0.000000  1
  Zr  Zr7  1  0.000000  0.439104  0.000000  1
  Si  Si8  1  0.818556  0.818556  0.000000  1
  Si  Si9  1  0.181444  0.000000  0.000000  1
  Si  Si10  1  0.000000  0.181444  0.000000  1
  Si  Si11  1  0.176439  0.479915  0.500000  1
  Si  Si12  1  0.520085  0.696524  0.500000  1
  Si  Si13  1  0.303476  0.823561  0.500000  1
  Si  Si14  1  0.696524  0.520085  0.500000  1
  Si  Si15  1  0.823561  0.303476  0.500000  1
  Si  Si16  1  0.479915  0.176439  0.500000  1
  Si  Si17  1  0.356455  0.356455  0.000000  1
  Si  Si18  1  0.643545  0.000000  0.000000  1
  Si  Si19  1  0.000000  0.643545  0.000000  1
  Rh  Rh20  1  0.722344  0.722344  0.500000  1
  Rh  Rh21  1  0.277656  0.000000  0.500000  1
  Rh  Rh22  1  0.000000  0.277656  0.500000  1
  Rh  Rh23  1  0.180407  0.372905  0.000000  1
  Rh  Rh24  1  0.627095  0.807502  0.000000  1
  Rh  Rh25  1  0.192498  0.819593  0.000000  1
  Rh  Rh26  1  0.807502  0.627095  0.000000  1
  Rh  Rh27  1  0.819593  0.192498  0.000000  1
  Rh  Rh28  1  0.372905  0.180407  0.000000  1
  Rh  Rh29  1  0.364882  0.489249  0.500000  1
  Rh  Rh30  1  0.510751  0.875634  0.500000  1
  Rh  Rh31  1  0.124366  0.635118  0.500000  1
  Rh  Rh32  1  0.875634  0.510751  0.500000  1
  Rh  Rh33  1  0.635118  0.124366  0.500000  1
  Rh  Rh34  1  0.489249  0.364882  0.500000  1
  Rh  Rh35  1  0.000000  0.000000  0.000000  1
