# generated using pymatgen
data_Nd3Y2Pa(Al3Os)8
_symmetry_space_group_name_H-M   'P 1'
_cell_length_a   8.85099100
_cell_length_b   8.89426329
_cell_length_c   9.62362500
_cell_angle_alpha   90.00000000
_cell_angle_beta   90.00000000
_cell_angle_gamma   119.83917972
_symmetry_Int_Tables_number   1
_chemical_formula_structural   Nd3Y2Pa(Al3Os)8
_chemical_formula_sum   'Nd3 Y2 Pa1 Al24 Os8'
_cell_volume   657.16240954
_cell_formula_units_Z   1
loop_
 _symmetry_equiv_pos_site_id
 _symmetry_equiv_pos_as_xyz
  1  'x, y, z'
loop_
 _atom_site_type_symbol
 _atom_site_label
 _atom_site_symmetry_multiplicity
 _atom_site_fract_x
 _atom_site_fract_y
 _atom_site_fract_z
 _atom_site_occupancy
  Nd  Nd0  1  0.809111  0.618222  0.750000  1
  Nd  Nd1  1  0.384643  0.190204  0.750000  1
  Nd  Nd2  1  0.805561  0.190204  0.750000  1
  Y  Y3  1  0.611641  0.803741  0.250000  1
  Y  Y4  1  0.192100  0.803741  0.250000  1
  Pa  Pa5  1  0.197392  0.394786  0.250000  1
  Al  Al6  1  0.336551  0.673103  0.019168  1
  Al  Al7  1  0.667398  0.334795  0.987406  1
  Al  Al8  1  0.667398  0.334795  0.512594  1
  Al  Al9  1  0.336551  0.673103  0.480832  1
  Al  Al10  1  0.163781  0.327563  0.573192  1
  Al  Al11  1  0.837026  0.674052  0.423090  1
  Al  Al12  1  0.671127  0.835087  0.571381  1
  Al  Al13  1  0.837026  0.674052  0.076910  1
  Al  Al14  1  0.325518  0.161734  0.421781  1
  Al  Al15  1  0.163781  0.327563  0.926808  1
  Al  Al16  1  0.163960  0.835087  0.571381  1
  Al  Al17  1  0.325518  0.161734  0.078219  1
  Al  Al18  1  0.836216  0.161734  0.421781  1
  Al  Al19  1  0.671127  0.835087  0.928619  1
  Al  Al20  1  0.836216  0.161734  0.078219  1
  Al  Al21  1  0.163960  0.835087  0.928619  1
  Al  Al22  1  0.558929  0.117857  0.250000  1
  Al  Al23  1  0.436173  0.872345  0.750000  1
  Al  Al24  1  0.873648  0.437987  0.250000  1
  Al  Al25  1  0.123399  0.561055  0.750000  1
  Al  Al26  1  0.564341  0.437987  0.250000  1
  Al  Al27  1  0.437656  0.561055  0.750000  1
  Al  Al28  1  0.002439  0.004878  0.250000  1
  Al  Al29  1  0.000269  0.000538  0.750000  1
  Os  Os30  1  0.500597  0.001195  0.000850  1
  Os  Os31  1  0.005198  0.499996  0.007491  1
  Os  Os32  1  0.500597  0.001195  0.499150  1
  Os  Os33  1  0.494798  0.499996  0.007491  1
  Os  Os34  1  0.005198  0.499996  0.492509  1
  Os  Os35  1  0.494798  0.499996  0.492509  1
  Os  Os36  1  0.999179  0.998358  0.000243  1
  Os  Os37  1  0.999179  0.998358  0.499757  1
