# generated using pymatgen
data_Er11In9(CoAu)2
_symmetry_space_group_name_H-M   'P 1'
_cell_length_a   12.98850576
_cell_length_b   13.01615897
_cell_length_c   3.63099900
_cell_angle_alpha   90.00000000
_cell_angle_beta   90.00000000
_cell_angle_gamma   110.40695040
_symmetry_Int_Tables_number   1
_chemical_formula_structural   Er11In9(CoAu)2
_chemical_formula_sum   'Er11 In9 Co2 Au2'
_cell_volume   575.33241063
_cell_formula_units_Z   1
loop_
 _symmetry_equiv_pos_site_id
 _symmetry_equiv_pos_as_xyz
  1  'x, y, z'
loop_
 _atom_site_type_symbol
 _atom_site_label
 _atom_site_symmetry_multiplicity
 _atom_site_fract_x
 _atom_site_fract_y
 _atom_site_fract_z
 _atom_site_occupancy
  Er  Er0  1  0.069491  0.417486  0.000000  1
  Er  Er1  1  0.930509  0.582514  0.000000  1
  Er  Er2  1  0.420352  0.078504  0.000000  1
  Er  Er3  1  0.579648  0.921496  0.000000  1
  Er  Er4  1  0.613270  0.357951  0.000000  1
  Er  Er5  1  0.386730  0.642049  0.000000  1
  Er  Er6  1  0.839912  0.156199  0.000000  1
  Er  Er7  1  0.160088  0.843801  0.000000  1
  Er  Er8  1  0.000000  0.000000  0.000000  1
  Er  Er9  1  0.320603  0.300632  0.000000  1
  Er  Er10  1  0.679397  0.699368  0.000000  1
  In  In11  1  0.843045  0.364365  0.500000  1
  In  In12  1  0.156955  0.635635  0.500000  1
  In  In13  1  0.368590  0.844362  0.500000  1
  In  In14  1  0.631410  0.155638  0.500000  1
  In  In15  1  0.071097  0.214699  0.500000  1
  In  In16  1  0.928903  0.785301  0.500000  1
  In  In17  1  0.219358  0.074398  0.500000  1
  In  In18  1  0.780642  0.925602  0.500000  1
  In  In19  1  0.500000  0.500000  0.500000  1
  Co  Co20  1  0.450032  0.240677  0.500000  1
  Co  Co21  1  0.549968  0.759323  0.500000  1
  Au  Au22  1  0.253374  0.452187  0.500000  1
  Au  Au23  1  0.746626  0.547813  0.500000  1
