# generated using pymatgen
data_Pr19SmSi15Ge
_symmetry_space_group_name_H-M   'P 1'
_cell_length_a   7.93678868
_cell_length_b   7.93216251
_cell_length_c   15.31905300
_cell_angle_alpha   89.94537798
_cell_angle_beta   89.67500552
_cell_angle_gamma   90.13736995
_symmetry_Int_Tables_number   1
_chemical_formula_structural   Pr19SmSi15Ge
_chemical_formula_sum   'Pr19 Sm1 Si15 Ge1'
_cell_volume   964.40599431
_cell_formula_units_Z   1
loop_
 _symmetry_equiv_pos_site_id
 _symmetry_equiv_pos_as_xyz
  1  'x, y, z'
loop_
 _atom_site_type_symbol
 _atom_site_label
 _atom_site_symmetry_multiplicity
 _atom_site_fract_x
 _atom_site_fract_y
 _atom_site_fract_z
 _atom_site_occupancy
  Pr  Pr0  1  0.189918  0.809149  0.249905  1
  Pr  Pr1  1  0.806267  0.189765  0.751236  1
  Pr  Pr2  1  0.690760  0.690117  0.498571  1
  Pr  Pr3  1  0.378050  0.011054  0.447486  1
  Pr  Pr4  1  0.490073  0.876448  0.698152  1
  Pr  Pr5  1  0.510669  0.121812  0.197019  1
  Pr  Pr6  1  0.878064  0.487846  0.301591  1
  Pr  Pr7  1  0.121955  0.512458  0.803241  1
  Pr  Pr8  1  0.622805  0.987812  0.948740  1
  Pr  Pr9  1  0.008731  0.379853  0.551339  1
  Pr  Pr10  1  0.988692  0.621770  0.052506  1
  Pr  Pr11  1  0.127587  0.981193  0.877540  1
  Pr  Pr12  1  0.519460  0.628618  0.125990  1
  Pr  Pr13  1  0.482302  0.374353  0.626777  1
  Pr  Pr14  1  0.628443  0.519521  0.874697  1
  Pr  Pr15  1  0.372233  0.480921  0.372989  1
  Pr  Pr16  1  0.872931  0.019213  0.376510  1
  Pr  Pr17  1  0.981343  0.126986  0.123289  1
  Pr  Pr18  1  0.017045  0.871880  0.622673  1
  Sm  Sm19  1  0.310949  0.310355  0.999974  1
  Si  Si20  1  0.331221  0.694064  0.953309  1
  Si  Si21  1  0.665965  0.303471  0.452383  1
  Si  Si22  1  0.695065  0.331637  0.047474  1
  Si  Si23  1  0.303692  0.667552  0.547701  1
  Si  Si24  1  0.804176  0.831966  0.202816  1
  Si  Si25  1  0.167719  0.196047  0.296683  1
  Si  Si26  1  0.834322  0.803208  0.797774  1
  Si  Si27  1  0.288554  0.923717  0.059390  1
  Si  Si28  1  0.578098  0.788309  0.309428  1
  Si  Si29  1  0.423358  0.212211  0.813235  1
  Si  Si30  1  0.788138  0.578937  0.690202  1
  Si  Si31  1  0.213526  0.419905  0.188309  1
  Si  Si32  1  0.710303  0.078608  0.560090  1
  Si  Si33  1  0.924562  0.289109  0.941001  1
  Si  Si34  1  0.079269  0.712492  0.439860  1
  Ge  Ge35  1  0.193752  0.167647  0.700116  1
