# generated using pymatgen
data_Na2Hg2(TeO4)3
_symmetry_space_group_name_H-M   'P 1'
_cell_length_a   6.38177300
_cell_length_b   6.56487003
_cell_length_c   14.38102448
_cell_angle_alpha   65.71872334
_cell_angle_beta   90.00000000
_cell_angle_gamma   90.00000000
_symmetry_Int_Tables_number   1
_chemical_formula_structural   Na2Hg2(TeO4)3
_chemical_formula_sum   'Na4 Hg4 Te6 O24'
_cell_volume   549.20179420
_cell_formula_units_Z   2
loop_
 _symmetry_equiv_pos_site_id
 _symmetry_equiv_pos_as_xyz
  1  'x, y, z'
loop_
 _atom_site_type_symbol
 _atom_site_label
 _atom_site_symmetry_multiplicity
 _atom_site_fract_x
 _atom_site_fract_y
 _atom_site_fract_z
 _atom_site_occupancy
  Na  Na0  1  0.861867  0.880188  0.796245  1
  Na  Na1  1  0.638133  0.880188  0.296245  1
  Na  Na2  1  0.361867  0.119812  0.703755  1
  Na  Na3  1  0.138133  0.119812  0.203755  1
  Hg  Hg4  1  0.542016  0.298471  0.396598  1
  Hg  Hg5  1  0.957984  0.298471  0.896598  1
  Hg  Hg6  1  0.042016  0.701529  0.103402  1
  Hg  Hg7  1  0.457984  0.701529  0.603402  1
  Te  Te8  1  0.595999  0.404822  0.107798  1
  Te  Te9  1  0.095999  0.595178  0.392202  1
  Te  Te10  1  0.404001  0.595178  0.892202  1
  Te  Te11  1  0.500000  0.000000  0.000000  1
  Te  Te12  1  0.904001  0.404822  0.607798  1
  Te  Te13  1  0.000000  0.000000  0.500000  1
  O  O14  1  0.223062  0.995392  0.058451  1
  O  O15  1  0.871503  0.111393  0.596492  1
  O  O16  1  0.776938  0.004608  0.941549  1
  O  O17  1  0.882115  0.393053  0.149344  1
  O  O18  1  0.276938  0.995392  0.558451  1
  O  O19  1  0.062382  0.296429  0.389208  1
  O  O20  1  0.371503  0.888607  0.903508  1
  O  O21  1  0.316398  0.447792  0.039235  1
  O  O22  1  0.026869  0.247970  0.735362  1
  O  O23  1  0.437618  0.296429  0.889208  1
  O  O24  1  0.723062  0.004608  0.441549  1
  O  O25  1  0.628497  0.111393  0.096492  1
  O  O26  1  0.562382  0.703571  0.110792  1
  O  O27  1  0.473131  0.247970  0.235362  1
  O  O28  1  0.937618  0.703571  0.610792  1
  O  O29  1  0.526869  0.752030  0.764638  1
  O  O30  1  0.183602  0.447792  0.539235  1
  O  O31  1  0.382115  0.606947  0.350656  1
  O  O32  1  0.117885  0.606947  0.850656  1
  O  O33  1  0.128497  0.888607  0.403508  1
  O  O34  1  0.816398  0.552208  0.460765  1
  O  O35  1  0.683602  0.552208  0.960765  1
  O  O36  1  0.973131  0.752030  0.264638  1
  O  O37  1  0.617885  0.393053  0.649344  1
