# generated using pymatgen
data_Er3AlIn2GePt2
_symmetry_space_group_name_H-M   'P 1'
_cell_length_a   7.42367980
_cell_length_b   7.39135513
_cell_length_c   4.06448000
_cell_angle_alpha   90.00000000
_cell_angle_beta   90.00000000
_cell_angle_gamma   120.91079409
_symmetry_Int_Tables_number   1
_chemical_formula_structural   Er3AlIn2GePt2
_chemical_formula_sum   'Er3 Al1 In2 Ge1 Pt2'
_cell_volume   191.34602926
_cell_formula_units_Z   1
loop_
 _symmetry_equiv_pos_site_id
 _symmetry_equiv_pos_as_xyz
  1  'x, y, z'
loop_
 _atom_site_type_symbol
 _atom_site_label
 _atom_site_symmetry_multiplicity
 _atom_site_fract_x
 _atom_site_fract_y
 _atom_site_fract_z
 _atom_site_occupancy
  Er  Er0  1  0.594643  0.004988  0.500000  1
  Er  Er1  1  0.419111  0.411797  0.500000  1
  Er  Er2  1  0.989831  0.588420  0.500000  1
  Al  Al3  1  0.760862  0.746259  0.000000  1
  In  In4  1  0.990295  0.248230  0.000000  1
  In  In5  1  0.255054  0.006146  0.000000  1
  Ge  Ge6  1  0.346360  0.669558  0.000000  1
  Pt  Pt7  1  0.670796  0.351259  0.000000  1
  Pt  Pt8  1  0.973049  0.973345  0.500000  1
