# generated using pymatgen
data_Er2TmAuO7
_symmetry_space_group_name_H-M   'P 1'
_cell_length_a   6.43349030
_cell_length_b   6.43165713
_cell_length_c   7.36813300
_cell_angle_alpha   90.00000000
_cell_angle_beta   90.00000000
_cell_angle_gamma   108.78361420
_symmetry_Int_Tables_number   1
_chemical_formula_structural   Er2TmAuO7
_chemical_formula_sum   'Er4 Tm2 Au2 O14'
_cell_volume   288.64122134
_cell_formula_units_Z   2
loop_
 _symmetry_equiv_pos_site_id
 _symmetry_equiv_pos_as_xyz
  1  'x, y, z'
loop_
 _atom_site_type_symbol
 _atom_site_label
 _atom_site_symmetry_multiplicity
 _atom_site_fract_x
 _atom_site_fract_y
 _atom_site_fract_z
 _atom_site_occupancy
  Er  Er0  1  0.528720  0.997900  0.750099  1
  Er  Er1  1  0.471280  0.002100  0.250099  1
  Er  Er2  1  0.500486  0.500483  0.500001  1
  Er  Er3  1  0.499514  0.499517  0.000001  1
  Tm  Tm4  1  0.001868  0.471297  0.749902  1
  Tm  Tm5  1  0.998132  0.528703  0.249902  1
  Au  Au6  1  0.000026  0.000028  0.500002  1
  Au  Au7  1  0.999974  0.999972  0.000002  1
  O  O8  1  0.640259  0.361757  0.750001  1
  O  O9  1  0.359741  0.638243  0.250001  1
  O  O10  1  0.918644  0.083363  0.749997  1
  O  O11  1  0.081356  0.916637  0.249997  1
  O  O12  1  0.917034  0.666663  0.524726  1
  O  O13  1  0.082966  0.333337  0.024726  1
  O  O14  1  0.332778  0.084481  0.975257  1
  O  O15  1  0.667222  0.915519  0.475257  1
  O  O16  1  0.365571  0.631982  0.749999  1
  O  O17  1  0.634429  0.368018  0.249999  1
  O  O18  1  0.917363  0.666930  0.975107  1
  O  O19  1  0.082637  0.333070  0.475107  1
  O  O20  1  0.332507  0.084143  0.524909  1
  O  O21  1  0.667493  0.915857  0.024909  1
