# generated using pymatgen
data_Cs3Sr(MnN2)4
_symmetry_space_group_name_H-M   'P 1'
_cell_length_a   7.23149266
_cell_length_b   7.23149267
_cell_length_c   7.95556964
_cell_angle_alpha   91.40011740
_cell_angle_beta   88.59988394
_cell_angle_gamma   133.05581870
_symmetry_Int_Tables_number   1
_chemical_formula_structural   Cs3Sr(MnN2)4
_chemical_formula_sum   'Cs3 Sr1 Mn4 N8'
_cell_volume   303.88241582
_cell_formula_units_Z   1
loop_
 _symmetry_equiv_pos_site_id
 _symmetry_equiv_pos_as_xyz
  1  'x, y, z'
loop_
 _atom_site_type_symbol
 _atom_site_label
 _atom_site_symmetry_multiplicity
 _atom_site_fract_x
 _atom_site_fract_y
 _atom_site_fract_z
 _atom_site_occupancy
  Cs  Cs0  1  0.829240  0.170760  0.560517  1
  Cs  Cs1  1  0.159355  0.840645  0.439137  1
  Cs  Cs2  1  0.675499  0.324501  0.053329  1
  Sr  Sr3  1  0.402339  0.597661  0.957742  1
  Mn  Mn4  1  0.531510  0.468490  0.631672  1
  Mn  Mn5  1  0.457630  0.542370  0.367026  1
  Mn  Mn6  1  0.959385  0.040615  0.135415  1
  Mn  Mn7  1  0.032559  0.967441  0.862888  1
  N  N8  1  0.902003  0.097997  0.929711  1
  N  N9  1  0.088136  0.911864  0.067296  1
  N  N10  1  0.586178  0.413822  0.422344  1
  N  N11  1  0.402177  0.597823  0.580182  1
  N  N12  1  0.311176  0.196223  0.751295  1
  N  N13  1  0.184598  0.325561  0.245075  1
  N  N14  1  0.674439  0.815402  0.245075  1
  N  N15  1  0.803777  0.688824  0.751295  1
