# generated using pymatgen
data_AsOF8
_symmetry_space_group_name_H-M   'P 1'
_cell_length_a   5.55519900
_cell_length_b   7.29568206
_cell_length_c   10.08154786
_cell_angle_alpha   44.59627122
_cell_angle_beta   90.00000000
_cell_angle_gamma   90.00000000
_symmetry_Int_Tables_number   1
_chemical_formula_structural   AsOF8
_chemical_formula_sum   'As2 O2 F16'
_cell_volume   286.87708691
_cell_formula_units_Z   2
loop_
 _symmetry_equiv_pos_site_id
 _symmetry_equiv_pos_as_xyz
  1  'x, y, z'
loop_
 _atom_site_type_symbol
 _atom_site_label
 _atom_site_symmetry_multiplicity
 _atom_site_fract_x
 _atom_site_fract_y
 _atom_site_fract_z
 _atom_site_occupancy
  As  As0  1  0.998067  0.500000  0.750000  1
  As  As1  1  0.001933  0.500000  0.250000  1
  O  O2  1  0.356494  0.000000  0.750000  1
  O  O3  1  0.643506  0.000000  0.250000  1
  F  F4  1  0.492114  0.849171  0.405419  1
  F  F5  1  0.507886  0.849171  0.905419  1
  F  F6  1  0.492114  0.150829  0.094581  1
  F  F7  1  0.507886  0.150829  0.594581  1
  F  F8  1  0.764075  0.344477  0.239447  1
  F  F9  1  0.002560  0.241187  0.998903  1
  F  F10  1  0.235925  0.344477  0.739447  1
  F  F11  1  0.222157  0.336519  0.240115  1
  F  F12  1  0.764075  0.655523  0.260553  1
  F  F13  1  0.777843  0.663481  0.759885  1
  F  F14  1  0.997440  0.241187  0.498903  1
  F  F15  1  0.777843  0.336519  0.740115  1
  F  F16  1  0.235925  0.655523  0.760553  1
  F  F17  1  0.002560  0.758813  0.501097  1
  F  F18  1  0.997440  0.758813  0.001097  1
  F  F19  1  0.222157  0.663481  0.259885  1
