# generated using pymatgen
data_SmDy15(HoPb4)4
_symmetry_space_group_name_H-M   'P 1'
_cell_length_a   8.21142206
_cell_length_b   8.28478604
_cell_length_c   15.64118474
_cell_angle_alpha   90.01536218
_cell_angle_beta   89.73776148
_cell_angle_gamma   89.89316873
_symmetry_Int_Tables_number   1
_chemical_formula_structural   SmDy15(HoPb4)4
_chemical_formula_sum   'Sm1 Dy15 Ho4 Pb16'
_cell_volume   1064.05480479
_cell_formula_units_Z   1
loop_
 _symmetry_equiv_pos_site_id
 _symmetry_equiv_pos_as_xyz
  1  'x, y, z'
loop_
 _atom_site_type_symbol
 _atom_site_label
 _atom_site_symmetry_multiplicity
 _atom_site_fract_x
 _atom_site_fract_y
 _atom_site_fract_z
 _atom_site_occupancy
  Sm  Sm0  1  0.967562  0.823049  0.598162  1
  Dy  Dy1  1  0.623809  0.158680  0.621374  1
  Dy  Dy2  1  0.121995  0.341499  0.880055  1
  Dy  Dy3  1  0.378440  0.842263  0.121230  1
  Dy  Dy4  1  0.875504  0.657957  0.378129  1
  Dy  Dy5  1  0.375740  0.841471  0.378522  1
  Dy  Dy6  1  0.877973  0.658155  0.121143  1
  Dy  Dy7  1  0.621518  0.158389  0.879319  1
  Dy  Dy8  1  0.123274  0.341505  0.621162  1
  Dy  Dy9  1  0.464497  0.675057  0.599570  1
  Dy  Dy10  1  0.962876  0.824132  0.899432  1
  Dy  Dy11  1  0.536643  0.324578  0.100536  1
  Dy  Dy12  1  0.035085  0.176360  0.400127  1
  Dy  Dy13  1  0.534946  0.323899  0.400236  1
  Dy  Dy14  1  0.036961  0.175538  0.100344  1
  Dy  Dy15  1  0.463471  0.675429  0.900418  1
  Ho  Ho16  1  0.790110  0.495879  0.750619  1
  Ho  Ho17  1  0.290402  0.004539  0.750774  1
  Ho  Ho18  1  0.209442  0.504108  0.249855  1
  Ho  Ho19  1  0.709545  0.995739  0.249308  1
  Pb  Pb20  1  0.715757  0.967442  0.455566  1
  Pb  Pb21  1  0.219329  0.534239  0.043265  1
  Pb  Pb22  1  0.280475  0.032415  0.957618  1
  Pb  Pb23  1  0.781305  0.464484  0.542170  1
  Pb  Pb24  1  0.286174  0.036995  0.542213  1
  Pb  Pb25  1  0.780395  0.466460  0.957879  1
  Pb  Pb26  1  0.719681  0.966423  0.042532  1
  Pb  Pb27  1  0.217038  0.533893  0.457071  1
  Pb  Pb28  1  0.426921  0.374307  0.750360  1
  Pb  Pb29  1  0.927131  0.126384  0.750294  1
  Pb  Pb30  1  0.572391  0.625570  0.249800  1
  Pb  Pb31  1  0.072802  0.874634  0.249827  1
  Pb  Pb32  1  0.650528  0.845858  0.749964  1
  Pb  Pb33  1  0.153230  0.652857  0.750818  1
  Pb  Pb34  1  0.348450  0.154659  0.250329  1
  Pb  Pb35  1  0.848603  0.345152  0.249980  1
