# generated using pymatgen
data_ZnCd(Ni7B2)3
_symmetry_space_group_name_H-M   'P 1'
_cell_length_a   7.44385536
_cell_length_b   7.44385550
_cell_length_c   7.43969206
_cell_angle_alpha   60.00768761
_cell_angle_beta   60.00768457
_cell_angle_gamma   59.99203911
_symmetry_Int_Tables_number   1
_chemical_formula_structural   ZnCd(Ni7B2)3
_chemical_formula_sum   'Zn1 Cd1 Ni21 B6'
_cell_volume   291.51447503
_cell_formula_units_Z   1
loop_
 _symmetry_equiv_pos_site_id
 _symmetry_equiv_pos_as_xyz
  1  'x, y, z'
loop_
 _atom_site_type_symbol
 _atom_site_label
 _atom_site_symmetry_multiplicity
 _atom_site_fract_x
 _atom_site_fract_y
 _atom_site_fract_z
 _atom_site_occupancy
  Zn  Zn0  1  0.249941  0.249941  0.250099  1
  Cd  Cd1  1  0.749999  0.749999  0.749975  1
  Ni  Ni2  1  0.999982  0.999982  0.000060  1
  Ni  Ni3  1  0.611277  0.611277  0.165914  1
  Ni  Ni4  1  0.611572  0.165760  0.611291  1
  Ni  Ni5  1  0.165760  0.611572  0.611291  1
  Ni  Ni6  1  0.611288  0.611288  0.611503  1
  Ni  Ni7  1  0.381054  0.381054  0.857037  1
  Ni  Ni8  1  0.380869  0.857126  0.380990  1
  Ni  Ni9  1  0.857126  0.380869  0.380990  1
  Ni  Ni10  1  0.381016  0.381016  0.380877  1
  Ni  Ni11  1  0.000626  0.000626  0.335899  1
  Ni  Ni12  1  0.662685  0.000596  0.335949  1
  Ni  Ni13  1  0.000596  0.662685  0.335949  1
  Ni  Ni14  1  0.662915  0.335873  0.000639  1
  Ni  Ni15  1  0.000814  0.335930  0.000551  1
  Ni  Ni16  1  0.000778  0.335864  0.662722  1
  Ni  Ni17  1  0.335873  0.662915  0.000639  1
  Ni  Ni18  1  0.335864  0.000778  0.662722  1
  Ni  Ni19  1  0.335930  0.000814  0.000551  1
  Ni  Ni20  1  0.000625  0.000625  0.662954  1
  Ni  Ni21  1  0.000617  0.662710  0.000797  1
  Ni  Ni22  1  0.662710  0.000617  0.000797  1
  B  B23  1  0.726585  0.726585  0.273432  1
  B  B24  1  0.273126  0.726902  0.273142  1
  B  B25  1  0.726902  0.273126  0.273142  1
  B  B26  1  0.273477  0.273477  0.726503  1
  B  B27  1  0.726824  0.273174  0.726794  1
  B  B28  1  0.273174  0.726824  0.726794  1
