# generated using pymatgen
data_Y7PuAlPd24
_symmetry_space_group_name_H-M   'P 1'
_cell_length_a   8.37071084
_cell_length_b   8.37071066
_cell_length_c   8.37071100
_cell_angle_alpha   89.93232552
_cell_angle_beta   90.06767448
_cell_angle_gamma   90.06767223
_symmetry_Int_Tables_number   1
_chemical_formula_structural   Y7PuAlPd24
_chemical_formula_sum   'Y7 Pu1 Al1 Pd24'
_cell_volume   586.52443582
_cell_formula_units_Z   1
loop_
 _symmetry_equiv_pos_site_id
 _symmetry_equiv_pos_as_xyz
  1  'x, y, z'
loop_
 _atom_site_type_symbol
 _atom_site_label
 _atom_site_symmetry_multiplicity
 _atom_site_fract_x
 _atom_site_fract_y
 _atom_site_fract_z
 _atom_site_occupancy
  Y  Y0  1  0.251109  0.251773  0.251773  1
  Y  Y1  1  0.748188  0.747988  0.747988  1
  Y  Y2  1  0.748227  0.748891  0.251773  1
  Y  Y3  1  0.748227  0.251773  0.748891  1
  Y  Y4  1  0.252012  0.251812  0.747988  1
  Y  Y5  1  0.252012  0.747988  0.251812  1
  Y  Y6  1  0.251911  0.748089  0.748089  1
  Pu  Pu7  1  0.747861  0.252139  0.252139  1
  Al  Al8  1  0.000450  0.999550  0.999550  1
  Pd  Pd9  1  0.259609  0.499842  0.999782  1
  Pd  Pd10  1  0.740164  0.498543  0.002212  1
  Pd  Pd11  1  0.997788  0.259836  0.498543  1
  Pd  Pd12  1  0.501457  0.259836  0.002212  1
  Pd  Pd13  1  0.000218  0.740391  0.499842  1
  Pd  Pd14  1  0.500158  0.740391  0.999782  1
  Pd  Pd15  1  0.501457  0.002212  0.259836  1
  Pd  Pd16  1  0.259609  0.999782  0.499842  1
  Pd  Pd17  1  0.500158  0.999782  0.740391  1
  Pd  Pd18  1  0.740164  0.002212  0.498543  1
  Pd  Pd19  1  0.997788  0.498543  0.259836  1
  Pd  Pd20  1  0.000218  0.499842  0.740391  1
  Pd  Pd21  1  0.252864  0.499928  0.499928  1
  Pd  Pd22  1  0.747116  0.499159  0.499159  1
  Pd  Pd23  1  0.500841  0.252884  0.499159  1
  Pd  Pd24  1  0.500072  0.747136  0.499928  1
  Pd  Pd25  1  0.500841  0.499159  0.252884  1
  Pd  Pd26  1  0.500072  0.499928  0.747136  1
  Pd  Pd27  1  0.289301  0.999898  0.999898  1
  Pd  Pd28  1  0.710754  0.000425  0.000425  1
  Pd  Pd29  1  0.999575  0.289246  0.000425  1
  Pd  Pd30  1  0.000102  0.710699  0.999898  1
  Pd  Pd31  1  0.999575  0.000425  0.289246  1
  Pd  Pd32  1  0.000102  0.999898  0.710699  1
