# generated using pymatgen
data_Mg6Cu4Si7Pd12
_symmetry_space_group_name_H-M   'P 1'
_cell_length_a   8.50493352
_cell_length_b   8.50493440
_cell_length_c   8.50493328
_cell_angle_alpha   60.08222544
_cell_angle_beta   60.08221865
_cell_angle_gamma   60.08222830
_symmetry_Int_Tables_number   1
_chemical_formula_structural   Mg6Cu4Si7Pd12
_chemical_formula_sum   'Mg6 Cu4 Si7 Pd12'
_cell_volume   435.81909479
_cell_formula_units_Z   1
loop_
 _symmetry_equiv_pos_site_id
 _symmetry_equiv_pos_as_xyz
  1  'x, y, z'
loop_
 _atom_site_type_symbol
 _atom_site_label
 _atom_site_symmetry_multiplicity
 _atom_site_fract_x
 _atom_site_fract_y
 _atom_site_fract_z
 _atom_site_occupancy
  Mg  Mg0  1  0.294265  0.707164  0.294265  1
  Mg  Mg1  1  0.297794  0.704370  0.704370  1
  Mg  Mg2  1  0.707164  0.294265  0.294265  1
  Mg  Mg3  1  0.704370  0.704370  0.297794  1
  Mg  Mg4  1  0.294265  0.294265  0.707164  1
  Mg  Mg5  1  0.704370  0.297794  0.704370  1
  Cu  Cu6  1  0.333559  0.000868  0.333559  1
  Cu  Cu7  1  0.333559  0.333559  0.000868  1
  Cu  Cu8  1  0.000868  0.333559  0.333559  1
  Cu  Cu9  1  0.665855  0.665855  0.665855  1
  Si  Si10  1  0.000575  0.000575  0.000575  1
  Si  Si11  1  0.000037  0.497512  0.000037  1
  Si  Si12  1  0.497512  0.000037  0.000037  1
  Si  Si13  1  0.999573  0.499392  0.499392  1
  Si  Si14  1  0.499392  0.999573  0.499392  1
  Si  Si15  1  0.000037  0.000037  0.497512  1
  Si  Si16  1  0.499392  0.499392  0.999573  1
  Pd  Pd17  1  0.120734  0.120734  0.120734  1
  Pd  Pd18  1  0.351832  0.878747  0.878747  1
  Pd  Pd19  1  0.878747  0.351832  0.878747  1
  Pd  Pd20  1  0.878747  0.878747  0.351832  1
  Pd  Pd21  1  0.115142  0.641234  0.115142  1
  Pd  Pd22  1  0.115142  0.115142  0.641234  1
  Pd  Pd23  1  0.641234  0.115142  0.115142  1
  Pd  Pd24  1  0.883157  0.883157  0.883157  1
  Pd  Pd25  1  0.340252  0.340252  0.340252  1
  Pd  Pd26  1  0.027127  0.657650  0.657650  1
  Pd  Pd27  1  0.657650  0.027127  0.657650  1
  Pd  Pd28  1  0.657650  0.657650  0.027127  1
