# generated using pymatgen
data_LaPr3Dy6(Sn5Rh2)4
_symmetry_space_group_name_H-M   'P 1'
_cell_length_a   14.17078001
_cell_length_b   14.17078001
_cell_length_c   4.56638700
_cell_angle_alpha   90.00000000
_cell_angle_beta   90.00000000
_cell_angle_gamma   89.99623979
_symmetry_Int_Tables_number   1
_chemical_formula_structural   LaPr3Dy6(Sn5Rh2)4
_chemical_formula_sum   'La1 Pr3 Dy6 Sn20 Rh8'
_cell_volume   916.98076539
_cell_formula_units_Z   1
loop_
 _symmetry_equiv_pos_site_id
 _symmetry_equiv_pos_as_xyz
  1  'x, y, z'
loop_
 _atom_site_type_symbol
 _atom_site_label
 _atom_site_symmetry_multiplicity
 _atom_site_fract_x
 _atom_site_fract_y
 _atom_site_fract_z
 _atom_site_occupancy
  La  La0  1  0.888224  0.388224  0.500000  1
  Pr  Pr1  1  0.111746  0.611746  0.500000  1
  Pr  Pr2  1  0.387996  0.111988  0.500000  1
  Pr  Pr3  1  0.611988  0.887996  0.500000  1
  Dy  Dy4  1  0.500026  0.500044  0.000000  1
  Dy  Dy5  1  0.000044  0.000026  0.000000  1
  Dy  Dy6  1  0.677323  0.177323  0.500000  1
  Dy  Dy7  1  0.322642  0.822642  0.500000  1
  Dy  Dy8  1  0.177222  0.322768  0.500000  1
  Dy  Dy9  1  0.822768  0.677222  0.500000  1
  Sn  Sn10  1  0.570411  0.070411  0.000000  1
  Sn  Sn11  1  0.429625  0.929625  0.000000  1
  Sn  Sn12  1  0.070900  0.429699  0.000000  1
  Sn  Sn13  1  0.929699  0.570900  0.000000  1
  Sn  Sn14  1  0.654173  0.698179  0.000000  1
  Sn  Sn15  1  0.345754  0.301845  0.000000  1
  Sn  Sn16  1  0.154299  0.802006  0.000000  1
  Sn  Sn17  1  0.845512  0.197671  0.000000  1
  Sn  Sn18  1  0.302006  0.654299  0.000000  1
  Sn  Sn19  1  0.697671  0.345512  0.000000  1
  Sn  Sn20  1  0.198179  0.154173  0.000000  1
  Sn  Sn21  1  0.801845  0.845754  0.000000  1
  Sn  Sn22  1  0.661152  0.505892  0.500000  1
  Sn  Sn23  1  0.338675  0.494180  0.500000  1
  Sn  Sn24  1  0.161268  0.994233  0.500000  1
  Sn  Sn25  1  0.838765  0.005785  0.500000  1
  Sn  Sn26  1  0.494233  0.661268  0.500000  1
  Sn  Sn27  1  0.505785  0.338765  0.500000  1
  Sn  Sn28  1  0.005892  0.161152  0.500000  1
  Sn  Sn29  1  0.994180  0.838675  0.500000  1
  Rh  Rh30  1  0.745914  0.529367  0.000000  1
  Rh  Rh31  1  0.254161  0.470706  0.000000  1
  Rh  Rh32  1  0.246097  0.970506  0.000000  1
  Rh  Rh33  1  0.753883  0.029363  0.000000  1
  Rh  Rh34  1  0.470506  0.746097  0.000000  1
  Rh  Rh35  1  0.529363  0.253883  0.000000  1
  Rh  Rh36  1  0.029367  0.245914  0.000000  1
  Rh  Rh37  1  0.970706  0.754161  0.000000  1
