# generated using pymatgen
data_Tm4MnGaRu6
_symmetry_space_group_name_H-M   'P 1'
_cell_length_a   5.41790993
_cell_length_b   5.16281128
_cell_length_c   8.78270500
_cell_angle_alpha   90.00000000
_cell_angle_beta   90.00000000
_cell_angle_gamma   121.51533342
_symmetry_Int_Tables_number   1
_chemical_formula_structural   Tm4MnGaRu6
_chemical_formula_sum   'Tm4 Mn1 Ga1 Ru6'
_cell_volume   209.43095287
_cell_formula_units_Z   1
loop_
 _symmetry_equiv_pos_site_id
 _symmetry_equiv_pos_as_xyz
  1  'x, y, z'
loop_
 _atom_site_type_symbol
 _atom_site_label
 _atom_site_symmetry_multiplicity
 _atom_site_fract_x
 _atom_site_fract_y
 _atom_site_fract_z
 _atom_site_occupancy
  Tm  Tm0  1  0.672148  0.344072  0.567632  1
  Tm  Tm1  1  0.331172  0.662693  0.435597  1
  Tm  Tm2  1  0.331172  0.662693  0.064403  1
  Tm  Tm3  1  0.672148  0.344072  0.932368  1
  Mn  Mn4  1  0.153686  0.307845  0.750000  1
  Ga  Ga5  1  0.834846  0.669830  0.250000  1
  Ru  Ru6  1  0.009405  0.017968  0.503987  1
  Ru  Ru7  1  0.009405  0.017968  0.996013  1
  Ru  Ru8  1  0.178228  0.821048  0.750000  1
  Ru  Ru9  1  0.642530  0.821385  0.750000  1
  Ru  Ru10  1  0.818711  0.165336  0.250000  1
  Ru  Ru11  1  0.346549  0.165091  0.250000  1
