# generated using pymatgen
data_Dy7Er(Ta3Ge4)4
_symmetry_space_group_name_H-M   'P 1'
_cell_length_a   7.00204527
_cell_length_b   7.15984548
_cell_length_c   13.54831771
_cell_angle_alpha   90.00397121
_cell_angle_beta   90.00083245
_cell_angle_gamma   89.99662782
_symmetry_Int_Tables_number   1
_chemical_formula_structural   Dy7Er(Ta3Ge4)4
_chemical_formula_sum   'Dy7 Er1 Ta12 Ge16'
_cell_volume   679.22542505
_cell_formula_units_Z   1
loop_
 _symmetry_equiv_pos_site_id
 _symmetry_equiv_pos_as_xyz
  1  'x, y, z'
loop_
 _atom_site_type_symbol
 _atom_site_label
 _atom_site_symmetry_multiplicity
 _atom_site_fract_x
 _atom_site_fract_y
 _atom_site_fract_z
 _atom_site_occupancy
  Dy  Dy0  1  0.495484  0.326419  0.094243  1
  Dy  Dy1  1  0.995512  0.173535  0.405790  1
  Dy  Dy2  1  0.504573  0.673394  0.594253  1
  Dy  Dy3  1  0.004488  0.826572  0.905964  1
  Dy  Dy4  1  0.504460  0.673599  0.905972  1
  Dy  Dy5  1  0.004537  0.826425  0.594218  1
  Dy  Dy6  1  0.495431  0.326445  0.405474  1
  Er  Er7  1  0.994954  0.173994  0.094272  1
  Ta  Ta8  1  0.664575  0.014409  0.750138  1
  Ta  Ta9  1  0.164554  0.485416  0.750118  1
  Ta  Ta10  1  0.335451  0.985713  0.249812  1
  Ta  Ta11  1  0.835610  0.514449  0.249868  1
  Ta  Ta12  1  0.840293  0.330204  0.626175  1
  Ta  Ta13  1  0.340149  0.169821  0.873985  1
  Ta  Ta14  1  0.159733  0.670039  0.126072  1
  Ta  Ta15  1  0.659849  0.830462  0.373720  1
  Ta  Ta16  1  0.159597  0.669723  0.373693  1
  Ta  Ta17  1  0.659978  0.830367  0.125991  1
  Ta  Ta18  1  0.840673  0.329835  0.874071  1
  Ta  Ta19  1  0.340394  0.169793  0.626123  1
  Ge  Ge20  1  0.805431  0.640336  0.750161  1
  Ge  Ge21  1  0.305370  0.859525  0.750103  1
  Ge  Ge22  1  0.194089  0.358947  0.249506  1
  Ge  Ge23  1  0.695160  0.140555  0.249651  1
  Ge  Ge24  1  0.540192  0.378855  0.750174  1
  Ge  Ge25  1  0.040209  0.120957  0.750009  1
  Ge  Ge26  1  0.459865  0.621167  0.249865  1
  Ge  Ge27  1  0.960025  0.879395  0.249730  1
  Ge  Ge28  1  0.676199  0.038715  0.541789  1
  Ge  Ge29  1  0.176077  0.460918  0.958455  1
  Ge  Ge30  1  0.322618  0.962117  0.042117  1
  Ge  Ge31  1  0.823697  0.538695  0.458089  1
  Ge  Ge32  1  0.323842  0.961102  0.458079  1
  Ge  Ge33  1  0.824081  0.538031  0.042035  1
  Ge  Ge34  1  0.676625  0.038786  0.958457  1
  Ge  Ge35  1  0.176229  0.461284  0.541829  1
