# generated using pymatgen
data_Pr9Nd3(SiI3)4
_symmetry_space_group_name_H-M   'P 1'
_cell_length_a   10.90274475
_cell_length_b   10.90268100
_cell_length_c   10.90274559
_cell_angle_alpha   109.48486240
_cell_angle_beta   109.47557873
_cell_angle_gamma   109.48485956
_symmetry_Int_Tables_number   1
_chemical_formula_structural   Pr9Nd3(SiI3)4
_chemical_formula_sum   'Pr9 Nd3 Si4 I12'
_cell_volume   997.27157757
_cell_formula_units_Z   1
loop_
 _symmetry_equiv_pos_site_id
 _symmetry_equiv_pos_as_xyz
  1  'x, y, z'
loop_
 _atom_site_type_symbol
 _atom_site_label
 _atom_site_symmetry_multiplicity
 _atom_site_fract_x
 _atom_site_fract_y
 _atom_site_fract_z
 _atom_site_occupancy
  Pr  Pr0  1  0.465532  0.482776  0.231938  1
  Pr  Pr1  1  0.268062  0.017224  0.034468  1
  Pr  Pr2  1  0.232847  0.465278  0.482577  1
  Pr  Pr3  1  0.017423  0.034722  0.267153  1
  Pr  Pr4  1  0.017224  0.482942  0.749713  1
  Pr  Pr5  1  0.483516  0.232973  0.465653  1
  Pr  Pr6  1  0.750287  0.017058  0.482776  1
  Pr  Pr7  1  0.034347  0.267027  0.016484  1
  Pr  Pr8  1  0.266842  0.750000  0.233158  1
  Nd  Nd9  1  0.481287  0.750000  0.018713  1
  Nd  Nd10  1  0.749892  0.230757  0.268287  1
  Nd  Nd11  1  0.231713  0.269243  0.750108  1
  Si  Si12  1  0.250293  0.250000  0.249707  1
  Si  Si13  1  0.000048  0.250000  0.499952  1
  Si  Si14  1  0.249779  0.500264  0.999888  1
  Si  Si15  1  0.500112  0.999736  0.250221  1
  I  I16  1  0.995747  0.987342  0.741973  1
  I  I17  1  0.755557  0.742183  0.246674  1
  I  I18  1  0.985143  0.742782  0.992010  1
  I  I19  1  0.250299  0.995006  0.509361  1
  I  I20  1  0.740331  0.992521  0.986671  1
  I  I21  1  0.507699  0.250000  0.992301  1
  I  I22  1  0.742706  0.250000  0.757294  1
  I  I23  1  0.507990  0.757218  0.514857  1
  I  I24  1  0.758027  0.512658  0.504253  1
  I  I25  1  0.253326  0.757817  0.744443  1
  I  I26  1  0.513329  0.507479  0.759669  1
  I  I27  1  0.990639  0.504994  0.249701  1
