# generated using pymatgen
data_ScPaFeB6
_symmetry_space_group_name_H-M   'P 1'
_cell_length_a   3.50079200
_cell_length_b   8.95739800
_cell_length_c   11.31483700
_cell_angle_alpha   90.00000000
_cell_angle_beta   90.00000000
_cell_angle_gamma   90.00000000
_symmetry_Int_Tables_number   1
_chemical_formula_structural   ScPaFeB6
_chemical_formula_sum   'Sc4 Pa4 Fe4 B24'
_cell_volume   354.81051449
_cell_formula_units_Z   4
loop_
 _symmetry_equiv_pos_site_id
 _symmetry_equiv_pos_as_xyz
  1  'x, y, z'
loop_
 _atom_site_type_symbol
 _atom_site_label
 _atom_site_symmetry_multiplicity
 _atom_site_fract_x
 _atom_site_fract_y
 _atom_site_fract_z
 _atom_site_occupancy
  Sc  Sc0  1  0.000000  0.944434  0.372265  1
  Sc  Sc1  1  0.000000  0.055566  0.627735  1
  Sc  Sc2  1  0.000000  0.444434  0.127735  1
  Sc  Sc3  1  0.000000  0.555566  0.872265  1
  Pa  Pa4  1  0.000000  0.323255  0.414294  1
  Pa  Pa5  1  0.000000  0.676745  0.585706  1
  Pa  Pa6  1  0.000000  0.823255  0.085706  1
  Pa  Pa7  1  0.000000  0.176745  0.914294  1
  Fe  Fe8  1  0.000000  0.642180  0.318211  1
  Fe  Fe9  1  0.000000  0.357820  0.681789  1
  Fe  Fe10  1  0.000000  0.142180  0.181789  1
  Fe  Fe11  1  0.000000  0.857820  0.818211  1
  B  B12  1  0.500000  0.554275  0.431905  1
  B  B13  1  0.500000  0.445725  0.568095  1
  B  B14  1  0.500000  0.054275  0.068095  1
  B  B15  1  0.500000  0.945725  0.931905  1
  B  B16  1  0.500000  0.751972  0.417629  1
  B  B17  1  0.500000  0.248028  0.582371  1
  B  B18  1  0.500000  0.251972  0.082371  1
  B  B19  1  0.500000  0.748028  0.917629  1
  B  B20  1  0.500000  0.794381  0.265871  1
  B  B21  1  0.500000  0.205619  0.734129  1
  B  B22  1  0.500000  0.294381  0.234129  1
  B  B23  1  0.500000  0.705619  0.765871  1
  B  B24  1  0.500000  0.630929  0.183652  1
  B  B25  1  0.500000  0.369071  0.816348  1
  B  B26  1  0.500000  0.130929  0.316348  1
  B  B27  1  0.500000  0.869071  0.683652  1
  B  B28  1  0.500000  0.984001  0.214471  1
  B  B29  1  0.500000  0.015999  0.785529  1
  B  B30  1  0.500000  0.484001  0.285529  1
  B  B31  1  0.500000  0.515999  0.714471  1
  B  B32  1  0.500000  0.600400  0.027172  1
  B  B33  1  0.500000  0.399600  0.972828  1
  B  B34  1  0.500000  0.100400  0.472828  1
  B  B35  1  0.500000  0.899600  0.527172  1
