# generated using pymatgen
data_TbHo5Mn16(CoP6)2
_symmetry_space_group_name_H-M   'P 1'
_cell_length_a   3.63043900
_cell_length_b   10.85173300
_cell_length_c   12.61619400
_cell_angle_alpha   90.00000000
_cell_angle_beta   90.00000000
_cell_angle_gamma   90.00000000
_symmetry_Int_Tables_number   1
_chemical_formula_structural   TbHo5Mn16(CoP6)2
_chemical_formula_sum   'Tb1 Ho5 Mn16 Co2 P12'
_cell_volume   497.03457704
_cell_formula_units_Z   1
loop_
 _symmetry_equiv_pos_site_id
 _symmetry_equiv_pos_as_xyz
  1  'x, y, z'
loop_
 _atom_site_type_symbol
 _atom_site_label
 _atom_site_symmetry_multiplicity
 _atom_site_fract_x
 _atom_site_fract_y
 _atom_site_fract_z
 _atom_site_occupancy
  Tb  Tb0  1  0.000000  0.500000  0.531470  1
  Ho  Ho1  1  0.500000  0.000000  0.468604  1
  Ho  Ho2  1  0.500000  0.822891  0.206882  1
  Ho  Ho3  1  0.500000  0.177109  0.206882  1
  Ho  Ho4  1  0.000000  0.677209  0.793203  1
  Ho  Ho5  1  0.000000  0.322791  0.793203  1
  Mn  Mn6  1  0.000000  0.500000  0.991780  1
  Mn  Mn7  1  0.500000  0.000000  0.008250  1
  Mn  Mn8  1  0.500000  0.297876  0.432046  1
  Mn  Mn9  1  0.500000  0.702124  0.432046  1
  Mn  Mn10  1  0.000000  0.201493  0.567790  1
  Mn  Mn11  1  0.000000  0.798507  0.567790  1
  Mn  Mn12  1  0.500000  0.881309  0.703121  1
  Mn  Mn13  1  0.500000  0.118691  0.703121  1
  Mn  Mn14  1  0.000000  0.618993  0.296726  1
  Mn  Mn15  1  0.000000  0.381007  0.296726  1
  Mn  Mn16  1  0.500000  0.332877  0.996659  1
  Mn  Mn17  1  0.500000  0.667123  0.996659  1
  Mn  Mn18  1  0.000000  0.167080  0.003343  1
  Mn  Mn19  1  0.000000  0.832920  0.003343  1
  Mn  Mn20  1  0.500000  0.500000  0.165022  1
  Mn  Mn21  1  0.000000  0.000000  0.834852  1
  Co  Co22  1  0.500000  0.500000  0.705360  1
  Co  Co23  1  0.000000  0.000000  0.295241  1
  P  P24  1  0.500000  0.317536  0.618991  1
  P  P25  1  0.500000  0.682464  0.618991  1
  P  P26  1  0.000000  0.181689  0.381294  1
  P  P27  1  0.000000  0.818311  0.381294  1
  P  P28  1  0.500000  0.500000  0.880021  1
  P  P29  1  0.000000  0.000000  0.120159  1
  P  P30  1  0.500000  0.845177  0.885352  1
  P  P31  1  0.500000  0.154823  0.885352  1
  P  P32  1  0.000000  0.654876  0.114642  1
  P  P33  1  0.000000  0.345124  0.114642  1
  P  P34  1  0.500000  0.500000  0.357677  1
  P  P35  1  0.000000  0.000000  0.641465  1
