# generated using pymatgen
data_Yb5Cd3(SiO4)4
_symmetry_space_group_name_H-M   'P 1'
_cell_length_a   5.09694301
_cell_length_b   6.65027872
_cell_length_c   11.25270935
_cell_angle_alpha   90.09244711
_cell_angle_beta   90.03262927
_cell_angle_gamma   89.86102378
_symmetry_Int_Tables_number   1
_chemical_formula_structural   Yb5Cd3(SiO4)4
_chemical_formula_sum   'Yb5 Cd3 Si4 O16'
_cell_volume   381.42118797
_cell_formula_units_Z   1
loop_
 _symmetry_equiv_pos_site_id
 _symmetry_equiv_pos_as_xyz
  1  'x, y, z'
loop_
 _atom_site_type_symbol
 _atom_site_label
 _atom_site_symmetry_multiplicity
 _atom_site_fract_x
 _atom_site_fract_y
 _atom_site_fract_z
 _atom_site_occupancy
  Yb  Yb0  1  0.490732  0.750966  0.778550  1
  Yb  Yb1  1  0.991204  0.251412  0.721829  1
  Yb  Yb2  1  0.509268  0.249034  0.221450  1
  Yb  Yb3  1  0.008796  0.748588  0.278171  1
  Yb  Yb4  1  0.000000  0.000000  0.000000  1
  Cd  Cd5  1  0.500000  0.500000  0.500000  1
  Cd  Cd6  1  0.000000  0.500000  0.000000  1
  Cd  Cd7  1  0.500000  0.000000  0.500000  1
  Si  Si8  1  0.925585  0.750401  0.596657  1
  Si  Si9  1  0.425922  0.250770  0.903769  1
  Si  Si10  1  0.074415  0.249599  0.403343  1
  Si  Si11  1  0.574078  0.749230  0.096231  1
  O  O12  1  0.204521  0.447714  0.336423  1
  O  O13  1  0.704052  0.551245  0.164371  1
  O  O14  1  0.795985  0.948518  0.664655  1
  O  O15  1  0.289873  0.052211  0.839201  1
  O  O16  1  0.795479  0.552286  0.663577  1
  O  O17  1  0.295948  0.448755  0.835629  1
  O  O18  1  0.204015  0.051482  0.335345  1
  O  O19  1  0.710127  0.947789  0.160799  1
  O  O20  1  0.800481  0.750722  0.458609  1
  O  O21  1  0.299843  0.251588  0.041266  1
  O  O22  1  0.199519  0.249278  0.541391  1
  O  O23  1  0.700157  0.748412  0.958734  1
  O  O24  1  0.252278  0.755639  0.095888  1
  O  O25  1  0.752003  0.249788  0.403390  1
  O  O26  1  0.747722  0.244361  0.904112  1
  O  O27  1  0.247997  0.750212  0.596610  1
