# generated using pymatgen
data_Th3Al3ZnCo2
_symmetry_space_group_name_H-M   'P 1'
_cell_length_a   7.02562700
_cell_length_b   7.02562722
_cell_length_c   4.22238900
_cell_angle_alpha   90.00000000
_cell_angle_beta   90.00000000
_cell_angle_gamma   119.99999426
_symmetry_Int_Tables_number   1
_chemical_formula_structural   Th3Al3ZnCo2
_chemical_formula_sum   'Th3 Al3 Zn1 Co2'
_cell_volume   180.49247047
_cell_formula_units_Z   1
loop_
 _symmetry_equiv_pos_site_id
 _symmetry_equiv_pos_as_xyz
  1  'x, y, z'
loop_
 _atom_site_type_symbol
 _atom_site_label
 _atom_site_symmetry_multiplicity
 _atom_site_fract_x
 _atom_site_fract_y
 _atom_site_fract_z
 _atom_site_occupancy
  Th  Th0  1  0.600517  0.018655  0.000000  1
  Th  Th1  1  0.981345  0.581862  0.000000  1
  Th  Th2  1  0.418138  0.399483  0.000000  1
  Al  Al3  1  0.231117  0.005618  0.500000  1
  Al  Al4  1  0.994382  0.225499  0.500000  1
  Al  Al5  1  0.774501  0.768883  0.500000  1
  Zn  Zn6  1  0.333333  0.666667  0.500000  1
  Co  Co7  1  0.666667  0.333333  0.500000  1
  Co  Co8  1  0.000000  0.000000  0.000000  1
