# generated using pymatgen
data_Nb4Co2RhSe12
_symmetry_space_group_name_H-M   'P 1'
_cell_length_a   7.30871982
_cell_length_b   7.30871906
_cell_length_c   19.42117100
_cell_angle_alpha   70.34886249
_cell_angle_beta   70.34886497
_cell_angle_gamma   26.71151463
_symmetry_Int_Tables_number   1
_chemical_formula_structural   Nb4Co2RhSe12
_chemical_formula_sum   'Nb4 Co2 Rh1 Se12'
_cell_volume   437.58159594
_cell_formula_units_Z   1
loop_
 _symmetry_equiv_pos_site_id
 _symmetry_equiv_pos_as_xyz
  1  'x, y, z'
loop_
 _atom_site_type_symbol
 _atom_site_label
 _atom_site_symmetry_multiplicity
 _atom_site_fract_x
 _atom_site_fract_y
 _atom_site_fract_z
 _atom_site_occupancy
  Nb  Nb0  1  0.740628  0.740628  0.592944  1
  Nb  Nb1  1  0.259372  0.259372  0.407056  1
  Nb  Nb2  1  0.618545  0.618545  0.852274  1
  Nb  Nb3  1  0.381455  0.381455  0.147726  1
  Co  Co4  1  0.774021  0.774021  0.280638  1
  Co  Co5  1  0.225979  0.225979  0.719362  1
  Rh  Rh6  1  0.000000  0.000000  0.000000  1
  Se  Se7  1  0.867373  0.867373  0.452905  1
  Se  Se8  1  0.032113  0.032113  0.116364  1
  Se  Se9  1  0.801448  0.801448  0.767761  1
  Se  Se10  1  0.395797  0.395797  0.279466  1
  Se  Se11  1  0.181957  0.181957  0.929864  1
  Se  Se12  1  0.604203  0.604203  0.720534  1
  Se  Se13  1  0.132627  0.132627  0.547095  1
  Se  Se14  1  0.818043  0.818043  0.070136  1
  Se  Se15  1  0.367407  0.367407  0.610650  1
  Se  Se16  1  0.967887  0.967887  0.883636  1
  Se  Se17  1  0.198552  0.198552  0.232239  1
  Se  Se18  1  0.632593  0.632593  0.389350  1
