# generated using pymatgen
data_NaPa3Ge6Rh7
_symmetry_space_group_name_H-M   'P 1'
_cell_length_a   7.30145900
_cell_length_b   7.30145965
_cell_length_c   7.30145901
_cell_angle_alpha   109.58232246
_cell_angle_beta   109.58233208
_cell_angle_gamma   109.58232232
_symmetry_Int_Tables_number   1
_chemical_formula_structural   NaPa3Ge6Rh7
_chemical_formula_sum   'Na1 Pa3 Ge6 Rh7'
_cell_volume   298.40607529
_cell_formula_units_Z   1
loop_
 _symmetry_equiv_pos_site_id
 _symmetry_equiv_pos_as_xyz
  1  'x, y, z'
loop_
 _atom_site_type_symbol
 _atom_site_label
 _atom_site_symmetry_multiplicity
 _atom_site_fract_x
 _atom_site_fract_y
 _atom_site_fract_z
 _atom_site_occupancy
  Na  Na0  1  0.500000  0.500000  0.500000  1
  Pa  Pa1  1  0.000000  0.000000  0.500000  1
  Pa  Pa2  1  0.000000  0.500000  0.000000  1
  Pa  Pa3  1  0.500000  0.000000  0.000000  1
  Ge  Ge4  1  0.679745  0.679745  0.989293  1
  Ge  Ge5  1  0.320255  0.010707  0.320255  1
  Ge  Ge6  1  0.010707  0.320255  0.320255  1
  Ge  Ge7  1  0.320255  0.320255  0.010707  1
  Ge  Ge8  1  0.679745  0.989293  0.679745  1
  Ge  Ge9  1  0.989293  0.679745  0.679745  1
  Rh  Rh10  1  0.753171  0.246829  0.500000  1
  Rh  Rh11  1  0.753171  0.500000  0.246829  1
  Rh  Rh12  1  0.500000  0.246829  0.753171  1
  Rh  Rh13  1  0.246829  0.500000  0.753171  1
  Rh  Rh14  1  0.246829  0.753171  0.500000  1
  Rh  Rh15  1  0.500000  0.753171  0.246829  1
  Rh  Rh16  1  0.000000  0.000000  0.000000  1
