# generated using pymatgen
data_LiS23
_symmetry_space_group_name_H-M   'P 1'
_cell_length_a   5.70365022
_cell_length_b   9.77815881
_cell_length_c   15.89745700
_cell_angle_alpha   90.71282889
_cell_angle_beta   79.22883227
_cell_angle_gamma   98.13659886
_symmetry_Int_Tables_number   1
_chemical_formula_structural   LiS23
_chemical_formula_sum   'Li1 S23'
_cell_volume   862.14179407
_cell_formula_units_Z   1
loop_
 _symmetry_equiv_pos_site_id
 _symmetry_equiv_pos_as_xyz
  1  'x, y, z'
loop_
 _atom_site_type_symbol
 _atom_site_label
 _atom_site_symmetry_multiplicity
 _atom_site_fract_x
 _atom_site_fract_y
 _atom_site_fract_z
 _atom_site_occupancy
  Li  Li0  1  0.453447  0.362469  0.461774  1
  S  S1  1  0.544883  0.784363  0.389842  1
  S  S2  1  0.017668  0.299042  0.110119  1
  S  S3  1  0.767273  0.227777  0.475732  1
  S  S4  1  0.315386  0.750121  0.506738  1
  S  S5  1  0.214024  0.270435  0.989827  1
  S  S6  1  0.788225  0.728437  0.011771  1
  S  S7  1  0.195935  0.336084  0.358999  1
  S  S8  1  0.642878  0.596185  0.346159  1
  S  S9  1  0.811491  0.113707  0.153314  1
  S  S10  1  0.201109  0.883628  0.119555  1
  S  S11  1  0.695579  0.638664  0.622489  1
  S  S12  1  0.353658  0.324132  0.631821  1
  S  S13  1  0.199852  0.885954  0.852384  1
  S  S14  1  0.806337  0.113293  0.879883  1
  S  S15  1  0.988311  0.698955  0.103923  1
  S  S16  1  0.508572  0.798193  0.603402  1
  S  S17  1  0.624788  0.199293  0.602463  1
  S  S18  1  0.990301  0.700006  0.892352  1
  S  S19  1  0.011126  0.299457  0.898320  1
  S  S20  1  0.372508  0.499488  0.284556  1
  S  S21  1  0.014102  0.998707  0.211938  1
  S  S22  1  0.475332  0.490351  0.703026  1
  S  S23  1  0.007211  0.001258  0.789611  1
