# generated using pymatgen
data_ThFe3P3Rh2
_symmetry_space_group_name_H-M   'P 1'
_cell_length_a   3.82387400
_cell_length_b   10.54257600
_cell_length_c   12.28408000
_cell_angle_alpha   90.00000000
_cell_angle_beta   90.00000000
_cell_angle_gamma   90.00000000
_symmetry_Int_Tables_number   1
_chemical_formula_structural   ThFe3P3Rh2
_chemical_formula_sum   'Th4 Fe12 P12 Rh8'
_cell_volume   495.21404115
_cell_formula_units_Z   4
loop_
 _symmetry_equiv_pos_site_id
 _symmetry_equiv_pos_as_xyz
  1  'x, y, z'
loop_
 _atom_site_type_symbol
 _atom_site_label
 _atom_site_symmetry_multiplicity
 _atom_site_fract_x
 _atom_site_fract_y
 _atom_site_fract_z
 _atom_site_occupancy
  Th  Th0  1  0.250000  0.581036  0.709816  1
  Th  Th1  1  0.250000  0.918964  0.209816  1
  Th  Th2  1  0.750000  0.418964  0.290184  1
  Th  Th3  1  0.750000  0.081036  0.790184  1
  Fe  Fe4  1  0.250000  0.226351  0.170036  1
  Fe  Fe5  1  0.250000  0.273649  0.670036  1
  Fe  Fe6  1  0.750000  0.773649  0.829964  1
  Fe  Fe7  1  0.750000  0.726351  0.329964  1
  Fe  Fe8  1  0.250000  0.879395  0.697619  1
  Fe  Fe9  1  0.250000  0.620605  0.197619  1
  Fe  Fe10  1  0.750000  0.120605  0.302381  1
  Fe  Fe11  1  0.750000  0.379395  0.802381  1
  Fe  Fe12  1  0.250000  0.461358  0.933369  1
  Fe  Fe13  1  0.250000  0.038642  0.433369  1
  Fe  Fe14  1  0.750000  0.538642  0.066631  1
  Fe  Fe15  1  0.750000  0.961358  0.566631  1
  P  P16  1  0.250000  0.429796  0.108541  1
  P  P17  1  0.250000  0.070204  0.608541  1
  P  P18  1  0.750000  0.570204  0.891459  1
  P  P19  1  0.750000  0.929796  0.391459  1
  P  P20  1  0.250000  0.280558  0.853385  1
  P  P21  1  0.250000  0.219442  0.353385  1
  P  P22  1  0.750000  0.719442  0.146615  1
  P  P23  1  0.750000  0.780558  0.646615  1
  P  P24  1  0.250000  0.611976  0.379299  1
  P  P25  1  0.250000  0.888024  0.879299  1
  P  P26  1  0.750000  0.388024  0.620701  1
  P  P27  1  0.750000  0.111976  0.120701  1
  Rh  Rh28  1  0.250000  0.708763  0.987482  1
  Rh  Rh29  1  0.250000  0.791237  0.487482  1
  Rh  Rh30  1  0.750000  0.291237  0.012518  1
  Rh  Rh31  1  0.750000  0.208763  0.512518  1
  Rh  Rh32  1  0.250000  0.404914  0.480421  1
  Rh  Rh33  1  0.250000  0.095086  0.980421  1
  Rh  Rh34  1  0.750000  0.595086  0.519579  1
  Rh  Rh35  1  0.750000  0.904914  0.019579  1
