# generated using pymatgen
data_AgMo(S2O7)2
_symmetry_space_group_name_H-M   'P 1'
_cell_length_a   5.17435461
_cell_length_b   6.95151304
_cell_length_c   9.46548483
_cell_angle_alpha   90.88316375
_cell_angle_beta   96.14715085
_cell_angle_gamma   105.27008542
_symmetry_Int_Tables_number   1
_chemical_formula_structural   AgMo(S2O7)2
_chemical_formula_sum   'Ag1 Mo1 S4 O14'
_cell_volume   326.22303886
_cell_formula_units_Z   1
loop_
 _symmetry_equiv_pos_site_id
 _symmetry_equiv_pos_as_xyz
  1  'x, y, z'
loop_
 _atom_site_type_symbol
 _atom_site_label
 _atom_site_symmetry_multiplicity
 _atom_site_fract_x
 _atom_site_fract_y
 _atom_site_fract_z
 _atom_site_occupancy
  Ag  Ag0  1  0.000000  0.500000  0.000000  1
  Mo  Mo1  1  0.500000  0.000000  0.500000  1
  S  S2  1  0.468326  0.645205  0.752049  1
  S  S3  1  0.531674  0.354795  0.247951  1
  S  S4  1  0.127475  0.243611  0.677039  1
  S  S5  1  0.872525  0.756389  0.322961  1
  O  O6  1  0.656686  0.544063  0.817067  1
  O  O7  1  0.343314  0.455937  0.182933  1
  O  O8  1  0.302605  0.719508  0.840448  1
  O  O9  1  0.697395  0.280492  0.159552  1
  O  O10  1  0.588670  0.787170  0.646295  1
  O  O11  1  0.411330  0.212830  0.353705  1
  O  O12  1  0.248388  0.472030  0.634918  1
  O  O13  1  0.751612  0.527970  0.365082  1
  O  O14  1  0.905520  0.181003  0.560266  1
  O  O15  1  0.094480  0.818997  0.439734  1
  O  O16  1  0.341513  0.142045  0.661470  1
  O  O17  1  0.658487  0.857955  0.338530  1
  O  O18  1  0.053557  0.238265  0.819037  1
  O  O19  1  0.946443  0.761735  0.180963  1
