# generated using pymatgen
data_Nb12Al9CrNiRuC4
_symmetry_space_group_name_H-M   'P 1'
_cell_length_a   8.29111983
_cell_length_b   8.30011603
_cell_length_c   8.33336600
_cell_angle_alpha   60.25343122
_cell_angle_beta   60.16755647
_cell_angle_gamma   60.03585263
_symmetry_Int_Tables_number   1
_chemical_formula_structural   Nb12Al9CrNiRuC4
_chemical_formula_sum   'Nb12 Al9 Cr1 Ni1 Ru1 C4'
_cell_volume   406.90690630
_cell_formula_units_Z   1
loop_
 _symmetry_equiv_pos_site_id
 _symmetry_equiv_pos_as_xyz
  1  'x, y, z'
loop_
 _atom_site_type_symbol
 _atom_site_label
 _atom_site_symmetry_multiplicity
 _atom_site_fract_x
 _atom_site_fract_y
 _atom_site_fract_z
 _atom_site_occupancy
  Nb  Nb0  1  0.808650  0.809571  0.181639  1
  Nb  Nb1  1  0.188884  0.188363  0.812733  1
  Nb  Nb2  1  0.811377  0.184358  0.812759  1
  Nb  Nb3  1  0.199254  0.808535  0.185564  1
  Nb  Nb4  1  0.182673  0.813885  0.814781  1
  Nb  Nb5  1  0.807509  0.198714  0.187047  1
  Nb  Nb6  1  0.441350  0.440429  0.068361  1
  Nb  Nb7  1  0.061116  0.061637  0.437267  1
  Nb  Nb8  1  0.438623  0.065642  0.437241  1
  Nb  Nb9  1  0.050746  0.441465  0.064436  1
  Nb  Nb10  1  0.067327  0.436115  0.435219  1
  Nb  Nb11  1  0.442491  0.051286  0.062953  1
  Al  Al12  1  0.625000  0.125000  0.625000  1
  Al  Al13  1  0.749187  0.427817  0.416979  1
  Al  Al14  1  0.417314  0.751462  0.419989  1
  Al  Al15  1  0.411067  0.426581  0.758428  1
  Al  Al16  1  0.412588  0.426367  0.414069  1
  Al  Al17  1  0.500813  0.822183  0.833021  1
  Al  Al18  1  0.832686  0.498538  0.830011  1
  Al  Al19  1  0.838933  0.823419  0.491572  1
  Al  Al20  1  0.837412  0.823633  0.835931  1
  Cr  Cr21  1  0.625000  0.625000  0.125000  1
  Ni  Ni22  1  0.625000  0.625000  0.625000  1
  Ru  Ru23  1  0.125000  0.625000  0.625000  1
  C  C24  1  0.625000  0.125000  0.125000  1
  C  C25  1  0.125000  0.625000  0.125000  1
  C  C26  1  0.125000  0.125000  0.625000  1
  C  C27  1  0.125000  0.125000  0.125000  1
