# generated using pymatgen
data_La7Pr(As2Au)8
_symmetry_space_group_name_H-M   'P 1'
_cell_length_a   5.91260600
_cell_length_b   5.97302804
_cell_length_c   20.87306814
_cell_angle_alpha   90.01332329
_cell_angle_beta   89.99979185
_cell_angle_gamma   89.99990360
_symmetry_Int_Tables_number   1
_chemical_formula_structural   La7Pr(As2Au)8
_chemical_formula_sum   'La7 Pr1 As16 Au8'
_cell_volume   737.15662407
_cell_formula_units_Z   1
loop_
 _symmetry_equiv_pos_site_id
 _symmetry_equiv_pos_as_xyz
  1  'x, y, z'
loop_
 _atom_site_type_symbol
 _atom_site_label
 _atom_site_symmetry_multiplicity
 _atom_site_fract_x
 _atom_site_fract_y
 _atom_site_fract_z
 _atom_site_occupancy
  La  La0  1  0.249994  0.985000  0.621317  1
  La  La1  1  0.749992  0.015011  0.378642  1
  La  La2  1  0.749999  0.985355  0.878832  1
  La  La3  1  0.249994  0.015201  0.121381  1
  La  La4  1  0.750003  0.486663  0.616582  1
  La  La5  1  0.250013  0.513448  0.383288  1
  La  La6  1  0.249990  0.486677  0.883219  1
  Pr  Pr7  1  0.750002  0.513398  0.117002  1
  As  As8  1  0.750002  0.985878  0.662441  1
  As  As9  1  0.249998  0.013986  0.337535  1
  As  As10  1  0.249999  0.985982  0.837633  1
  As  As11  1  0.750003  0.013867  0.161813  1
  As  As12  1  0.250002  0.485581  0.660839  1
  As  As13  1  0.750005  0.514364  0.339184  1
  As  As14  1  0.749999  0.485653  0.839214  1
  As  As15  1  0.250000  0.514244  0.160167  1
  As  As16  1  0.032828  0.216376  0.500822  1
  As  As17  1  0.532625  0.783614  0.499206  1
  As  As18  1  0.967227  0.217515  0.999625  1
  As  As19  1  0.468651  0.782241  0.001201  1
  As  As20  1  0.967376  0.783611  0.499206  1
  As  As21  1  0.467172  0.216373  0.500822  1
  As  As22  1  0.031351  0.782244  0.001201  1
  As  As23  1  0.532773  0.217517  0.999624  1
  Au  Au24  1  0.500028  0.730452  0.749969  1
  Au  Au25  1  0.999959  0.269740  0.249852  1
  Au  Au26  1  0.500041  0.269741  0.249852  1
  Au  Au27  1  0.999972  0.730450  0.749970  1
  Au  Au28  1  0.499999  0.234176  0.749963  1
  Au  Au29  1  0.999867  0.765734  0.249818  1
  Au  Au30  1  0.500132  0.765735  0.249818  1
  Au  Au31  1  0.000003  0.234175  0.749963  1
