# generated using pymatgen
data_Th3Cu3(Ni5B)2
_symmetry_space_group_name_H-M   'P 1'
_cell_length_a   5.06714957
_cell_length_b   5.06629113
_cell_length_c   10.98595101
_cell_angle_alpha   90.00335190
_cell_angle_beta   89.99899374
_cell_angle_gamma   119.99113493
_symmetry_Int_Tables_number   1
_chemical_formula_structural   Th3Cu3(Ni5B)2
_chemical_formula_sum   'Th3 Cu3 Ni10 B2'
_cell_volume   244.26483174
_cell_formula_units_Z   1
loop_
 _symmetry_equiv_pos_site_id
 _symmetry_equiv_pos_as_xyz
  1  'x, y, z'
loop_
 _atom_site_type_symbol
 _atom_site_label
 _atom_site_symmetry_multiplicity
 _atom_site_fract_x
 _atom_site_fract_y
 _atom_site_fract_z
 _atom_site_occupancy
  Th  Th0  1  0.000037  0.999885  0.000491  1
  Th  Th1  1  0.999917  0.000106  0.339505  1
  Th  Th2  1  0.999943  0.000037  0.667510  1
  Cu  Cu3  1  0.333250  0.666763  0.316295  1
  Cu  Cu4  1  0.666628  0.333405  0.316014  1
  Cu  Cu5  1  0.666570  0.333284  0.682992  1
  Ni  Ni6  1  0.499607  0.999106  0.499833  1
  Ni  Ni7  1  0.499208  0.500419  0.499836  1
  Ni  Ni8  1  0.000970  0.500920  0.499855  1
  Ni  Ni9  1  0.333414  0.666797  0.681605  1
  Ni  Ni10  1  0.499787  0.999732  0.130783  1
  Ni  Ni11  1  0.500068  0.500221  0.130831  1
  Ni  Ni12  1  0.000250  0.499925  0.130778  1
  Ni  Ni13  1  0.499270  0.998213  0.868275  1
  Ni  Ni14  1  0.499157  0.500660  0.868250  1
  Ni  Ni15  1  0.001759  0.500727  0.868189  1
  B  B16  1  0.333292  0.666517  0.999406  1
  B  B17  1  0.666776  0.333283  0.999548  1
