# generated using pymatgen
data_TiCo2Si2Os
_symmetry_space_group_name_H-M   'P 1'
_cell_length_a   3.70382000
_cell_length_b   5.91260300
_cell_length_c   6.82392400
_cell_angle_alpha   90.00000000
_cell_angle_beta   90.00000000
_cell_angle_gamma   90.00000000
_symmetry_Int_Tables_number   1
_chemical_formula_structural   TiCo2Si2Os
_chemical_formula_sum   'Ti2 Co4 Si4 Os2'
_cell_volume   149.43859413
_cell_formula_units_Z   2
loop_
 _symmetry_equiv_pos_site_id
 _symmetry_equiv_pos_as_xyz
  1  'x, y, z'
loop_
 _atom_site_type_symbol
 _atom_site_label
 _atom_site_symmetry_multiplicity
 _atom_site_fract_x
 _atom_site_fract_y
 _atom_site_fract_z
 _atom_site_occupancy
  Ti  Ti0  1  0.250000  0.518248  0.687643  1
  Ti  Ti1  1  0.750000  0.981752  0.187643  1
  Co  Co2  1  0.250000  0.651030  0.056798  1
  Co  Co3  1  0.750000  0.365030  0.934971  1
  Co  Co4  1  0.250000  0.134970  0.434971  1
  Co  Co5  1  0.750000  0.848970  0.556798  1
  Si  Si6  1  0.750000  0.749091  0.875074  1
  Si  Si7  1  0.250000  0.750909  0.375074  1
  Si  Si8  1  0.750000  0.219932  0.620191  1
  Si  Si9  1  0.250000  0.280068  0.120191  1
  Os  Os10  1  0.250000  0.032646  0.825322  1
  Os  Os11  1  0.750000  0.467354  0.325322  1
