# generated using pymatgen
data_Al3GaRu2
_symmetry_space_group_name_H-M   'P 1'
_cell_length_a   5.99138027
_cell_length_b   4.99376587
_cell_length_c   4.69793230
_cell_angle_alpha   76.30124349
_cell_angle_beta   54.41999321
_cell_angle_gamma   49.62406130
_symmetry_Int_Tables_number   1
_chemical_formula_structural   Al3GaRu2
_chemical_formula_sum   'Al3 Ga1 Ru2'
_cell_volume   84.83306245
_cell_formula_units_Z   1
loop_
 _symmetry_equiv_pos_site_id
 _symmetry_equiv_pos_as_xyz
  1  'x, y, z'
loop_
 _atom_site_type_symbol
 _atom_site_label
 _atom_site_symmetry_multiplicity
 _atom_site_fract_x
 _atom_site_fract_y
 _atom_site_fract_z
 _atom_site_occupancy
  Al  Al0  1  0.920853  0.579147  0.920853  1
  Al  Al1  1  0.671246  0.328754  0.671246  1
  Al  Al2  1  0.329181  0.670819  0.329181  1
  Ga  Ga3  1  0.580579  0.919421  0.580579  1
  Ru  Ru4  1  0.249834  0.250166  0.249834  1
  Ru  Ru5  1  0.998306  0.001694  0.998306  1
