# generated using pymatgen
data_Hf5ScGe2(As2Ru3)2
_symmetry_space_group_name_H-M   'P 1'
_cell_length_a   7.68105518
_cell_length_b   7.68075823
_cell_length_c   7.68105492
_cell_angle_alpha   128.20849914
_cell_angle_beta   120.33701060
_cell_angle_gamma   82.90060236
_symmetry_Int_Tables_number   1
_chemical_formula_structural   Hf5ScGe2(As2Ru3)2
_chemical_formula_sum   'Hf5 Sc1 Ge2 As4 Ru6'
_cell_volume   295.16390767
_cell_formula_units_Z   1
loop_
 _symmetry_equiv_pos_site_id
 _symmetry_equiv_pos_as_xyz
  1  'x, y, z'
loop_
 _atom_site_type_symbol
 _atom_site_label
 _atom_site_symmetry_multiplicity
 _atom_site_fract_x
 _atom_site_fract_y
 _atom_site_fract_z
 _atom_site_occupancy
  Hf  Hf0  1  0.524614  0.257846  0.233232  1
  Hf  Hf1  1  0.750679  0.834690  0.584011  1
  Hf  Hf2  1  0.249916  0.833951  0.084034  1
  Hf  Hf3  1  0.052825  0.255640  0.702814  1
  Hf  Hf4  1  0.947149  0.650077  0.202928  1
  Sc  Sc5  1  0.474552  0.707500  0.732948  1
  Ge  Ge6  1  0.279008  0.279776  0.500770  1
  Ge  Ge7  1  0.721526  0.220407  0.998882  1
  As  As8  1  0.329540  0.587131  0.250668  1
  As  As9  1  0.670632  0.918642  0.255324  1
  As  As10  1  0.163318  0.918642  0.748008  1
  As  As11  1  0.836462  0.587131  0.757591  1
  Ru  Ru12  1  0.500156  0.496634  0.998187  1
  Ru  Ru13  1  0.998447  0.496634  0.496478  1
  Ru  Ru14  1  0.092923  0.250716  0.097582  1
  Ru  Ru15  1  0.909504  0.006733  0.161118  1
  Ru  Ru16  1  0.345614  0.006733  0.597230  1
  Ru  Ru17  1  0.653134  0.250716  0.657793  1
