# generated using pymatgen
data_Sc2ReB2Ru5
_symmetry_space_group_name_H-M   'P 1'
_cell_length_a   9.46966700
_cell_length_b   9.46966700
_cell_length_c   3.02303400
_cell_angle_alpha   90.00000000
_cell_angle_beta   90.00000000
_cell_angle_gamma   90.00000000
_symmetry_Int_Tables_number   1
_chemical_formula_structural   Sc2ReB2Ru5
_chemical_formula_sum   'Sc4 Re2 B4 Ru10'
_cell_volume   271.08934385
_cell_formula_units_Z   2
loop_
 _symmetry_equiv_pos_site_id
 _symmetry_equiv_pos_as_xyz
  1  'x, y, z'
loop_
 _atom_site_type_symbol
 _atom_site_label
 _atom_site_symmetry_multiplicity
 _atom_site_fract_x
 _atom_site_fract_y
 _atom_site_fract_z
 _atom_site_occupancy
  Sc  Sc0  1  0.674100  0.174100  0.000000  1
  Sc  Sc1  1  0.325900  0.825900  0.000000  1
  Sc  Sc2  1  0.174100  0.325900  0.000000  1
  Sc  Sc3  1  0.825900  0.674100  0.000000  1
  Re  Re4  1  0.000000  0.000000  0.000000  1
  Re  Re5  1  0.500000  0.500000  0.000000  1
  B  B6  1  0.120769  0.620769  0.000000  1
  B  B7  1  0.879231  0.379231  0.000000  1
  B  B8  1  0.620769  0.879231  0.000000  1
  B  B9  1  0.379231  0.120769  0.000000  1
  Ru  Ru10  1  0.216031  0.071764  0.500000  1
  Ru  Ru11  1  0.783969  0.928236  0.500000  1
  Ru  Ru12  1  0.071764  0.783969  0.500000  1
  Ru  Ru13  1  0.716031  0.428236  0.500000  1
  Ru  Ru14  1  0.928236  0.216031  0.500000  1
  Ru  Ru15  1  0.283969  0.571764  0.500000  1
  Ru  Ru16  1  0.571764  0.716031  0.500000  1
  Ru  Ru17  1  0.428236  0.283969  0.500000  1
  Ru  Ru18  1  0.500000  0.000000  0.500000  1
  Ru  Ru19  1  0.000000  0.500000  0.500000  1
