# generated using pymatgen
data_Er2ZnGa3Au2
_symmetry_space_group_name_H-M   'P 1'
_cell_length_a   5.56680354
_cell_length_b   5.56680426
_cell_length_c   6.65798490
_cell_angle_alpha   89.84791950
_cell_angle_beta   90.15208339
_cell_angle_gamma   132.42721038
_symmetry_Int_Tables_number   1
_chemical_formula_structural   Er2ZnGa3Au2
_chemical_formula_sum   'Er2 Zn1 Ga3 Au2'
_cell_volume   152.29604934
_cell_formula_units_Z   1
loop_
 _symmetry_equiv_pos_site_id
 _symmetry_equiv_pos_as_xyz
  1  'x, y, z'
loop_
 _atom_site_type_symbol
 _atom_site_label
 _atom_site_symmetry_multiplicity
 _atom_site_fract_x
 _atom_site_fract_y
 _atom_site_fract_z
 _atom_site_occupancy
  Er  Er0  1  0.091966  0.908032  0.249524  1
  Er  Er1  1  0.908555  0.091443  0.751704  1
  Zn  Zn2  1  0.378063  0.621935  0.052703  1
  Ga  Ga3  1  0.377513  0.622485  0.445068  1
  Ga  Ga4  1  0.620990  0.379008  0.550994  1
  Ga  Ga5  1  0.621753  0.378245  0.950294  1
  Au  Au6  1  0.800140  0.199858  0.251540  1
  Au  Au7  1  0.201013  0.798985  0.748174  1
