# generated using pymatgen
data_Cs6TbSe4
_symmetry_space_group_name_H-M   'P 1'
_cell_length_a   11.72119000
_cell_length_b   11.72119110
_cell_length_c   8.77511800
_cell_angle_alpha   90.00000000
_cell_angle_beta   90.00000000
_cell_angle_gamma   120.00000253
_symmetry_Int_Tables_number   1
_chemical_formula_structural   Cs6TbSe4
_chemical_formula_sum   'Cs12 Tb2 Se8'
_cell_volume   1044.06380105
_cell_formula_units_Z   2
loop_
 _symmetry_equiv_pos_site_id
 _symmetry_equiv_pos_as_xyz
  1  'x, y, z'
loop_
 _atom_site_type_symbol
 _atom_site_label
 _atom_site_symmetry_multiplicity
 _atom_site_fract_x
 _atom_site_fract_y
 _atom_site_fract_z
 _atom_site_occupancy
  Cs  Cs0  1  0.133639  0.866361  0.546484  1
  Cs  Cs1  1  0.267278  0.133639  0.046484  1
  Cs  Cs2  1  0.866361  0.732722  0.046484  1
  Cs  Cs3  1  0.133639  0.267278  0.546484  1
  Cs  Cs4  1  0.732722  0.866361  0.546484  1
  Cs  Cs5  1  0.866361  0.133639  0.046484  1
  Cs  Cs6  1  0.532723  0.467277  0.360817  1
  Cs  Cs7  1  0.065448  0.532723  0.860817  1
  Cs  Cs8  1  0.467277  0.934552  0.860817  1
  Cs  Cs9  1  0.532723  0.065448  0.360817  1
  Cs  Cs10  1  0.934552  0.467277  0.360817  1
  Cs  Cs11  1  0.467277  0.532723  0.860817  1
  Tb  Tb12  1  0.333333  0.666667  0.258747  1
  Tb  Tb13  1  0.666667  0.333333  0.758747  1
  Se  Se14  1  0.333333  0.666667  0.572322  1
  Se  Se15  1  0.666667  0.333333  0.072322  1
  Se  Se16  1  0.205621  0.794379  0.152243  1
  Se  Se17  1  0.411242  0.205621  0.652243  1
  Se  Se18  1  0.794379  0.588758  0.652243  1
  Se  Se19  1  0.205621  0.411242  0.152243  1
  Se  Se20  1  0.588758  0.794379  0.152243  1
  Se  Se21  1  0.794379  0.205621  0.652243  1
