# generated using pymatgen
data_YHo3Tc3PtF28
_symmetry_space_group_name_H-M   'P 1'
_cell_length_a   5.58304174
_cell_length_b   8.89231680
_cell_length_c   11.99955777
_cell_angle_alpha   62.58094218
_cell_angle_beta   89.94016163
_cell_angle_gamma   89.97398452
_symmetry_Int_Tables_number   1
_chemical_formula_structural   YHo3Tc3PtF28
_chemical_formula_sum   'Y1 Ho3 Tc3 Pt1 F28'
_cell_volume   528.80866455
_cell_formula_units_Z   1
loop_
 _symmetry_equiv_pos_site_id
 _symmetry_equiv_pos_as_xyz
  1  'x, y, z'
loop_
 _atom_site_type_symbol
 _atom_site_label
 _atom_site_symmetry_multiplicity
 _atom_site_fract_x
 _atom_site_fract_y
 _atom_site_fract_z
 _atom_site_occupancy
  Y  Y0  1  0.759285  0.814225  0.764899  1
  Ho  Ho1  1  0.259702  0.186537  0.734769  1
  Ho  Ho2  1  0.239852  0.185327  0.236763  1
  Ho  Ho3  1  0.741254  0.813601  0.265484  1
  Tc  Tc4  1  0.757905  0.272083  0.957347  1
  Tc  Tc5  1  0.257519  0.726376  0.542907  1
  Tc  Tc6  1  0.242501  0.726379  0.044476  1
  Pt  Pt7  1  0.740436  0.273007  0.456155  1
  F  F8  1  0.445575  0.706126  0.918849  1
  F  F9  1  0.935982  0.297455  0.583409  1
  F  F10  1  0.551513  0.292563  0.081646  1
  F  F11  1  0.053874  0.707078  0.417461  1
  F  F12  1  0.441680  0.278732  0.542641  1
  F  F13  1  0.948366  0.721157  0.955139  1
  F  F14  1  0.552565  0.721721  0.453785  1
  F  F15  1  0.050956  0.277128  0.047933  1
  F  F16  1  0.773772  0.519694  0.859506  1
  F  F17  1  0.271918  0.478018  0.640376  1
  F  F18  1  0.227553  0.478202  0.142249  1
  F  F19  1  0.725793  0.521613  0.357587  1
  F  F20  1  0.756688  0.024885  0.053865  1
  F  F21  1  0.256521  0.973595  0.447156  1
  F  F22  1  0.244036  0.973465  0.946764  1
  F  F23  1  0.744824  0.024279  0.549106  1
  F  F24  1  0.974261  0.727862  0.639352  1
  F  F25  1  0.476593  0.270439  0.859656  1
  F  F26  1  0.031504  0.274572  0.362829  1
  F  F27  1  0.525070  0.729812  0.140486  1
  F  F28  1  0.044392  0.746937  0.172955  1
  F  F29  1  0.550665  0.254667  0.324101  1
  F  F30  1  0.958648  0.252622  0.828883  1
  F  F31  1  0.454611  0.745199  0.672347  1
  F  F32  1  0.419970  0.971822  0.233024  1
  F  F33  1  0.919527  0.028426  0.268353  1
  F  F34  1  0.581215  0.031833  0.766555  1
  F  F35  1  0.083475  0.972564  0.731185  1
