# generated using pymatgen
data_NpCl6
_symmetry_space_group_name_H-M   'P 1'
_cell_length_a   11.92960200
_cell_length_b   11.92960303
_cell_length_c   6.57766100
_cell_angle_alpha   90.00000000
_cell_angle_beta   90.00000000
_cell_angle_gamma   120.00000269
_symmetry_Int_Tables_number   1
_chemical_formula_structural   NpCl6
_chemical_formula_sum   'Np3 Cl18'
_cell_volume   810.68857772
_cell_formula_units_Z   3
loop_
 _symmetry_equiv_pos_site_id
 _symmetry_equiv_pos_as_xyz
  1  'x, y, z'
loop_
 _atom_site_type_symbol
 _atom_site_label
 _atom_site_symmetry_multiplicity
 _atom_site_fract_x
 _atom_site_fract_y
 _atom_site_fract_z
 _atom_site_occupancy
  Np  Np0  1  0.666667  0.333333  0.537216  1
  Np  Np1  1  0.333333  0.666667  0.462784  1
  Np  Np2  1  0.000000  0.000000  0.000000  1
  Cl  Cl3  1  0.236138  0.763862  0.678081  1
  Cl  Cl4  1  0.236138  0.472276  0.678081  1
  Cl  Cl5  1  0.527724  0.763862  0.678081  1
  Cl  Cl6  1  0.097086  0.902914  0.215652  1
  Cl  Cl7  1  0.097086  0.194173  0.215652  1
  Cl  Cl8  1  0.805827  0.902914  0.215652  1
  Cl  Cl9  1  0.194173  0.097086  0.784348  1
  Cl  Cl10  1  0.902914  0.805827  0.784348  1
  Cl  Cl11  1  0.902914  0.097086  0.784348  1
  Cl  Cl12  1  0.430358  0.569642  0.246848  1
  Cl  Cl13  1  0.430358  0.860717  0.246848  1
  Cl  Cl14  1  0.139283  0.569642  0.246848  1
  Cl  Cl15  1  0.860717  0.430358  0.753152  1
  Cl  Cl16  1  0.569642  0.139283  0.753152  1
  Cl  Cl17  1  0.569642  0.430358  0.753152  1
  Cl  Cl18  1  0.763862  0.236138  0.321919  1
  Cl  Cl19  1  0.763862  0.527724  0.321919  1
  Cl  Cl20  1  0.472276  0.236138  0.321919  1
