# generated using pymatgen
data_Dy4Lu12Tl5InCo2
_symmetry_space_group_name_H-M   'P 1'
_cell_length_a   10.15868413
_cell_length_b   10.16407767
_cell_length_c   7.01778838
_cell_angle_alpha   89.95528536
_cell_angle_beta   90.01714063
_cell_angle_gamma   119.97567475
_symmetry_Int_Tables_number   1
_chemical_formula_structural   Dy4Lu12Tl5InCo2
_chemical_formula_sum   'Dy4 Lu12 Tl5 In1 Co2'
_cell_volume   627.68622524
_cell_formula_units_Z   1
loop_
 _symmetry_equiv_pos_site_id
 _symmetry_equiv_pos_as_xyz
  1  'x, y, z'
loop_
 _atom_site_type_symbol
 _atom_site_label
 _atom_site_symmetry_multiplicity
 _atom_site_fract_x
 _atom_site_fract_y
 _atom_site_fract_z
 _atom_site_occupancy
  Dy  Dy0  1  0.535384  0.073316  0.520901  1
  Dy  Dy1  1  0.927320  0.464859  0.522052  1
  Dy  Dy2  1  0.536547  0.463143  0.523359  1
  Dy  Dy3  1  0.462754  0.924731  0.023897  1
  Lu  Lu4  1  0.077379  0.538064  0.025354  1
  Lu  Lu5  1  0.460831  0.538879  0.024516  1
  Lu  Lu6  1  0.178294  0.357488  0.726296  1
  Lu  Lu7  1  0.642011  0.820829  0.723587  1
  Lu  Lu8  1  0.178383  0.820059  0.726203  1
  Lu  Lu9  1  0.820300  0.641644  0.219905  1
  Lu  Lu10  1  0.357602  0.180345  0.219855  1
  Lu  Lu11  1  0.822379  0.179927  0.220962  1
  Lu  Lu12  1  0.667435  0.334569  0.915774  1
  Lu  Lu13  1  0.332709  0.665643  0.416964  1
  Lu  Lu14  1  0.001178  0.998996  0.505459  1
  Lu  Lu15  1  0.000493  0.999654  0.007443  1
  Tl  Tl16  1  0.838145  0.676126  0.775614  1
  Tl  Tl17  1  0.324632  0.161837  0.773652  1
  Tl  Tl18  1  0.837089  0.162582  0.773659  1
  Tl  Tl19  1  0.162815  0.325765  0.277446  1
  Tl  Tl20  1  0.675408  0.837126  0.275323  1
  In  In21  1  0.161922  0.836699  0.273967  1
  Co  Co22  1  0.666593  0.333328  0.290036  1
  Co  Co23  1  0.332397  0.664390  0.793453  1
