# generated using pymatgen
data_Cd2IrPdO7
_symmetry_space_group_name_H-M   'P 1'
_cell_length_a   7.24938776
_cell_length_b   7.24943679
_cell_length_c   7.24938816
_cell_angle_alpha   59.99977635
_cell_angle_beta   60.45140831
_cell_angle_gamma   59.99976909
_symmetry_Int_Tables_number   1
_chemical_formula_structural   Cd2IrPdO7
_chemical_formula_sum   'Cd4 Ir2 Pd2 O14'
_cell_volume   270.30257454
_cell_formula_units_Z   2
loop_
 _symmetry_equiv_pos_site_id
 _symmetry_equiv_pos_as_xyz
  1  'x, y, z'
loop_
 _atom_site_type_symbol
 _atom_site_label
 _atom_site_symmetry_multiplicity
 _atom_site_fract_x
 _atom_site_fract_y
 _atom_site_fract_z
 _atom_site_occupancy
  Cd  Cd0  1  0.125000  0.125000  0.625000  1
  Cd  Cd1  1  0.125000  0.125000  0.125000  1
  Cd  Cd2  1  0.625000  0.125000  0.125000  1
  Cd  Cd3  1  0.125000  0.625000  0.125000  1
  Ir  Ir4  1  0.125000  0.625000  0.625000  1
  Ir  Ir5  1  0.625000  0.625000  0.125000  1
  Pd  Pd6  1  0.625000  0.625000  0.625000  1
  Pd  Pd7  1  0.625000  0.125000  0.625000  1
  O  O8  1  0.957964  0.558585  0.538771  1
  O  O9  1  0.292036  0.305319  0.711229  1
  O  O10  1  0.944102  0.555898  0.944102  1
  O  O11  1  0.711229  0.305319  0.292036  1
  O  O12  1  0.538771  0.558585  0.957964  1
  O  O13  1  0.533427  0.966573  0.533427  1
  O  O14  1  0.538771  0.944681  0.957964  1
  O  O15  1  0.246599  0.253401  0.246599  1
  O  O16  1  0.292036  0.691415  0.711229  1
  O  O17  1  0.716573  0.283427  0.716573  1
  O  O18  1  0.003401  0.996599  0.003401  1
  O  O19  1  0.957964  0.944681  0.538771  1
  O  O20  1  0.305898  0.694102  0.305898  1
  O  O21  1  0.711229  0.691415  0.292036  1
