# generated using pymatgen
data_SmYCo4(PRu)6
_symmetry_space_group_name_H-M   'P 1'
_cell_length_a   3.79908500
_cell_length_b   10.64827941
_cell_length_c   12.14743347
_cell_angle_alpha   89.96804842
_cell_angle_beta   90.00000000
_cell_angle_gamma   90.00000000
_symmetry_Int_Tables_number   1
_chemical_formula_structural   SmYCo4(PRu)6
_chemical_formula_sum   'Sm2 Y2 Co8 P12 Ru12'
_cell_volume   491.40877895
_cell_formula_units_Z   2
loop_
 _symmetry_equiv_pos_site_id
 _symmetry_equiv_pos_as_xyz
  1  'x, y, z'
loop_
 _atom_site_type_symbol
 _atom_site_label
 _atom_site_symmetry_multiplicity
 _atom_site_fract_x
 _atom_site_fract_y
 _atom_site_fract_z
 _atom_site_occupancy
  Sm  Sm0  1  0.250000  0.915441  0.206807  1
  Sm  Sm1  1  0.750000  0.084559  0.793193  1
  Y  Y2  1  0.750000  0.415643  0.293344  1
  Y  Y3  1  0.250000  0.584357  0.706656  1
  Co  Co4  1  0.250000  0.611875  0.195377  1
  Co  Co5  1  0.750000  0.388125  0.804623  1
  Co  Co6  1  0.750000  0.113422  0.305112  1
  Co  Co7  1  0.250000  0.886578  0.694888  1
  Co  Co8  1  0.250000  0.037497  0.435267  1
  Co  Co9  1  0.750000  0.962503  0.564733  1
  Co  Co10  1  0.750000  0.536608  0.064638  1
  Co  Co11  1  0.250000  0.463392  0.935362  1
  P  P12  1  0.250000  0.074602  0.611322  1
  P  P13  1  0.750000  0.925398  0.388678  1
  P  P14  1  0.750000  0.574037  0.887557  1
  P  P15  1  0.250000  0.425963  0.112443  1
  P  P16  1  0.250000  0.228096  0.371333  1
  P  P17  1  0.750000  0.771904  0.628667  1
  P  P18  1  0.750000  0.726479  0.128266  1
  P  P19  1  0.250000  0.273521  0.871734  1
  P  P20  1  0.250000  0.896975  0.887899  1
  P  P21  1  0.750000  0.103025  0.112101  1
  P  P22  1  0.750000  0.398225  0.612803  1
  P  P23  1  0.250000  0.601775  0.387197  1
  Ru  Ru24  1  0.250000  0.793671  0.486002  1
  Ru  Ru25  1  0.750000  0.206329  0.513998  1
  Ru  Ru26  1  0.750000  0.294391  0.013759  1
  Ru  Ru27  1  0.250000  0.705609  0.986241  1
  Ru  Ru28  1  0.250000  0.095188  0.987297  1
  Ru  Ru29  1  0.750000  0.904812  0.012703  1
  Ru  Ru30  1  0.750000  0.594465  0.514371  1
  Ru  Ru31  1  0.250000  0.405535  0.485629  1
  Ru  Ru32  1  0.250000  0.277720  0.679895  1
  Ru  Ru33  1  0.750000  0.722280  0.320105  1
  Ru  Ru34  1  0.750000  0.775194  0.819411  1
  Ru  Ru35  1  0.250000  0.224806  0.180589  1
