# generated using pymatgen
data_Ti20AlSi9As2
_symmetry_space_group_name_H-M   'P 1'
_cell_length_a   5.14535500
_cell_length_b   7.51341343
_cell_length_c   13.00172422
_cell_angle_alpha   90.08771297
_cell_angle_beta   90.00000000
_cell_angle_gamma   90.00000000
_symmetry_Int_Tables_number   1
_chemical_formula_structural   Ti20AlSi9As2
_chemical_formula_sum   'Ti20 Al1 Si9 As2'
_cell_volume   502.63539980
_cell_formula_units_Z   1
loop_
 _symmetry_equiv_pos_site_id
 _symmetry_equiv_pos_as_xyz
  1  'x, y, z'
loop_
 _atom_site_type_symbol
 _atom_site_label
 _atom_site_symmetry_multiplicity
 _atom_site_fract_x
 _atom_site_fract_y
 _atom_site_fract_z
 _atom_site_occupancy
  Ti  Ti0  1  0.752646  0.003251  0.663594  1
  Ti  Ti1  1  0.751353  0.500303  0.167164  1
  Ti  Ti2  1  0.752858  0.493516  0.834089  1
  Ti  Ti3  1  0.751112  0.001048  0.333264  1
  Ti  Ti4  1  0.247142  0.493516  0.834089  1
  Ti  Ti5  1  0.248888  0.001048  0.333264  1
  Ti  Ti6  1  0.247354  0.003251  0.663594  1
  Ti  Ti7  1  0.248647  0.500303  0.167164  1
  Ti  Ti8  1  0.500000  0.251303  0.499264  1
  Ti  Ti9  1  0.500000  0.751441  0.003010  1
  Ti  Ti10  1  0.500000  0.618105  0.622368  1
  Ti  Ti11  1  0.500000  0.122237  0.127711  1
  Ti  Ti12  1  0.500000  0.126159  0.873270  1
  Ti  Ti13  1  0.500000  0.622880  0.372424  1
  Ti  Ti14  1  0.000000  0.753031  0.499772  1
  Ti  Ti15  1  0.000000  0.253615  0.000460  1
  Ti  Ti16  1  0.000000  0.878125  0.877872  1
  Ti  Ti17  1  0.000000  0.376520  0.373329  1
  Ti  Ti18  1  0.000000  0.374609  0.627115  1
  Ti  Ti19  1  0.000000  0.875245  0.126899  1
  Al  Al20  1  0.500000  0.800500  0.801378  1
  Si  Si21  1  0.500000  0.303609  0.303597  1
  Si  Si22  1  0.500000  0.303195  0.695691  1
  Si  Si23  1  0.500000  0.803482  0.197506  1
  Si  Si24  1  0.000000  0.614951  0.000082  1
  Si  Si25  1  0.000000  0.116189  0.498807  1
  Si  Si26  1  0.000000  0.698023  0.698631  1
  Si  Si27  1  0.000000  0.196729  0.196104  1
  Si  Si28  1  0.000000  0.192620  0.804106  1
  Si  Si29  1  0.000000  0.697028  0.303885  1
  As  As30  1  0.500000  0.387859  0.001082  1
  As  As31  1  0.500000  0.886298  0.499406  1
