# generated using pymatgen
data_CsV3NiO9
_symmetry_space_group_name_H-M   'P 1'
_cell_length_a   6.71482641
_cell_length_b   6.71595470
_cell_length_c   6.71531198
_cell_angle_alpha   103.73776034
_cell_angle_beta   103.72104133
_cell_angle_gamma   103.71918113
_symmetry_Int_Tables_number   1
_chemical_formula_structural   CsV3NiO9
_chemical_formula_sum   'Cs1 V3 Ni1 O9'
_cell_volume   271.60565818
_cell_formula_units_Z   1
loop_
 _symmetry_equiv_pos_site_id
 _symmetry_equiv_pos_as_xyz
  1  'x, y, z'
loop_
 _atom_site_type_symbol
 _atom_site_label
 _atom_site_symmetry_multiplicity
 _atom_site_fract_x
 _atom_site_fract_y
 _atom_site_fract_z
 _atom_site_occupancy
  Cs  Cs0  1  0.471790  0.471820  0.471826  1
  V  V1  1  0.881264  0.481536  0.037354  1
  V  V2  1  0.037493  0.881308  0.481434  1
  V  V3  1  0.481524  0.037419  0.881268  1
  Ni  Ni4  1  0.003863  0.003841  0.003884  1
  O  O5  1  0.333909  0.064276  0.050913  1
  O  O6  1  0.050875  0.333932  0.064309  1
  O  O7  1  0.869980  0.613113  0.304336  1
  O  O8  1  0.064315  0.050902  0.333943  1
  O  O9  1  0.304318  0.869953  0.613094  1
  O  O10  1  0.930469  0.968588  0.674400  1
  O  O11  1  0.613054  0.304303  0.869996  1
  O  O12  1  0.968568  0.674347  0.930417  1
  O  O13  1  0.674376  0.930461  0.968625  1
