# generated using pymatgen
data_Ta2Ti(GaIr)3
_symmetry_space_group_name_H-M   'P 1'
_cell_length_a   7.43017697
_cell_length_b   7.43017623
_cell_length_c   2.93061500
_cell_angle_alpha   90.00000000
_cell_angle_beta   90.00000000
_cell_angle_gamma   119.80308405
_symmetry_Int_Tables_number   1
_chemical_formula_structural   Ta2Ti(GaIr)3
_chemical_formula_sum   'Ta2 Ti1 Ga3 Ir3'
_cell_volume   140.39317910
_cell_formula_units_Z   1
loop_
 _symmetry_equiv_pos_site_id
 _symmetry_equiv_pos_as_xyz
  1  'x, y, z'
loop_
 _atom_site_type_symbol
 _atom_site_label
 _atom_site_symmetry_multiplicity
 _atom_site_fract_x
 _atom_site_fract_y
 _atom_site_fract_z
 _atom_site_occupancy
  Ta  Ta0  1  0.368177  0.999483  0.500000  1
  Ta  Ta1  1  0.999483  0.368177  0.500000  1
  Ti  Ti2  1  0.627848  0.627848  0.500000  1
  Ga  Ga3  1  0.705880  0.997210  0.000000  1
  Ga  Ga4  1  0.296515  0.296515  0.000000  1
  Ga  Ga5  1  0.997210  0.705880  0.000000  1
  Ir  Ir6  1  0.666447  0.336804  0.000000  1
  Ir  Ir7  1  0.336803  0.666446  0.000000  1
  Ir  Ir8  1  0.001637  0.001637  0.500000  1
