# generated using pymatgen
data_TbY19Pb16
_symmetry_space_group_name_H-M   'P 1'
_cell_length_a   8.22756264
_cell_length_b   8.30817959
_cell_length_c   15.67136220
_cell_angle_alpha   90.00885874
_cell_angle_beta   89.98400327
_cell_angle_gamma   90.04228698
_symmetry_Int_Tables_number   1
_chemical_formula_structural   TbY19Pb16
_chemical_formula_sum   'Tb1 Y19 Pb16'
_cell_volume   1071.23235401
_cell_formula_units_Z   1
loop_
 _symmetry_equiv_pos_site_id
 _symmetry_equiv_pos_as_xyz
  1  'x, y, z'
loop_
 _atom_site_type_symbol
 _atom_site_label
 _atom_site_symmetry_multiplicity
 _atom_site_fract_x
 _atom_site_fract_y
 _atom_site_fract_z
 _atom_site_occupancy
  Tb  Tb0  1  0.034249  0.176630  0.899710  1
  Y  Y1  1  0.376577  0.840943  0.879574  1
  Y  Y2  1  0.876721  0.659116  0.620487  1
  Y  Y3  1  0.623410  0.158945  0.379550  1
  Y  Y4  1  0.123293  0.340889  0.120535  1
  Y  Y5  1  0.623468  0.158907  0.120462  1
  Y  Y6  1  0.123283  0.340907  0.379461  1
  Y  Y7  1  0.376586  0.841009  0.620438  1
  Y  Y8  1  0.876630  0.659097  0.879497  1
  Y  Y9  1  0.534396  0.323540  0.899744  1
  Y  Y10  1  0.034478  0.176476  0.600360  1
  Y  Y11  1  0.465629  0.676498  0.399723  1
  Y  Y12  1  0.965546  0.823543  0.100372  1
  Y  Y13  1  0.465691  0.676538  0.100270  1
  Y  Y14  1  0.965522  0.823542  0.399672  1
  Y  Y15  1  0.534360  0.323545  0.600248  1
  Y  Y16  1  0.208774  0.503387  0.749989  1
  Y  Y17  1  0.708668  0.996435  0.749931  1
  Y  Y18  1  0.791225  0.496586  0.250019  1
  Y  Y19  1  0.291318  0.003465  0.249998  1
  Pb  Pb20  1  0.281038  0.032758  0.042793  1
  Pb  Pb21  1  0.781051  0.467218  0.457203  1
  Pb  Pb22  1  0.719077  0.967177  0.542747  1
  Pb  Pb23  1  0.219020  0.532806  0.957200  1
  Pb  Pb24  1  0.719009  0.967114  0.957251  1
  Pb  Pb25  1  0.218988  0.532770  0.542763  1
  Pb  Pb26  1  0.280980  0.032857  0.457261  1
  Pb  Pb27  1  0.781103  0.467127  0.042747  1
  Pb  Pb28  1  0.571806  0.626430  0.749994  1
  Pb  Pb29  1  0.071925  0.873581  0.750073  1
  Pb  Pb30  1  0.428195  0.373602  0.249992  1
  Pb  Pb31  1  0.928080  0.126435  0.250024  1
  Pb  Pb32  1  0.345504  0.151758  0.749989  1
  Pb  Pb33  1  0.845469  0.348390  0.749919  1
  Pb  Pb34  1  0.654507  0.848252  0.250000  1
  Pb  Pb35  1  0.154423  0.651730  0.250004  1
