# generated using pymatgen
data_TbHo7Ti12Si15As
_symmetry_space_group_name_H-M   'P 1'
_cell_length_a   7.05510949
_cell_length_b   7.04720044
_cell_length_c   12.95887648
_cell_angle_alpha   89.99252182
_cell_angle_beta   89.80751511
_cell_angle_gamma   89.91401902
_symmetry_Int_Tables_number   1
_chemical_formula_structural   TbHo7Ti12Si15As
_chemical_formula_sum   'Tb1 Ho7 Ti12 Si15 As1'
_cell_volume   644.29504201
_cell_formula_units_Z   1
loop_
 _symmetry_equiv_pos_site_id
 _symmetry_equiv_pos_as_xyz
  1  'x, y, z'
loop_
 _atom_site_type_symbol
 _atom_site_label
 _atom_site_symmetry_multiplicity
 _atom_site_fract_x
 _atom_site_fract_y
 _atom_site_fract_z
 _atom_site_occupancy
  Tb  Tb0  1  0.341256  0.002609  0.466192  1
  Ho  Ho1  1  0.497274  0.842046  0.717493  1
  Ho  Ho2  1  0.502461  0.158872  0.216331  1
  Ho  Ho3  1  0.840745  0.497168  0.283204  1
  Ho  Ho4  1  0.158709  0.501787  0.783426  1
  Ho  Ho5  1  0.660204  0.995281  0.967468  1
  Ho  Ho6  1  0.999801  0.343564  0.532040  1
  Ho  Ho7  1  0.998027  0.659114  0.033518  1
  Ti  Ti8  1  0.325885  0.326493  0.999715  1
  Ti  Ti9  1  0.173072  0.826950  0.249857  1
  Ti  Ti10  1  0.823812  0.173720  0.750312  1
  Ti  Ti11  1  0.673367  0.672842  0.500055  1
  Ti  Ti12  1  0.153764  0.008928  0.875541  1
  Ti  Ti13  1  0.491968  0.651460  0.125702  1
  Ti  Ti14  1  0.509218  0.348018  0.627053  1
  Ti  Ti15  1  0.653951  0.494448  0.874745  1
  Ti  Ti16  1  0.347706  0.507730  0.373858  1
  Ti  Ti17  1  0.847360  0.992375  0.375652  1
  Ti  Ti18  1  0.007764  0.151641  0.124117  1
  Ti  Ti19  1  0.989902  0.844119  0.623357  1
  Si  Si20  1  0.368448  0.703142  0.933677  1
  Si  Si21  1  0.630647  0.298201  0.434380  1
  Si  Si22  1  0.702879  0.369306  0.066166  1
  Si  Si23  1  0.297331  0.630142  0.566332  1
  Si  Si24  1  0.797144  0.869242  0.184368  1
  Si  Si25  1  0.130396  0.203128  0.315676  1
  Si  Si26  1  0.869985  0.797678  0.815591  1
  Si  Si27  1  0.290866  0.952809  0.064528  1
  Si  Si28  1  0.547751  0.790189  0.314263  1
  Si  Si29  1  0.461002  0.211093  0.819377  1
  Si  Si30  1  0.790840  0.547106  0.685238  1
  Si  Si31  1  0.208861  0.452723  0.185351  1
  Si  Si32  1  0.709621  0.046439  0.564472  1
  Si  Si33  1  0.953487  0.290732  0.935489  1
  Si  Si34  1  0.046554  0.709262  0.434908  1
  As  As35  1  0.197944  0.129641  0.680547  1
