# generated using pymatgen
data_Mo2IrOs5
_symmetry_space_group_name_H-M   'P 1'
_cell_length_a   5.56662500
_cell_length_b   5.55713661
_cell_length_c   4.39720600
_cell_angle_alpha   90.00000000
_cell_angle_beta   90.00000000
_cell_angle_gamma   120.05650322
_symmetry_Int_Tables_number   1
_chemical_formula_structural   Mo2IrOs5
_chemical_formula_sum   'Mo2 Ir1 Os5'
_cell_volume   117.73427906
_cell_formula_units_Z   1
loop_
 _symmetry_equiv_pos_site_id
 _symmetry_equiv_pos_as_xyz
  1  'x, y, z'
loop_
 _atom_site_type_symbol
 _atom_site_label
 _atom_site_symmetry_multiplicity
 _atom_site_fract_x
 _atom_site_fract_y
 _atom_site_fract_z
 _atom_site_occupancy
  Mo  Mo0  1  0.334834  0.669669  0.250000  1
  Mo  Mo1  1  0.664481  0.328962  0.750000  1
  Ir  Ir2  1  0.165440  0.330879  0.750000  1
  Os  Os3  1  0.833341  0.666684  0.250000  1
  Os  Os4  1  0.171084  0.837410  0.750000  1
  Os  Os5  1  0.666326  0.837410  0.750000  1
  Os  Os6  1  0.332940  0.164494  0.250000  1
  Os  Os7  1  0.831552  0.164494  0.250000  1
