# generated using pymatgen
data_Pr2NdCuSnSe7
_symmetry_space_group_name_H-M   'P 1'
_cell_length_a   10.68060077
_cell_length_b   10.70686229
_cell_length_c   6.35885000
_cell_angle_alpha   90.00000000
_cell_angle_beta   90.00000000
_cell_angle_gamma   120.04593615
_symmetry_Int_Tables_number   1
_chemical_formula_structural   Pr2NdCuSnSe7
_chemical_formula_sum   'Pr4 Nd2 Cu2 Sn2 Se14'
_cell_volume   629.45675359
_cell_formula_units_Z   2
loop_
 _symmetry_equiv_pos_site_id
 _symmetry_equiv_pos_as_xyz
  1  'x, y, z'
loop_
 _atom_site_type_symbol
 _atom_site_label
 _atom_site_symmetry_multiplicity
 _atom_site_fract_x
 _atom_site_fract_y
 _atom_site_fract_z
 _atom_site_occupancy
  Pr  Pr0  1  0.137017  0.781665  0.961542  1
  Pr  Pr1  1  0.218522  0.355256  0.961604  1
  Pr  Pr2  1  0.781478  0.644744  0.461605  1
  Pr  Pr3  1  0.862984  0.218335  0.461541  1
  Nd  Nd4  1  0.644780  0.863276  0.961445  1
  Nd  Nd5  1  0.355220  0.136724  0.461445  1
  Cu  Cu6  1  0.000266  0.000093  0.501960  1
  Cu  Cu7  1  0.999734  0.999908  0.001958  1
  Sn  Sn8  1  0.666383  0.332966  0.884105  1
  Sn  Sn9  1  0.333618  0.667034  0.384104  1
  Se  Se10  1  0.102227  0.845525  0.490886  1
  Se  Se11  1  0.156987  0.256267  0.490641  1
  Se  Se12  1  0.843014  0.743733  0.990640  1
  Se  Se13  1  0.897773  0.154475  0.990886  1
  Se  Se14  1  0.743053  0.899152  0.492433  1
  Se  Se15  1  0.256948  0.100848  0.992432  1
  Se  Se16  1  0.570217  0.084750  0.710372  1
  Se  Se17  1  0.486892  0.572263  0.209978  1
  Se  Se18  1  0.513108  0.427737  0.709978  1
  Se  Se19  1  0.665390  0.332588  0.280940  1
  Se  Se20  1  0.334610  0.667412  0.780940  1
  Se  Se21  1  0.429783  0.915249  0.210371  1
  Se  Se22  1  0.084626  0.513600  0.211099  1
  Se  Se23  1  0.915374  0.486400  0.711100  1
