# generated using pymatgen
data_Cs7Zr12In(BBr17)2
_symmetry_space_group_name_H-M   'P 1'
_cell_length_a   12.89561918
_cell_length_b   12.86664977
_cell_length_c   11.89238713
_cell_angle_alpha   89.83315007
_cell_angle_beta   90.11245892
_cell_angle_gamma   89.95646981
_symmetry_Int_Tables_number   1
_chemical_formula_structural   Cs7Zr12In(BBr17)2
_chemical_formula_sum   'Cs7 Zr12 In1 B2 Br34'
_cell_volume   1973.21274609
_cell_formula_units_Z   1
loop_
 _symmetry_equiv_pos_site_id
 _symmetry_equiv_pos_as_xyz
  1  'x, y, z'
loop_
 _atom_site_type_symbol
 _atom_site_label
 _atom_site_symmetry_multiplicity
 _atom_site_fract_x
 _atom_site_fract_y
 _atom_site_fract_z
 _atom_site_occupancy
  Cs  Cs0  1  0.017000  0.219011  0.658012  1
  Cs  Cs1  1  0.515927  0.281092  0.339435  1
  Cs  Cs2  1  0.984504  0.779365  0.657037  1
  Cs  Cs3  1  0.720302  0.515857  0.658106  1
  Cs  Cs4  1  0.778948  0.014999  0.340212  1
  Cs  Cs5  1  0.280206  0.484682  0.657330  1
  Cs  Cs6  1  0.224702  0.977086  0.342341  1
  Zr  Zr7  1  0.589726  0.908606  0.700341  1
  Zr  Zr8  1  0.908630  0.408046  0.299563  1
  Zr  Zr9  1  0.407992  0.092713  0.700409  1
  Zr  Zr10  1  0.092432  0.591496  0.299377  1
  Zr  Zr11  1  0.591621  0.906869  0.980165  1
  Zr  Zr12  1  0.907823  0.408138  0.020286  1
  Zr  Zr13  1  0.408253  0.092488  0.979814  1
  Zr  Zr14  1  0.091774  0.592420  0.020407  1
  Zr  Zr15  1  0.870974  0.629237  0.156736  1
  Zr  Zr16  1  0.628931  0.128673  0.842735  1
  Zr  Zr17  1  0.128493  0.370712  0.157053  1
  Zr  Zr18  1  0.370670  0.871530  0.843567  1
  In  In19  1  0.495477  0.714035  0.372992  1
  B  B20  1  0.999977  0.500150  0.159550  1
  B  B21  1  0.499683  0.000214  0.840983  1
  Br  Br22  1  0.999377  0.500591  0.835694  1
  Br  Br23  1  0.500745  0.000231  0.162940  1
  Br  Br24  1  0.703453  0.791130  0.159990  1
  Br  Br25  1  0.793927  0.293932  0.841194  1
  Br  Br26  1  0.294430  0.205533  0.158382  1
  Br  Br27  1  0.205462  0.706289  0.841143  1
  Br  Br28  1  0.453525  0.748397  0.682162  1
  Br  Br29  1  0.044596  0.247544  0.318030  1
  Br  Br30  1  0.544842  0.253552  0.681175  1
  Br  Br31  1  0.955927  0.751894  0.317710  1
  Br  Br32  1  0.749089  0.544840  0.317640  1
  Br  Br33  1  0.750814  0.043654  0.681432  1
  Br  Br34  1  0.251304  0.453926  0.318027  1
  Br  Br35  1  0.248005  0.956582  0.681998  1
  Br  Br36  1  0.694909  0.791294  0.526927  1
  Br  Br37  1  0.794665  0.296090  0.468286  1
  Br  Br38  1  0.296343  0.207000  0.531703  1
  Br  Br39  1  0.206937  0.702418  0.467609  1
  Br  Br40  1  0.000376  0.499702  0.484191  1
  Br  Br41  1  0.499181  0.001987  0.516718  1
  Br  Br42  1  0.458822  0.746279  0.999441  1
  Br  Br43  1  0.040134  0.246005  0.000299  1
  Br  Br44  1  0.541118  0.254215  0.998734  1
  Br  Br45  1  0.959049  0.754493  0.999975  1
  Br  Br46  1  0.746148  0.540739  0.999840  1
  Br  Br47  1  0.753650  0.039499  0.999510  1
  Br  Br48  1  0.253058  0.459265  0.000301  1
  Br  Br49  1  0.246371  0.960147  0.999541  1
  Br  Br50  1  0.707985  0.790876  0.838046  1
  Br  Br51  1  0.791490  0.291286  0.160986  1
  Br  Br52  1  0.291520  0.209888  0.838790  1
  Br  Br53  1  0.208832  0.707441  0.160655  1
  Br  Br54  1  0.499579  0.516353  0.485772  1
  Br  Br55  1  0.000289  0.999509  0.498708  1
