# generated using pymatgen
data_NpV(SeO3)4
_symmetry_space_group_name_H-M   'P 1'
_cell_length_a   8.43882000
_cell_length_b   8.66796522
_cell_length_c   8.64809452
_cell_angle_alpha   88.16434819
_cell_angle_beta   90.00000000
_cell_angle_gamma   90.00000000
_symmetry_Int_Tables_number   1
_chemical_formula_structural   NpV(SeO3)4
_chemical_formula_sum   'Np2 V2 Se8 O24'
_cell_volume   632.26098550
_cell_formula_units_Z   2
loop_
 _symmetry_equiv_pos_site_id
 _symmetry_equiv_pos_as_xyz
  1  'x, y, z'
loop_
 _atom_site_type_symbol
 _atom_site_label
 _atom_site_symmetry_multiplicity
 _atom_site_fract_x
 _atom_site_fract_y
 _atom_site_fract_z
 _atom_site_occupancy
  Np  Np0  1  0.000000  0.000000  0.500000  1
  Np  Np1  1  0.500000  0.000000  0.000000  1
  V  V2  1  0.000000  0.500000  0.000000  1
  V  V3  1  0.500000  0.500000  0.500000  1
  Se  Se4  1  0.303007  0.647689  0.192827  1
  Se  Se5  1  0.803007  0.352311  0.307173  1
  Se  Se6  1  0.663059  0.790064  0.665848  1
  Se  Se7  1  0.163059  0.209936  0.834152  1
  Se  Se8  1  0.696993  0.352311  0.807173  1
  Se  Se9  1  0.196993  0.647689  0.692827  1
  Se  Se10  1  0.336941  0.209936  0.334152  1
  Se  Se11  1  0.836941  0.790064  0.165848  1
  O  O12  1  0.235341  0.534454  0.048738  1
  O  O13  1  0.735341  0.465546  0.451262  1
  O  O14  1  0.760656  0.937615  0.558390  1
  O  O15  1  0.260656  0.062385  0.941610  1
  O  O16  1  0.535127  0.902754  0.771126  1
  O  O17  1  0.449463  0.531973  0.268907  1
  O  O18  1  0.949463  0.468027  0.231093  1
  O  O19  1  0.035127  0.097246  0.728874  1
  O  O20  1  0.925241  0.218177  0.418376  1
  O  O21  1  0.537419  0.729096  0.525746  1
  O  O22  1  0.425241  0.781823  0.081624  1
  O  O23  1  0.037419  0.270904  0.974254  1
  O  O24  1  0.764659  0.465546  0.951262  1
  O  O25  1  0.264659  0.534454  0.548738  1
  O  O26  1  0.239344  0.062385  0.441610  1
  O  O27  1  0.739344  0.937615  0.058390  1
  O  O28  1  0.464873  0.097246  0.228874  1
  O  O29  1  0.550537  0.468027  0.731093  1
  O  O30  1  0.050537  0.531973  0.768907  1
  O  O31  1  0.964873  0.902754  0.271126  1
  O  O32  1  0.074759  0.781823  0.581624  1
  O  O33  1  0.462581  0.270904  0.474254  1
  O  O34  1  0.574759  0.218177  0.918376  1
  O  O35  1  0.962581  0.729096  0.025746  1
