# generated using pymatgen
data_KGaH2
_symmetry_space_group_name_H-M   'P 1'
_cell_length_a   4.46499300
_cell_length_b   7.27862300
_cell_length_c   9.27774200
_cell_angle_alpha   90.00000000
_cell_angle_beta   90.00000000
_cell_angle_gamma   90.00000000
_symmetry_Int_Tables_number   1
_chemical_formula_structural   KGaH2
_chemical_formula_sum   'K4 Ga4 H8'
_cell_volume   301.51734417
_cell_formula_units_Z   4
loop_
 _symmetry_equiv_pos_site_id
 _symmetry_equiv_pos_as_xyz
  1  'x, y, z'
loop_
 _atom_site_type_symbol
 _atom_site_label
 _atom_site_symmetry_multiplicity
 _atom_site_fract_x
 _atom_site_fract_y
 _atom_site_fract_z
 _atom_site_occupancy
  K  K0  1  0.750000  0.379740  0.673399  1
  K  K1  1  0.750000  0.879740  0.826601  1
  K  K2  1  0.250000  0.120260  0.173399  1
  K  K3  1  0.250000  0.620260  0.326601  1
  Ga  Ga4  1  0.250000  0.065424  0.535197  1
  Ga  Ga5  1  0.250000  0.565424  0.964803  1
  Ga  Ga6  1  0.750000  0.434576  0.035197  1
  Ga  Ga7  1  0.750000  0.934576  0.464803  1
  H  H8  1  0.750000  0.714275  0.518981  1
  H  H9  1  0.250000  0.104223  0.711367  1
  H  H10  1  0.250000  0.604223  0.788633  1
  H  H11  1  0.750000  0.214275  0.981019  1
  H  H12  1  0.250000  0.785725  0.018981  1
  H  H13  1  0.750000  0.395777  0.211367  1
  H  H14  1  0.750000  0.895777  0.288633  1
  H  H15  1  0.250000  0.285725  0.481019  1
