# generated using pymatgen
data_Li6Pr3Dy3(WO6)4
_symmetry_space_group_name_H-M   'P 1'
_cell_length_a   10.84578561
_cell_length_b   10.84578623
_cell_length_c   10.85415308
_cell_angle_alpha   109.47705261
_cell_angle_beta   109.47705694
_cell_angle_gamma   109.42829347
_symmetry_Int_Tables_number   1
_chemical_formula_structural   Li6Pr3Dy3(WO6)4
_chemical_formula_sum   'Li12 Pr6 Dy6 W8 O48'
_cell_volume   983.24887099
_cell_formula_units_Z   2
loop_
 _symmetry_equiv_pos_site_id
 _symmetry_equiv_pos_as_xyz
  1  'x, y, z'
loop_
 _atom_site_type_symbol
 _atom_site_label
 _atom_site_symmetry_multiplicity
 _atom_site_fract_x
 _atom_site_fract_y
 _atom_site_fract_z
 _atom_site_occupancy
  Li  Li0  1  0.249619  0.876727  0.127324  1
  Li  Li1  1  0.377704  0.250597  0.127324  1
  Li  Li2  1  0.124023  0.374023  0.250001  1
  Li  Li3  1  0.625979  0.875979  0.250001  1
  Li  Li4  1  0.123273  0.750381  0.372676  1
  Li  Li5  1  0.749404  0.622297  0.372677  1
  Li  Li6  1  0.249395  0.372169  0.622527  1
  Li  Li7  1  0.873134  0.250357  0.622528  1
  Li  Li8  1  0.376064  0.126064  0.750000  1
  Li  Li9  1  0.873936  0.623936  0.750000  1
  Li  Li10  1  0.627830  0.750605  0.877473  1
  Li  Li11  1  0.749642  0.126867  0.877473  1
  Pr  Pr12  1  0.748197  0.874099  0.622754  1
  Pr  Pr13  1  0.374557  0.748656  0.622755  1
  Pr  Pr14  1  0.125000  0.874999  0.750000  1
  Pr  Pr15  1  0.625001  0.375000  0.750001  1
  Pr  Pr16  1  0.251344  0.625444  0.877246  1
  Pr  Pr17  1  0.125901  0.251804  0.877247  1
  Dy  Dy18  1  0.751297  0.375257  0.127392  1
  Dy  Dy19  1  0.876096  0.752135  0.127393  1
  Dy  Dy20  1  0.375000  0.625000  0.250000  1
  Dy  Dy21  1  0.875000  0.125000  0.250000  1
  Dy  Dy22  1  0.247865  0.123904  0.372607  1
  Dy  Dy23  1  0.624742  0.248703  0.372607  1
  W  W24  1  0.999843  0.000288  0.004555  1
  W  W25  1  0.504711  0.004267  0.004555  1
  W  W26  1  0.504997  0.501902  0.006331  1
  W  W27  1  0.001333  0.504429  0.006331  1
  W  W28  1  0.999712  0.000157  0.495445  1
  W  W29  1  0.495570  0.998667  0.493669  1
  W  W30  1  0.995733  0.495289  0.495446  1
  W  W31  1  0.498098  0.495003  0.493670  1
  O  O32  1  0.828299  0.908698  0.030779  1
  O  O33  1  0.702479  0.122082  0.030780  1
  O  O34  1  0.199898  0.674994  0.087108  1
  O  O35  1  0.387211  0.412115  0.087108  1
  O  O36  1  0.476373  0.671797  0.098076  1
  O  O37  1  0.121703  0.426280  0.098076  1
  O  O38  1  0.530618  0.202132  0.122557  1
  O  O39  1  0.091941  0.920425  0.122559  1
  O  O40  1  0.970406  0.593267  0.174173  1
  O  O41  1  0.703768  0.580907  0.174175  1
  O  O42  1  0.080156  0.172331  0.202460  1
  O  O43  1  0.622303  0.030130  0.202460  1
  O  O44  1  0.827670  0.919845  0.297539  1
  O  O45  1  0.969870  0.377696  0.297539  1
  O  O46  1  0.406734  0.029594  0.325826  1
  O  O47  1  0.419094  0.296233  0.325826  1
  O  O48  1  0.079576  0.908061  0.377442  1
  O  O49  1  0.797867  0.469382  0.377442  1
  O  O50  1  0.328201  0.523627  0.401922  1
  O  O51  1  0.573720  0.878297  0.401923  1
  O  O52  1  0.587884  0.612790  0.412892  1
  O  O53  1  0.325006  0.800102  0.412892  1
  O  O54  1  0.091300  0.171699  0.469220  1
  O  O55  1  0.877919  0.297520  0.469220  1
  O  O56  1  0.111616  0.692263  0.519011  1
  O  O57  1  0.907395  0.826749  0.519011  1
  O  O58  1  0.403288  0.378143  0.573009  1
  O  O59  1  0.669722  0.194866  0.573010  1
  O  O60  1  0.673027  0.473168  0.585585  1
  O  O61  1  0.412556  0.112419  0.585585  1
  O  O62  1  0.192557  0.519011  0.611353  1
  O  O63  1  0.918797  0.092343  0.611354  1
  O  O64  1  0.579785  0.690320  0.670848  1
  O  O65  1  0.591064  0.980529  0.670849  1
  O  O66  1  0.172680  0.080739  0.692149  1
  O  O67  1  0.019468  0.611409  0.692151  1
  O  O68  1  0.388590  0.980532  0.807850  1
  O  O69  1  0.919260  0.827319  0.807850  1
  O  O70  1  0.309680  0.420215  0.829151  1
  O  O71  1  0.019472  0.408937  0.829152  1
  O  O72  1  0.480988  0.807442  0.888646  1
  O  O73  1  0.907657  0.081204  0.888647  1
  O  O74  1  0.526832  0.326972  0.914414  1
  O  O75  1  0.887581  0.587444  0.914415  1
  O  O76  1  0.621857  0.596713  0.926990  1
  O  O77  1  0.805134  0.330278  0.926990  1
  O  O78  1  0.307737  0.888384  0.980988  1
  O  O79  1  0.173251  0.092605  0.980989  1
