# generated using pymatgen
data_Pr7NdAl5Ga3
_symmetry_space_group_name_H-M   'P 1'
_cell_length_a   5.78132600
_cell_length_b   5.96795691
_cell_length_c   11.82841706
_cell_angle_alpha   90.07142334
_cell_angle_beta   90.00000000
_cell_angle_gamma   90.00000000
_symmetry_Int_Tables_number   1
_chemical_formula_structural   Pr7NdAl5Ga3
_chemical_formula_sum   'Pr7 Nd1 Al5 Ga3'
_cell_volume   408.11206079
_cell_formula_units_Z   1
loop_
 _symmetry_equiv_pos_site_id
 _symmetry_equiv_pos_as_xyz
  1  'x, y, z'
loop_
 _atom_site_type_symbol
 _atom_site_label
 _atom_site_symmetry_multiplicity
 _atom_site_fract_x
 _atom_site_fract_y
 _atom_site_fract_z
 _atom_site_occupancy
  Pr  Pr0  1  0.750000  0.164738  0.010916  1
  Pr  Pr1  1  0.750000  0.406754  0.334571  1
  Pr  Pr2  1  0.750000  0.834722  0.510455  1
  Pr  Pr3  1  0.750000  0.593888  0.833719  1
  Pr  Pr4  1  0.250000  0.407190  0.166911  1
  Pr  Pr5  1  0.250000  0.165088  0.489795  1
  Pr  Pr6  1  0.250000  0.594567  0.664472  1
  Nd  Nd7  1  0.250000  0.834199  0.991230  1
  Al  Al8  1  0.500036  0.927772  0.250324  1
  Al  Al9  1  0.500484  0.072016  0.749437  1
  Al  Al10  1  0.999964  0.927772  0.250324  1
  Al  Al11  1  0.999516  0.072016  0.749437  1
  Al  Al12  1  0.250000  0.331937  0.897904  1
  Ga  Ga13  1  0.750000  0.666834  0.101116  1
  Ga  Ga14  1  0.750000  0.333030  0.600441  1
  Ga  Ga15  1  0.250000  0.667471  0.398949  1
