# generated using pymatgen
data_Ba6Tm3Lu(WO9)2
_symmetry_space_group_name_H-M   'P 1'
_cell_length_a   6.03573887
_cell_length_b   8.54709438
_cell_length_c   10.46009602
_cell_angle_alpha   65.88577049
_cell_angle_beta   73.23106812
_cell_angle_gamma   90.00000195
_symmetry_Int_Tables_number   1
_chemical_formula_structural   Ba6Tm3Lu(WO9)2
_chemical_formula_sum   'Ba6 Tm3 Lu1 W2 O18'
_cell_volume   467.27155868
_cell_formula_units_Z   1
loop_
 _symmetry_equiv_pos_site_id
 _symmetry_equiv_pos_as_xyz
  1  'x, y, z'
loop_
 _atom_site_type_symbol
 _atom_site_label
 _atom_site_symmetry_multiplicity
 _atom_site_fract_x
 _atom_site_fract_y
 _atom_site_fract_z
 _atom_site_occupancy
  Ba  Ba0  1  0.500000  0.266197  0.000000  1
  Ba  Ba1  1  0.839664  0.580145  0.320671  1
  Ba  Ba2  1  0.160336  0.900817  0.679329  1
  Ba  Ba3  1  0.500000  0.733803  0.000000  1
  Ba  Ba4  1  0.839664  0.099183  0.320671  1
  Ba  Ba5  1  0.160336  0.419855  0.679329  1
  Tm  Tm6  1  0.000000  0.000000  0.000000  1
  Tm  Tm7  1  0.330247  0.330247  0.339507  1
  Tm  Tm8  1  0.669753  0.669753  0.660493  1
  Lu  Lu9  1  0.000000  0.500000  0.000000  1
  W  W10  1  0.334114  0.834114  0.331770  1
  W  W11  1  0.665886  0.165886  0.668229  1
  O  O12  1  0.000000  0.247801  0.000000  1
  O  O13  1  0.330732  0.599659  0.338536  1
  O  O14  1  0.669268  0.938197  0.661464  1
  O  O15  1  0.162213  0.412036  0.175927  1
  O  O16  1  0.491273  0.758766  0.482467  1
  O  O17  1  0.819027  0.088905  0.822189  1
  O  O18  1  0.338138  0.587964  0.824073  1
  O  O19  1  0.641217  0.911095  0.177811  1
  O  O20  1  0.973741  0.241234  0.517533  1
  O  O21  1  0.000000  0.752199  0.000000  1
  O  O22  1  0.330732  0.061803  0.338536  1
  O  O23  1  0.669268  0.400341  0.661464  1
  O  O24  1  0.837787  0.587964  0.824073  1
  O  O25  1  0.180973  0.911095  0.177811  1
  O  O26  1  0.508727  0.241234  0.517533  1
  O  O27  1  0.661862  0.412036  0.175927  1
  O  O28  1  0.026259  0.758766  0.482467  1
  O  O29  1  0.358783  0.088905  0.822189  1
