# generated using pymatgen
data_Cs2V3GaF12
_symmetry_space_group_name_H-M   'P 1'
_cell_length_a   7.55914571
_cell_length_b   7.55914603
_cell_length_c   7.55914622
_cell_angle_alpha   59.83871399
_cell_angle_beta   59.83871272
_cell_angle_gamma   59.83870639
_symmetry_Int_Tables_number   1
_chemical_formula_structural   Cs2V3GaF12
_chemical_formula_sum   'Cs2 V3 Ga1 F12'
_cell_volume   304.30601778
_cell_formula_units_Z   1
loop_
 _symmetry_equiv_pos_site_id
 _symmetry_equiv_pos_as_xyz
  1  'x, y, z'
loop_
 _atom_site_type_symbol
 _atom_site_label
 _atom_site_symmetry_multiplicity
 _atom_site_fract_x
 _atom_site_fract_y
 _atom_site_fract_z
 _atom_site_occupancy
  Cs  Cs0  1  0.372381  0.372381  0.372381  1
  Cs  Cs1  1  0.627619  0.627619  0.627619  1
  V  V2  1  0.500000  0.000000  0.000000  1
  V  V3  1  0.000000  0.000000  0.500000  1
  V  V4  1  0.000000  0.500000  0.000000  1
  Ga  Ga5  1  0.000000  0.000000  0.000000  1
  F  F6  1  0.936174  0.323567  0.323567  1
  F  F7  1  0.302057  0.935770  0.935770  1
  F  F8  1  0.323567  0.323567  0.936174  1
  F  F9  1  0.935770  0.935770  0.302057  1
  F  F10  1  0.935770  0.302057  0.935770  1
  F  F11  1  0.323567  0.936174  0.323567  1
  F  F12  1  0.063826  0.676433  0.676433  1
  F  F13  1  0.697943  0.064230  0.064230  1
  F  F14  1  0.676433  0.676433  0.063826  1
  F  F15  1  0.064230  0.064230  0.697943  1
  F  F16  1  0.064230  0.697943  0.064230  1
  F  F17  1  0.676433  0.063826  0.676433  1
