# generated using pymatgen
data_Er2Tm7Pa3Ga20
_symmetry_space_group_name_H-M   'P 1'
_cell_length_a   6.03466967
_cell_length_b   9.51614033
_cell_length_c   11.57091717
_cell_angle_alpha   89.93341554
_cell_angle_beta   89.77761664
_cell_angle_gamma   90.01560602
_symmetry_Int_Tables_number   1
_chemical_formula_structural   Er2Tm7Pa3Ga20
_chemical_formula_sum   'Er2 Tm7 Pa3 Ga20'
_cell_volume   664.47484343
_cell_formula_units_Z   1
loop_
 _symmetry_equiv_pos_site_id
 _symmetry_equiv_pos_as_xyz
  1  'x, y, z'
loop_
 _atom_site_type_symbol
 _atom_site_label
 _atom_site_symmetry_multiplicity
 _atom_site_fract_x
 _atom_site_fract_y
 _atom_site_fract_z
 _atom_site_occupancy
  Er  Er0  1  0.883528  0.503665  0.350400  1
  Er  Er1  1  0.618759  0.995583  0.851236  1
  Tm  Tm2  1  0.857390  0.745663  0.073676  1
  Tm  Tm3  1  0.637909  0.752193  0.573323  1
  Tm  Tm4  1  0.143123  0.247283  0.927496  1
  Tm  Tm5  1  0.355289  0.254241  0.428142  1
  Tm  Tm6  1  0.385279  0.002466  0.148359  1
  Tm  Tm7  1  0.882636  0.998308  0.350450  1
  Tm  Tm8  1  0.616730  0.502108  0.851074  1
  Pa  Pa9  1  0.118001  0.002969  0.647923  1
  Pa  Pa10  1  0.383434  0.495350  0.148429  1
  Pa  Pa11  1  0.117872  0.498977  0.647038  1
  Ga  Ga12  1  0.869105  0.049958  0.092741  1
  Ga  Ga13  1  0.627421  0.449484  0.592860  1
  Ga  Ga14  1  0.133885  0.551186  0.909486  1
  Ga  Ga15  1  0.366615  0.950640  0.407106  1
  Ga  Ga16  1  0.131173  0.944281  0.909103  1
  Ga  Ga17  1  0.368043  0.557084  0.409766  1
  Ga  Ga18  1  0.874285  0.443577  0.091467  1
  Ga  Ga19  1  0.627077  0.053882  0.591222  1
  Ga  Ga20  1  0.160387  0.751831  0.259391  1
  Ga  Ga21  1  0.340102  0.749503  0.763600  1
  Ga  Ga22  1  0.843536  0.250719  0.738721  1
  Ga  Ga23  1  0.658717  0.248791  0.239494  1
  Ga  Ga24  1  0.392233  0.749080  0.999596  1
  Ga  Ga25  1  0.105273  0.753123  0.496465  1
  Ga  Ga26  1  0.610163  0.248988  0.001815  1
  Ga  Ga27  1  0.888729  0.251245  0.503154  1
  Ga  Ga28  1  0.601420  0.750730  0.295931  1
  Ga  Ga29  1  0.902124  0.747901  0.792524  1
  Ga  Ga30  1  0.395877  0.251018  0.703825  1
  Ga  Ga31  1  0.103886  0.248175  0.204186  1
