# generated using pymatgen
data_Ba3SrBi2O9
_symmetry_space_group_name_H-M   'P 1'
_cell_length_a   6.28648600
_cell_length_b   6.28648550
_cell_length_c   15.22542500
_cell_angle_alpha   90.00000000
_cell_angle_beta   90.00000000
_cell_angle_gamma   120.00000263
_symmetry_Int_Tables_number   1
_chemical_formula_structural   Ba3SrBi2O9
_chemical_formula_sum   'Ba6 Sr2 Bi4 O18'
_cell_volume   521.09381140
_cell_formula_units_Z   2
loop_
 _symmetry_equiv_pos_site_id
 _symmetry_equiv_pos_as_xyz
  1  'x, y, z'
loop_
 _atom_site_type_symbol
 _atom_site_label
 _atom_site_symmetry_multiplicity
 _atom_site_fract_x
 _atom_site_fract_y
 _atom_site_fract_z
 _atom_site_occupancy
  Ba  Ba0  1  0.333333  0.666667  0.082791  1
  Ba  Ba1  1  0.666667  0.333333  0.917209  1
  Ba  Ba2  1  0.333333  0.666667  0.582791  1
  Ba  Ba3  1  0.666667  0.333333  0.417209  1
  Ba  Ba4  1  0.000000  0.000000  0.250000  1
  Ba  Ba5  1  0.000000  0.000000  0.750000  1
  Sr  Sr6  1  0.000000  0.000000  0.000000  1
  Sr  Sr7  1  0.000000  0.000000  0.500000  1
  Bi  Bi8  1  0.333333  0.666667  0.833449  1
  Bi  Bi9  1  0.666667  0.333333  0.166551  1
  Bi  Bi10  1  0.333333  0.666667  0.333449  1
  Bi  Bi11  1  0.666667  0.333333  0.666551  1
  O  O12  1  0.889883  0.646690  0.592259  1
  O  O13  1  0.000000  0.563877  0.250000  1
  O  O14  1  0.243193  0.353310  0.907741  1
  O  O15  1  0.889883  0.243193  0.092259  1
  O  O16  1  0.756807  0.110117  0.592259  1
  O  O17  1  0.756807  0.646690  0.092259  1
  O  O18  1  0.646690  0.756807  0.407741  1
  O  O19  1  0.436123  0.000000  0.750000  1
  O  O20  1  0.563877  0.563877  0.750000  1
  O  O21  1  0.353310  0.243193  0.592259  1
  O  O22  1  0.110117  0.353310  0.407741  1
  O  O23  1  0.243193  0.889883  0.407741  1
  O  O24  1  0.353310  0.110117  0.092259  1
  O  O25  1  0.563877  0.000000  0.250000  1
  O  O26  1  0.436123  0.436123  0.250000  1
  O  O27  1  0.000000  0.436123  0.750000  1
  O  O28  1  0.110117  0.756807  0.907741  1
  O  O29  1  0.646690  0.889883  0.907741  1
