# generated using pymatgen
data_Ba4GdSbO8
_symmetry_space_group_name_H-M   'P 1'
_cell_length_a   7.47424158
_cell_length_b   7.47424034
_cell_length_c   6.06796900
_cell_angle_alpha   90.00000000
_cell_angle_beta   90.00000000
_cell_angle_gamma   132.30949811
_symmetry_Int_Tables_number   1
_chemical_formula_structural   Ba4GdSbO8
_chemical_formula_sum   'Ba4 Gd1 Sb1 O8'
_cell_volume   250.68432741
_cell_formula_units_Z   1
loop_
 _symmetry_equiv_pos_site_id
 _symmetry_equiv_pos_as_xyz
  1  'x, y, z'
loop_
 _atom_site_type_symbol
 _atom_site_label
 _atom_site_symmetry_multiplicity
 _atom_site_fract_x
 _atom_site_fract_y
 _atom_site_fract_z
 _atom_site_occupancy
  Ba  Ba0  1  0.353168  0.646832  0.000000  1
  Ba  Ba1  1  0.852693  0.147307  0.500000  1
  Ba  Ba2  1  0.147307  0.852693  0.500000  1
  Ba  Ba3  1  0.646832  0.353168  0.000000  1
  Gd  Gd4  1  0.000000  0.000000  0.000000  1
  Sb  Sb5  1  0.500000  0.500000  0.500000  1
  O  O6  1  0.263142  0.263142  0.732007  1
  O  O7  1  0.736858  0.736858  0.267993  1
  O  O8  1  0.736858  0.736858  0.732007  1
  O  O9  1  0.263142  0.263142  0.267993  1
  O  O10  1  0.166781  0.833219  0.000000  1
  O  O11  1  0.651009  0.348991  0.500000  1
  O  O12  1  0.348991  0.651009  0.500000  1
  O  O13  1  0.833219  0.166781  0.000000  1
