# generated using pymatgen
data_UMn(CoB)2
_symmetry_space_group_name_H-M   'P 1'
_cell_length_a   5.11602370
_cell_length_b   4.91368339
_cell_length_c   2.94840200
_cell_angle_alpha   90.00000000
_cell_angle_beta   90.00000000
_cell_angle_gamma   118.70007386
_symmetry_Int_Tables_number   1
_chemical_formula_structural   UMn(CoB)2
_chemical_formula_sum   'U1 Mn1 Co2 B2'
_cell_volume   65.01268101
_cell_formula_units_Z   1
loop_
 _symmetry_equiv_pos_site_id
 _symmetry_equiv_pos_as_xyz
  1  'x, y, z'
loop_
 _atom_site_type_symbol
 _atom_site_label
 _atom_site_symmetry_multiplicity
 _atom_site_fract_x
 _atom_site_fract_y
 _atom_site_fract_z
 _atom_site_occupancy
  U  U0  1  0.000000  0.000000  0.000000  1
  Mn  Mn1  1  0.000000  0.500000  0.500000  1
  Co  Co2  1  0.500000  0.000000  0.500000  1
  Co  Co3  1  0.500000  0.500000  0.500000  1
  B  B4  1  0.667502  0.333750  0.000000  1
  B  B5  1  0.332498  0.666250  0.000000  1
