# generated using pymatgen
data_YTh2Ga3Ru2Rh
_symmetry_space_group_name_H-M   'P 1'
_cell_length_a   7.30714839
_cell_length_b   7.09416550
_cell_length_c   3.98001600
_cell_angle_alpha   90.00000000
_cell_angle_beta   90.00000000
_cell_angle_gamma   119.04041808
_symmetry_Int_Tables_number   1
_chemical_formula_structural   YTh2Ga3Ru2Rh
_chemical_formula_sum   'Y1 Th2 Ga3 Ru2 Rh1'
_cell_volume   180.37791322
_cell_formula_units_Z   1
loop_
 _symmetry_equiv_pos_site_id
 _symmetry_equiv_pos_as_xyz
  1  'x, y, z'
loop_
 _atom_site_type_symbol
 _atom_site_label
 _atom_site_symmetry_multiplicity
 _atom_site_fract_x
 _atom_site_fract_y
 _atom_site_fract_z
 _atom_site_occupancy
  Y  Y0  1  0.000000  0.410055  0.500000  1
  Th  Th1  1  0.579584  0.581536  0.500000  1
  Th  Th2  1  0.420416  0.001954  0.500000  1
  Ga  Ga3  1  0.000000  0.738702  0.000000  1
  Ga  Ga4  1  0.229460  0.244358  0.000000  1
  Ga  Ga5  1  0.770540  0.014899  0.000000  1
  Ru  Ru6  1  0.358337  0.689227  0.000000  1
  Ru  Ru7  1  0.641663  0.330890  0.000000  1
  Rh  Rh8  1  0.000000  0.988379  0.500000  1
