# generated using pymatgen
data_Na2Co12GeP6
_symmetry_space_group_name_H-M   'P 1'
_cell_length_a   9.05882600
_cell_length_b   9.05882512
_cell_length_c   3.51897900
_cell_angle_alpha   90.00000000
_cell_angle_beta   90.00000000
_cell_angle_gamma   119.99999593
_symmetry_Int_Tables_number   1
_chemical_formula_structural   Na2Co12GeP6
_chemical_formula_sum   'Na2 Co12 Ge1 P6'
_cell_volume   250.08700067
_cell_formula_units_Z   1
loop_
 _symmetry_equiv_pos_site_id
 _symmetry_equiv_pos_as_xyz
  1  'x, y, z'
loop_
 _atom_site_type_symbol
 _atom_site_label
 _atom_site_symmetry_multiplicity
 _atom_site_fract_x
 _atom_site_fract_y
 _atom_site_fract_z
 _atom_site_occupancy
  Na  Na0  1  0.000000  0.000000  0.000000  1
  Na  Na1  1  0.333333  0.666667  0.500000  1
  Co  Co2  1  0.104478  0.394238  0.000000  1
  Co  Co3  1  0.605762  0.710238  0.000000  1
  Co  Co4  1  0.289762  0.895522  0.000000  1
  Co  Co5  1  0.054536  0.771039  0.500000  1
  Co  Co6  1  0.228961  0.283496  0.500000  1
  Co  Co7  1  0.716504  0.945464  0.500000  1
  Co  Co8  1  0.826795  0.619678  0.000000  1
  Co  Co9  1  0.380322  0.207119  0.000000  1
  Co  Co10  1  0.792881  0.173205  0.000000  1
  Co  Co11  1  0.911741  0.441488  0.500000  1
  Co  Co12  1  0.558512  0.470253  0.500000  1
  Co  Co13  1  0.529747  0.088259  0.500000  1
  Ge  Ge14  1  0.666667  0.333333  0.000000  1
  P  P15  1  0.778338  0.737794  0.500000  1
  P  P16  1  0.262206  0.040544  0.500000  1
  P  P17  1  0.959456  0.221662  0.500000  1
  P  P18  1  0.072421  0.624925  0.000000  1
  P  P19  1  0.375075  0.447495  0.000000  1
  P  P20  1  0.552505  0.927579  0.000000  1
