# generated using pymatgen
data_Ba4AlGa3F20
_symmetry_space_group_name_H-M   'P 1'
_cell_length_a   5.11746165
_cell_length_b   5.74850524
_cell_length_c   14.10292004
_cell_angle_alpha   89.86605363
_cell_angle_beta   90.14934245
_cell_angle_gamma   90.04364855
_symmetry_Int_Tables_number   1
_chemical_formula_structural   Ba4AlGa3F20
_chemical_formula_sum   'Ba4 Al1 Ga3 F20'
_cell_volume   414.87358636
_cell_formula_units_Z   1
loop_
 _symmetry_equiv_pos_site_id
 _symmetry_equiv_pos_as_xyz
  1  'x, y, z'
loop_
 _atom_site_type_symbol
 _atom_site_label
 _atom_site_symmetry_multiplicity
 _atom_site_fract_x
 _atom_site_fract_y
 _atom_site_fract_z
 _atom_site_occupancy
  Ba  Ba0  1  0.737072  0.661518  0.656029  1
  Ba  Ba1  1  0.235063  0.843551  0.345420  1
  Ba  Ba2  1  0.267741  0.157838  0.840747  1
  Ba  Ba3  1  0.770088  0.343855  0.157033  1
  Al  Al4  1  0.315260  0.147946  0.587473  1
  Ga  Ga5  1  0.813054  0.349652  0.416023  1
  Ga  Ga6  1  0.686144  0.645494  0.912243  1
  Ga  Ga7  1  0.188456  0.854949  0.086405  1
  F  F8  1  0.942132  0.613821  0.479234  1
  F  F9  1  0.443378  0.901039  0.524849  1
  F  F10  1  0.048635  0.110269  0.020240  1
  F  F11  1  0.547482  0.390113  0.978344  1
  F  F12  1  0.626845  0.544055  0.329425  1
  F  F13  1  0.133852  0.958590  0.666760  1
  F  F14  1  0.364267  0.057275  0.172952  1
  F  F15  1  0.859484  0.441067  0.826305  1
  F  F16  1  0.194774  0.403320  0.646912  1
  F  F17  1  0.699491  0.078762  0.353465  1
  F  F18  1  0.813660  0.907855  0.846416  1
  F  F19  1  0.313367  0.590154  0.150558  1
  F  F20  1  0.583772  0.141652  0.672976  1
  F  F21  1  0.094612  0.356375  0.325640  1
  F  F22  1  0.400489  0.648301  0.822868  1
  F  F23  1  0.904072  0.853206  0.175890  1
  F  F24  1  0.524322  0.344478  0.508892  1
  F  F25  1  0.041798  0.153416  0.498725  1
  F  F26  1  0.475825  0.858443  0.993734  1
  F  F27  1  0.974865  0.643005  0.004442  1
