# generated using pymatgen
data_KHfHgF7
_symmetry_space_group_name_H-M   'P 1'
_cell_length_a   6.64576282
_cell_length_b   6.64576361
_cell_length_c   8.78959300
_cell_angle_alpha   90.00000000
_cell_angle_beta   90.00000000
_cell_angle_gamma   116.85071311
_symmetry_Int_Tables_number   1
_chemical_formula_structural   KHfHgF7
_chemical_formula_sum   'K2 Hf2 Hg2 F14'
_cell_volume   346.34911924
_cell_formula_units_Z   2
loop_
 _symmetry_equiv_pos_site_id
 _symmetry_equiv_pos_as_xyz
  1  'x, y, z'
loop_
 _atom_site_type_symbol
 _atom_site_label
 _atom_site_symmetry_multiplicity
 _atom_site_fract_x
 _atom_site_fract_y
 _atom_site_fract_z
 _atom_site_occupancy
  K  K0  1  0.000000  0.000000  0.000000  1
  K  K1  1  0.000000  0.000000  0.500000  1
  Hf  Hf2  1  0.693248  0.306752  0.750000  1
  Hf  Hf3  1  0.306752  0.693248  0.250000  1
  Hg  Hg4  1  0.308547  0.691453  0.750000  1
  Hg  Hg5  1  0.691453  0.308547  0.250000  1
  F  F6  1  0.350965  0.070100  0.750000  1
  F  F7  1  0.649035  0.929900  0.250000  1
  F  F8  1  0.929900  0.649035  0.750000  1
  F  F9  1  0.070100  0.350965  0.250000  1
  F  F10  1  0.514176  0.485824  0.750000  1
  F  F11  1  0.485824  0.514176  0.250000  1
  F  F12  1  0.703735  0.296265  0.977329  1
  F  F13  1  0.296265  0.703735  0.022671  1
  F  F14  1  0.296265  0.703735  0.477329  1
  F  F15  1  0.703735  0.296265  0.522671  1
  F  F16  1  0.675057  0.979751  0.750000  1
  F  F17  1  0.324943  0.020249  0.250000  1
  F  F18  1  0.020249  0.324943  0.750000  1
  F  F19  1  0.979751  0.675057  0.250000  1
