# generated using pymatgen
data_Rb12Al7InSb12
_symmetry_space_group_name_H-M   'P 1'
_cell_length_a   11.13685314
_cell_length_b   11.13685255
_cell_length_c   16.05575606
_cell_angle_alpha   89.98667037
_cell_angle_beta   89.98667162
_cell_angle_gamma   142.18809358
_symmetry_Int_Tables_number   1
_chemical_formula_structural   Rb12Al7InSb12
_chemical_formula_sum   'Rb12 Al7 In1 Sb12'
_cell_volume   1220.86193949
_cell_formula_units_Z   1
loop_
 _symmetry_equiv_pos_site_id
 _symmetry_equiv_pos_as_xyz
  1  'x, y, z'
loop_
 _atom_site_type_symbol
 _atom_site_label
 _atom_site_symmetry_multiplicity
 _atom_site_fract_x
 _atom_site_fract_y
 _atom_site_fract_z
 _atom_site_occupancy
  Rb  Rb0  1  0.613910  0.933744  0.670900  1
  Rb  Rb1  1  0.568512  0.886355  0.169408  1
  Rb  Rb2  1  0.066256  0.386090  0.329100  1
  Rb  Rb3  1  0.113645  0.431488  0.830592  1
  Rb  Rb4  1  0.656077  0.656357  0.864600  1
  Rb  Rb5  1  0.431345  0.113154  0.831529  1
  Rb  Rb6  1  0.343643  0.343923  0.135400  1
  Rb  Rb7  1  0.931848  0.613238  0.670631  1
  Rb  Rb8  1  0.157984  0.159040  0.636941  1
  Rb  Rb9  1  0.886846  0.568655  0.168471  1
  Rb  Rb10  1  0.840960  0.842016  0.363059  1
  Rb  Rb11  1  0.386762  0.068152  0.329369  1
  Al  Al12  1  0.244487  0.755513  0.500000  1
  Al  Al13  1  0.257754  0.742246  0.000000  1
  Al  Al14  1  0.742386  0.257614  0.000000  1
  Al  Al15  1  0.917469  0.082531  0.000000  1
  Al  Al16  1  0.758501  0.241499  0.500000  1
  Al  Al17  1  0.082520  0.917480  0.000000  1
  Al  Al18  1  0.415803  0.584197  0.500000  1
  In  In19  1  0.583665  0.416335  0.500000  1
  Sb  Sb20  1  0.051042  0.399054  0.085842  1
  Sb  Sb21  1  0.655483  0.665524  0.613108  1
  Sb  Sb22  1  0.399084  0.051035  0.085984  1
  Sb  Sb23  1  0.600946  0.948958  0.914158  1
  Sb  Sb24  1  0.948965  0.600916  0.914016  1
  Sb  Sb25  1  0.446983  0.089660  0.590758  1
  Sb  Sb26  1  0.553349  0.901165  0.413184  1
  Sb  Sb27  1  0.157247  0.157124  0.891511  1
  Sb  Sb28  1  0.098835  0.446651  0.586816  1
  Sb  Sb29  1  0.842876  0.842753  0.108489  1
  Sb  Sb30  1  0.334476  0.344517  0.386892  1
  Sb  Sb31  1  0.910340  0.553017  0.409242  1
