# generated using pymatgen
data_Dy16Al4CuRu3
_symmetry_space_group_name_H-M   'P 1'
_cell_length_a   9.50891876
_cell_length_b   9.50891800
_cell_length_c   9.50891887
_cell_angle_alpha   60.03994444
_cell_angle_beta   60.03994741
_cell_angle_gamma   60.03994226
_symmetry_Int_Tables_number   1
_chemical_formula_structural   Dy16Al4CuRu3
_chemical_formula_sum   'Dy16 Al4 Cu1 Ru3'
_cell_volume   608.51518964
_cell_formula_units_Z   1
loop_
 _symmetry_equiv_pos_site_id
 _symmetry_equiv_pos_as_xyz
  1  'x, y, z'
loop_
 _atom_site_type_symbol
 _atom_site_label
 _atom_site_symmetry_multiplicity
 _atom_site_fract_x
 _atom_site_fract_y
 _atom_site_fract_z
 _atom_site_occupancy
  Dy  Dy0  1  0.600909  0.600909  0.600909  1
  Dy  Dy1  1  0.604975  0.604975  0.191555  1
  Dy  Dy2  1  0.604975  0.191555  0.604975  1
  Dy  Dy3  1  0.191555  0.604975  0.604975  1
  Dy  Dy4  1  0.050594  0.444201  0.444201  1
  Dy  Dy5  1  0.443608  0.055466  0.055466  1
  Dy  Dy6  1  0.444201  0.050594  0.444201  1
  Dy  Dy7  1  0.055466  0.443608  0.055466  1
  Dy  Dy8  1  0.444201  0.444201  0.050594  1
  Dy  Dy9  1  0.055466  0.055466  0.443608  1
  Dy  Dy10  1  0.189876  0.810484  0.810484  1
  Dy  Dy11  1  0.815986  0.187877  0.187877  1
  Dy  Dy12  1  0.810484  0.189876  0.810484  1
  Dy  Dy13  1  0.187877  0.815986  0.187877  1
  Dy  Dy14  1  0.810484  0.810484  0.189876  1
  Dy  Dy15  1  0.187877  0.187877  0.815986  1
  Al  Al16  1  0.827167  0.827167  0.827167  1
  Al  Al17  1  0.827194  0.827194  0.518820  1
  Al  Al18  1  0.827194  0.518820  0.827194  1
  Al  Al19  1  0.518820  0.827194  0.827194  1
  Cu  Cu20  1  0.392492  0.392492  0.392492  1
  Ru  Ru21  1  0.390713  0.390713  0.827174  1
  Ru  Ru22  1  0.390713  0.827174  0.390713  1
  Ru  Ru23  1  0.827174  0.390713  0.390713  1
