# generated using pymatgen
data_Tb2DyEr17Bi12
_symmetry_space_group_name_H-M   'P 1'
_cell_length_a   8.21018028
_cell_length_b   9.46962100
_cell_length_c   11.96586600
_cell_angle_alpha   90.00000000
_cell_angle_beta   90.01499488
_cell_angle_gamma   90.00000000
_symmetry_Int_Tables_number   1
_chemical_formula_structural   Tb2DyEr17Bi12
_chemical_formula_sum   'Tb2 Dy1 Er17 Bi12'
_cell_volume   930.31368918
_cell_formula_units_Z   1
loop_
 _symmetry_equiv_pos_site_id
 _symmetry_equiv_pos_as_xyz
  1  'x, y, z'
loop_
 _atom_site_type_symbol
 _atom_site_label
 _atom_site_symmetry_multiplicity
 _atom_site_fract_x
 _atom_site_fract_y
 _atom_site_fract_z
 _atom_site_occupancy
  Tb  Tb0  1  0.686274  0.750000  0.781452  1
  Tb  Tb1  1  0.186198  0.750000  0.718530  1
  Dy  Dy2  1  0.813370  0.250000  0.281931  1
  Er  Er3  1  0.353322  0.750000  0.217307  1
  Er  Er4  1  0.853134  0.750000  0.282536  1
  Er  Er5  1  0.646744  0.250000  0.782994  1
  Er  Er6  1  0.147122  0.250000  0.717365  1
  Er  Er7  1  0.692294  0.565103  0.059378  1
  Er  Er8  1  0.191982  0.934862  0.440392  1
  Er  Er9  1  0.307956  0.065052  0.940908  1
  Er  Er10  1  0.808188  0.434816  0.559304  1
  Er  Er11  1  0.307956  0.434948  0.940908  1
  Er  Er12  1  0.808188  0.065184  0.559304  1
  Er  Er13  1  0.692294  0.934897  0.059378  1
  Er  Er14  1  0.191982  0.565138  0.440392  1
  Er  Er15  1  0.475919  0.250000  0.488168  1
  Er  Er16  1  0.976116  0.250000  0.011918  1
  Er  Er17  1  0.523822  0.750000  0.511201  1
  Er  Er18  1  0.024108  0.750000  0.988827  1
  Er  Er19  1  0.312709  0.250000  0.217434  1
  Bi  Bi20  1  0.405147  0.750000  0.958969  1
  Bi  Bi21  1  0.904936  0.750000  0.541015  1
  Bi  Bi22  1  0.594159  0.250000  0.042335  1
  Bi  Bi23  1  0.095191  0.250000  0.458008  1
  Bi  Bi24  1  0.565418  0.995487  0.325833  1
  Bi  Bi25  1  0.066756  0.504605  0.173995  1
  Bi  Bi26  1  0.434199  0.494433  0.673623  1
  Bi  Bi27  1  0.934069  0.005686  0.826570  1
  Bi  Bi28  1  0.434199  0.005567  0.673623  1
  Bi  Bi29  1  0.934069  0.494314  0.826570  1
  Bi  Bi30  1  0.565418  0.504513  0.325833  1
  Bi  Bi31  1  0.066756  0.995395  0.173995  1
