# generated using pymatgen
data_Tm5Al2GaC4
_symmetry_space_group_name_H-M   'P 1'
_cell_length_a   10.71717800
_cell_length_b   10.71717800
_cell_length_c   3.46140000
_cell_angle_alpha   90.00000000
_cell_angle_beta   90.00000000
_cell_angle_gamma   90.00000000
_symmetry_Int_Tables_number   1
_chemical_formula_structural   Tm5Al2GaC4
_chemical_formula_sum   'Tm10 Al4 Ga2 C8'
_cell_volume   397.56914989
_cell_formula_units_Z   2
loop_
 _symmetry_equiv_pos_site_id
 _symmetry_equiv_pos_as_xyz
  1  'x, y, z'
loop_
 _atom_site_type_symbol
 _atom_site_label
 _atom_site_symmetry_multiplicity
 _atom_site_fract_x
 _atom_site_fract_y
 _atom_site_fract_z
 _atom_site_occupancy
  Tm  Tm0  1  0.549818  0.729335  0.500000  1
  Tm  Tm1  1  0.450182  0.270665  0.500000  1
  Tm  Tm2  1  0.049818  0.770665  0.500000  1
  Tm  Tm3  1  0.950182  0.229335  0.500000  1
  Tm  Tm4  1  0.270665  0.549818  0.500000  1
  Tm  Tm5  1  0.729335  0.450182  0.500000  1
  Tm  Tm6  1  0.229335  0.049818  0.500000  1
  Tm  Tm7  1  0.770665  0.950182  0.500000  1
  Tm  Tm8  1  0.500000  0.000000  0.000000  1
  Tm  Tm9  1  0.000000  0.500000  0.000000  1
  Al  Al10  1  0.703695  0.203695  0.000000  1
  Al  Al11  1  0.296305  0.796305  0.000000  1
  Al  Al12  1  0.203695  0.296305  0.000000  1
  Al  Al13  1  0.796305  0.703695  0.000000  1
  Ga  Ga14  1  0.500000  0.500000  0.000000  1
  Ga  Ga15  1  0.000000  0.000000  0.000000  1
  C  C16  1  0.630467  0.130467  0.500000  1
  C  C17  1  0.369533  0.869533  0.500000  1
  C  C18  1  0.130467  0.369533  0.500000  1
  C  C19  1  0.869533  0.630467  0.500000  1
  C  C20  1  0.161463  0.661463  0.000000  1
  C  C21  1  0.838537  0.338537  0.000000  1
  C  C22  1  0.661463  0.838537  0.000000  1
  C  C23  1  0.338537  0.161463  0.000000  1
