# generated using pymatgen
data_Gd5Dy3(ScIn3)2
_symmetry_space_group_name_H-M   'P 1'
_cell_length_a   9.05229129
_cell_length_b   9.05229229
_cell_length_c   9.05049500
_cell_angle_alpha   96.47989182
_cell_angle_beta   96.47264976
_cell_angle_gamma   140.75622864
_symmetry_Int_Tables_number   1
_chemical_formula_structural   Gd5Dy3(ScIn3)2
_chemical_formula_sum   'Gd5 Dy3 Sc2 In6'
_cell_volume   441.91671323
_cell_formula_units_Z   1
loop_
 _symmetry_equiv_pos_site_id
 _symmetry_equiv_pos_as_xyz
  1  'x, y, z'
loop_
 _atom_site_type_symbol
 _atom_site_label
 _atom_site_symmetry_multiplicity
 _atom_site_fract_x
 _atom_site_fract_y
 _atom_site_fract_z
 _atom_site_occupancy
  Gd  Gd0  1  0.719968  0.414344  0.134313  1
  Gd  Gd1  1  0.278821  0.584447  0.863268  1
  Gd  Gd2  1  0.583605  0.720071  0.303675  1
  Gd  Gd3  1  0.220858  0.084183  0.305039  1
  Gd  Gd4  1  0.914645  0.220608  0.135255  1
  Dy  Dy5  1  0.781248  0.915833  0.697082  1
  Dy  Dy6  1  0.416178  0.280529  0.696708  1
  Dy  Dy7  1  0.083282  0.780070  0.863352  1
  Sc  Sc8  1  0.751823  0.251557  0.501743  1
  Sc  Sc9  1  0.250186  0.749921  0.501743  1
  In  In10  1  0.846109  0.656640  0.502748  1
  In  In11  1  0.343967  0.844774  0.188742  1
  In  In12  1  0.749665  0.748649  0.997596  1
  In  In13  1  0.654299  0.154893  0.809193  1
  In  In14  1  0.156401  0.345551  0.501952  1
  In  In15  1  0.248946  0.247932  0.997596  1
