# generated using pymatgen
data_Er2Fe7Co5P7
_symmetry_space_group_name_H-M   'P 1'
_cell_length_a   8.95413229
_cell_length_b   8.95365259
_cell_length_c   3.59404800
_cell_angle_alpha   90.00000000
_cell_angle_beta   90.00000000
_cell_angle_gamma   120.09995278
_symmetry_Int_Tables_number   1
_chemical_formula_structural   Er2Fe7Co5P7
_chemical_formula_sum   'Er2 Fe7 Co5 P7'
_cell_volume   249.28718397
_cell_formula_units_Z   1
loop_
 _symmetry_equiv_pos_site_id
 _symmetry_equiv_pos_as_xyz
  1  'x, y, z'
loop_
 _atom_site_type_symbol
 _atom_site_label
 _atom_site_symmetry_multiplicity
 _atom_site_fract_x
 _atom_site_fract_y
 _atom_site_fract_z
 _atom_site_occupancy
  Er  Er0  1  0.999471  0.999709  0.000000  1
  Er  Er1  1  0.334051  0.667427  0.500000  1
  Fe  Fe2  1  0.608035  0.900565  0.000000  1
  Fe  Fe3  1  0.820791  0.214593  0.000000  1
  Fe  Fe4  1  0.786113  0.606659  0.000000  1
  Fe  Fe5  1  0.391607  0.179132  0.000000  1
  Fe  Fe6  1  0.899580  0.462646  0.500000  1
  Fe  Fe7  1  0.537113  0.435327  0.500000  1
  Fe  Fe8  1  0.564514  0.104062  0.500000  1
  Co  Co9  1  0.100322  0.707062  0.000000  1
  Co  Co10  1  0.292530  0.392875  0.000000  1
  Co  Co11  1  0.050989  0.280620  0.500000  1
  Co  Co12  1  0.719964  0.769549  0.500000  1
  Co  Co13  1  0.229544  0.947701  0.500000  1
  P  P14  1  0.073932  0.446385  0.000000  1
  P  P15  1  0.554472  0.629193  0.000000  1
  P  P16  1  0.374924  0.927044  0.000000  1
  P  P17  1  0.776776  0.042893  0.500000  1
  P  P18  1  0.954906  0.734636  0.500000  1
  P  P19  1  0.264502  0.219230  0.500000  1
  P  P20  1  0.665863  0.332692  0.000000  1
