# generated using pymatgen
data_Tb16TlCd2InPd4
_symmetry_space_group_name_H-M   'P 1'
_cell_length_a   9.74598923
_cell_length_b   9.74598951
_cell_length_c   9.77093826
_cell_angle_alpha   60.15890038
_cell_angle_beta   60.15890029
_cell_angle_gamma   60.19054236
_symmetry_Int_Tables_number   1
_chemical_formula_structural   Tb16TlCd2InPd4
_chemical_formula_sum   'Tb16 Tl1 Cd2 In1 Pd4'
_cell_volume   658.77414012
_cell_formula_units_Z   1
loop_
 _symmetry_equiv_pos_site_id
 _symmetry_equiv_pos_as_xyz
  1  'x, y, z'
loop_
 _atom_site_type_symbol
 _atom_site_label
 _atom_site_symmetry_multiplicity
 _atom_site_fract_x
 _atom_site_fract_y
 _atom_site_fract_z
 _atom_site_occupancy
  Tb  Tb0  1  0.350747  0.350747  0.351381  1
  Tb  Tb1  1  0.353786  0.353786  0.939967  1
  Tb  Tb2  1  0.354140  0.938643  0.354140  1
  Tb  Tb3  1  0.938643  0.354140  0.354140  1
  Tb  Tb4  1  0.810283  0.191028  0.189564  1
  Tb  Tb5  1  0.189323  0.809910  0.810089  1
  Tb  Tb6  1  0.191028  0.810283  0.189564  1
  Tb  Tb7  1  0.809910  0.189323  0.810089  1
  Tb  Tb8  1  0.189015  0.189015  0.811801  1
  Tb  Tb9  1  0.808618  0.808618  0.190761  1
  Tb  Tb10  1  0.938591  0.566615  0.565204  1
  Tb  Tb11  1  0.564220  0.936986  0.934086  1
  Tb  Tb12  1  0.566615  0.938591  0.565204  1
  Tb  Tb13  1  0.936986  0.564220  0.934086  1
  Tb  Tb14  1  0.565880  0.565880  0.935796  1
  Tb  Tb15  1  0.937004  0.937004  0.562486  1
  Tl  Tl16  1  0.583803  0.583803  0.585923  1
  Cd  Cd17  1  0.579966  0.252591  0.581711  1
  Cd  Cd18  1  0.252591  0.579966  0.581711  1
  In  In19  1  0.581066  0.581066  0.252338  1
  Pd  Pd20  1  0.144507  0.144507  0.145077  1
  Pd  Pd21  1  0.142798  0.142798  0.568088  1
  Pd  Pd22  1  0.142661  0.567818  0.143395  1
  Pd  Pd23  1  0.567818  0.142661  0.143395  1
