# generated using pymatgen
data_TbSm9(Sn3Cl)2
_symmetry_space_group_name_H-M   'P 1'
_cell_length_a   9.30027900
_cell_length_b   9.30027886
_cell_length_c   6.66410200
_cell_angle_alpha   90.00000000
_cell_angle_beta   90.00000000
_cell_angle_gamma   119.99999695
_symmetry_Int_Tables_number   1
_chemical_formula_structural   TbSm9(Sn3Cl)2
_chemical_formula_sum   'Tb1 Sm9 Sn6 Cl2'
_cell_volume   499.18810539
_cell_formula_units_Z   1
loop_
 _symmetry_equiv_pos_site_id
 _symmetry_equiv_pos_as_xyz
  1  'x, y, z'
loop_
 _atom_site_type_symbol
 _atom_site_label
 _atom_site_symmetry_multiplicity
 _atom_site_fract_x
 _atom_site_fract_y
 _atom_site_fract_z
 _atom_site_occupancy
  Tb  Tb0  1  0.666667  0.333333  0.000000  1
  Sm  Sm1  1  0.333333  0.666667  0.500000  1
  Sm  Sm2  1  0.666667  0.333333  0.500000  1
  Sm  Sm3  1  0.333333  0.666667  0.000000  1
  Sm  Sm4  1  0.739293  0.000089  0.750318  1
  Sm  Sm5  1  0.739293  0.739204  0.249682  1
  Sm  Sm6  1  0.999911  0.260707  0.249682  1
  Sm  Sm7  1  0.999911  0.739204  0.750318  1
  Sm  Sm8  1  0.260796  0.260707  0.750318  1
  Sm  Sm9  1  0.260796  0.000089  0.249682  1
  Sn  Sn10  1  0.611084  0.610069  0.750907  1
  Sn  Sn11  1  0.998984  0.610069  0.249093  1
  Sn  Sn12  1  0.611084  0.001016  0.249093  1
  Sn  Sn13  1  0.389931  0.001016  0.750907  1
  Sn  Sn14  1  0.998984  0.388916  0.750907  1
  Sn  Sn15  1  0.389931  0.388916  0.249093  1
  Cl  Cl16  1  0.000000  0.000000  0.500000  1
  Cl  Cl17  1  0.000000  0.000000  0.000000  1
