# generated using pymatgen
data_Ti6V4Si3Ge3C2
_symmetry_space_group_name_H-M   'P 1'
_cell_length_a   7.42916757
_cell_length_b   7.41906613
_cell_length_c   5.05441000
_cell_angle_alpha   90.00000000
_cell_angle_beta   90.00000000
_cell_angle_gamma   120.15750215
_symmetry_Int_Tables_number   1
_chemical_formula_structural   Ti6V4Si3Ge3C2
_chemical_formula_sum   'Ti6 V4 Si3 Ge3 C2'
_cell_volume   240.87905520
_cell_formula_units_Z   1
loop_
 _symmetry_equiv_pos_site_id
 _symmetry_equiv_pos_as_xyz
  1  'x, y, z'
loop_
 _atom_site_type_symbol
 _atom_site_label
 _atom_site_symmetry_multiplicity
 _atom_site_fract_x
 _atom_site_fract_y
 _atom_site_fract_z
 _atom_site_occupancy
  Ti  Ti0  1  0.233032  0.003231  0.250000  1
  Ti  Ti1  1  0.768534  0.999681  0.750000  1
  Ti  Ti2  1  0.003124  0.234782  0.250000  1
  Ti  Ti3  1  0.996723  0.765213  0.750000  1
  Ti  Ti4  1  0.764845  0.764784  0.250000  1
  Ti  Ti5  1  0.233678  0.236447  0.750000  1
  V  V6  1  0.333298  0.661783  0.997825  1
  V  V7  1  0.666590  0.336603  0.997809  1
  V  V8  1  0.666590  0.336603  0.502191  1
  V  V9  1  0.333298  0.661783  0.502175  1
  Si  Si10  1  0.999065  0.407293  0.750000  1
  Si  Si11  1  0.410184  0.409491  0.250000  1
  Si  Si12  1  0.590771  0.590960  0.750000  1
  Ge  Ge13  1  0.593206  0.000324  0.250000  1
  Ge  Ge14  1  0.405932  0.999212  0.750000  1
  Ge  Ge15  1  0.001061  0.592270  0.250000  1
  C  C16  1  0.000035  0.999771  0.000196  1
  C  C17  1  0.000035  0.999771  0.499804  1
