# generated using pymatgen
data_GdErFeC4
_symmetry_space_group_name_H-M   'P 1'
_cell_length_a   6.54197523
_cell_length_b   6.68605077
_cell_length_c   6.68605172
_cell_angle_alpha   135.72685703
_cell_angle_beta   111.19557403
_cell_angle_gamma   85.91028654
_symmetry_Int_Tables_number   1
_chemical_formula_structural   GdErFeC4
_chemical_formula_sum   'Gd2 Er2 Fe2 C8'
_cell_volume   182.26661853
_cell_formula_units_Z   2
loop_
 _symmetry_equiv_pos_site_id
 _symmetry_equiv_pos_as_xyz
  1  'x, y, z'
loop_
 _atom_site_type_symbol
 _atom_site_label
 _atom_site_symmetry_multiplicity
 _atom_site_fract_x
 _atom_site_fract_y
 _atom_site_fract_z
 _atom_site_occupancy
  Gd  Gd0  1  0.505855  0.852521  0.653335  1
  Gd  Gd1  1  0.494145  0.147479  0.346665  1
  Er  Er2  1  0.197351  0.358752  0.838600  1
  Er  Er3  1  0.802649  0.641248  0.161400  1
  Fe  Fe4  1  0.000000  0.249685  0.249685  1
  Fe  Fe5  1  0.000000  0.750315  0.750315  1
  C  C6  1  0.799877  0.130802  0.669076  1
  C  C7  1  0.200123  0.869198  0.330924  1
  C  C8  1  0.468601  0.625187  0.843415  1
  C  C9  1  0.531399  0.374813  0.156585  1
  C  C10  1  0.919044  0.079827  0.839218  1
  C  C11  1  0.080956  0.920173  0.160782  1
  C  C12  1  0.245569  0.576457  0.669112  1
  C  C13  1  0.754431  0.423543  0.330888  1
