# generated using pymatgen
data_ErTmHf2(SiMo)4
_symmetry_space_group_name_H-M   'P 1'
_cell_length_a   3.56788900
_cell_length_b   7.11375190
_cell_length_c   8.30838002
_cell_angle_alpha   90.18830640
_cell_angle_beta   90.00000000
_cell_angle_gamma   90.00000000
_symmetry_Int_Tables_number   1
_chemical_formula_structural   ErTmHf2(SiMo)4
_chemical_formula_sum   'Er1 Tm1 Hf2 Si4 Mo4'
_cell_volume   210.87449548
_cell_formula_units_Z   1
loop_
 _symmetry_equiv_pos_site_id
 _symmetry_equiv_pos_as_xyz
  1  'x, y, z'
loop_
 _atom_site_type_symbol
 _atom_site_label
 _atom_site_symmetry_multiplicity
 _atom_site_fract_x
 _atom_site_fract_y
 _atom_site_fract_z
 _atom_site_occupancy
  Er  Er0  1  0.250000  0.043102  0.332023  1
  Tm  Tm1  1  0.750000  0.956859  0.668230  1
  Hf  Hf2  1  0.250000  0.542393  0.164781  1
  Hf  Hf3  1  0.750000  0.457619  0.835195  1
  Si  Si4  1  0.250000  0.267269  0.640110  1
  Si  Si5  1  0.750000  0.732489  0.360023  1
  Si  Si6  1  0.250000  0.753060  0.867117  1
  Si  Si7  1  0.750000  0.247090  0.132696  1
  Mo  Mo8  1  0.750000  0.374709  0.440306  1
  Mo  Mo9  1  0.250000  0.625493  0.559810  1
  Mo  Mo10  1  0.750000  0.867429  0.060444  1
  Mo  Mo11  1  0.250000  0.132488  0.939264  1
