# generated using pymatgen
data_ZnSbF7
_symmetry_space_group_name_H-M   'P 1'
_cell_length_a   7.67172130
_cell_length_b   7.67172082
_cell_length_c   7.67172175
_cell_angle_alpha   123.94626504
_cell_angle_beta   123.36670066
_cell_angle_gamma   83.77629812
_symmetry_Int_Tables_number   1
_chemical_formula_structural   ZnSbF7
_chemical_formula_sum   'Zn2 Sb2 F14'
_cell_volume   299.68107872
_cell_formula_units_Z   2
loop_
 _symmetry_equiv_pos_site_id
 _symmetry_equiv_pos_as_xyz
  1  'x, y, z'
loop_
 _atom_site_type_symbol
 _atom_site_label
 _atom_site_symmetry_multiplicity
 _atom_site_fract_x
 _atom_site_fract_y
 _atom_site_fract_z
 _atom_site_occupancy
  Zn  Zn0  1  0.500000  0.000000  0.000000  1
  Zn  Zn1  1  0.000000  0.000000  0.500000  1
  Sb  Sb2  1  0.500000  0.000000  0.500000  1
  Sb  Sb3  1  0.000000  0.500000  0.500000  1
  F  F4  1  0.250000  0.079269  0.829269  1
  F  F5  1  0.750000  0.920731  0.170731  1
  F  F6  1  0.534923  0.290633  0.755710  1
  F  F7  1  0.965077  0.720786  0.755710  1
  F  F8  1  0.068550  0.341111  0.647270  1
  F  F9  1  0.431450  0.078722  0.272561  1
  F  F10  1  0.306160  0.658889  0.727439  1
  F  F11  1  0.193840  0.921278  0.352730  1
  F  F12  1  0.931450  0.658889  0.352730  1
  F  F13  1  0.568550  0.921278  0.727439  1
  F  F14  1  0.693840  0.341111  0.272561  1
  F  F15  1  0.806160  0.078722  0.647270  1
  F  F16  1  0.034923  0.279214  0.244290  1
  F  F17  1  0.465077  0.709367  0.244290  1
