# generated using pymatgen
data_Nd7Y2Ho11Sn16
_symmetry_space_group_name_H-M   'P 1'
_cell_length_a   8.02767202
_cell_length_b   8.11237006
_cell_length_c   15.83685800
_cell_angle_alpha   89.99379889
_cell_angle_beta   90.00381131
_cell_angle_gamma   89.99674448
_symmetry_Int_Tables_number   1
_chemical_formula_structural   Nd7Y2Ho11Sn16
_chemical_formula_sum   'Nd7 Y2 Ho11 Sn16'
_cell_volume   1031.35075890
_cell_formula_units_Z   1
loop_
 _symmetry_equiv_pos_site_id
 _symmetry_equiv_pos_as_xyz
  1  'x, y, z'
loop_
 _atom_site_type_symbol
 _atom_site_label
 _atom_site_symmetry_multiplicity
 _atom_site_fract_x
 _atom_site_fract_y
 _atom_site_fract_z
 _atom_site_occupancy
  Nd  Nd0  1  0.651454  0.833473  0.878164  1
  Nd  Nd1  1  0.003989  0.822672  0.404637  1
  Nd  Nd2  1  0.503384  0.677814  0.096571  1
  Nd  Nd3  1  0.493970  0.323979  0.594055  1
  Nd  Nd4  1  0.994548  0.176149  0.904457  1
  Nd  Nd5  1  0.996264  0.177420  0.594559  1
  Nd  Nd6  1  0.495914  0.322267  0.905134  1
  Y  Y7  1  0.506310  0.677464  0.402374  1
  Y  Y8  1  0.005852  0.823414  0.097438  1
  Ho  Ho9  1  0.678317  0.001416  0.250440  1
  Ho  Ho10  1  0.178170  0.498926  0.250271  1
  Ho  Ho11  1  0.822326  0.501568  0.748960  1
  Ho  Ho12  1  0.321732  0.998451  0.749585  1
  Ho  Ho13  1  0.652534  0.833218  0.623802  1
  Ho  Ho14  1  0.153054  0.666860  0.874982  1
  Ho  Ho15  1  0.847406  0.335047  0.375161  1
  Ho  Ho16  1  0.347614  0.165271  0.125175  1
  Ho  Ho17  1  0.347004  0.166567  0.374669  1
  Ho  Ho18  1  0.847672  0.334057  0.126982  1
  Ho  Ho19  1  0.151990  0.665139  0.622774  1
  Sn  Sn20  1  0.813663  0.646561  0.249523  1
  Sn  Sn21  1  0.313434  0.854322  0.250885  1
  Sn  Sn22  1  0.687817  0.146436  0.748247  1
  Sn  Sn23  1  0.187042  0.355373  0.749576  1
  Sn  Sn24  1  0.544001  0.380821  0.250346  1
  Sn  Sn25  1  0.044566  0.119065  0.250304  1
  Sn  Sn26  1  0.957032  0.879206  0.747794  1
  Sn  Sn27  1  0.453721  0.618654  0.748485  1
  Sn  Sn28  1  0.812629  0.540788  0.539470  1
  Sn  Sn29  1  0.305859  0.959958  0.961654  1
  Sn  Sn30  1  0.681041  0.038245  0.458117  1
  Sn  Sn31  1  0.181412  0.462077  0.041817  1
  Sn  Sn32  1  0.188733  0.462654  0.457398  1
  Sn  Sn33  1  0.688654  0.039968  0.045344  1
  Sn  Sn34  1  0.318287  0.958844  0.539747  1
  Sn  Sn35  1  0.822600  0.535861  0.961107  1
