# generated using pymatgen
data_Tb2ErIn3Ag2Ir
_symmetry_space_group_name_H-M   'P 1'
_cell_length_a   7.93950532
_cell_length_b   7.95110025
_cell_length_c   3.78711700
_cell_angle_alpha   90.00000000
_cell_angle_beta   90.00000000
_cell_angle_gamma   119.98498168
_symmetry_Int_Tables_number   1
_chemical_formula_structural   Tb2ErIn3Ag2Ir
_chemical_formula_sum   'Tb2 Er1 In3 Ag2 Ir1'
_cell_volume   207.07407587
_cell_formula_units_Z   1
loop_
 _symmetry_equiv_pos_site_id
 _symmetry_equiv_pos_as_xyz
  1  'x, y, z'
loop_
 _atom_site_type_symbol
 _atom_site_label
 _atom_site_symmetry_multiplicity
 _atom_site_fract_x
 _atom_site_fract_y
 _atom_site_fract_z
 _atom_site_occupancy
  Tb  Tb0  1  0.607050  0.030289  0.000000  1
  Tb  Tb1  1  0.969830  0.578571  0.000000  1
  Er  Er2  1  0.424376  0.390078  0.000000  1
  In  In3  1  0.006188  0.272287  0.500000  1
  In  In4  1  0.728093  0.734128  0.500000  1
  In  In5  1  0.265470  0.994376  0.500000  1
  Ag  Ag6  1  0.000299  0.001143  0.000000  1
  Ag  Ag7  1  0.333685  0.664791  0.500000  1
  Ir  Ir8  1  0.665010  0.334337  0.500000  1
