# generated using pymatgen
data_Ni5Mo12Pt(RhN2)2
_symmetry_space_group_name_H-M   'P 1'
_cell_length_a   6.73877561
_cell_length_b   6.73741728
_cell_length_c   6.73727654
_cell_angle_alpha   90.11322383
_cell_angle_beta   90.03808559
_cell_angle_gamma   89.92667826
_symmetry_Int_Tables_number   1
_chemical_formula_structural   Ni5Mo12Pt(RhN2)2
_chemical_formula_sum   'Ni5 Mo12 Pt1 Rh2 N4'
_cell_volume   305.88453232
_cell_formula_units_Z   1
loop_
 _symmetry_equiv_pos_site_id
 _symmetry_equiv_pos_as_xyz
  1  'x, y, z'
loop_
 _atom_site_type_symbol
 _atom_site_label
 _atom_site_symmetry_multiplicity
 _atom_site_fract_x
 _atom_site_fract_y
 _atom_site_fract_z
 _atom_site_occupancy
  Ni  Ni0  1  0.194635  0.183839  0.181928  1
  Ni  Ni1  1  0.315305  0.819267  0.692573  1
  Ni  Ni2  1  0.434931  0.064451  0.934723  1
  Ni  Ni3  1  0.810810  0.689373  0.313823  1
  Ni  Ni4  1  0.679115  0.305547  0.814282  1
  Mo  Mo5  1  0.622665  0.701319  0.954274  1
  Mo  Mo6  1  0.453589  0.877499  0.298902  1
  Mo  Mo7  1  0.698587  0.951879  0.626697  1
  Mo  Mo8  1  0.543832  0.372211  0.199926  1
  Mo  Mo9  1  0.374855  0.197838  0.550174  1
  Mo  Mo10  1  0.197475  0.546580  0.375221  1
  Mo  Mo11  1  0.873831  0.302726  0.456527  1
  Mo  Mo12  1  0.049796  0.124351  0.801415  1
  Mo  Mo13  1  0.304128  0.451871  0.873406  1
  Mo  Mo14  1  0.128693  0.804407  0.044909  1
  Mo  Mo15  1  0.797949  0.043781  0.123208  1
  Mo  Mo16  1  0.955130  0.626694  0.694789  1
  Pt  Pt17  1  0.934806  0.434540  0.063534  1
  Rh  Rh18  1  0.563653  0.565285  0.565924  1
  Rh  Rh19  1  0.065852  0.936303  0.434154  1
  N  N20  1  0.374153  0.624853  0.125107  1
  N  N21  1  0.875821  0.874713  0.873730  1
  N  N22  1  0.125056  0.375243  0.624552  1
  N  N23  1  0.625332  0.125434  0.376224  1
