# generated using pymatgen
data_LaMn3ZnBi3(TeO6)4
_symmetry_space_group_name_H-M   'P 1'
_cell_length_a   5.32529238
_cell_length_b   9.03914903
_cell_length_c   10.04417200
_cell_angle_alpha   89.99697014
_cell_angle_beta   89.19823201
_cell_angle_gamma   90.00332942
_symmetry_Int_Tables_number   1
_chemical_formula_structural   LaMn3ZnBi3(TeO6)4
_chemical_formula_sum   'La1 Mn3 Zn1 Bi3 Te4 O24'
_cell_volume   483.44004473
_cell_formula_units_Z   1
loop_
 _symmetry_equiv_pos_site_id
 _symmetry_equiv_pos_as_xyz
  1  'x, y, z'
loop_
 _atom_site_type_symbol
 _atom_site_label
 _atom_site_symmetry_multiplicity
 _atom_site_fract_x
 _atom_site_fract_y
 _atom_site_fract_z
 _atom_site_occupancy
  La  La0  1  0.998808  0.993732  0.502507  1
  Mn  Mn1  1  0.502291  0.166422  0.248441  1
  Mn  Mn2  1  0.999323  0.332663  0.751104  1
  Mn  Mn3  1  0.997864  0.664931  0.247634  1
  Zn  Zn4  1  0.500373  0.829475  0.753412  1
  Bi  Bi5  1  0.513958  0.508384  0.499415  1
  Bi  Bi6  1  0.004585  0.998381  0.998928  1
  Bi  Bi7  1  0.486970  0.505705  0.000113  1
  Te  Te8  1  0.498021  0.167677  0.752435  1
  Te  Te9  1  0.000920  0.664046  0.751385  1
  Te  Te10  1  0.999754  0.328977  0.249510  1
  Te  Te11  1  0.500234  0.832361  0.246706  1
  O  O12  1  0.622936  0.014848  0.638557  1
  O  O13  1  0.132556  0.493473  0.645595  1
  O  O14  1  0.690852  0.317756  0.648010  1
  O  O15  1  0.174099  0.804273  0.640822  1
  O  O16  1  0.189102  0.187774  0.646851  1
  O  O17  1  0.705602  0.673487  0.636938  1
  O  O18  1  0.163041  0.189423  0.131391  1
  O  O19  1  0.659512  0.688196  0.131955  1
  O  O20  1  0.125757  0.499340  0.142088  1
  O  O21  1  0.630808  0.998158  0.140351  1
  O  O22  1  0.688933  0.318670  0.147072  1
  O  O23  1  0.187548  0.819539  0.144782  1
  O  O24  1  0.872576  0.498682  0.357317  1
  O  O25  1  0.375318  0.998252  0.354599  1
  O  O26  1  0.839511  0.188908  0.365375  1
  O  O27  1  0.337824  0.691609  0.364960  1
  O  O28  1  0.310838  0.318203  0.351361  1
  O  O29  1  0.811159  0.816546  0.348957  1
  O  O30  1  0.307037  0.318878  0.854951  1
  O  O31  1  0.828742  0.805491  0.862367  1
  O  O32  1  0.369803  0.014150  0.867123  1
  O  O33  1  0.865998  0.493531  0.855948  1
  O  O34  1  0.810169  0.187372  0.857243  1
  O  O35  1  0.297180  0.670683  0.863801  1
