# generated using pymatgen
data_Er3Lu7Zn3Ru
_symmetry_space_group_name_H-M   'P 1'
_cell_length_a   9.20381200
_cell_length_b   9.20381286
_cell_length_c   9.44933700
_cell_angle_alpha   90.00000000
_cell_angle_beta   90.00000000
_cell_angle_gamma   119.99999690
_symmetry_Int_Tables_number   1
_chemical_formula_structural   Er3Lu7Zn3Ru
_chemical_formula_sum   'Er6 Lu14 Zn6 Ru2'
_cell_volume   693.21428241
_cell_formula_units_Z   2
loop_
 _symmetry_equiv_pos_site_id
 _symmetry_equiv_pos_as_xyz
  1  'x, y, z'
loop_
 _atom_site_type_symbol
 _atom_site_label
 _atom_site_symmetry_multiplicity
 _atom_site_fract_x
 _atom_site_fract_y
 _atom_site_fract_z
 _atom_site_occupancy
  Er  Er0  1  0.540753  0.459247  0.250000  1
  Er  Er1  1  0.540753  0.081505  0.250000  1
  Er  Er2  1  0.918495  0.459247  0.250000  1
  Er  Er3  1  0.459247  0.540753  0.750000  1
  Er  Er4  1  0.459247  0.918495  0.750000  1
  Er  Er5  1  0.081505  0.540753  0.750000  1
  Lu  Lu6  1  0.000000  0.000000  0.500000  1
  Lu  Lu7  1  0.000000  0.000000  0.000000  1
  Lu  Lu8  1  0.207722  0.792278  0.442461  1
  Lu  Lu9  1  0.207722  0.415446  0.442461  1
  Lu  Lu10  1  0.584554  0.792278  0.442461  1
  Lu  Lu11  1  0.792278  0.207722  0.557539  1
  Lu  Lu12  1  0.792278  0.584554  0.557539  1
  Lu  Lu13  1  0.415446  0.207722  0.557539  1
  Lu  Lu14  1  0.792278  0.207722  0.942461  1
  Lu  Lu15  1  0.792278  0.584554  0.942461  1
  Lu  Lu16  1  0.415446  0.207722  0.942461  1
  Lu  Lu17  1  0.207722  0.792278  0.057539  1
  Lu  Lu18  1  0.207722  0.415446  0.057539  1
  Lu  Lu19  1  0.584554  0.792278  0.057539  1
  Zn  Zn20  1  0.886634  0.113366  0.250000  1
  Zn  Zn21  1  0.886634  0.773268  0.250000  1
  Zn  Zn22  1  0.226732  0.113366  0.250000  1
  Zn  Zn23  1  0.113366  0.886634  0.750000  1
  Zn  Zn24  1  0.113366  0.226732  0.750000  1
  Zn  Zn25  1  0.773268  0.886634  0.750000  1
  Ru  Ru26  1  0.333333  0.666667  0.250000  1
  Ru  Ru27  1  0.666667  0.333333  0.750000  1
