# generated using pymatgen
data_CeThCoSiI2
_symmetry_space_group_name_H-M   'P 1'
_cell_length_a   4.15931900
_cell_length_b   4.15931969
_cell_length_c   12.03817900
_cell_angle_alpha   90.00000000
_cell_angle_beta   90.00000000
_cell_angle_gamma   119.99998657
_symmetry_Int_Tables_number   1
_chemical_formula_structural   CeThCoSiI2
_chemical_formula_sum   'Ce1 Th1 Co1 Si1 I2'
_cell_volume   180.35825260
_cell_formula_units_Z   1
loop_
 _symmetry_equiv_pos_site_id
 _symmetry_equiv_pos_as_xyz
  1  'x, y, z'
loop_
 _atom_site_type_symbol
 _atom_site_label
 _atom_site_symmetry_multiplicity
 _atom_site_fract_x
 _atom_site_fract_y
 _atom_site_fract_z
 _atom_site_occupancy
  Ce  Ce0  1  0.000000  0.000000  0.151590  1
  Th  Th1  1  0.000000  0.000000  0.850561  1
  Co  Co2  1  0.333333  0.666667  0.003174  1
  Si  Si3  1  0.666667  0.333333  0.997926  1
  I  I4  1  0.333333  0.666667  0.660940  1
  I  I5  1  0.666667  0.333333  0.335809  1
