# generated using pymatgen
data_Ta6Fe4Os2CN
_symmetry_space_group_name_H-M   'P 1'
_cell_length_a   8.11234089
_cell_length_b   8.11561853
_cell_length_c   8.12817200
_cell_angle_alpha   59.94881813
_cell_angle_beta   59.93542437
_cell_angle_gamma   59.88019481
_symmetry_Int_Tables_number   1
_chemical_formula_structural   Ta6Fe4Os2CN
_chemical_formula_sum   'Ta12 Fe8 Os4 C2 N2'
_cell_volume   377.72099367
_cell_formula_units_Z   2
loop_
 _symmetry_equiv_pos_site_id
 _symmetry_equiv_pos_as_xyz
  1  'x, y, z'
loop_
 _atom_site_type_symbol
 _atom_site_label
 _atom_site_symmetry_multiplicity
 _atom_site_fract_x
 _atom_site_fract_y
 _atom_site_fract_z
 _atom_site_occupancy
  Ta  Ta0  1  0.806303  0.806395  0.193650  1
  Ta  Ta1  1  0.195621  0.195935  0.804221  1
  Ta  Ta2  1  0.805321  0.195069  0.805434  1
  Ta  Ta3  1  0.194997  0.805273  0.194422  1
  Ta  Ta4  1  0.194997  0.805273  0.805308  1
  Ta  Ta5  1  0.805321  0.195069  0.194175  1
  Ta  Ta6  1  0.443697  0.443605  0.056350  1
  Ta  Ta7  1  0.054379  0.054065  0.445779  1
  Ta  Ta8  1  0.444679  0.054931  0.444566  1
  Ta  Ta9  1  0.055003  0.444727  0.055578  1
  Ta  Ta10  1  0.055003  0.444727  0.444692  1
  Ta  Ta11  1  0.444679  0.054931  0.055825  1
  Fe  Fe12  1  0.730706  0.423812  0.422741  1
  Fe  Fe13  1  0.423549  0.731041  0.422705  1
  Fe  Fe14  1  0.423450  0.423649  0.730282  1
  Fe  Fe15  1  0.423450  0.423649  0.422618  1
  Fe  Fe16  1  0.519294  0.826188  0.827259  1
  Fe  Fe17  1  0.826451  0.518959  0.827295  1
  Fe  Fe18  1  0.826550  0.826351  0.519718  1
  Fe  Fe19  1  0.826550  0.826351  0.827382  1
  Os  Os20  1  0.125000  0.625000  0.625000  1
  Os  Os21  1  0.625000  0.125000  0.625000  1
  Os  Os22  1  0.625000  0.625000  0.125000  1
  Os  Os23  1  0.625000  0.625000  0.625000  1
  C  C24  1  0.125000  0.125000  0.625000  1
  C  C25  1  0.125000  0.125000  0.125000  1
  N  N26  1  0.625000  0.125000  0.125000  1
  N  N27  1  0.125000  0.625000  0.125000  1
