# generated using pymatgen
data_YbTm2(AlIr2)3
_symmetry_space_group_name_H-M   'P 1'
_cell_length_a   5.59573100
_cell_length_b   5.59551355
_cell_length_c   15.61303700
_cell_angle_alpha   90.00000000
_cell_angle_beta   90.00000000
_cell_angle_gamma   119.99950607
_symmetry_Int_Tables_number   1
_chemical_formula_structural   YbTm2(AlIr2)3
_chemical_formula_sum   'Yb2 Tm4 Al6 Ir12'
_cell_volume   423.36696044
_cell_formula_units_Z   2
loop_
 _symmetry_equiv_pos_site_id
 _symmetry_equiv_pos_as_xyz
  1  'x, y, z'
loop_
 _atom_site_type_symbol
 _atom_site_label
 _atom_site_symmetry_multiplicity
 _atom_site_fract_x
 _atom_site_fract_y
 _atom_site_fract_z
 _atom_site_occupancy
  Yb  Yb0  1  0.333328  0.666662  0.750000  1
  Yb  Yb1  1  0.666672  0.333338  0.250000  1
  Tm  Tm2  1  0.333333  0.666665  0.542988  1
  Tm  Tm3  1  0.666667  0.333335  0.457012  1
  Tm  Tm4  1  0.666667  0.333335  0.042988  1
  Tm  Tm5  1  0.333333  0.666665  0.957012  1
  Al  Al6  1  0.000013  0.000014  0.250000  1
  Al  Al7  1  0.999987  0.999986  0.750000  1
  Al  Al8  1  0.333312  0.666643  0.250000  1
  Al  Al9  1  0.666688  0.333357  0.750000  1
  Al  Al10  1  0.000000  0.000000  0.000000  1
  Al  Al11  1  0.000000  0.000000  0.500000  1
  Ir  Ir12  1  0.169431  0.338859  0.124533  1
  Ir  Ir13  1  0.830569  0.661141  0.875467  1
  Ir  Ir14  1  0.661131  0.830569  0.124537  1
  Ir  Ir15  1  0.830569  0.661141  0.624533  1
  Ir  Ir16  1  0.338869  0.169431  0.875463  1
  Ir  Ir17  1  0.169431  0.338859  0.375467  1
  Ir  Ir18  1  0.169435  0.830570  0.124536  1
  Ir  Ir19  1  0.338869  0.169431  0.624537  1
  Ir  Ir20  1  0.830565  0.169430  0.875464  1
  Ir  Ir21  1  0.661131  0.830569  0.375463  1
  Ir  Ir22  1  0.830565  0.169430  0.624536  1
  Ir  Ir23  1  0.169435  0.830570  0.375464  1
