# generated using pymatgen
data_Y5Ho3Au4
_symmetry_space_group_name_H-M   'P 1'
_cell_length_a   4.93651800
_cell_length_b   7.18337020
_cell_length_c   8.94456619
_cell_angle_alpha   89.83672183
_cell_angle_beta   90.00000000
_cell_angle_gamma   90.00000000
_symmetry_Int_Tables_number   1
_chemical_formula_structural   Y5Ho3Au4
_chemical_formula_sum   'Y5 Ho3 Au4'
_cell_volume   317.18050964
_cell_formula_units_Z   1
loop_
 _symmetry_equiv_pos_site_id
 _symmetry_equiv_pos_as_xyz
  1  'x, y, z'
loop_
 _atom_site_type_symbol
 _atom_site_label
 _atom_site_symmetry_multiplicity
 _atom_site_fract_x
 _atom_site_fract_y
 _atom_site_fract_z
 _atom_site_occupancy
  Y  Y0  1  0.250000  0.485590  0.175173  1
  Y  Y1  1  0.750000  0.514269  0.823506  1
  Y  Y2  1  0.250000  0.987013  0.323891  1
  Y  Y3  1  0.750000  0.014781  0.677639  1
  Y  Y4  1  0.750000  0.648740  0.419879  1
  Ho  Ho5  1  0.250000  0.351986  0.579955  1
  Ho  Ho6  1  0.750000  0.147766  0.080046  1
  Ho  Ho7  1  0.250000  0.852549  0.920309  1
  Au  Au8  1  0.250000  0.252856  0.899506  1
  Au  Au9  1  0.750000  0.747374  0.097912  1
  Au  Au10  1  0.250000  0.753449  0.602523  1
  Au  Au11  1  0.750000  0.243626  0.399662  1
