# generated using pymatgen
data_Er3Sc5Tc3B24Ir
_symmetry_space_group_name_H-M   'P 1'
_cell_length_a   3.55322700
_cell_length_b   8.95244550
_cell_length_c   11.31374300
_cell_angle_alpha   90.08236234
_cell_angle_beta   90.00000000
_cell_angle_gamma   90.00000000
_symmetry_Int_Tables_number   1
_chemical_formula_structural   Er3Sc5Tc3B24Ir
_chemical_formula_sum   'Er3 Sc5 Tc3 B24 Ir1'
_cell_volume   359.89059696
_cell_formula_units_Z   1
loop_
 _symmetry_equiv_pos_site_id
 _symmetry_equiv_pos_as_xyz
  1  'x, y, z'
loop_
 _atom_site_type_symbol
 _atom_site_label
 _atom_site_symmetry_multiplicity
 _atom_site_fract_x
 _atom_site_fract_y
 _atom_site_fract_z
 _atom_site_occupancy
  Er  Er0  1  0.500000  0.317007  0.415534  1
  Er  Er1  1  0.500000  0.680004  0.589970  1
  Er  Er2  1  0.500000  0.178551  0.913133  1
  Sc  Sc3  1  0.500000  0.826683  0.078854  1
  Sc  Sc4  1  0.500000  0.441471  0.126913  1
  Sc  Sc5  1  0.500000  0.556868  0.872108  1
  Sc  Sc6  1  0.500000  0.055186  0.629123  1
  Sc  Sc7  1  0.500000  0.946118  0.370563  1
  Tc  Tc8  1  0.500000  0.137856  0.181299  1
  Tc  Tc9  1  0.500000  0.860130  0.821153  1
  Tc  Tc10  1  0.500000  0.360671  0.680113  1
  B  B11  1  0.000000  0.096568  0.473234  1
  B  B12  1  0.000000  0.900847  0.526416  1
  B  B13  1  0.000000  0.402579  0.973856  1
  B  B14  1  0.000000  0.600033  0.027662  1
  B  B15  1  0.000000  0.128382  0.317076  1
  B  B16  1  0.000000  0.870557  0.683839  1
  B  B17  1  0.000000  0.371642  0.817206  1
  B  B18  1  0.000000  0.630682  0.180584  1
  B  B19  1  0.000000  0.052340  0.066423  1
  B  B20  1  0.000000  0.945633  0.934690  1
  B  B21  1  0.000000  0.446170  0.566786  1
  B  B22  1  0.000000  0.554836  0.433433  1
  B  B23  1  0.000000  0.481459  0.285531  1
  B  B24  1  0.000000  0.519761  0.714411  1
  B  B25  1  0.000000  0.018990  0.786584  1
  B  B26  1  0.000000  0.979168  0.212243  1
  B  B27  1  0.000000  0.252768  0.081179  1
  B  B28  1  0.000000  0.747568  0.921292  1
  B  B29  1  0.000000  0.246132  0.581659  1
  B  B30  1  0.000000  0.753452  0.419068  1
  B  B31  1  0.000000  0.293963  0.235629  1
  B  B32  1  0.000000  0.705852  0.766140  1
  B  B33  1  0.000000  0.205748  0.735713  1
  B  B34  1  0.000000  0.794253  0.262494  1
  Ir  Ir35  1  0.500000  0.640074  0.318092  1
