# generated using pymatgen
data_Pr2NdAl12Ru3Pt
_symmetry_space_group_name_H-M   'P 1'
_cell_length_a   8.92263877
_cell_length_b   8.90754403
_cell_length_c   9.68988917
_cell_angle_alpha   90.03887845
_cell_angle_beta   90.01553423
_cell_angle_gamma   119.63670251
_symmetry_Int_Tables_number   1
_chemical_formula_structural   Pr2NdAl12Ru3Pt
_chemical_formula_sum   'Pr4 Nd2 Al24 Ru6 Pt2'
_cell_volume   669.38933521
_cell_formula_units_Z   2
loop_
 _symmetry_equiv_pos_site_id
 _symmetry_equiv_pos_as_xyz
  1  'x, y, z'
loop_
 _atom_site_type_symbol
 _atom_site_label
 _atom_site_symmetry_multiplicity
 _atom_site_fract_x
 _atom_site_fract_y
 _atom_site_fract_z
 _atom_site_occupancy
  Pr  Pr0  1  0.189731  0.383109  0.252037  1
  Pr  Pr1  1  0.810269  0.616891  0.747963  1
  Pr  Pr2  1  0.619554  0.810647  0.250723  1
  Pr  Pr3  1  0.380446  0.189353  0.749277  1
  Nd  Nd4  1  0.190338  0.808069  0.250863  1
  Nd  Nd5  1  0.809662  0.191931  0.749137  1
  Al  Al6  1  0.327269  0.664570  0.016864  1
  Al  Al7  1  0.672731  0.335430  0.983136  1
  Al  Al8  1  0.667046  0.332346  0.517299  1
  Al  Al9  1  0.332954  0.667654  0.482701  1
  Al  Al10  1  0.163183  0.328057  0.574526  1
  Al  Al11  1  0.836817  0.671943  0.425474  1
  Al  Al12  1  0.672994  0.837390  0.574078  1
  Al  Al13  1  0.843049  0.676171  0.077378  1
  Al  Al14  1  0.327006  0.162610  0.425922  1
  Al  Al15  1  0.156951  0.323829  0.922622  1
  Al  Al16  1  0.163587  0.836903  0.574636  1
  Al  Al17  1  0.323108  0.162168  0.077575  1
  Al  Al18  1  0.836413  0.163097  0.425364  1
  Al  Al19  1  0.676892  0.837832  0.922425  1
  Al  Al20  1  0.842368  0.167901  0.077290  1
  Al  Al21  1  0.157632  0.832099  0.922710  1
  Al  Al22  1  0.562394  0.126274  0.252859  1
  Al  Al23  1  0.437606  0.873726  0.747141  1
  Al  Al24  1  0.876206  0.439498  0.249080  1
  Al  Al25  1  0.123794  0.560502  0.750920  1
  Al  Al26  1  0.563811  0.436421  0.253348  1
  Al  Al27  1  0.436189  0.563579  0.746652  1
  Al  Al28  1  0.998529  0.000240  0.250581  1
  Al  Al29  1  0.001471  0.999760  0.749419  1
  Ru  Ru30  1  0.000000  0.500000  0.000000  1
  Ru  Ru31  1  0.500000  0.000000  0.500000  1
  Ru  Ru32  1  0.000000  0.500000  0.500000  1
  Ru  Ru33  1  0.500000  0.500000  0.500000  1
  Ru  Ru34  1  0.000000  0.000000  0.000000  1
  Ru  Ru35  1  0.000000  0.000000  0.500000  1
  Pt  Pt36  1  0.500000  0.000000  0.000000  1
  Pt  Pt37  1  0.500000  0.500000  0.000000  1
