# generated using pymatgen
data_LiHo3Er2(Si3Ru)8
_symmetry_space_group_name_H-M   'P 1'
_cell_length_a   10.10989101
_cell_length_b   10.10993885
_cell_length_c   8.09007824
_cell_angle_alpha   89.99747630
_cell_angle_beta   90.01125432
_cell_angle_gamma   132.76561113
_symmetry_Int_Tables_number   1
_chemical_formula_structural   LiHo3Er2(Si3Ru)8
_chemical_formula_sum   'Li1 Ho3 Er2 Si24 Ru8'
_cell_volume   607.05094618
_cell_formula_units_Z   1
loop_
 _symmetry_equiv_pos_site_id
 _symmetry_equiv_pos_as_xyz
  1  'x, y, z'
loop_
 _atom_site_type_symbol
 _atom_site_label
 _atom_site_symmetry_multiplicity
 _atom_site_fract_x
 _atom_site_fract_y
 _atom_site_fract_z
 _atom_site_occupancy
  Li  Li0  1  0.500002  0.500003  0.500002  1
  Ho  Ho1  1  0.998075  0.498059  0.250827  1
  Ho  Ho2  1  0.498064  0.998078  0.250837  1
  Ho  Ho3  1  0.001915  0.501925  0.749164  1
  Er  Er4  1  0.999992  0.999996  0.999985  1
  Er  Er5  1  0.501902  0.001888  0.749187  1
  Si  Si6  1  0.796543  0.203141  0.500143  1
  Si  Si7  1  0.296508  0.703731  0.999880  1
  Si  Si8  1  0.203428  0.796820  0.500127  1
  Si  Si9  1  0.703455  0.296247  0.999861  1
  Si  Si10  1  0.336660  0.336648  0.827350  1
  Si  Si11  1  0.663351  0.663372  0.172647  1
  Si  Si12  1  0.172185  0.172166  0.336577  1
  Si  Si13  1  0.827824  0.827838  0.663429  1
  Si  Si14  1  0.123446  0.890416  0.728659  1
  Si  Si15  1  0.109671  0.876658  0.271293  1
  Si  Si16  1  0.607400  0.378265  0.234390  1
  Si  Si17  1  0.621681  0.392556  0.765671  1
  Si  Si18  1  0.876663  0.109672  0.271307  1
  Si  Si19  1  0.890282  0.123284  0.728644  1
  Si  Si20  1  0.392680  0.621832  0.765659  1
  Si  Si21  1  0.378261  0.607394  0.234408  1
  Si  Si22  1  0.349432  0.120542  0.507411  1
  Si  Si23  1  0.879374  0.650508  0.492627  1
  Si  Si24  1  0.387731  0.154619  0.006151  1
  Si  Si25  1  0.845409  0.612312  0.993816  1
  Si  Si26  1  0.650577  0.879452  0.492694  1
  Si  Si27  1  0.120610  0.349470  0.507332  1
  Si  Si28  1  0.612265  0.845395  0.993736  1
  Si  Si29  1  0.154569  0.387672  0.006220  1
  Ru  Ru30  1  0.671903  0.327785  0.500209  1
  Ru  Ru31  1  0.171135  0.829168  0.999808  1
  Ru  Ru32  1  0.328092  0.672202  0.500177  1
  Ru  Ru33  1  0.828852  0.170824  0.999786  1
  Ru  Ru34  1  0.123836  0.123823  0.628716  1
  Ru  Ru35  1  0.876215  0.876194  0.371269  1
  Ru  Ru36  1  0.371227  0.371247  0.123719  1
  Ru  Ru37  1  0.628786  0.628798  0.876285  1
