# generated using pymatgen
data_CrIrBr18
_symmetry_space_group_name_H-M   'P 1'
_cell_length_a   9.07329474
_cell_length_b   9.07329543
_cell_length_c   9.07329469
_cell_angle_alpha   92.24407065
_cell_angle_beta   92.24407622
_cell_angle_gamma   92.24406604
_symmetry_Int_Tables_number   1
_chemical_formula_structural   CrIrBr18
_chemical_formula_sum   'Cr1 Ir1 Br18'
_cell_volume   745.19131000
_cell_formula_units_Z   1
loop_
 _symmetry_equiv_pos_site_id
 _symmetry_equiv_pos_as_xyz
  1  'x, y, z'
loop_
 _atom_site_type_symbol
 _atom_site_label
 _atom_site_symmetry_multiplicity
 _atom_site_fract_x
 _atom_site_fract_y
 _atom_site_fract_z
 _atom_site_occupancy
  Cr  Cr0  1  0.000000  0.000000  0.000000  1
  Ir  Ir1  1  0.500000  0.500000  0.500000  1
  Br  Br2  1  0.724254  0.974749  0.021876  1
  Br  Br3  1  0.737145  0.131356  0.613901  1
  Br  Br4  1  0.021876  0.724254  0.974749  1
  Br  Br5  1  0.262855  0.868644  0.386099  1
  Br  Br6  1  0.131356  0.613901  0.737145  1
  Br  Br7  1  0.025251  0.978124  0.275746  1
  Br  Br8  1  0.613901  0.737145  0.131356  1
  Br  Br9  1  0.978124  0.275746  0.025251  1
  Br  Br10  1  0.868644  0.386099  0.262855  1
  Br  Br11  1  0.386099  0.262855  0.868644  1
  Br  Br12  1  0.974749  0.021876  0.724254  1
  Br  Br13  1  0.275746  0.025251  0.978124  1
  Br  Br14  1  0.774655  0.527565  0.491260  1
  Br  Br15  1  0.508740  0.225345  0.472435  1
  Br  Br16  1  0.472435  0.508740  0.225345  1
  Br  Br17  1  0.491260  0.774655  0.527565  1
  Br  Br18  1  0.527565  0.491260  0.774655  1
  Br  Br19  1  0.225345  0.472435  0.508740  1
