# generated using pymatgen
data_RbTh(SbAu)2
_symmetry_space_group_name_H-M   'P 1'
_cell_length_a   4.68042300
_cell_length_b   4.68042343
_cell_length_c   9.83469200
_cell_angle_alpha   90.00000000
_cell_angle_beta   90.00000000
_cell_angle_gamma   119.99998992
_symmetry_Int_Tables_number   1
_chemical_formula_structural   RbTh(SbAu)2
_chemical_formula_sum   'Rb1 Th1 Sb2 Au2'
_cell_volume   186.57853920
_cell_formula_units_Z   1
loop_
 _symmetry_equiv_pos_site_id
 _symmetry_equiv_pos_as_xyz
  1  'x, y, z'
loop_
 _atom_site_type_symbol
 _atom_site_label
 _atom_site_symmetry_multiplicity
 _atom_site_fract_x
 _atom_site_fract_y
 _atom_site_fract_z
 _atom_site_occupancy
  Rb  Rb0  1  0.000000  0.000000  0.758023  1
  Th  Th1  1  0.000000  0.000000  0.257980  1
  Sb  Sb2  1  0.666667  0.333333  0.030366  1
  Sb  Sb3  1  0.333333  0.666667  0.485510  1
  Au  Au4  1  0.333333  0.666667  0.088219  1
  Au  Au5  1  0.666667  0.333333  0.427903  1
