# generated using pymatgen
data_YHo9(InBi2)2
_symmetry_space_group_name_H-M   'P 1'
_cell_length_a   9.05480632
_cell_length_b   9.05480442
_cell_length_c   6.48810800
_cell_angle_alpha   90.00000000
_cell_angle_beta   90.00000000
_cell_angle_gamma   119.75677397
_symmetry_Int_Tables_number   1
_chemical_formula_structural   YHo9(InBi2)2
_chemical_formula_sum   'Y1 Ho9 In2 Bi4'
_cell_volume   461.81299379
_cell_formula_units_Z   1
loop_
 _symmetry_equiv_pos_site_id
 _symmetry_equiv_pos_as_xyz
  1  'x, y, z'
loop_
 _atom_site_type_symbol
 _atom_site_label
 _atom_site_symmetry_multiplicity
 _atom_site_fract_x
 _atom_site_fract_y
 _atom_site_fract_z
 _atom_site_occupancy
  Y  Y0  1  0.761530  0.761530  0.750000  1
  Ho  Ho1  1  0.668829  0.328909  0.003631  1
  Ho  Ho2  1  0.328909  0.668829  0.003631  1
  Ho  Ho3  1  0.328909  0.668829  0.496369  1
  Ho  Ho4  1  0.668829  0.328909  0.496369  1
  Ho  Ho5  1  0.235881  0.998453  0.750000  1
  Ho  Ho6  1  0.998453  0.235881  0.750000  1
  Ho  Ho7  1  0.234132  0.234132  0.250000  1
  Ho  Ho8  1  0.765328  0.008522  0.250000  1
  Ho  Ho9  1  0.008522  0.765328  0.250000  1
  In  In10  1  0.396221  0.001628  0.250000  1
  In  In11  1  0.001628  0.396221  0.250000  1
  Bi  Bi12  1  0.393293  0.393293  0.750000  1
  Bi  Bi13  1  0.603160  0.997201  0.750000  1
  Bi  Bi14  1  0.997201  0.603160  0.750000  1
  Bi  Bi15  1  0.609173  0.609173  0.250000  1
