# generated using pymatgen
data_Ce2PaSe6
_symmetry_space_group_name_H-M   'P 1'
_cell_length_a   7.76826200
_cell_length_b   7.76826216
_cell_length_c   4.19648200
_cell_angle_alpha   90.00000000
_cell_angle_beta   90.00000000
_cell_angle_gamma   119.99999079
_symmetry_Int_Tables_number   1
_chemical_formula_structural   Ce2PaSe6
_chemical_formula_sum   'Ce2 Pa1 Se6'
_cell_volume   219.31269660
_cell_formula_units_Z   1
loop_
 _symmetry_equiv_pos_site_id
 _symmetry_equiv_pos_as_xyz
  1  'x, y, z'
loop_
 _atom_site_type_symbol
 _atom_site_label
 _atom_site_symmetry_multiplicity
 _atom_site_fract_x
 _atom_site_fract_y
 _atom_site_fract_z
 _atom_site_occupancy
  Ce  Ce0  1  0.666667  0.333333  0.500000  1
  Ce  Ce1  1  0.333333  0.666667  0.500000  1
  Pa  Pa2  1  0.000000  0.000000  0.000000  1
  Se  Se3  1  0.746636  0.746636  0.500000  1
  Se  Se4  1  0.253364  0.000000  0.500000  1
  Se  Se5  1  0.000000  0.253364  0.500000  1
  Se  Se6  1  0.400985  0.400985  0.000000  1
  Se  Se7  1  0.599015  0.000000  0.000000  1
  Se  Se8  1  0.000000  0.599015  0.000000  1
