# generated using pymatgen
data_Hf8Cr2Fe5Si14Os
_symmetry_space_group_name_H-M   'P 1'
_cell_length_a   9.50081825
_cell_length_b   9.48719232
_cell_length_c   9.48351269
_cell_angle_alpha   94.03557537
_cell_angle_beta   94.50774537
_cell_angle_gamma   148.24956338
_symmetry_Int_Tables_number   1
_chemical_formula_structural   Hf8Cr2Fe5Si14Os
_chemical_formula_sum   'Hf8 Cr2 Fe5 Si14 Os1'
_cell_volume   432.81544205
_cell_formula_units_Z   1
loop_
 _symmetry_equiv_pos_site_id
 _symmetry_equiv_pos_as_xyz
  1  'x, y, z'
loop_
 _atom_site_type_symbol
 _atom_site_label
 _atom_site_symmetry_multiplicity
 _atom_site_fract_x
 _atom_site_fract_y
 _atom_site_fract_z
 _atom_site_occupancy
  Hf  Hf0  1  0.137275  0.136602  0.276063  1
  Hf  Hf1  1  0.864309  0.864767  0.724162  1
  Hf  Hf2  1  0.862515  0.138273  0.998960  1
  Hf  Hf3  1  0.139080  0.861887  0.000296  1
  Hf  Hf4  1  0.506135  0.311403  0.805544  1
  Hf  Hf5  1  0.507169  0.701017  0.195179  1
  Hf  Hf6  1  0.689758  0.492912  0.196064  1
  Hf  Hf7  1  0.301066  0.494598  0.805005  1
  Cr  Cr8  1  0.891934  0.107737  0.498642  1
  Cr  Cr9  1  0.889062  0.389200  0.779724  1
  Fe  Fe10  1  0.400171  0.901865  0.801464  1
  Fe  Fe11  1  0.094700  0.598290  0.190730  1
  Fe  Fe12  1  0.094351  0.902663  0.498538  1
  Fe  Fe13  1  0.402159  0.600153  0.499453  1
  Fe  Fe14  1  0.611862  0.390840  0.503712  1
  Si  Si15  1  0.450281  0.048931  0.588743  1
  Si  Si16  1  0.440577  0.851845  0.408188  1
  Si  Si17  1  0.948803  0.544079  0.412693  1
  Si  Si18  1  0.142429  0.549482  0.592863  1
  Si  Si19  1  0.752145  0.750704  0.000883  1
  Si  Si20  1  0.250338  0.249589  0.999981  1
  Si  Si21  1  0.305451  0.301776  0.580716  1
  Si  Si22  1  0.697770  0.693904  0.419103  1
  Si  Si23  1  0.705957  0.287898  0.999036  1
  Si  Si24  1  0.291689  0.709495  0.998563  1
  Si  Si25  1  0.033940  0.327476  0.293366  1
  Si  Si26  1  0.019886  0.727267  0.701167  1
  Si  Si27  1  0.679538  0.974064  0.704913  1
  Si  Si28  1  0.273658  0.979287  0.300480  1
  Os  Os29  1  0.615994  0.111995  0.225768  1
