# generated using pymatgen
data_Ca2Nd9Ho9Si16
_symmetry_space_group_name_H-M   'P 1'
_cell_length_a   7.74447488
_cell_length_b   7.74922296
_cell_length_c   14.37774700
_cell_angle_alpha   89.85826916
_cell_angle_beta   90.25530063
_cell_angle_gamma   89.98596248
_symmetry_Int_Tables_number   1
_chemical_formula_structural   Ca2Nd9Ho9Si16
_chemical_formula_sum   'Ca2 Nd9 Ho9 Si16'
_cell_volume   862.85002317
_cell_formula_units_Z   1
loop_
 _symmetry_equiv_pos_site_id
 _symmetry_equiv_pos_as_xyz
  1  'x, y, z'
loop_
 _atom_site_type_symbol
 _atom_site_label
 _atom_site_symmetry_multiplicity
 _atom_site_fract_x
 _atom_site_fract_y
 _atom_site_fract_z
 _atom_site_occupancy
  Ca  Ca0  1  0.813552  0.185259  0.251020  1
  Ca  Ca1  1  0.687130  0.683168  0.999366  1
  Nd  Nd2  1  0.009003  0.866148  0.125555  1
  Nd  Nd3  1  0.638321  0.991775  0.458673  1
  Nd  Nd4  1  0.362155  0.007406  0.955360  1
  Nd  Nd5  1  0.989753  0.640374  0.541929  1
  Nd  Nd6  1  0.491160  0.862020  0.207628  1
  Nd  Nd7  1  0.509240  0.139527  0.707734  1
  Nd  Nd8  1  0.861019  0.489577  0.791118  1
  Nd  Nd9  1  0.137916  0.510060  0.294122  1
  Nd  Nd10  1  0.010177  0.361452  0.042082  1
  Ho  Ho11  1  0.491690  0.364055  0.123930  1
  Ho  Ho12  1  0.990834  0.135776  0.625897  1
  Ho  Ho13  1  0.865116  0.007789  0.873178  1
  Ho  Ho14  1  0.136230  0.992763  0.375784  1
  Ho  Ho15  1  0.508771  0.636351  0.624006  1
  Ho  Ho16  1  0.365500  0.490433  0.873518  1
  Ho  Ho17  1  0.633835  0.507622  0.377799  1
  Ho  Ho18  1  0.315361  0.314752  0.501347  1
  Ho  Ho19  1  0.183935  0.813322  0.748319  1
  Si  Si20  1  0.289488  0.934151  0.561330  1
  Si  Si21  1  0.708864  0.075216  0.057806  1
  Si  Si22  1  0.934386  0.290951  0.442519  1
  Si  Si23  1  0.427049  0.213010  0.313503  1
  Si  Si24  1  0.565773  0.789276  0.807535  1
  Si  Si25  1  0.210048  0.433562  0.688218  1
  Si  Si26  1  0.784737  0.570774  0.193220  1
  Si  Si27  1  0.075857  0.707374  0.934979  1
  Si  Si28  1  0.797231  0.844477  0.689845  1
  Si  Si29  1  0.210879  0.158172  0.192503  1
  Si  Si30  1  0.844657  0.789816  0.314819  1
  Si  Si31  1  0.344719  0.704099  0.440757  1
  Si  Si32  1  0.652988  0.291117  0.937282  1
  Si  Si33  1  0.702815  0.345397  0.560886  1
  Si  Si34  1  0.295206  0.650209  0.057324  1
  Si  Si35  1  0.154606  0.202761  0.809112  1
