# generated using pymatgen
data_Tb4Ho4Hf11Si16Au
_symmetry_space_group_name_H-M   'P 1'
_cell_length_a   7.29427196
_cell_length_b   7.29342179
_cell_length_c   13.26604738
_cell_angle_alpha   89.75029178
_cell_angle_beta   90.21347117
_cell_angle_gamma   89.82059966
_symmetry_Int_Tables_number   1
_chemical_formula_structural   Tb4Ho4Hf11Si16Au
_chemical_formula_sum   'Tb4 Ho4 Hf11 Si16 Au1'
_cell_volume   705.74130475
_cell_formula_units_Z   1
loop_
 _symmetry_equiv_pos_site_id
 _symmetry_equiv_pos_as_xyz
  1  'x, y, z'
loop_
 _atom_site_type_symbol
 _atom_site_label
 _atom_site_symmetry_multiplicity
 _atom_site_fract_x
 _atom_site_fract_y
 _atom_site_fract_z
 _atom_site_occupancy
  Tb  Tb0  1  0.848411  0.498311  0.967343  1
  Tb  Tb1  1  0.495256  0.155164  0.535185  1
  Tb  Tb2  1  0.345720  0.997718  0.789535  1
  Tb  Tb3  1  0.655122  0.005162  0.283337  1
  Ho  Ho4  1  0.998170  0.346149  0.210658  1
  Ho  Ho5  1  0.004883  0.654630  0.716468  1
  Ho  Ho6  1  0.154703  0.495865  0.464718  1
  Ho  Ho7  1  0.498068  0.848388  0.032802  1
  Hf  Hf8  1  0.825090  0.824443  0.500110  1
  Hf  Hf9  1  0.322653  0.676897  0.248983  1
  Hf  Hf10  1  0.677186  0.323042  0.750915  1
  Hf  Hf11  1  0.145322  0.996644  0.373870  1
  Hf  Hf12  1  0.857174  0.003018  0.878964  1
  Hf  Hf13  1  0.504184  0.646603  0.626460  1
  Hf  Hf14  1  0.355419  0.491953  0.877666  1
  Hf  Hf15  1  0.491623  0.355707  0.122291  1
  Hf  Hf16  1  0.646627  0.504315  0.373525  1
  Hf  Hf17  1  0.996795  0.145378  0.626110  1
  Hf  Hf18  1  0.003151  0.857314  0.121027  1
  Si  Si19  1  0.358917  0.296541  0.316471  1
  Si  Si20  1  0.640359  0.704273  0.819754  1
  Si  Si21  1  0.206619  0.860436  0.568753  1
  Si  Si22  1  0.131817  0.774662  0.927031  1
  Si  Si23  1  0.774777  0.131411  0.073076  1
  Si  Si24  1  0.861603  0.207409  0.431339  1
  Si  Si25  1  0.295666  0.360100  0.683636  1
  Si  Si26  1  0.704328  0.639938  0.179921  1
  Si  Si27  1  0.294923  0.052291  0.188575  1
  Si  Si28  1  0.705332  0.949971  0.686935  1
  Si  Si29  1  0.449649  0.795085  0.435578  1
  Si  Si30  1  0.210390  0.566527  0.064328  1
  Si  Si31  1  0.566292  0.209757  0.935891  1
  Si  Si32  1  0.796136  0.450374  0.564453  1
  Si  Si33  1  0.052229  0.295589  0.810946  1
  Si  Si34  1  0.950648  0.704333  0.313167  1
  Au  Au35  1  0.174757  0.174603  0.000181  1
