# generated using pymatgen
data_Tb4BOs2C3
_symmetry_space_group_name_H-M   'P 1'
_cell_length_a   5.17844900
_cell_length_b   6.57556219
_cell_length_c   9.88349066
_cell_angle_alpha   90.29685052
_cell_angle_beta   90.00000000
_cell_angle_gamma   90.00000000
_symmetry_Int_Tables_number   1
_chemical_formula_structural   Tb4BOs2C3
_chemical_formula_sum   'Tb8 B2 Os4 C6'
_cell_volume   336.54033316
_cell_formula_units_Z   2
loop_
 _symmetry_equiv_pos_site_id
 _symmetry_equiv_pos_as_xyz
  1  'x, y, z'
loop_
 _atom_site_type_symbol
 _atom_site_label
 _atom_site_symmetry_multiplicity
 _atom_site_fract_x
 _atom_site_fract_y
 _atom_site_fract_z
 _atom_site_occupancy
  Tb  Tb0  1  0.250000  0.680992  0.549172  1
  Tb  Tb1  1  0.750000  0.319008  0.450828  1
  Tb  Tb2  1  0.750000  0.824520  0.052277  1
  Tb  Tb3  1  0.250000  0.175480  0.947723  1
  Tb  Tb4  1  0.250000  0.522717  0.210356  1
  Tb  Tb5  1  0.750000  0.477283  0.789644  1
  Tb  Tb6  1  0.750000  0.974246  0.714612  1
  Tb  Tb7  1  0.250000  0.025754  0.285388  1
  B  B8  1  0.250000  0.453015  0.756810  1
  B  B9  1  0.750000  0.546985  0.243190  1
  Os  Os10  1  0.250000  0.727442  0.862191  1
  Os  Os11  1  0.750000  0.272558  0.137809  1
  Os  Os12  1  0.750000  0.786785  0.369331  1
  Os  Os13  1  0.250000  0.213215  0.630669  1
  C  C14  1  0.750000  0.043205  0.260099  1
  C  C15  1  0.250000  0.956795  0.739901  1
  C  C16  1  0.250000  0.820441  0.048568  1
  C  C17  1  0.750000  0.179559  0.951432  1
  C  C18  1  0.750000  0.677673  0.550523  1
  C  C19  1  0.250000  0.322327  0.449477  1
