# generated using pymatgen
data_Li2Nd3ZnPd2Ru
_symmetry_space_group_name_H-M   'P 1'
_cell_length_a   7.30957205
_cell_length_b   7.36135895
_cell_length_c   4.08430300
_cell_angle_alpha   90.00000000
_cell_angle_beta   90.00000000
_cell_angle_gamma   119.44332222
_symmetry_Int_Tables_number   1
_chemical_formula_structural   Li2Nd3ZnPd2Ru
_chemical_formula_sum   'Li2 Nd3 Zn1 Pd2 Ru1'
_cell_volume   191.38480627
_cell_formula_units_Z   1
loop_
 _symmetry_equiv_pos_site_id
 _symmetry_equiv_pos_as_xyz
  1  'x, y, z'
loop_
 _atom_site_type_symbol
 _atom_site_label
 _atom_site_symmetry_multiplicity
 _atom_site_fract_x
 _atom_site_fract_y
 _atom_site_fract_z
 _atom_site_occupancy
  Li  Li0  1  0.768648  0.768973  0.500000  1
  Li  Li1  1  0.229977  0.999265  0.500000  1
  Nd  Nd2  1  0.417151  0.406332  0.000000  1
  Nd  Nd3  1  0.593715  0.015525  0.000000  1
  Nd  Nd4  1  0.987568  0.572555  0.000000  1
  Zn  Zn5  1  0.996297  0.236997  0.500000  1
  Pd  Pd6  1  0.002568  0.008379  0.000000  1
  Pd  Pd7  1  0.331063  0.660952  0.500000  1
  Ru  Ru8  1  0.673014  0.331022  0.500000  1
