# generated using pymatgen
data_Ho5ReWC7
_symmetry_space_group_name_H-M   'P 1'
_cell_length_a   8.35192274
_cell_length_b   8.35192077
_cell_length_c   3.40535700
_cell_angle_alpha   90.00000000
_cell_angle_beta   90.00000000
_cell_angle_gamma   122.50693161
_symmetry_Int_Tables_number   1
_chemical_formula_structural   Ho5ReWC7
_chemical_formula_sum   'Ho5 Re1 W1 C7'
_cell_volume   200.32317594
_cell_formula_units_Z   1
loop_
 _symmetry_equiv_pos_site_id
 _symmetry_equiv_pos_as_xyz
  1  'x, y, z'
loop_
 _atom_site_type_symbol
 _atom_site_label
 _atom_site_symmetry_multiplicity
 _atom_site_fract_x
 _atom_site_fract_y
 _atom_site_fract_z
 _atom_site_occupancy
  Ho  Ho0  1  0.498811  0.501189  0.000000  1
  Ho  Ho1  1  0.076956  0.335263  0.500000  1
  Ho  Ho2  1  0.925822  0.667061  0.500000  1
  Ho  Ho3  1  0.664737  0.923044  0.500000  1
  Ho  Ho4  1  0.332939  0.074178  0.500000  1
  Re  Re5  1  0.286128  0.713872  0.000000  1
  W  W6  1  0.714120  0.285880  0.000000  1
  C  C7  1  0.623917  0.376083  0.500000  1
  C  C8  1  0.374210  0.625790  0.500000  1
  C  C9  1  0.999978  0.000022  0.000000  1
  C  C10  1  0.169141  0.168027  0.000000  1
  C  C11  1  0.831973  0.830859  0.000000  1
  C  C12  1  0.000950  0.499685  0.000000  1
  C  C13  1  0.500315  0.999050  0.000000  1
