# generated using pymatgen
data_Be6Fe12SiP5
_symmetry_space_group_name_H-M   'P 1'
_cell_length_a   3.75605205
_cell_length_b   5.31677909
_cell_length_c   11.26342505
_cell_angle_alpha   90.00942525
_cell_angle_beta   90.00512219
_cell_angle_gamma   89.98131390
_symmetry_Int_Tables_number   1
_chemical_formula_structural   Be6Fe12SiP5
_chemical_formula_sum   'Be6 Fe12 Si1 P5'
_cell_volume   224.93169758
_cell_formula_units_Z   1
loop_
 _symmetry_equiv_pos_site_id
 _symmetry_equiv_pos_as_xyz
  1  'x, y, z'
loop_
 _atom_site_type_symbol
 _atom_site_label
 _atom_site_symmetry_multiplicity
 _atom_site_fract_x
 _atom_site_fract_y
 _atom_site_fract_z
 _atom_site_occupancy
  Be  Be0  1  0.999991  0.999850  0.994704  1
  Be  Be1  1  0.499785  0.500058  0.168494  1
  Be  Be2  1  0.999800  0.000083  0.333268  1
  Be  Be3  1  0.499997  0.500012  0.498110  1
  Be  Be4  1  0.000230  0.999916  0.672048  1
  Be  Be5  1  0.500190  0.500077  0.833382  1
  Fe  Fe6  1  0.499971  0.253309  0.003967  1
  Fe  Fe7  1  0.499996  0.746656  0.003976  1
  Fe  Fe8  1  0.999843  0.249398  0.167387  1
  Fe  Fe9  1  0.999800  0.750614  0.167379  1
  Fe  Fe10  1  0.499793  0.249513  0.333313  1
  Fe  Fe11  1  0.499867  0.750507  0.333293  1
  Fe  Fe12  1  0.000028  0.249404  0.499277  1
  Fe  Fe13  1  0.999973  0.750625  0.499280  1
  Fe  Fe14  1  0.500167  0.253274  0.662707  1
  Fe  Fe15  1  0.500195  0.746724  0.662724  1
  Fe  Fe16  1  0.000134  0.258372  0.833341  1
  Fe  Fe17  1  0.000211  0.741610  0.833351  1
  Si  Si18  1  0.500176  0.999937  0.833371  1
  P  P19  1  0.999994  0.500065  0.000944  1
  P  P20  1  0.499820  0.999991  0.167141  1
  P  P21  1  0.999833  0.499963  0.333309  1
  P  P22  1  0.499997  0.000024  0.499495  1
  P  P23  1  0.000203  0.500025  0.665739  1
