# generated using pymatgen
data_TbZnCu3Ag
_symmetry_space_group_name_H-M   'P 1'
_cell_length_a   5.11335583
_cell_length_b   5.11335633
_cell_length_c   5.10283942
_cell_angle_alpha   59.93181331
_cell_angle_beta   59.93181044
_cell_angle_gamma   59.99999876
_symmetry_Int_Tables_number   1
_chemical_formula_structural   TbZnCu3Ag
_chemical_formula_sum   'Tb1 Zn1 Cu3 Ag1'
_cell_volume   94.24549350
_cell_formula_units_Z   1
loop_
 _symmetry_equiv_pos_site_id
 _symmetry_equiv_pos_as_xyz
  1  'x, y, z'
loop_
 _atom_site_type_symbol
 _atom_site_label
 _atom_site_symmetry_multiplicity
 _atom_site_fract_x
 _atom_site_fract_y
 _atom_site_fract_z
 _atom_site_occupancy
  Tb  Tb0  1  0.001852  0.001852  0.994445  1
  Zn  Zn1  1  0.622431  0.622431  0.132707  1
  Cu  Cu2  1  0.623711  0.127396  0.625182  1
  Cu  Cu3  1  0.127396  0.623711  0.625182  1
  Cu  Cu4  1  0.623711  0.623711  0.625182  1
  Ag  Ag5  1  0.250900  0.250900  0.247300  1
