# generated using pymatgen
data_Ba6YSc(BO3)6
_symmetry_space_group_name_H-M   'P 1'
_cell_length_a   8.15620734
_cell_length_b   8.15620682
_cell_length_c   8.15620793
_cell_angle_alpha   105.74386053
_cell_angle_beta   105.74386395
_cell_angle_gamma   105.74387458
_symmetry_Int_Tables_number   1
_chemical_formula_structural   Ba6YSc(BO3)6
_chemical_formula_sum   'Ba6 Y1 Sc1 B6 O18'
_cell_volume   466.48550805
_cell_formula_units_Z   1
loop_
 _symmetry_equiv_pos_site_id
 _symmetry_equiv_pos_as_xyz
  1  'x, y, z'
loop_
 _atom_site_type_symbol
 _atom_site_label
 _atom_site_symmetry_multiplicity
 _atom_site_fract_x
 _atom_site_fract_y
 _atom_site_fract_z
 _atom_site_occupancy
  Ba  Ba0  1  0.346671  0.733727  0.835001  1
  Ba  Ba1  1  0.835001  0.346671  0.733727  1
  Ba  Ba2  1  0.733727  0.835001  0.346671  1
  Ba  Ba3  1  0.653329  0.266273  0.164999  1
  Ba  Ba4  1  0.164999  0.653329  0.266273  1
  Ba  Ba5  1  0.266273  0.164999  0.653329  1
  Y  Y6  1  0.000000  0.000000  0.000000  1
  Sc  Sc7  1  0.500000  0.500000  0.500000  1
  B  B8  1  0.374218  0.051219  0.293518  1
  B  B9  1  0.293518  0.374218  0.051219  1
  B  B10  1  0.051219  0.293518  0.374218  1
  B  B11  1  0.706482  0.625782  0.948781  1
  B  B12  1  0.948781  0.706482  0.625782  1
  B  B13  1  0.625782  0.948781  0.706482  1
  O  O14  1  0.426769  0.489056  0.225695  1
  O  O15  1  0.225695  0.426769  0.489056  1
  O  O16  1  0.813170  0.010688  0.737055  1
  O  O17  1  0.010688  0.737055  0.813170  1
  O  O18  1  0.737055  0.813170  0.010688  1
  O  O19  1  0.262945  0.186830  0.989312  1
  O  O20  1  0.186830  0.989312  0.262945  1
  O  O21  1  0.989312  0.262945  0.186830  1
  O  O22  1  0.552506  0.060101  0.797933  1
  O  O23  1  0.060101  0.797933  0.552506  1
  O  O24  1  0.797933  0.552506  0.060101  1
  O  O25  1  0.447494  0.939899  0.202067  1
  O  O26  1  0.939899  0.202067  0.447494  1
  O  O27  1  0.202067  0.447494  0.939899  1
  O  O28  1  0.510944  0.774305  0.573231  1
  O  O29  1  0.774305  0.573231  0.510944  1
  O  O30  1  0.573231  0.510944  0.774305  1
  O  O31  1  0.489056  0.225695  0.426769  1
