# generated using pymatgen
data_CaDy3Ho3Co6Sn23
_symmetry_space_group_name_H-M   'P 1'
_cell_length_a   9.71916500
_cell_length_b   9.71916493
_cell_length_c   9.95597600
_cell_angle_alpha   90.00000000
_cell_angle_beta   90.00000000
_cell_angle_gamma   119.99999684
_symmetry_Int_Tables_number   1
_chemical_formula_structural   CaDy3Ho3Co6Sn23
_chemical_formula_sum   'Ca1 Dy3 Ho3 Co6 Sn23'
_cell_volume   814.46493899
_cell_formula_units_Z   1
loop_
 _symmetry_equiv_pos_site_id
 _symmetry_equiv_pos_as_xyz
  1  'x, y, z'
loop_
 _atom_site_type_symbol
 _atom_site_label
 _atom_site_symmetry_multiplicity
 _atom_site_fract_x
 _atom_site_fract_y
 _atom_site_fract_z
 _atom_site_occupancy
  Ca  Ca0  1  0.000000  0.000000  0.000038  1
  Dy  Dy1  1  0.520950  0.479050  0.693651  1
  Dy  Dy2  1  0.520950  0.041901  0.693651  1
  Dy  Dy3  1  0.958099  0.479050  0.693651  1
  Ho  Ho4  1  0.041724  0.520862  0.306310  1
  Ho  Ho5  1  0.479138  0.958276  0.306310  1
  Ho  Ho6  1  0.479138  0.520862  0.306310  1
  Co  Co7  1  0.168631  0.831369  0.801466  1
  Co  Co8  1  0.168631  0.337260  0.801466  1
  Co  Co9  1  0.662740  0.831369  0.801466  1
  Co  Co10  1  0.337331  0.168666  0.198614  1
  Co  Co11  1  0.831334  0.662669  0.198614  1
  Co  Co12  1  0.831334  0.168666  0.198614  1
  Sn  Sn13  1  0.666667  0.333333  0.183366  1
  Sn  Sn14  1  0.666667  0.333333  0.881250  1
  Sn  Sn15  1  0.333333  0.666667  0.119135  1
  Sn  Sn16  1  0.346173  0.346167  0.000054  1
  Sn  Sn17  1  0.999995  0.653827  0.000054  1
  Sn  Sn18  1  0.653833  0.000005  0.000054  1
  Sn  Sn19  1  0.653833  0.653827  0.000054  1
  Sn  Sn20  1  0.333333  0.666667  0.816674  1
  Sn  Sn21  1  0.437227  0.218615  0.451812  1
  Sn  Sn22  1  0.218618  0.781382  0.547853  1
  Sn  Sn23  1  0.218618  0.437234  0.547853  1
  Sn  Sn24  1  0.562766  0.781382  0.547853  1
  Sn  Sn25  1  0.117532  0.882468  0.274062  1
  Sn  Sn26  1  0.781385  0.562773  0.451812  1
  Sn  Sn27  1  0.781385  0.218615  0.451812  1
  Sn  Sn28  1  0.346173  0.000005  0.000054  1
  Sn  Sn29  1  0.117532  0.235064  0.274062  1
  Sn  Sn30  1  0.764936  0.882468  0.274062  1
  Sn  Sn31  1  0.234857  0.117428  0.725969  1
  Sn  Sn32  1  0.882572  0.765143  0.725969  1
  Sn  Sn33  1  0.882572  0.117428  0.725969  1
  Sn  Sn34  1  0.000000  0.000000  0.500001  1
  Sn  Sn35  1  0.999995  0.346167  0.000054  1
