# generated using pymatgen
data_Tm3Lu(Si5Os3)2
_symmetry_space_group_name_H-M   'P 1'
_cell_length_a   8.09745606
_cell_length_b   8.10612664
_cell_length_c   5.75197870
_cell_angle_alpha   70.72491890
_cell_angle_beta   70.57512152
_cell_angle_gamma   94.22329734
_symmetry_Int_Tables_number   1
_chemical_formula_structural   Tm3Lu(Si5Os3)2
_chemical_formula_sum   'Tm3 Lu1 Si10 Os6'
_cell_volume   328.89174492
_cell_formula_units_Z   1
loop_
 _symmetry_equiv_pos_site_id
 _symmetry_equiv_pos_as_xyz
  1  'x, y, z'
loop_
 _atom_site_type_symbol
 _atom_site_label
 _atom_site_symmetry_multiplicity
 _atom_site_fract_x
 _atom_site_fract_y
 _atom_site_fract_z
 _atom_site_occupancy
  Tm  Tm0  1  0.869607  0.601828  0.751442  1
  Tm  Tm1  1  0.400060  0.131586  0.744966  1
  Tm  Tm2  1  0.131928  0.397645  0.247335  1
  Lu  Lu3  1  0.598646  0.869913  0.255138  1
  Si  Si4  1  0.068714  0.260510  0.833915  1
  Si  Si5  1  0.736177  0.930930  0.669301  1
  Si  Si6  1  0.929589  0.739888  0.165580  1
  Si  Si7  1  0.263676  0.068093  0.331131  1
  Si  Si8  1  0.207735  0.795693  0.744356  1
  Si  Si9  1  0.792840  0.204488  0.254603  1
  Si  Si10  1  0.513582  0.488200  0.749069  1
  Si  Si11  1  0.487454  0.512411  0.251159  1
  Si  Si12  1  0.775046  0.224249  0.748403  1
  Si  Si13  1  0.224857  0.775652  0.252083  1
  Os  Os14  1  0.254653  0.542402  0.633265  1
  Os  Os15  1  0.453794  0.743877  0.872003  1
  Os  Os16  1  0.745962  0.457365  0.367089  1
  Os  Os17  1  0.546138  0.255762  0.129142  1
  Os  Os18  1  0.002409  0.997520  0.749327  1
  Os  Os19  1  0.997135  0.001990  0.250694  1
