# generated using pymatgen
data_Li2Yb2Ni15
_symmetry_space_group_name_H-M   'P 1'
_cell_length_a   6.23827809
_cell_length_b   6.23827878
_cell_length_c   6.23827914
_cell_angle_alpha   83.20761677
_cell_angle_beta   96.79238427
_cell_angle_gamma   96.79237848
_symmetry_Int_Tables_number   1
_chemical_formula_structural   Li2Yb2Ni15
_chemical_formula_sum   'Li2 Yb2 Ni15'
_cell_volume   238.03112053
_cell_formula_units_Z   1
loop_
 _symmetry_equiv_pos_site_id
 _symmetry_equiv_pos_as_xyz
  1  'x, y, z'
loop_
 _atom_site_type_symbol
 _atom_site_label
 _atom_site_symmetry_multiplicity
 _atom_site_fract_x
 _atom_site_fract_y
 _atom_site_fract_z
 _atom_site_occupancy
  Li  Li0  1  0.903798  0.096201  0.096201  1
  Li  Li1  1  0.096200  0.903799  0.903799  1
  Yb  Yb2  1  0.656556  0.343443  0.343443  1
  Yb  Yb3  1  0.343442  0.656557  0.656557  1
  Ni  Ni4  1  0.500000  0.000000  0.000000  1
  Ni  Ni5  1  0.305470  0.305471  0.000000  1
  Ni  Ni6  1  0.000000  0.500000  0.000000  1
  Ni  Ni7  1  0.694530  0.694530  0.000000  1
  Ni  Ni8  1  0.344874  0.655126  0.158442  1
  Ni  Ni9  1  0.000000  0.694530  0.305469  1
  Ni  Ni10  1  0.305470  0.000000  0.305470  1
  Ni  Ni11  1  0.655125  0.841558  0.344874  1
  Ni  Ni12  1  0.158441  0.344875  0.344875  1
  Ni  Ni13  1  0.000000  0.000000  0.500000  1
  Ni  Ni14  1  0.344874  0.158442  0.655125  1
  Ni  Ni15  1  0.841558  0.655126  0.655126  1
  Ni  Ni16  1  0.000000  0.305471  0.694529  1
  Ni  Ni17  1  0.694530  0.000000  0.694530  1
  Ni  Ni18  1  0.655125  0.344875  0.841559  1
