# generated using pymatgen
data_Hf9Mo3PtW
_symmetry_space_group_name_H-M   'P 1'
_cell_length_a   8.77309800
_cell_length_b   8.77309873
_cell_length_c   8.54130200
_cell_angle_alpha   90.00000000
_cell_angle_beta   90.00000000
_cell_angle_gamma   120.00000480
_symmetry_Int_Tables_number   1
_chemical_formula_structural   Hf9Mo3PtW
_chemical_formula_sum   'Hf18 Mo6 Pt2 W2'
_cell_volume   569.32556496
_cell_formula_units_Z   2
loop_
 _symmetry_equiv_pos_site_id
 _symmetry_equiv_pos_as_xyz
  1  'x, y, z'
loop_
 _atom_site_type_symbol
 _atom_site_label
 _atom_site_symmetry_multiplicity
 _atom_site_fract_x
 _atom_site_fract_y
 _atom_site_fract_z
 _atom_site_occupancy
  Hf  Hf0  1  0.607487  0.803744  0.052818  1
  Hf  Hf1  1  0.803744  0.607487  0.552818  1
  Hf  Hf2  1  0.196256  0.392513  0.052818  1
  Hf  Hf3  1  0.196256  0.803744  0.052818  1
  Hf  Hf4  1  0.803744  0.196256  0.552818  1
  Hf  Hf5  1  0.392513  0.196256  0.552818  1
  Hf  Hf6  1  0.803744  0.607487  0.947182  1
  Hf  Hf7  1  0.803744  0.196256  0.947182  1
  Hf  Hf8  1  0.392513  0.196256  0.947182  1
  Hf  Hf9  1  0.607487  0.803744  0.447182  1
  Hf  Hf10  1  0.196256  0.803744  0.447182  1
  Hf  Hf11  1  0.196256  0.392513  0.447182  1
  Hf  Hf12  1  0.543175  0.086351  0.250000  1
  Hf  Hf13  1  0.456825  0.913649  0.750000  1
  Hf  Hf14  1  0.913649  0.456825  0.250000  1
  Hf  Hf15  1  0.543175  0.456825  0.250000  1
  Hf  Hf16  1  0.456825  0.543175  0.750000  1
  Hf  Hf17  1  0.086351  0.543175  0.750000  1
  Mo  Mo18  1  0.888387  0.776773  0.250000  1
  Mo  Mo19  1  0.111613  0.223227  0.750000  1
  Mo  Mo20  1  0.223227  0.111613  0.250000  1
  Mo  Mo21  1  0.888387  0.111613  0.250000  1
  Mo  Mo22  1  0.111613  0.888387  0.750000  1
  Mo  Mo23  1  0.776773  0.888387  0.750000  1
  Pt  Pt24  1  0.666667  0.333333  0.750000  1
  Pt  Pt25  1  0.333333  0.666667  0.250000  1
  W  W26  1  0.000000  0.000000  0.000000  1
  W  W27  1  0.000000  0.000000  0.500000  1
