# generated using pymatgen
data_Ho3Er2InBi2
_symmetry_space_group_name_H-M   'P 1'
_cell_length_a   9.03150800
_cell_length_b   9.03150834
_cell_length_c   6.47108800
_cell_angle_alpha   90.00000000
_cell_angle_beta   90.00000000
_cell_angle_gamma   119.61900172
_symmetry_Int_Tables_number   1
_chemical_formula_structural   Ho3Er2InBi2
_chemical_formula_sum   'Ho6 Er4 In2 Bi4'
_cell_volume   458.86302671
_cell_formula_units_Z   2
loop_
 _symmetry_equiv_pos_site_id
 _symmetry_equiv_pos_as_xyz
  1  'x, y, z'
loop_
 _atom_site_type_symbol
 _atom_site_label
 _atom_site_symmetry_multiplicity
 _atom_site_fract_x
 _atom_site_fract_y
 _atom_site_fract_z
 _atom_site_occupancy
  Ho  Ho0  1  0.761322  0.761322  0.750000  1
  Ho  Ho1  1  0.234332  0.997566  0.750000  1
  Ho  Ho2  1  0.997566  0.234332  0.750000  1
  Ho  Ho3  1  0.235424  0.235424  0.250000  1
  Ho  Ho4  1  0.766154  0.008705  0.250000  1
  Ho  Ho5  1  0.008705  0.766154  0.250000  1
  Er  Er6  1  0.669226  0.328962  0.003900  1
  Er  Er7  1  0.328962  0.669226  0.003900  1
  Er  Er8  1  0.328962  0.669226  0.496100  1
  Er  Er9  1  0.669226  0.328962  0.496100  1
  In  In10  1  0.396686  0.001997  0.250000  1
  In  In11  1  0.001997  0.396686  0.250000  1
  Bi  Bi12  1  0.393666  0.393666  0.750000  1
  Bi  Bi13  1  0.601930  0.996812  0.750000  1
  Bi  Bi14  1  0.996812  0.601930  0.750000  1
  Bi  Bi15  1  0.609028  0.609028  0.250000  1
