# generated using pymatgen
data_Ho19Mg(Ir2Au)4
_symmetry_space_group_name_H-M   'P 1'
_cell_length_a   11.03160600
_cell_length_b   11.03160600
_cell_length_c   6.29813900
_cell_angle_alpha   90.00000000
_cell_angle_beta   90.00000000
_cell_angle_gamma   90.00000000
_symmetry_Int_Tables_number   1
_chemical_formula_structural   Ho19Mg(Ir2Au)4
_chemical_formula_sum   'Ho19 Mg1 Ir8 Au4'
_cell_volume   766.46040805
_cell_formula_units_Z   1
loop_
 _symmetry_equiv_pos_site_id
 _symmetry_equiv_pos_as_xyz
  1  'x, y, z'
loop_
 _atom_site_type_symbol
 _atom_site_label
 _atom_site_symmetry_multiplicity
 _atom_site_fract_x
 _atom_site_fract_y
 _atom_site_fract_z
 _atom_site_occupancy
  Ho  Ho0  1  0.295512  0.088320  0.367708  1
  Ho  Ho1  1  0.299804  0.907382  0.867629  1
  Ho  Ho2  1  0.700196  0.092618  0.867629  1
  Ho  Ho3  1  0.704488  0.911680  0.367708  1
  Ho  Ho4  1  0.584402  0.788930  0.881432  1
  Ho  Ho5  1  0.580108  0.211219  0.380130  1
  Ho  Ho6  1  0.419892  0.788781  0.380130  1
  Ho  Ho7  1  0.415598  0.211070  0.881432  1
  Ho  Ho8  1  0.211219  0.419892  0.619870  1
  Ho  Ho9  1  0.211070  0.584402  0.118568  1
  Ho  Ho10  1  0.788930  0.415598  0.118568  1
  Ho  Ho11  1  0.788781  0.580108  0.619870  1
  Ho  Ho12  1  0.907382  0.700196  0.132371  1
  Ho  Ho13  1  0.911680  0.295512  0.632292  1
  Ho  Ho14  1  0.088320  0.704488  0.632292  1
  Ho  Ho15  1  0.092618  0.299804  0.132371  1
  Ho  Ho16  1  0.000000  0.000000  0.000000  1
  Ho  Ho17  1  0.500000  0.500000  0.000000  1
  Ho  Ho18  1  0.500000  0.500000  0.500000  1
  Mg  Mg19  1  0.000000  0.000000  0.500000  1
  Ir  Ir20  1  0.654438  0.345513  0.748196  1
  Ir  Ir21  1  0.654487  0.654438  0.251804  1
  Ir  Ir22  1  0.345513  0.345562  0.251804  1
  Ir  Ir23  1  0.345562  0.654487  0.748196  1
  Ir  Ir24  1  0.500000  0.000000  0.122075  1
  Ir  Ir25  1  0.500000  0.000000  0.619797  1
  Ir  Ir26  1  0.000000  0.500000  0.877925  1
  Ir  Ir27  1  0.000000  0.500000  0.380203  1
  Au  Au28  1  0.846764  0.153718  0.253971  1
  Au  Au29  1  0.846282  0.846764  0.746029  1
  Au  Au30  1  0.153718  0.153236  0.746029  1
  Au  Au31  1  0.153236  0.846282  0.253971  1
