# generated using pymatgen
data_Np5U(Ni3Sb4)2
_symmetry_space_group_name_H-M   'P 1'
_cell_length_a   8.16107812
_cell_length_b   8.16107843
_cell_length_c   8.16107824
_cell_angle_alpha   109.25190092
_cell_angle_beta   109.25190794
_cell_angle_gamma   109.91074724
_symmetry_Int_Tables_number   1
_chemical_formula_structural   Np5U(Ni3Sb4)2
_chemical_formula_sum   'Np5 U1 Ni6 Sb8'
_cell_volume   418.40952443
_cell_formula_units_Z   1
loop_
 _symmetry_equiv_pos_site_id
 _symmetry_equiv_pos_as_xyz
  1  'x, y, z'
loop_
 _atom_site_type_symbol
 _atom_site_label
 _atom_site_symmetry_multiplicity
 _atom_site_fract_x
 _atom_site_fract_y
 _atom_site_fract_z
 _atom_site_occupancy
  Np  Np0  1  0.876903  0.250652  0.125620  1
  Np  Np1  1  0.625033  0.751285  0.374380  1
  Np  Np2  1  0.248715  0.123097  0.873748  1
  Np  Np3  1  0.749348  0.374967  0.626252  1
  Np  Np4  1  0.125000  0.875000  0.250000  1
  U  U5  1  0.375000  0.625000  0.750000  1
  Ni  Ni6  1  0.377609  0.259399  0.629017  1
  Ni  Ni7  1  0.130383  0.748592  0.870983  1
  Ni  Ni8  1  0.251408  0.622391  0.381791  1
  Ni  Ni9  1  0.740601  0.869617  0.118209  1
  Ni  Ni10  1  0.625000  0.375000  0.250000  1
  Ni  Ni11  1  0.875000  0.125000  0.750000  1
  Sb  Sb12  1  0.663808  0.498846  0.001118  1
  Sb  Sb13  1  0.499766  0.000510  0.663579  1
  Sb  Sb14  1  0.997728  0.662691  0.498882  1
  Sb  Sb15  1  0.836930  0.836187  0.836421  1
  Sb  Sb16  1  0.501154  0.002272  0.164963  1
  Sb  Sb17  1  0.163813  0.500234  0.000744  1
  Sb  Sb18  1  0.999490  0.163070  0.499256  1
  Sb  Sb19  1  0.337309  0.336192  0.335037  1
