# generated using pymatgen
data_Sr6Li13Al11
_symmetry_space_group_name_H-M   'P 1'
_cell_length_a   9.84419768
_cell_length_b   9.84419789
_cell_length_c   7.89348600
_cell_angle_alpha   89.69784511
_cell_angle_beta   90.30215404
_cell_angle_gamma   119.56612348
_symmetry_Int_Tables_number   1
_chemical_formula_structural   Sr6Li13Al11
_chemical_formula_sum   'Sr6 Li13 Al11'
_cell_volume   665.32561122
_cell_formula_units_Z   1
loop_
 _symmetry_equiv_pos_site_id
 _symmetry_equiv_pos_as_xyz
  1  'x, y, z'
loop_
 _atom_site_type_symbol
 _atom_site_label
 _atom_site_symmetry_multiplicity
 _atom_site_fract_x
 _atom_site_fract_y
 _atom_site_fract_z
 _atom_site_occupancy
  Sr  Sr0  1  0.520935  0.044634  0.249406  1
  Sr  Sr1  1  0.480641  0.958789  0.752865  1
  Sr  Sr2  1  0.955366  0.479065  0.249406  1
  Sr  Sr3  1  0.041211  0.519359  0.752865  1
  Sr  Sr4  1  0.523034  0.476966  0.251920  1
  Sr  Sr5  1  0.473091  0.526909  0.757114  1
  Li  Li6  1  0.001950  0.998050  0.004238  1
  Li  Li7  1  0.001377  0.998623  0.499846  1
  Li  Li8  1  0.160906  0.839094  0.424631  1
  Li  Li9  1  0.892727  0.786100  0.250249  1
  Li  Li10  1  0.104071  0.207445  0.751850  1
  Li  Li11  1  0.213900  0.107273  0.250249  1
  Li  Li12  1  0.792555  0.895929  0.751850  1
  Li  Li13  1  0.895233  0.104767  0.249135  1
  Li  Li14  1  0.108226  0.891774  0.742508  1
  Li  Li15  1  0.330991  0.669009  0.066920  1
  Li  Li16  1  0.664614  0.335386  0.930327  1
  Li  Li17  1  0.666284  0.333716  0.569919  1
  Li  Li18  1  0.339055  0.660945  0.425840  1
  Al  Al19  1  0.162576  0.326105  0.067141  1
  Al  Al20  1  0.838621  0.676923  0.932178  1
  Al  Al21  1  0.673895  0.837424  0.067141  1
  Al  Al22  1  0.830319  0.672691  0.570701  1
  Al  Al23  1  0.323077  0.161379  0.932178  1
  Al  Al24  1  0.160586  0.321653  0.434567  1
  Al  Al25  1  0.162008  0.837992  0.060290  1
  Al  Al26  1  0.327309  0.169681  0.570701  1
  Al  Al27  1  0.838009  0.161991  0.933307  1
  Al  Al28  1  0.678347  0.839414  0.434567  1
  Al  Al29  1  0.839083  0.160917  0.566086  1
