# generated using pymatgen
data_Sm2NiRuBr
_symmetry_space_group_name_H-M   'P 1'
_cell_length_a   4.11015900
_cell_length_b   4.11015916
_cell_length_c   16.71406200
_cell_angle_alpha   90.00000000
_cell_angle_beta   90.00000000
_cell_angle_gamma   120.00000679
_symmetry_Int_Tables_number   1
_chemical_formula_structural   Sm2NiRuBr
_chemical_formula_sum   'Sm4 Ni2 Ru2 Br2'
_cell_volume   244.52871906
_cell_formula_units_Z   2
loop_
 _symmetry_equiv_pos_site_id
 _symmetry_equiv_pos_as_xyz
  1  'x, y, z'
loop_
 _atom_site_type_symbol
 _atom_site_label
 _atom_site_symmetry_multiplicity
 _atom_site_fract_x
 _atom_site_fract_y
 _atom_site_fract_z
 _atom_site_occupancy
  Sm  Sm0  1  0.000000  0.000000  0.609468  1
  Sm  Sm1  1  0.000000  0.000000  0.391137  1
  Sm  Sm2  1  0.000000  0.000000  0.109468  1
  Sm  Sm3  1  0.000000  0.000000  0.891137  1
  Ni  Ni4  1  0.666667  0.333333  0.998374  1
  Ni  Ni5  1  0.333333  0.666667  0.498374  1
  Ru  Ru6  1  0.666667  0.333333  0.501424  1
  Ru  Ru7  1  0.333333  0.666667  0.001424  1
  Br  Br8  1  0.666667  0.333333  0.249597  1
  Br  Br9  1  0.333333  0.666667  0.749597  1
