# generated using pymatgen
data_PrTh3Si8
_symmetry_space_group_name_H-M   'P 1'
_cell_length_a   4.10556400
_cell_length_b   4.10556400
_cell_length_c   14.65687900
_cell_angle_alpha   90.00000000
_cell_angle_beta   90.00000000
_cell_angle_gamma   90.00000000
_symmetry_Int_Tables_number   1
_chemical_formula_structural   PrTh3Si8
_chemical_formula_sum   'Pr1 Th3 Si8'
_cell_volume   247.05130691
_cell_formula_units_Z   1
loop_
 _symmetry_equiv_pos_site_id
 _symmetry_equiv_pos_as_xyz
  1  'x, y, z'
loop_
 _atom_site_type_symbol
 _atom_site_label
 _atom_site_symmetry_multiplicity
 _atom_site_fract_x
 _atom_site_fract_y
 _atom_site_fract_z
 _atom_site_occupancy
  Pr  Pr0  1  0.500000  0.500000  0.000000  1
  Th  Th1  1  0.000000  0.000000  0.500000  1
  Th  Th2  1  0.500000  0.000000  0.748796  1
  Th  Th3  1  0.000000  0.500000  0.251204  1
  Si  Si4  1  0.000000  0.000000  0.915846  1
  Si  Si5  1  0.500000  0.500000  0.416960  1
  Si  Si6  1  0.000000  0.500000  0.831592  1
  Si  Si7  1  0.500000  0.000000  0.334876  1
  Si  Si8  1  0.000000  0.000000  0.084154  1
  Si  Si9  1  0.500000  0.500000  0.583040  1
  Si  Si10  1  0.500000  0.000000  0.168408  1
  Si  Si11  1  0.000000  0.500000  0.665124  1
