# generated using pymatgen
data_La4LuIn3
_symmetry_space_group_name_H-M   'P 1'
_cell_length_a   9.45388036
_cell_length_b   9.45387927
_cell_length_c   9.45387923
_cell_angle_alpha   96.55785877
_cell_angle_beta   96.55786086
_cell_angle_gamma   140.49660713
_symmetry_Int_Tables_number   1
_chemical_formula_structural   La4LuIn3
_chemical_formula_sum   'La8 Lu2 In6'
_cell_volume   505.86912728
_cell_formula_units_Z   2
loop_
 _symmetry_equiv_pos_site_id
 _symmetry_equiv_pos_as_xyz
  1  'x, y, z'
loop_
 _atom_site_type_symbol
 _atom_site_label
 _atom_site_symmetry_multiplicity
 _atom_site_fract_x
 _atom_site_fract_y
 _atom_site_fract_z
 _atom_site_occupancy
  La  La0  1  0.910285  0.224137  0.134422  1
  La  La1  1  0.224137  0.089715  0.313852  1
  La  La2  1  0.775863  0.910285  0.686148  1
  La  La3  1  0.089715  0.775863  0.865578  1
  La  La4  1  0.724137  0.410285  0.134422  1
  La  La5  1  0.275863  0.589715  0.865578  1
  La  La6  1  0.589715  0.724137  0.313852  1
  La  La7  1  0.410285  0.275863  0.686148  1
  Lu  Lu8  1  0.750000  0.250000  0.500000  1
  Lu  Lu9  1  0.250000  0.750000  0.500000  1
  In  In10  1  0.750000  0.750000  0.000000  1
  In  In11  1  0.250000  0.250000  0.000000  1
  In  In12  1  0.846548  0.653452  0.500000  1
  In  In13  1  0.653452  0.153452  0.806906  1
  In  In14  1  0.346548  0.846548  0.193094  1
  In  In15  1  0.153452  0.346548  0.500000  1
