# generated using pymatgen
data_Y4ReMo3F28
_symmetry_space_group_name_H-M   'P 1'
_cell_length_a   5.69374798
_cell_length_b   9.03452932
_cell_length_c   12.15853300
_cell_angle_alpha   62.40109212
_cell_angle_beta   90.03355987
_cell_angle_gamma   90.01598518
_symmetry_Int_Tables_number   1
_chemical_formula_structural   Y4ReMo3F28
_chemical_formula_sum   'Y4 Re1 Mo3 F28'
_cell_volume   554.27169655
_cell_formula_units_Z   1
loop_
 _symmetry_equiv_pos_site_id
 _symmetry_equiv_pos_as_xyz
  1  'x, y, z'
loop_
 _atom_site_type_symbol
 _atom_site_label
 _atom_site_symmetry_multiplicity
 _atom_site_fract_x
 _atom_site_fract_y
 _atom_site_fract_z
 _atom_site_occupancy
  Y  Y0  1  0.261509  0.813049  0.267040  1
  Y  Y1  1  0.737097  0.187786  0.732900  1
  Y  Y2  1  0.764083  0.184897  0.235458  1
  Y  Y3  1  0.237944  0.814483  0.764604  1
  Re  Re4  1  0.741945  0.726865  0.544536  1
  Mo  Mo5  1  0.757036  0.726844  0.044152  1
  Mo  Mo6  1  0.242722  0.273517  0.955437  1
  Mo  Mo7  1  0.258174  0.273668  0.455341  1
  F  F8  1  0.945760  0.707282  0.419807  1
  F  F9  1  0.048557  0.289751  0.578840  1
  F  F10  1  0.453557  0.291148  0.078084  1
  F  F11  1  0.542734  0.709432  0.922481  1
  F  F12  1  0.479433  0.731134  0.149185  1
  F  F13  1  0.522086  0.268445  0.852084  1
  F  F14  1  0.977662  0.269910  0.351959  1
  F  F15  1  0.021391  0.731112  0.640828  1
  F  F16  1  0.966699  0.747015  0.168140  1
  F  F17  1  0.037322  0.252045  0.830738  1
  F  F18  1  0.463305  0.255705  0.329398  1
  F  F19  1  0.542196  0.745336  0.672499  1
  F  F20  1  0.763918  0.480869  0.141069  1
  F  F21  1  0.232676  0.519985  0.856897  1
  F  F22  1  0.264710  0.520394  0.360382  1
  F  F23  1  0.737209  0.480358  0.641723  1
  F  F24  1  0.949219  0.278870  0.051471  1
  F  F25  1  0.049489  0.720728  0.947770  1
  F  F26  1  0.451781  0.719308  0.455279  1
  F  F27  1  0.552276  0.281825  0.549526  1
  F  F28  1  0.740290  0.972892  0.448086  1
  F  F29  1  0.257501  0.027836  0.552097  1
  F  F30  1  0.243879  0.027988  0.054220  1
  F  F31  1  0.757075  0.972231  0.946267  1
  F  F32  1  0.574381  0.973293  0.235627  1
  F  F33  1  0.423390  0.025095  0.766162  1
  F  F34  1  0.077945  0.024111  0.269010  1
  F  F35  1  0.923048  0.974789  0.730907  1
