# generated using pymatgen
data_Nd2Os6Pb2O19
_symmetry_space_group_name_H-M   'P 1'
_cell_length_a   7.90099924
_cell_length_b   7.90099880
_cell_length_c   8.04191770
_cell_angle_alpha   109.48612388
_cell_angle_beta   109.54206444
_cell_angle_gamma   108.66334218
_symmetry_Int_Tables_number   1
_chemical_formula_structural   Nd2Os6Pb2O19
_chemical_formula_sum   'Nd2 Os6 Pb2 O19'
_cell_volume   389.84203343
_cell_formula_units_Z   1
loop_
 _symmetry_equiv_pos_site_id
 _symmetry_equiv_pos_as_xyz
  1  'x, y, z'
loop_
 _atom_site_type_symbol
 _atom_site_label
 _atom_site_symmetry_multiplicity
 _atom_site_fract_x
 _atom_site_fract_y
 _atom_site_fract_z
 _atom_site_occupancy
  Nd  Nd0  1  0.999545  0.994591  0.300730  1
  Nd  Nd1  1  0.693861  0.698815  0.699270  1
  Os  Os2  1  0.638011  0.497578  0.134194  1
  Os  Os3  1  0.502853  0.862833  0.365026  1
  Os  Os4  1  0.864651  0.364651  0.500000  1
  Os  Os5  1  0.138674  0.638674  0.500000  1
  Os  Os6  1  0.497808  0.137828  0.634975  1
  Os  Os7  1  0.363384  0.503817  0.865807  1
  Pb  Pb8  1  0.299928  0.995330  0.995284  1
  Pb  Pb9  1  0.000045  0.304643  0.004716  1
  O  O10  1  0.981144  0.981144  0.000000  1
  O  O11  1  0.329617  0.329617  0.000000  1
  O  O12  1  0.674069  0.674069  0.000000  1
  O  O13  1  0.355329  0.715145  0.071202  1
  O  O14  1  0.939603  0.650640  0.280427  1
  O  O15  1  0.641735  0.347114  0.281137  1
  O  O16  1  0.726534  0.062226  0.357588  1
  O  O17  1  0.324291  0.000382  0.330338  1
  O  O18  1  0.013146  0.327902  0.339986  1
  O  O19  1  0.298544  0.638768  0.362583  1
  O  O20  1  0.656215  0.710993  0.368895  1
  O  O21  1  0.342100  0.287320  0.631106  1
  O  O22  1  0.276185  0.935962  0.637418  1
  O  O23  1  0.670045  0.993953  0.669663  1
  O  O24  1  0.987916  0.673161  0.660015  1
  O  O25  1  0.704638  0.368946  0.642412  1
  O  O26  1  0.065976  0.360596  0.718863  1
  O  O27  1  0.370214  0.659177  0.719573  1
  O  O28  1  0.643943  0.284127  0.928798  1
