# generated using pymatgen
data_ZnHO7F
_symmetry_space_group_name_H-M   'P 1'
_cell_length_a   3.10674822
_cell_length_b   6.25615013
_cell_length_c   8.95431034
_cell_angle_alpha   97.64022838
_cell_angle_beta   92.58498333
_cell_angle_gamma   90.89738854
_symmetry_Int_Tables_number   1
_chemical_formula_structural   ZnHO7F
_chemical_formula_sum   'Zn1 H1 O7 F1'
_cell_volume   172.27671831
_cell_formula_units_Z   1
loop_
 _symmetry_equiv_pos_site_id
 _symmetry_equiv_pos_as_xyz
  1  'x, y, z'
loop_
 _atom_site_type_symbol
 _atom_site_label
 _atom_site_symmetry_multiplicity
 _atom_site_fract_x
 _atom_site_fract_y
 _atom_site_fract_z
 _atom_site_occupancy
  Zn  Zn0  1  0.338367  0.503325  0.350768  1
  H  H1  1  0.843062  0.179123  0.397646  1
  O  O2  1  0.663841  0.787457  0.653139  1
  O  O3  1  0.156112  0.434689  0.837381  1
  O  O4  1  0.055255  0.448425  0.969811  1
  O  O5  1  0.246484  0.952726  0.984314  1
  O  O6  1  0.740511  0.979872  0.646538  1
  O  O7  1  0.350295  0.017756  0.117223  1
  O  O8  1  0.842625  0.334227  0.397535  1
  F  F9  1  0.831651  0.699194  0.311201  1
