# generated using pymatgen
data_Hf2Zr4B4IrRu9
_symmetry_space_group_name_H-M   'P 1'
_cell_length_a   9.56063745
_cell_length_b   9.57624245
_cell_length_c   3.14332600
_cell_angle_alpha   90.00000000
_cell_angle_beta   90.00000000
_cell_angle_gamma   90.03508373
_symmetry_Int_Tables_number   1
_chemical_formula_structural   Hf2Zr4B4IrRu9
_chemical_formula_sum   'Hf2 Zr4 B4 Ir1 Ru9'
_cell_volume   287.78710193
_cell_formula_units_Z   1
loop_
 _symmetry_equiv_pos_site_id
 _symmetry_equiv_pos_as_xyz
  1  'x, y, z'
loop_
 _atom_site_type_symbol
 _atom_site_label
 _atom_site_symmetry_multiplicity
 _atom_site_fract_x
 _atom_site_fract_y
 _atom_site_fract_z
 _atom_site_occupancy
  Hf  Hf0  1  0.996259  0.999044  0.000000  1
  Hf  Hf1  1  0.501103  0.499785  0.000000  1
  Zr  Zr2  1  0.676108  0.175894  0.000000  1
  Zr  Zr3  1  0.326091  0.820223  0.000000  1
  Zr  Zr4  1  0.174460  0.328737  0.000000  1
  Zr  Zr5  1  0.824339  0.675774  0.000000  1
  B  B6  1  0.121790  0.622264  0.000000  1
  B  B7  1  0.878001  0.377967  0.000000  1
  B  B8  1  0.621783  0.876854  0.000000  1
  B  B9  1  0.383600  0.123677  0.000000  1
  Ir  Ir10  1  0.220426  0.071390  0.500000  1
  Ru  Ru11  1  0.777257  0.928323  0.500000  1
  Ru  Ru12  1  0.072094  0.779582  0.500000  1
  Ru  Ru13  1  0.721462  0.427565  0.500000  1
  Ru  Ru14  1  0.930084  0.221225  0.500000  1
  Ru  Ru15  1  0.279479  0.571310  0.500000  1
  Ru  Ru16  1  0.571146  0.720991  0.500000  1
  Ru  Ru17  1  0.426391  0.278929  0.500000  1
  Ru  Ru18  1  0.498415  0.999474  0.500000  1
  Ru  Ru19  1  0.999711  0.500992  0.500000  1
