# generated using pymatgen
data_Sc4In2NiAu3
_symmetry_space_group_name_H-M   'P 1'
_cell_length_a   7.63299445
_cell_length_b   7.63299445
_cell_length_c   3.42250100
_cell_angle_alpha   90.00000000
_cell_angle_beta   90.00000000
_cell_angle_gamma   90.35413423
_symmetry_Int_Tables_number   1
_chemical_formula_structural   Sc4In2NiAu3
_chemical_formula_sum   'Sc4 In2 Ni1 Au3'
_cell_volume   199.40001254
_cell_formula_units_Z   1
loop_
 _symmetry_equiv_pos_site_id
 _symmetry_equiv_pos_as_xyz
  1  'x, y, z'
loop_
 _atom_site_type_symbol
 _atom_site_label
 _atom_site_symmetry_multiplicity
 _atom_site_fract_x
 _atom_site_fract_y
 _atom_site_fract_z
 _atom_site_occupancy
  Sc  Sc0  1  0.667785  0.167785  0.500000  1
  Sc  Sc1  1  0.174508  0.357041  0.500000  1
  Sc  Sc2  1  0.857041  0.674508  0.500000  1
  Sc  Sc3  1  0.311392  0.811392  0.500000  1
  In  In4  1  0.001978  0.995200  0.000000  1
  In  In5  1  0.495200  0.501978  0.000000  1
  Ni  Ni6  1  0.126555  0.626555  0.000000  1
  Au  Au7  1  0.874943  0.374943  0.000000  1
  Au  Au8  1  0.364427  0.126171  0.000000  1
  Au  Au9  1  0.626171  0.864427  0.000000  1
