# generated using pymatgen
data_Y2Ho6Si8PdPt7
_symmetry_space_group_name_H-M   'P 1'
_cell_length_a   4.28739500
_cell_length_b   7.46380620
_cell_length_c   14.04917111
_cell_angle_alpha   89.96042252
_cell_angle_beta   90.00000000
_cell_angle_gamma   90.00000000
_symmetry_Int_Tables_number   1
_chemical_formula_structural   Y2Ho6Si8PdPt7
_chemical_formula_sum   'Y2 Ho6 Si8 Pd1 Pt7'
_cell_volume   449.57737764
_cell_formula_units_Z   1
loop_
 _symmetry_equiv_pos_site_id
 _symmetry_equiv_pos_as_xyz
  1  'x, y, z'
loop_
 _atom_site_type_symbol
 _atom_site_label
 _atom_site_symmetry_multiplicity
 _atom_site_fract_x
 _atom_site_fract_y
 _atom_site_fract_z
 _atom_site_occupancy
  Y  Y0  1  0.500000  0.701028  0.499885  1
  Y  Y1  1  0.000000  0.299394  0.999832  1
  Ho  Ho2  1  0.500000  0.794262  0.749679  1
  Ho  Ho3  1  0.000000  0.204493  0.750539  1
  Ho  Ho4  1  0.500000  0.794772  0.250549  1
  Ho  Ho5  1  0.000000  0.205083  0.249190  1
  Ho  Ho6  1  0.500000  0.705584  0.000228  1
  Ho  Ho7  1  0.000000  0.293521  0.500109  1
  Si  Si8  1  0.500000  0.404955  0.646367  1
  Si  Si9  1  0.000000  0.592604  0.854808  1
  Si  Si10  1  0.500000  0.407585  0.351478  1
  Si  Si11  1  0.000000  0.592347  0.147741  1
  Si  Si12  1  0.500000  0.091711  0.092594  1
  Si  Si13  1  0.000000  0.908655  0.407314  1
  Si  Si14  1  0.500000  0.092040  0.907013  1
  Si  Si15  1  0.000000  0.910078  0.591900  1
  Pd  Pd16  1  0.000000  0.580756  0.655748  1
  Pt  Pt17  1  0.500000  0.075962  0.608400  1
  Pt  Pt18  1  0.000000  0.922910  0.891226  1
  Pt  Pt19  1  0.500000  0.077258  0.391506  1
  Pt  Pt20  1  0.000000  0.922800  0.108415  1
  Pt  Pt21  1  0.500000  0.420609  0.154397  1
  Pt  Pt22  1  0.000000  0.579451  0.347331  1
  Pt  Pt23  1  0.500000  0.422139  0.843750  1
