# generated using pymatgen
data_Dy4Lu4Re3TcC8
_symmetry_space_group_name_H-M   'P 1'
_cell_length_a   5.04598000
_cell_length_b   6.55985848
_cell_length_c   9.73770164
_cell_angle_alpha   90.03333302
_cell_angle_beta   90.00000000
_cell_angle_gamma   90.00000000
_symmetry_Int_Tables_number   1
_chemical_formula_structural   Dy4Lu4Re3TcC8
_chemical_formula_sum   'Dy4 Lu4 Re3 Tc1 C8'
_cell_volume   322.32677666
_cell_formula_units_Z   1
loop_
 _symmetry_equiv_pos_site_id
 _symmetry_equiv_pos_as_xyz
  1  'x, y, z'
loop_
 _atom_site_type_symbol
 _atom_site_label
 _atom_site_symmetry_multiplicity
 _atom_site_fract_x
 _atom_site_fract_y
 _atom_site_fract_z
 _atom_site_occupancy
  Dy  Dy0  1  0.250000  0.534771  0.214261  1
  Dy  Dy1  1  0.750000  0.465189  0.785827  1
  Dy  Dy2  1  0.750000  0.965842  0.712710  1
  Dy  Dy3  1  0.250000  0.035028  0.285923  1
  Lu  Lu4  1  0.250000  0.671822  0.558069  1
  Lu  Lu5  1  0.750000  0.327014  0.441446  1
  Lu  Lu6  1  0.750000  0.826526  0.057992  1
  Lu  Lu7  1  0.250000  0.173651  0.941269  1
  Re  Re8  1  0.250000  0.719908  0.867676  1
  Re  Re9  1  0.750000  0.279476  0.132226  1
  Re  Re10  1  0.750000  0.779746  0.367757  1
  Tc  Tc11  1  0.250000  0.220293  0.632305  1
  C  C12  1  0.250000  0.451733  0.761071  1
  C  C13  1  0.750000  0.548888  0.239304  1
  C  C14  1  0.750000  0.048358  0.260445  1
  C  C15  1  0.250000  0.950180  0.740529  1
  C  C16  1  0.250000  0.830542  0.051431  1
  C  C17  1  0.750000  0.170142  0.948521  1
  C  C18  1  0.750000  0.669965  0.551485  1
  C  C19  1  0.250000  0.330929  0.449750  1
