# generated using pymatgen
data_Ta5Pb3WO18
_symmetry_space_group_name_H-M   'P 1'
_cell_length_a   7.32537500
_cell_length_b   7.31895052
_cell_length_c   7.28323408
_cell_angle_alpha   94.72931396
_cell_angle_beta   94.84479092
_cell_angle_gamma   95.09549865
_symmetry_Int_Tables_number   1
_chemical_formula_structural   Ta5Pb3WO18
_chemical_formula_sum   'Ta5 Pb3 W1 O18'
_cell_volume   385.95600260
_cell_formula_units_Z   1
loop_
 _symmetry_equiv_pos_site_id
 _symmetry_equiv_pos_as_xyz
  1  'x, y, z'
loop_
 _atom_site_type_symbol
 _atom_site_label
 _atom_site_symmetry_multiplicity
 _atom_site_fract_x
 _atom_site_fract_y
 _atom_site_fract_z
 _atom_site_occupancy
  Ta  Ta0  1  0.827859  0.179760  0.530242  1
  Ta  Ta1  1  0.185114  0.530104  0.827945  1
  Ta  Ta2  1  0.174706  0.825407  0.517183  1
  Ta  Ta3  1  0.825888  0.518950  0.167118  1
  Ta  Ta4  1  0.521329  0.167707  0.827791  1
  Pb  Pb5  1  0.992265  0.993695  0.993011  1
  Pb  Pb6  1  0.356629  0.355921  0.361245  1
  Pb  Pb7  1  0.730531  0.646683  0.646538  1
  W  W8  1  0.533038  0.823131  0.180674  1
  O  O9  1  0.388131  0.680695  0.972088  1
  O  O10  1  0.669159  0.962657  0.387180  1
  O  O11  1  0.957147  0.396182  0.677826  1
  O  O12  1  0.950016  0.673594  0.399030  1
  O  O13  1  0.674839  0.388938  0.961742  1
  O  O14  1  0.376471  0.970012  0.674522  1
  O  O15  1  0.763418  0.061157  0.767202  1
  O  O16  1  0.056771  0.768542  0.771657  1
  O  O17  1  0.771494  0.767699  0.062812  1
  O  O18  1  0.051836  0.511943  0.051732  1
  O  O19  1  0.503992  0.053768  0.050947  1
  O  O20  1  0.042120  0.049153  0.511449  1
  O  O21  1  0.584153  0.294345  0.581245  1
  O  O22  1  0.285892  0.586685  0.584023  1
  O  O23  1  0.582388  0.579155  0.295149  1
  O  O24  1  0.292512  0.845445  0.298329  1
  O  O25  1  0.839823  0.300966  0.302095  1
  O  O26  1  0.302279  0.307504  0.839022  1
