# generated using pymatgen
data_KCaZrF7
_symmetry_space_group_name_H-M   'P 1'
_cell_length_a   6.62447917
_cell_length_b   6.62447871
_cell_length_c   8.60692500
_cell_angle_alpha   90.00000000
_cell_angle_beta   90.00000000
_cell_angle_gamma   116.48709653
_symmetry_Int_Tables_number   1
_chemical_formula_structural   KCaZrF7
_chemical_formula_sum   'K2 Ca2 Zr2 F14'
_cell_volume   338.05814209
_cell_formula_units_Z   2
loop_
 _symmetry_equiv_pos_site_id
 _symmetry_equiv_pos_as_xyz
  1  'x, y, z'
loop_
 _atom_site_type_symbol
 _atom_site_label
 _atom_site_symmetry_multiplicity
 _atom_site_fract_x
 _atom_site_fract_y
 _atom_site_fract_z
 _atom_site_occupancy
  K  K0  1  0.000000  0.000000  0.000000  1
  K  K1  1  0.000000  0.000000  0.500000  1
  Ca  Ca2  1  0.308737  0.691263  0.750000  1
  Ca  Ca3  1  0.691263  0.308737  0.250000  1
  Zr  Zr4  1  0.693684  0.306316  0.750000  1
  Zr  Zr5  1  0.306316  0.693684  0.250000  1
  F  F6  1  0.346569  0.064034  0.750000  1
  F  F7  1  0.653431  0.935966  0.250000  1
  F  F8  1  0.935966  0.653431  0.750000  1
  F  F9  1  0.064034  0.346569  0.250000  1
  F  F10  1  0.510280  0.489720  0.750000  1
  F  F11  1  0.489720  0.510280  0.250000  1
  F  F12  1  0.703160  0.296840  0.987800  1
  F  F13  1  0.296840  0.703160  0.012200  1
  F  F14  1  0.296840  0.703160  0.487800  1
  F  F15  1  0.703160  0.296840  0.512200  1
  F  F16  1  0.673627  0.975817  0.750000  1
  F  F17  1  0.326373  0.024183  0.250000  1
  F  F18  1  0.024183  0.326373  0.750000  1
  F  F19  1  0.975817  0.673627  0.250000  1
