# generated using pymatgen
data_Sr6Ni(RuO6)2
_symmetry_space_group_name_H-M   'P 1'
_cell_length_a   8.76575051
_cell_length_b   8.76574979
_cell_length_c   6.98718751
_cell_angle_alpha   67.91491486
_cell_angle_beta   67.91491885
_cell_angle_gamma   36.83823874
_symmetry_Int_Tables_number   1
_chemical_formula_structural   Sr6Ni(RuO6)2
_chemical_formula_sum   'Sr6 Ni1 Ru2 O12'
_cell_volume   295.53901054
_cell_formula_units_Z   1
loop_
 _symmetry_equiv_pos_site_id
 _symmetry_equiv_pos_as_xyz
  1  'x, y, z'
loop_
 _atom_site_type_symbol
 _atom_site_label
 _atom_site_symmetry_multiplicity
 _atom_site_fract_x
 _atom_site_fract_y
 _atom_site_fract_z
 _atom_site_occupancy
  Sr  Sr0  1  0.206768  0.206768  0.703723  1
  Sr  Sr1  1  0.890001  0.890001  0.705297  1
  Sr  Sr2  1  0.548017  0.548017  0.714853  1
  Sr  Sr3  1  0.793232  0.793232  0.296277  1
  Sr  Sr4  1  0.451983  0.451983  0.285147  1
  Sr  Sr5  1  0.109999  0.109999  0.294703  1
  Ni  Ni6  1  0.000000  0.000000  0.000000  1
  Ru  Ru7  1  0.669973  0.669973  0.002244  1
  Ru  Ru8  1  0.330027  0.330027  0.997756  1
  O  O9  1  0.279645  0.279645  0.320913  1
  O  O10  1  0.944678  0.944678  0.330662  1
  O  O11  1  0.613247  0.613247  0.320776  1
  O  O12  1  0.720355  0.720355  0.679087  1
  O  O13  1  0.386753  0.386753  0.679224  1
  O  O14  1  0.055322  0.055322  0.669338  1
  O  O15  1  0.000000  0.500000  0.000000  1
  O  O16  1  0.653522  0.171981  0.000706  1
  O  O17  1  0.346478  0.828019  0.999294  1
  O  O18  1  0.500000  0.000000  0.000000  1
  O  O19  1  0.171981  0.653522  0.000706  1
  O  O20  1  0.828019  0.346478  0.999294  1
