# generated using pymatgen
data_Ta3Al2PtC
_symmetry_space_group_name_H-M   'P 1'
_cell_length_a   8.35222969
_cell_length_b   8.35222977
_cell_length_c   8.35222900
_cell_angle_alpha   59.99999909
_cell_angle_beta   59.99999877
_cell_angle_gamma   59.99999950
_symmetry_Int_Tables_number   1
_chemical_formula_structural   Ta3Al2PtC
_chemical_formula_sum   'Ta12 Al8 Pt4 C4'
_cell_volume   411.99528816
_cell_formula_units_Z   4
loop_
 _symmetry_equiv_pos_site_id
 _symmetry_equiv_pos_as_xyz
  1  'x, y, z'
loop_
 _atom_site_type_symbol
 _atom_site_label
 _atom_site_symmetry_multiplicity
 _atom_site_fract_x
 _atom_site_fract_y
 _atom_site_fract_z
 _atom_site_occupancy
  Ta  Ta0  1  0.567515  0.932485  0.567515  1
  Ta  Ta1  1  0.317515  0.682485  0.682485  1
  Ta  Ta2  1  0.682485  0.317515  0.317515  1
  Ta  Ta3  1  0.317515  0.682485  0.317515  1
  Ta  Ta4  1  0.682485  0.682485  0.317515  1
  Ta  Ta5  1  0.317515  0.317515  0.682485  1
  Ta  Ta6  1  0.567515  0.567515  0.932485  1
  Ta  Ta7  1  0.932485  0.567515  0.567515  1
  Ta  Ta8  1  0.567515  0.932485  0.932485  1
  Ta  Ta9  1  0.932485  0.932485  0.567515  1
  Ta  Ta10  1  0.682485  0.317515  0.682485  1
  Ta  Ta11  1  0.932485  0.567515  0.932485  1
  Al  Al12  1  0.915452  0.915452  0.915452  1
  Al  Al13  1  0.996356  0.334548  0.334548  1
  Al  Al14  1  0.334548  0.996356  0.334548  1
  Al  Al15  1  0.334548  0.334548  0.996356  1
  Al  Al16  1  0.915452  0.253644  0.915452  1
  Al  Al17  1  0.915452  0.915452  0.253644  1
  Al  Al18  1  0.253644  0.915452  0.915452  1
  Al  Al19  1  0.334548  0.334548  0.334548  1
  Pt  Pt20  1  0.125000  0.125000  0.125000  1
  Pt  Pt21  1  0.625000  0.125000  0.125000  1
  Pt  Pt22  1  0.125000  0.625000  0.125000  1
  Pt  Pt23  1  0.125000  0.125000  0.625000  1
  C  C24  1  0.625000  0.625000  0.625000  1
  C  C25  1  0.125000  0.625000  0.625000  1
  C  C26  1  0.625000  0.125000  0.625000  1
  C  C27  1  0.625000  0.625000  0.125000  1
