# generated using pymatgen
data_Er4Tc5Ge8Mo
_symmetry_space_group_name_H-M   'P 1'
_cell_length_a   6.93991133
_cell_length_b   6.89748132
_cell_length_c   6.94272665
_cell_angle_alpha   69.72702926
_cell_angle_beta   89.98516943
_cell_angle_gamma   90.16200065
_symmetry_Int_Tables_number   1
_chemical_formula_structural   Er4Tc5Ge8Mo
_chemical_formula_sum   'Er4 Tc5 Ge8 Mo1'
_cell_volume   311.74503858
_cell_formula_units_Z   1
loop_
 _symmetry_equiv_pos_site_id
 _symmetry_equiv_pos_as_xyz
  1  'x, y, z'
loop_
 _atom_site_type_symbol
 _atom_site_label
 _atom_site_symmetry_multiplicity
 _atom_site_fract_x
 _atom_site_fract_y
 _atom_site_fract_z
 _atom_site_occupancy
  Er  Er0  1  0.329861  0.553302  0.807006  1
  Er  Er1  1  0.829902  0.945881  0.193474  1
  Er  Er2  1  0.670139  0.446698  0.192994  1
  Er  Er3  1  0.170098  0.054119  0.806526  1
  Tc  Tc4  1  0.500000  0.000000  0.500000  1
  Tc  Tc5  1  0.851937  0.754005  0.758738  1
  Tc  Tc6  1  0.351508  0.744416  0.235398  1
  Tc  Tc7  1  0.148063  0.245995  0.241262  1
  Tc  Tc8  1  0.648492  0.255584  0.764602  1
  Ge  Ge9  1  0.552892  0.867889  0.897165  1
  Ge  Ge10  1  0.049416  0.635568  0.097084  1
  Ge  Ge11  1  0.447108  0.132111  0.102835  1
  Ge  Ge12  1  0.950584  0.364432  0.902916  1
  Ge  Ge13  1  0.146425  0.866171  0.486063  1
  Ge  Ge14  1  0.642454  0.635720  0.509917  1
  Ge  Ge15  1  0.853575  0.133829  0.513937  1
  Ge  Ge16  1  0.357546  0.364280  0.490083  1
  Mo  Mo17  1  0.000000  0.500000  0.500000  1
