# generated using pymatgen
data_ZrPaNi6
_symmetry_space_group_name_H-M   'P 1'
_cell_length_a   5.30416000
_cell_length_b   5.30416207
_cell_length_c   4.50366700
_cell_angle_alpha   90.00000000
_cell_angle_beta   90.00000000
_cell_angle_gamma   120.00623439
_symmetry_Int_Tables_number   1
_chemical_formula_structural   ZrPaNi6
_chemical_formula_sum   'Zr1 Pa1 Ni6'
_cell_volume   109.72435036
_cell_formula_units_Z   1
loop_
 _symmetry_equiv_pos_site_id
 _symmetry_equiv_pos_as_xyz
  1  'x, y, z'
loop_
 _atom_site_type_symbol
 _atom_site_label
 _atom_site_symmetry_multiplicity
 _atom_site_fract_x
 _atom_site_fract_y
 _atom_site_fract_z
 _atom_site_occupancy
  Zr  Zr0  1  0.333320  0.666680  0.249999  1
  Pa  Pa1  1  0.666696  0.333305  0.750000  1
  Ni  Ni2  1  0.679510  0.839747  0.750000  1
  Ni  Ni3  1  0.160220  0.839781  0.750000  1
  Ni  Ni4  1  0.843925  0.156076  0.249999  1
  Ni  Ni5  1  0.312190  0.156110  0.249999  1
  Ni  Ni6  1  0.160256  0.320491  0.750000  1
  Ni  Ni7  1  0.843889  0.687808  0.249999  1
