# generated using pymatgen
data_In12TcRuRh2
_symmetry_space_group_name_H-M   'P 1'
_cell_length_a   7.10100345
_cell_length_b   7.10100328
_cell_length_c   7.38625500
_cell_angle_alpha   90.00000000
_cell_angle_beta   90.00000000
_cell_angle_gamma   89.63417890
_symmetry_Int_Tables_number   1
_chemical_formula_structural   In12TcRuRh2
_chemical_formula_sum   'In12 Tc1 Ru1 Rh2'
_cell_volume   372.43876821
_cell_formula_units_Z   1
loop_
 _symmetry_equiv_pos_site_id
 _symmetry_equiv_pos_as_xyz
  1  'x, y, z'
loop_
 _atom_site_type_symbol
 _atom_site_label
 _atom_site_symmetry_multiplicity
 _atom_site_fract_x
 _atom_site_fract_y
 _atom_site_fract_z
 _atom_site_occupancy
  In  In0  1  0.000576  0.499571  0.500000  1
  In  In1  1  0.498019  0.999649  0.000000  1
  In  In2  1  0.500429  0.999424  0.500000  1
  In  In3  1  0.000351  0.501981  0.000000  1
  In  In4  1  0.345420  0.654580  0.238338  1
  In  In5  1  0.654275  0.345725  0.239997  1
  In  In6  1  0.155335  0.156280  0.737641  1
  In  In7  1  0.843720  0.844665  0.737641  1
  In  In8  1  0.654275  0.345725  0.760003  1
  In  In9  1  0.345420  0.654580  0.761662  1
  In  In10  1  0.843720  0.844665  0.262359  1
  In  In11  1  0.155335  0.156280  0.262359  1
  Tc  Tc12  1  0.846545  0.153455  0.500000  1
  Ru  Ru13  1  0.156785  0.843215  0.500000  1
  Rh  Rh14  1  0.345381  0.345585  0.000000  1
  Rh  Rh15  1  0.654415  0.654619  0.000000  1
