# generated using pymatgen
data_Be8VZnIr2
_symmetry_space_group_name_H-M   'P 1'
_cell_length_a   4.33896800
_cell_length_b   4.33896755
_cell_length_c   7.08784300
_cell_angle_alpha   90.00000000
_cell_angle_beta   90.00000000
_cell_angle_gamma   120.00000340
_symmetry_Int_Tables_number   1
_chemical_formula_structural   Be8VZnIr2
_chemical_formula_sum   'Be8 V1 Zn1 Ir2'
_cell_volume   115.56266691
_cell_formula_units_Z   1
loop_
 _symmetry_equiv_pos_site_id
 _symmetry_equiv_pos_as_xyz
  1  'x, y, z'
loop_
 _atom_site_type_symbol
 _atom_site_label
 _atom_site_symmetry_multiplicity
 _atom_site_fract_x
 _atom_site_fract_y
 _atom_site_fract_z
 _atom_site_occupancy
  Be  Be0  1  0.000000  0.000000  0.999280  1
  Be  Be1  1  0.000000  0.000000  0.501947  1
  Be  Be2  1  0.833694  0.667387  0.250948  1
  Be  Be3  1  0.170041  0.829959  0.749611  1
  Be  Be4  1  0.659917  0.829959  0.749611  1
  Be  Be5  1  0.332613  0.166306  0.250948  1
  Be  Be6  1  0.833694  0.166306  0.250948  1
  Be  Be7  1  0.170041  0.340083  0.749611  1
  V  V8  1  0.333333  0.666667  0.438445  1
  Zn  Zn9  1  0.666667  0.333333  0.935854  1
  Ir  Ir10  1  0.333333  0.666667  0.070876  1
  Ir  Ir11  1  0.666667  0.333333  0.551919  1
