# generated using pymatgen
data_ErPa2(TcSn)3
_symmetry_space_group_name_H-M   'P 1'
_cell_length_a   7.24400700
_cell_length_b   7.62215947
_cell_length_c   3.97603900
_cell_angle_alpha   90.00000000
_cell_angle_beta   90.00000000
_cell_angle_gamma   118.37196119
_symmetry_Int_Tables_number   1
_chemical_formula_structural   ErPa2(TcSn)3
_chemical_formula_sum   'Er1 Pa2 Tc3 Sn3'
_cell_volume   193.16639632
_cell_formula_units_Z   1
loop_
 _symmetry_equiv_pos_site_id
 _symmetry_equiv_pos_as_xyz
  1  'x, y, z'
loop_
 _atom_site_type_symbol
 _atom_site_label
 _atom_site_symmetry_multiplicity
 _atom_site_fract_x
 _atom_site_fract_y
 _atom_site_fract_z
 _atom_site_occupancy
  Er  Er0  1  0.593232  0.000000  0.000000  1
  Pa  Pa1  1  0.413578  0.412049  0.000000  1
  Pa  Pa2  1  0.001530  0.587951  0.000000  1
  Tc  Tc3  1  0.021492  0.000000  0.000000  1
  Tc  Tc4  1  0.671383  0.372533  0.500000  1
  Tc  Tc5  1  0.298850  0.627467  0.500000  1
  Sn  Sn6  1  0.742849  0.762729  0.500000  1
  Sn  Sn7  1  0.980120  0.237271  0.500000  1
  Sn  Sn8  1  0.276967  0.000000  0.500000  1
