# generated using pymatgen
data_Dy2Er8Ga3NiBi2
_symmetry_space_group_name_H-M   'P 1'
_cell_length_a   8.50315261
_cell_length_b   8.50315296
_cell_length_c   8.69658196
_cell_angle_alpha   124.36968267
_cell_angle_beta   124.36968821
_cell_angle_gamma   81.09801757
_symmetry_Int_Tables_number   1
_chemical_formula_structural   Dy2Er8Ga3NiBi2
_chemical_formula_sum   'Dy2 Er8 Ga3 Ni1 Bi2'
_cell_volume   415.81205854
_cell_formula_units_Z   1
loop_
 _symmetry_equiv_pos_site_id
 _symmetry_equiv_pos_as_xyz
  1  'x, y, z'
loop_
 _atom_site_type_symbol
 _atom_site_label
 _atom_site_symmetry_multiplicity
 _atom_site_fract_x
 _atom_site_fract_y
 _atom_site_fract_z
 _atom_site_occupancy
  Dy  Dy0  1  0.705613  0.515056  0.500000  1
  Dy  Dy1  1  0.984944  0.794387  0.500000  1
  Er  Er2  1  0.995162  0.997554  0.992716  1
  Er  Er3  1  0.502446  0.504838  0.007284  1
  Er  Er4  1  0.778103  0.295630  0.793804  1
  Er  Er5  1  0.204370  0.721897  0.206196  1
  Er  Er6  1  0.484297  0.001825  0.206196  1
  Er  Er7  1  0.303290  0.458061  0.500000  1
  Er  Er8  1  0.041939  0.196710  0.500000  1
  Er  Er9  1  0.498175  0.015703  0.793804  1
  Ga  Ga10  1  0.148856  0.645352  0.794208  1
  Ga  Ga11  1  0.854648  0.351144  0.205792  1
  Ga  Ga12  1  0.634195  0.865805  0.500000  1
  Ni  Ni13  1  0.376001  0.123999  0.500000  1
  Bi  Bi14  1  0.243980  0.256020  0.000000  1
  Bi  Bi15  1  0.743980  0.756020  0.000000  1
