# generated using pymatgen
data_GdTmB6Ru
_symmetry_space_group_name_H-M   'P 1'
_cell_length_a   3.65540100
_cell_length_b   9.12988100
_cell_length_c   11.52247800
_cell_angle_alpha   90.00000000
_cell_angle_beta   90.00000000
_cell_angle_gamma   90.00000000
_symmetry_Int_Tables_number   1
_chemical_formula_structural   GdTmB6Ru
_chemical_formula_sum   'Gd4 Tm4 B24 Ru4'
_cell_volume   384.54399233
_cell_formula_units_Z   4
loop_
 _symmetry_equiv_pos_site_id
 _symmetry_equiv_pos_as_xyz
  1  'x, y, z'
loop_
 _atom_site_type_symbol
 _atom_site_label
 _atom_site_symmetry_multiplicity
 _atom_site_fract_x
 _atom_site_fract_y
 _atom_site_fract_z
 _atom_site_occupancy
  Gd  Gd0  1  0.000000  0.322064  0.414384  1
  Gd  Gd1  1  0.000000  0.677936  0.585616  1
  Gd  Gd2  1  0.000000  0.822064  0.085616  1
  Gd  Gd3  1  0.000000  0.177936  0.914384  1
  Tm  Tm4  1  0.000000  0.943933  0.372284  1
  Tm  Tm5  1  0.000000  0.056067  0.627716  1
  Tm  Tm6  1  0.000000  0.443933  0.127716  1
  Tm  Tm7  1  0.000000  0.556067  0.872284  1
  B  B8  1  0.500000  0.555005  0.432167  1
  B  B9  1  0.500000  0.444995  0.567833  1
  B  B10  1  0.500000  0.055005  0.067833  1
  B  B11  1  0.500000  0.944995  0.932167  1
  B  B12  1  0.500000  0.749473  0.418795  1
  B  B13  1  0.500000  0.250527  0.581205  1
  B  B14  1  0.500000  0.249473  0.081205  1
  B  B15  1  0.500000  0.750527  0.918795  1
  B  B16  1  0.500000  0.791506  0.265853  1
  B  B17  1  0.500000  0.208494  0.734147  1
  B  B18  1  0.500000  0.291506  0.234147  1
  B  B19  1  0.500000  0.708494  0.765853  1
  B  B20  1  0.500000  0.630962  0.184357  1
  B  B21  1  0.500000  0.369038  0.815643  1
  B  B22  1  0.500000  0.130962  0.315643  1
  B  B23  1  0.500000  0.869038  0.684357  1
  B  B24  1  0.500000  0.983945  0.213330  1
  B  B25  1  0.500000  0.016055  0.786670  1
  B  B26  1  0.500000  0.483945  0.286670  1
  B  B27  1  0.500000  0.516055  0.713330  1
  B  B28  1  0.500000  0.604314  0.028529  1
  B  B29  1  0.500000  0.395686  0.971471  1
  B  B30  1  0.500000  0.104314  0.471471  1
  B  B31  1  0.500000  0.895686  0.528529  1
  Ru  Ru32  1  0.000000  0.638780  0.319976  1
  Ru  Ru33  1  0.000000  0.361220  0.680024  1
  Ru  Ru34  1  0.000000  0.138780  0.180024  1
  Ru  Ru35  1  0.000000  0.861220  0.819976  1
