# generated using pymatgen
data_Ba3Ce2Lu2O9
_symmetry_space_group_name_H-M   'P 1'
_cell_length_a   6.16694511
_cell_length_b   6.16694475
_cell_length_c   9.22374476
_cell_angle_alpha   109.52980501
_cell_angle_beta   70.47018516
_cell_angle_gamma   119.99999785
_symmetry_Int_Tables_number   1
_chemical_formula_structural   Ba3Ce2Lu2O9
_chemical_formula_sum   'Ba3 Ce2 Lu2 O9'
_cell_volume   280.24718197
_cell_formula_units_Z   1
loop_
 _symmetry_equiv_pos_site_id
 _symmetry_equiv_pos_as_xyz
  1  'x, y, z'
loop_
 _atom_site_type_symbol
 _atom_site_label
 _atom_site_symmetry_multiplicity
 _atom_site_fract_x
 _atom_site_fract_y
 _atom_site_fract_z
 _atom_site_occupancy
  Ba  Ba0  1  0.994735  0.005265  0.015794  1
  Ba  Ba1  1  0.828580  0.171419  0.514257  1
  Ba  Ba2  1  0.411828  0.588170  0.764513  1
  Ce  Ce3  1  0.255681  0.744319  0.232956  1
  Ce  Ce4  1  0.567668  0.432331  0.296993  1
  Lu  Lu5  1  0.127163  0.872837  0.618511  1
  Lu  Lu6  1  0.696078  0.303922  0.911766  1
  O  O7  1  0.526081  0.045843  0.085688  1
  O  O8  1  0.434073  0.473920  0.085688  1
  O  O9  1  0.954156  0.565926  0.085688  1
  O  O10  1  0.392159  0.130930  0.444485  1
  O  O11  1  0.294286  0.607841  0.444485  1
  O  O12  1  0.869070  0.705713  0.444485  1
  O  O13  1  0.411409  0.036041  0.765263  1
  O  O14  1  0.963959  0.140630  0.765263  1
  O  O15  1  0.859371  0.588592  0.765263  1
