# generated using pymatgen
data_Lu8Sc2In5Te
_symmetry_space_group_name_H-M   'P 1'
_cell_length_a   6.35645105
_cell_length_b   8.79719296
_cell_length_c   8.74768605
_cell_angle_alpha   120.20224836
_cell_angle_beta   90.06716982
_cell_angle_gamma   89.85404503
_symmetry_Int_Tables_number   1
_chemical_formula_structural   Lu8Sc2In5Te
_chemical_formula_sum   'Lu8 Sc2 In5 Te1'
_cell_volume   422.75867900
_cell_formula_units_Z   1
loop_
 _symmetry_equiv_pos_site_id
 _symmetry_equiv_pos_as_xyz
  1  'x, y, z'
loop_
 _atom_site_type_symbol
 _atom_site_label
 _atom_site_symmetry_multiplicity
 _atom_site_fract_x
 _atom_site_fract_y
 _atom_site_fract_z
 _atom_site_occupancy
  Lu  Lu0  1  0.004495  0.665989  0.338541  1
  Lu  Lu1  1  0.004513  0.327648  0.661713  1
  Lu  Lu2  1  0.747327  0.231571  0.000068  1
  Lu  Lu3  1  0.748158  0.768336  0.759270  1
  Lu  Lu4  1  0.748157  0.009303  0.241172  1
  Lu  Lu5  1  0.251196  0.764359  0.999955  1
  Lu  Lu6  1  0.251398  0.233714  0.235667  1
  Lu  Lu7  1  0.251349  0.998197  0.764389  1
  Sc  Sc8  1  0.495095  0.331537  0.665944  1
  Sc  Sc9  1  0.495436  0.665975  0.334225  1
  In  In10  1  0.739382  0.406986  0.405776  1
  In  In11  1  0.738874  0.000389  0.594422  1
  In  In12  1  0.256853  0.397379  0.000205  1
  In  In13  1  0.262251  0.595813  0.599066  1
  In  In14  1  0.261655  0.995794  0.399533  1
  Te  Te15  1  0.743863  0.607014  0.000053  1
