# generated using pymatgen
data_Dy4Ho4Re3TcB24
_symmetry_space_group_name_H-M   'P 1'
_cell_length_a   3.67856300
_cell_length_b   9.16156305
_cell_length_c   11.54721400
_cell_angle_alpha   90.02592609
_cell_angle_beta   90.00000000
_cell_angle_gamma   90.00000000
_symmetry_Int_Tables_number   1
_chemical_formula_structural   Dy4Ho4Re3TcB24
_chemical_formula_sum   'Dy4 Ho4 Re3 Tc1 B24'
_cell_volume   389.15708635
_cell_formula_units_Z   1
loop_
 _symmetry_equiv_pos_site_id
 _symmetry_equiv_pos_as_xyz
  1  'x, y, z'
loop_
 _atom_site_type_symbol
 _atom_site_label
 _atom_site_symmetry_multiplicity
 _atom_site_fract_x
 _atom_site_fract_y
 _atom_site_fract_z
 _atom_site_occupancy
  Dy  Dy0  1  0.000000  0.323870  0.413833  1
  Dy  Dy1  1  0.000000  0.676405  0.585988  1
  Dy  Dy2  1  0.000000  0.823650  0.086051  1
  Dy  Dy3  1  0.000000  0.176598  0.913915  1
  Ho  Ho4  1  0.000000  0.942083  0.369717  1
  Ho  Ho5  1  0.000000  0.056843  0.629806  1
  Ho  Ho6  1  0.000000  0.443685  0.130694  1
  Ho  Ho7  1  0.000000  0.556850  0.870177  1
  Re  Re8  1  0.000000  0.361287  0.679297  1
  Re  Re9  1  0.000000  0.138818  0.179430  1
  Re  Re10  1  0.000000  0.861233  0.820632  1
  Tc  Tc11  1  0.000000  0.638891  0.320564  1
  B  B12  1  0.500000  0.553573  0.432640  1
  B  B13  1  0.500000  0.446620  0.567091  1
  B  B14  1  0.500000  0.053499  0.067131  1
  B  B15  1  0.500000  0.946630  0.932805  1
  B  B16  1  0.500000  0.748841  0.418375  1
  B  B17  1  0.500000  0.250766  0.581437  1
  B  B18  1  0.500000  0.249415  0.081532  1
  B  B19  1  0.500000  0.750837  0.918501  1
  B  B20  1  0.500000  0.791804  0.265507  1
  B  B21  1  0.500000  0.207841  0.734331  1
  B  B22  1  0.500000  0.292171  0.234558  1
  B  B23  1  0.500000  0.707824  0.765596  1
  B  B24  1  0.500000  0.630978  0.185810  1
  B  B25  1  0.500000  0.369232  0.814328  1
  B  B26  1  0.500000  0.130621  0.314428  1
  B  B27  1  0.500000  0.869180  0.685583  1
  B  B28  1  0.500000  0.982291  0.211944  1
  B  B29  1  0.500000  0.017604  0.787921  1
  B  B30  1  0.500000  0.482700  0.288146  1
  B  B31  1  0.500000  0.517626  0.712065  1
  B  B32  1  0.500000  0.600122  0.028095  1
  B  B33  1  0.500000  0.400093  0.972291  1
  B  B34  1  0.500000  0.099651  0.471892  1
  B  B35  1  0.500000  0.899873  0.527888  1
