# generated using pymatgen
data_Tb3CeSe6
_symmetry_space_group_name_H-M   'P 1'
_cell_length_a   4.17881900
_cell_length_b   11.67672040
_cell_length_c   11.95796459
_cell_angle_alpha   70.85935271
_cell_angle_beta   90.00000000
_cell_angle_gamma   90.00000000
_symmetry_Int_Tables_number   1
_chemical_formula_structural   Tb3CeSe6
_chemical_formula_sum   'Tb6 Ce2 Se12'
_cell_volume   551.23047838
_cell_formula_units_Z   2
loop_
 _symmetry_equiv_pos_site_id
 _symmetry_equiv_pos_as_xyz
  1  'x, y, z'
loop_
 _atom_site_type_symbol
 _atom_site_label
 _atom_site_symmetry_multiplicity
 _atom_site_fract_x
 _atom_site_fract_y
 _atom_site_fract_z
 _atom_site_occupancy
  Tb  Tb0  1  0.750000  0.681144  0.999671  1
  Tb  Tb1  1  0.250000  0.318856  0.000329  1
  Tb  Tb2  1  0.750000  0.158567  0.414889  1
  Tb  Tb3  1  0.250000  0.841433  0.585111  1
  Tb  Tb4  1  0.750000  0.439733  0.666947  1
  Tb  Tb5  1  0.250000  0.560267  0.333053  1
  Ce  Ce6  1  0.750000  0.047852  0.805960  1
  Ce  Ce7  1  0.250000  0.952148  0.194040  1
  Se  Se8  1  0.750000  0.393117  0.441637  1
  Se  Se9  1  0.250000  0.606883  0.558363  1
  Se  Se10  1  0.750000  0.805330  0.750281  1
  Se  Se11  1  0.250000  0.194670  0.249719  1
  Se  Se12  1  0.750000  0.479937  0.887231  1
  Se  Se13  1  0.250000  0.520063  0.112769  1
  Se  Se14  1  0.750000  0.115904  0.036089  1
  Se  Se15  1  0.250000  0.884096  0.963911  1
  Se  Se16  1  0.750000  0.738014  0.227050  1
  Se  Se17  1  0.250000  0.261986  0.772950  1
  Se  Se18  1  0.750000  0.916648  0.404453  1
  Se  Se19  1  0.250000  0.083352  0.595547  1
