# generated using pymatgen
data_Tb2Yb6Si12IrPd3
_symmetry_space_group_name_H-M   'P 1'
_cell_length_a   8.23970900
_cell_length_b   8.23970811
_cell_length_c   8.13454700
_cell_angle_alpha   90.00000000
_cell_angle_beta   90.00000000
_cell_angle_gamma   120.00000758
_symmetry_Int_Tables_number   1
_chemical_formula_structural   Tb2Yb6Si12IrPd3
_chemical_formula_sum   'Tb2 Yb6 Si12 Ir1 Pd3'
_cell_volume   478.28600434
_cell_formula_units_Z   1
loop_
 _symmetry_equiv_pos_site_id
 _symmetry_equiv_pos_as_xyz
  1  'x, y, z'
loop_
 _atom_site_type_symbol
 _atom_site_label
 _atom_site_symmetry_multiplicity
 _atom_site_fract_x
 _atom_site_fract_y
 _atom_site_fract_z
 _atom_site_occupancy
  Tb  Tb0  1  0.000000  0.000000  0.250187  1
  Tb  Tb1  1  0.000000  0.000000  0.749585  1
  Yb  Yb2  1  0.500624  0.001249  0.247477  1
  Yb  Yb3  1  0.495683  0.991368  0.752598  1
  Yb  Yb4  1  0.998751  0.499376  0.247477  1
  Yb  Yb5  1  0.008632  0.504317  0.752598  1
  Yb  Yb6  1  0.500624  0.499376  0.247477  1
  Yb  Yb7  1  0.495683  0.504317  0.752598  1
  Si  Si8  1  0.167285  0.334570  0.003108  1
  Si  Si9  1  0.836423  0.672846  0.997547  1
  Si  Si10  1  0.665430  0.832715  0.003108  1
  Si  Si11  1  0.835629  0.671257  0.503119  1
  Si  Si12  1  0.327154  0.163577  0.997547  1
  Si  Si13  1  0.163793  0.327584  0.496666  1
  Si  Si14  1  0.167285  0.832715  0.003108  1
  Si  Si15  1  0.328743  0.164371  0.503119  1
  Si  Si16  1  0.836423  0.163577  0.997547  1
  Si  Si17  1  0.672416  0.836207  0.496666  1
  Si  Si18  1  0.835629  0.164371  0.503119  1
  Si  Si19  1  0.163793  0.836207  0.496666  1
  Ir  Ir20  1  0.333333  0.666667  0.002680  1
  Pd  Pd21  1  0.666667  0.333333  0.996931  1
  Pd  Pd22  1  0.666667  0.333333  0.503203  1
  Pd  Pd23  1  0.333333  0.666667  0.495874  1
