# generated using pymatgen
data_LiTi2MoPt12
_symmetry_space_group_name_H-M   'P 1'
_cell_length_a   5.57445400
_cell_length_b   5.57445419
_cell_length_c   9.06098400
_cell_angle_alpha   90.00000000
_cell_angle_beta   90.00000000
_cell_angle_gamma   119.99999885
_symmetry_Int_Tables_number   1
_chemical_formula_structural   LiTi2MoPt12
_chemical_formula_sum   'Li1 Ti2 Mo1 Pt12'
_cell_volume   243.84322157
_cell_formula_units_Z   1
loop_
 _symmetry_equiv_pos_site_id
 _symmetry_equiv_pos_as_xyz
  1  'x, y, z'
loop_
 _atom_site_type_symbol
 _atom_site_label
 _atom_site_symmetry_multiplicity
 _atom_site_fract_x
 _atom_site_fract_y
 _atom_site_fract_z
 _atom_site_occupancy
  Li  Li0  1  0.333333  0.666667  0.249453  1
  Ti  Ti1  1  0.000000  0.000000  0.005570  1
  Ti  Ti2  1  0.666667  0.333333  0.752943  1
  Mo  Mo3  1  0.000000  0.000000  0.493638  1
  Pt  Pt4  1  0.501070  0.498930  0.501417  1
  Pt  Pt5  1  0.501070  0.002140  0.501417  1
  Pt  Pt6  1  0.997860  0.498930  0.501417  1
  Pt  Pt7  1  0.501114  0.498886  0.998381  1
  Pt  Pt8  1  0.501114  0.002227  0.998381  1
  Pt  Pt9  1  0.997773  0.498886  0.998381  1
  Pt  Pt10  1  0.833186  0.666372  0.249743  1
  Pt  Pt11  1  0.333628  0.166814  0.249743  1
  Pt  Pt12  1  0.833186  0.166814  0.249743  1
  Pt  Pt13  1  0.166094  0.332188  0.749924  1
  Pt  Pt14  1  0.667812  0.833906  0.749924  1
  Pt  Pt15  1  0.166094  0.833906  0.749924  1
