# generated using pymatgen
data_Pr5Ho5Sn8
_symmetry_space_group_name_H-M   'P 1'
_cell_length_a   8.17115300
_cell_length_b   8.33569691
_cell_length_c   15.73604331
_cell_angle_alpha   90.12452870
_cell_angle_beta   90.00000000
_cell_angle_gamma   90.00000000
_symmetry_Int_Tables_number   1
_chemical_formula_structural   Pr5Ho5Sn8
_chemical_formula_sum   'Pr10 Ho10 Sn16'
_cell_volume   1071.81486045
_cell_formula_units_Z   2
loop_
 _symmetry_equiv_pos_site_id
 _symmetry_equiv_pos_as_xyz
  1  'x, y, z'
loop_
 _atom_site_type_symbol
 _atom_site_label
 _atom_site_symmetry_multiplicity
 _atom_site_fract_x
 _atom_site_fract_y
 _atom_site_fract_z
 _atom_site_occupancy
  Pr  Pr0  1  0.367289  0.834763  0.618786  1
  Pr  Pr1  1  0.867289  0.665237  0.881214  1
  Pr  Pr2  1  0.517710  0.318791  0.903689  1
  Pr  Pr3  1  0.017710  0.181209  0.596311  1
  Pr  Pr4  1  0.482263  0.679866  0.400671  1
  Pr  Pr5  1  0.982263  0.820134  0.099329  1
  Pr  Pr6  1  0.482879  0.679269  0.098382  1
  Pr  Pr7  1  0.982879  0.820731  0.401618  1
  Pr  Pr8  1  0.517369  0.319624  0.596841  1
  Pr  Pr9  1  0.017369  0.180376  0.903159  1
  Ho  Ho10  1  0.364022  0.836041  0.877905  1
  Ho  Ho11  1  0.864022  0.663959  0.622095  1
  Ho  Ho12  1  0.634706  0.162679  0.377851  1
  Ho  Ho13  1  0.134706  0.337321  0.122149  1
  Ho  Ho14  1  0.634146  0.163274  0.124412  1
  Ho  Ho15  1  0.134146  0.336726  0.375588  1
  Ho  Ho16  1  0.197938  0.502607  0.750402  1
  Ho  Ho17  1  0.697938  0.997393  0.749598  1
  Ho  Ho18  1  0.801070  0.495156  0.250816  1
  Ho  Ho19  1  0.301070  0.004844  0.249184  1
  Sn  Sn20  1  0.299084  0.039508  0.042627  1
  Sn  Sn21  1  0.799084  0.460492  0.457373  1
  Sn  Sn22  1  0.709671  0.962946  0.541310  1
  Sn  Sn23  1  0.209671  0.537054  0.958690  1
  Sn  Sn24  1  0.696037  0.966658  0.959061  1
  Sn  Sn25  1  0.196037  0.533342  0.540939  1
  Sn  Sn26  1  0.297286  0.043135  0.453359  1
  Sn  Sn27  1  0.797286  0.456865  0.046641  1
  Sn  Sn28  1  0.564602  0.619676  0.749834  1
  Sn  Sn29  1  0.064602  0.880324  0.750166  1
  Sn  Sn30  1  0.435645  0.376008  0.250195  1
  Sn  Sn31  1  0.935645  0.123992  0.249805  1
  Sn  Sn32  1  0.324018  0.143325  0.750933  1
  Sn  Sn33  1  0.824018  0.356675  0.749067  1
  Sn  Sn34  1  0.674266  0.858441  0.249977  1
  Sn  Sn35  1  0.174266  0.641559  0.250023  1
