# generated using pymatgen
data_TbDy7Sc11Si16Os
_symmetry_space_group_name_H-M   'P 1'
_cell_length_a   7.01320301
_cell_length_b   7.35032333
_cell_length_c   13.88102207
_cell_angle_alpha   90.01115193
_cell_angle_beta   90.00290739
_cell_angle_gamma   90.07807719
_symmetry_Int_Tables_number   1
_chemical_formula_structural   TbDy7Sc11Si16Os
_chemical_formula_sum   'Tb1 Dy7 Sc11 Si16 Os1'
_cell_volume   715.55642710
_cell_formula_units_Z   1
loop_
 _symmetry_equiv_pos_site_id
 _symmetry_equiv_pos_as_xyz
  1  'x, y, z'
loop_
 _atom_site_type_symbol
 _atom_site_label
 _atom_site_symmetry_multiplicity
 _atom_site_fract_x
 _atom_site_fract_y
 _atom_site_fract_z
 _atom_site_occupancy
  Tb  Tb0  1  0.011611  0.177359  0.092920  1
  Dy  Dy1  1  0.993826  0.819616  0.900428  1
  Dy  Dy2  1  0.489409  0.672214  0.901892  1
  Dy  Dy3  1  0.993818  0.819631  0.599530  1
  Dy  Dy4  1  0.511439  0.324128  0.094756  1
  Dy  Dy5  1  0.011644  0.177528  0.406954  1
  Dy  Dy6  1  0.511465  0.324078  0.405256  1
  Dy  Dy7  1  0.489408  0.672184  0.598072  1
  Sc  Sc8  1  0.841726  0.496377  0.250065  1
  Sc  Sc9  1  0.341683  0.002983  0.250054  1
  Sc  Sc10  1  0.658164  0.996146  0.750001  1
  Sc  Sc11  1  0.325914  0.176591  0.627215  1
  Sc  Sc12  1  0.671876  0.824566  0.374758  1
  Sc  Sc13  1  0.171747  0.674294  0.376997  1
  Sc  Sc14  1  0.671830  0.824534  0.125332  1
  Sc  Sc15  1  0.825780  0.331502  0.628160  1
  Sc  Sc16  1  0.325973  0.176558  0.872731  1
  Sc  Sc17  1  0.825747  0.331571  0.871801  1
  Sc  Sc18  1  0.171758  0.674230  0.123056  1
  Si  Si19  1  0.029123  0.121481  0.749986  1
  Si  Si20  1  0.971664  0.884824  0.250065  1
  Si  Si21  1  0.468335  0.616099  0.250012  1
  Si  Si22  1  0.515463  0.393387  0.749991  1
  Si  Si23  1  0.287154  0.863147  0.750001  1
  Si  Si24  1  0.716337  0.128537  0.250116  1
  Si  Si25  1  0.215075  0.372411  0.250108  1
  Si  Si26  1  0.796350  0.629432  0.749988  1
  Si  Si27  1  0.156270  0.465599  0.548957  1
  Si  Si28  1  0.842924  0.536356  0.463647  1
  Si  Si29  1  0.345474  0.964624  0.463007  1
  Si  Si30  1  0.842863  0.536591  0.036295  1
  Si  Si31  1  0.658489  0.034210  0.540049  1
  Si  Si32  1  0.156298  0.465756  0.950973  1
  Si  Si33  1  0.658367  0.034174  0.959917  1
  Si  Si34  1  0.345796  0.964482  0.036925  1
  Os  Os35  1  0.149197  0.492802  0.749982  1
