# generated using pymatgen
data_GdHf(GaIr)2
_symmetry_space_group_name_H-M   'P 1'
_cell_length_a   4.29011100
_cell_length_b   6.53087702
_cell_length_c   7.78909200
_cell_angle_alpha   91.73150422
_cell_angle_beta   90.00000000
_cell_angle_gamma   90.00000000
_symmetry_Int_Tables_number   1
_chemical_formula_structural   GdHf(GaIr)2
_chemical_formula_sum   'Gd2 Hf2 Ga4 Ir4'
_cell_volume   218.13659150
_cell_formula_units_Z   2
loop_
 _symmetry_equiv_pos_site_id
 _symmetry_equiv_pos_as_xyz
  1  'x, y, z'
loop_
 _atom_site_type_symbol
 _atom_site_label
 _atom_site_symmetry_multiplicity
 _atom_site_fract_x
 _atom_site_fract_y
 _atom_site_fract_z
 _atom_site_occupancy
  Gd  Gd0  1  0.750000  0.966491  0.683707  1
  Gd  Gd1  1  0.250000  0.033509  0.316293  1
  Hf  Hf2  1  0.250000  0.533464  0.175146  1
  Hf  Hf3  1  0.750000  0.466536  0.824854  1
  Ga  Ga4  1  0.250000  0.645254  0.554236  1
  Ga  Ga5  1  0.750000  0.354746  0.445764  1
  Ga  Ga6  1  0.750000  0.854180  0.059774  1
  Ga  Ga7  1  0.250000  0.145820  0.940226  1
  Ir  Ir8  1  0.250000  0.735290  0.885459  1
  Ir  Ir9  1  0.750000  0.264710  0.114541  1
  Ir  Ir10  1  0.750000  0.725798  0.363038  1
  Ir  Ir11  1  0.250000  0.274202  0.636962  1
