# generated using pymatgen
data_LuPa2(Ga2Co3)3
_symmetry_space_group_name_H-M   'P 1'
_cell_length_a   4.15880200
_cell_length_b   8.53825152
_cell_length_c   8.54023230
_cell_angle_alpha   59.97748112
_cell_angle_beta   90.00000000
_cell_angle_gamma   90.00000000
_symmetry_Int_Tables_number   1
_chemical_formula_structural   LuPa2(Ga2Co3)3
_chemical_formula_sum   'Lu1 Pa2 Ga6 Co9'
_cell_volume   262.56625574
_cell_formula_units_Z   1
loop_
 _symmetry_equiv_pos_site_id
 _symmetry_equiv_pos_as_xyz
  1  'x, y, z'
loop_
 _atom_site_type_symbol
 _atom_site_label
 _atom_site_symmetry_multiplicity
 _atom_site_fract_x
 _atom_site_fract_y
 _atom_site_fract_z
 _atom_site_occupancy
  Lu  Lu0  1  0.500000  0.666700  0.666681  1
  Pa  Pa1  1  0.500000  0.333456  0.333268  1
  Pa  Pa2  1  0.000000  0.999886  0.000008  1
  Ga  Ga3  1  0.000000  0.499163  0.507248  1
  Ga  Ga4  1  0.000000  0.507388  0.993578  1
  Ga  Ga5  1  0.000000  0.993553  0.499160  1
  Ga  Ga6  1  0.500000  0.728630  0.278530  1
  Ga  Ga7  1  0.500000  0.278556  0.992888  1
  Ga  Ga8  1  0.500000  0.992747  0.728626  1
  Co  Co9  1  0.000000  0.182344  0.175883  1
  Co  Co10  1  0.000000  0.175852  0.641795  1
  Co  Co11  1  0.000000  0.641864  0.182327  1
  Co  Co12  1  0.000000  0.825891  0.830457  1
  Co  Co13  1  0.000000  0.343585  0.825926  1
  Co  Co14  1  0.000000  0.830452  0.343641  1
  Co  Co15  1  0.500000  0.309751  0.677225  1
  Co  Co16  1  0.500000  0.677204  0.012996  1
  Co  Co17  1  0.500000  0.012879  0.309861  1
