# generated using pymatgen
data_Er20Si15Au
_symmetry_space_group_name_H-M   'P 1'
_cell_length_a   7.33358017
_cell_length_b   7.64291486
_cell_length_c   14.53147200
_cell_angle_alpha   90.00000000
_cell_angle_beta   90.00000000
_cell_angle_gamma   90.56964117
_symmetry_Int_Tables_number   1
_chemical_formula_structural   Er20Si15Au
_chemical_formula_sum   'Er20 Si15 Au1'
_cell_volume   814.44771710
_cell_formula_units_Z   1
loop_
 _symmetry_equiv_pos_site_id
 _symmetry_equiv_pos_as_xyz
  1  'x, y, z'
loop_
 _atom_site_type_symbol
 _atom_site_label
 _atom_site_symmetry_multiplicity
 _atom_site_fract_x
 _atom_site_fract_y
 _atom_site_fract_z
 _atom_site_occupancy
  Er  Er0  1  0.025113  0.823968  0.592167  1
  Er  Er1  1  0.529470  0.681993  0.593086  1
  Er  Er2  1  0.317256  0.821777  0.123554  1
  Er  Er3  1  0.816797  0.677825  0.124302  1
  Er  Er4  1  0.857539  0.520637  0.750000  1
  Er  Er5  1  0.471874  0.316141  0.097733  1
  Er  Er6  1  0.025113  0.823968  0.907833  1
  Er  Er7  1  0.471874  0.316141  0.402267  1
  Er  Er8  1  0.647258  0.011263  0.250000  1
  Er  Er9  1  0.529470  0.681993  0.906914  1
  Er  Er10  1  0.683071  0.179085  0.878636  1
  Er  Er11  1  0.184297  0.317834  0.619544  1
  Er  Er12  1  0.184297  0.317834  0.880456  1
  Er  Er13  1  0.816797  0.677825  0.375698  1
  Er  Er14  1  0.317256  0.821777  0.376446  1
  Er  Er15  1  0.347760  0.985175  0.750000  1
  Er  Er16  1  0.683071  0.179085  0.621364  1
  Er  Er17  1  0.146783  0.487045  0.250000  1
  Er  Er18  1  0.970812  0.182041  0.099239  1
  Er  Er19  1  0.970812  0.182041  0.400761  1
  Si  Si20  1  0.649825  0.971204  0.458030  1
  Si  Si21  1  0.353365  0.026510  0.539997  1
  Si  Si22  1  0.019969  0.895043  0.250000  1
  Si  Si23  1  0.734258  0.877421  0.750000  1
  Si  Si24  1  0.265237  0.127158  0.250000  1
  Si  Si25  1  0.852835  0.470837  0.538677  1
  Si  Si26  1  0.483848  0.391240  0.750000  1
  Si  Si27  1  0.146179  0.526879  0.457746  1
  Si  Si28  1  0.146179  0.526879  0.042254  1
  Si  Si29  1  0.975944  0.108325  0.750000  1
  Si  Si30  1  0.764551  0.371052  0.250000  1
  Si  Si31  1  0.353365  0.026510  0.960003  1
  Si  Si32  1  0.852835  0.470837  0.961323  1
  Si  Si33  1  0.649825  0.971204  0.041970  1
  Si  Si34  1  0.517872  0.605208  0.250000  1
  Au  Au35  1  0.237190  0.628244  0.750000  1
