# generated using pymatgen
data_Pr6As7(P3Rh10)2
_symmetry_space_group_name_H-M   'P 1'
_cell_length_a   13.77427400
_cell_length_b   13.77427332
_cell_length_c   4.01121300
_cell_angle_alpha   90.00000000
_cell_angle_beta   90.00000000
_cell_angle_gamma   119.99999682
_symmetry_Int_Tables_number   1
_chemical_formula_structural   Pr6As7(P3Rh10)2
_chemical_formula_sum   'Pr6 As7 P6 Rh20'
_cell_volume   659.08857593
_cell_formula_units_Z   1
loop_
 _symmetry_equiv_pos_site_id
 _symmetry_equiv_pos_as_xyz
  1  'x, y, z'
loop_
 _atom_site_type_symbol
 _atom_site_label
 _atom_site_symmetry_multiplicity
 _atom_site_fract_x
 _atom_site_fract_y
 _atom_site_fract_z
 _atom_site_occupancy
  Pr  Pr0  1  0.528099  0.716864  0.247920  1
  Pr  Pr1  1  0.283136  0.811235  0.247920  1
  Pr  Pr2  1  0.188765  0.471901  0.247920  1
  Pr  Pr3  1  0.466927  0.279920  0.751728  1
  Pr  Pr4  1  0.720080  0.187007  0.751728  1
  Pr  Pr5  1  0.812993  0.533073  0.751728  1
  As  As6  1  0.523694  0.134174  0.250038  1
  As  As7  1  0.865826  0.389522  0.250038  1
  As  As8  1  0.610478  0.476306  0.250038  1
  As  As9  1  0.947971  0.718349  0.252170  1
  As  As10  1  0.281651  0.229622  0.252170  1
  As  As11  1  0.770378  0.052029  0.252170  1
  As  As12  1  0.000000  0.000000  0.011325  1
  P  P13  1  0.384921  0.523077  0.748816  1
  P  P14  1  0.476923  0.861842  0.748816  1
  P  P15  1  0.138158  0.615079  0.748816  1
  P  P16  1  0.718997  0.770571  0.746886  1
  P  P17  1  0.229429  0.948427  0.746886  1
  P  P18  1  0.051573  0.281003  0.746886  1
  Rh  Rh19  1  0.333333  0.666667  0.751112  1
  Rh  Rh20  1  0.931059  0.254493  0.253458  1
  Rh  Rh21  1  0.745507  0.676566  0.253458  1
  Rh  Rh22  1  0.323434  0.068941  0.253458  1
  Rh  Rh23  1  0.433548  0.014198  0.750906  1
  Rh  Rh24  1  0.985802  0.419352  0.750906  1
  Rh  Rh25  1  0.580648  0.566452  0.750906  1
  Rh  Rh26  1  0.666667  0.333333  0.248478  1
  Rh  Rh27  1  0.090907  0.190825  0.251847  1
  Rh  Rh28  1  0.809175  0.900081  0.251847  1
  Rh  Rh29  1  0.099919  0.909093  0.251847  1
  Rh  Rh30  1  0.034875  0.588216  0.247994  1
  Rh  Rh31  1  0.411784  0.446657  0.247994  1
  Rh  Rh32  1  0.553343  0.965125  0.247994  1
  Rh  Rh33  1  0.669440  0.915862  0.746386  1
  Rh  Rh34  1  0.084138  0.753579  0.746386  1
  Rh  Rh35  1  0.246421  0.330560  0.746386  1
  Rh  Rh36  1  0.903105  0.810350  0.748214  1
  Rh  Rh37  1  0.189650  0.092756  0.748214  1
  Rh  Rh38  1  0.907244  0.096895  0.748214  1
