# generated using pymatgen
data_TbY13Th2(CdPt)4
_symmetry_space_group_name_H-M   'P 1'
_cell_length_a   9.78096736
_cell_length_b   9.78678292
_cell_length_c   9.76879900
_cell_angle_alpha   60.06077119
_cell_angle_beta   60.04114888
_cell_angle_gamma   60.06390308
_symmetry_Int_Tables_number   1
_chemical_formula_structural   TbY13Th2(CdPt)4
_chemical_formula_sum   'Tb1 Y13 Th2 Cd4 Pt4'
_cell_volume   662.05128364
_cell_formula_units_Z   1
loop_
 _symmetry_equiv_pos_site_id
 _symmetry_equiv_pos_as_xyz
  1  'x, y, z'
loop_
 _atom_site_type_symbol
 _atom_site_label
 _atom_site_symmetry_multiplicity
 _atom_site_fract_x
 _atom_site_fract_y
 _atom_site_fract_z
 _atom_site_occupancy
  Tb  Tb0  1  0.352713  0.940952  0.353168  1
  Y  Y1  1  0.939732  0.353365  0.353451  1
  Y  Y2  1  0.811437  0.190163  0.189062  1
  Y  Y3  1  0.190341  0.811277  0.809483  1
  Y  Y4  1  0.190341  0.811277  0.188898  1
  Y  Y5  1  0.811437  0.190163  0.809338  1
  Y  Y6  1  0.188559  0.188402  0.811520  1
  Y  Y7  1  0.809901  0.809720  0.190189  1
  Y  Y8  1  0.935598  0.565387  0.565885  1
  Y  Y9  1  0.565020  0.935542  0.933455  1
  Y  Y10  1  0.565020  0.935542  0.565984  1
  Y  Y11  1  0.935598  0.565387  0.933131  1
  Y  Y12  1  0.565619  0.565935  0.934223  1
  Y  Y13  1  0.935489  0.935221  0.564645  1
  Th  Th14  1  0.349988  0.350436  0.353439  1
  Th  Th15  1  0.349988  0.350436  0.946137  1
  Cd  Cd16  1  0.583495  0.583180  0.580848  1
  Cd  Cd17  1  0.583495  0.583180  0.252478  1
  Cd  Cd18  1  0.584452  0.251526  0.582011  1
  Cd  Cd19  1  0.251432  0.584257  0.582155  1
  Pt  Pt20  1  0.143213  0.142336  0.144926  1
  Pt  Pt21  1  0.143213  0.142336  0.569524  1
  Pt  Pt22  1  0.144381  0.569962  0.142829  1
  Pt  Pt23  1  0.569536  0.144018  0.143223  1
