# generated using pymatgen
data_Y4Al18Cu2Os3Pd
_symmetry_space_group_name_H-M   'P 1'
_cell_length_a   7.55918717
_cell_length_b   7.55918737
_cell_length_c   9.47135309
_cell_angle_alpha   90.06836921
_cell_angle_beta   90.06836488
_cell_angle_gamma   119.29806764
_symmetry_Int_Tables_number   1
_chemical_formula_structural   Y4Al18Cu2Os3Pd
_chemical_formula_sum   'Y4 Al18 Cu2 Os3 Pd1'
_cell_volume   471.97634109
_cell_formula_units_Z   1
loop_
 _symmetry_equiv_pos_site_id
 _symmetry_equiv_pos_as_xyz
  1  'x, y, z'
loop_
 _atom_site_type_symbol
 _atom_site_label
 _atom_site_symmetry_multiplicity
 _atom_site_fract_x
 _atom_site_fract_y
 _atom_site_fract_z
 _atom_site_occupancy
  Y  Y0  1  0.994983  0.672739  0.248155  1
  Y  Y1  1  0.006235  0.327691  0.751069  1
  Y  Y2  1  0.672309  0.993765  0.248931  1
  Y  Y3  1  0.327261  0.005017  0.751845  1
  Al  Al4  1  0.127644  0.129063  0.249935  1
  Al  Al5  1  0.870937  0.872356  0.750065  1
  Al  Al6  1  0.996596  0.330737  0.073695  1
  Al  Al7  1  0.995720  0.662445  0.925608  1
  Al  Al8  1  0.999780  0.669052  0.576705  1
  Al  Al9  1  0.330948  0.000220  0.423295  1
  Al  Al10  1  0.001378  0.333178  0.424975  1
  Al  Al11  1  0.666822  0.998622  0.575025  1
  Al  Al12  1  0.669263  0.003404  0.926305  1
  Al  Al13  1  0.337555  0.004280  0.074392  1
  Al  Al14  1  0.329700  0.331481  0.554161  1
  Al  Al15  1  0.668519  0.670300  0.445839  1
  Al  Al16  1  0.671376  0.666355  0.047039  1
  Al  Al17  1  0.333645  0.328624  0.952961  1
  Al  Al18  1  0.341579  0.550546  0.248860  1
  Al  Al19  1  0.656720  0.449987  0.753466  1
  Al  Al20  1  0.550013  0.343280  0.246534  1
  Al  Al21  1  0.449454  0.658421  0.751140  1
  Cu  Cu22  1  0.328481  0.671519  0.000000  1
  Cu  Cu23  1  0.328013  0.671987  0.500000  1
  Os  Os24  1  0.672123  0.327877  0.000000  1
  Os  Os25  1  0.001390  0.998610  0.000000  1
  Os  Os26  1  0.999990  0.000010  0.500000  1
  Pd  Pd27  1  0.671566  0.328434  0.500000  1
