# generated using pymatgen
data_YbGd2NpH11
_symmetry_space_group_name_H-M   'P 1'
_cell_length_a   6.34159047
_cell_length_b   6.34158976
_cell_length_c   6.34158900
_cell_angle_alpha   133.00461040
_cell_angle_beta   129.99612240
_cell_angle_gamma   71.04696120
_symmetry_Int_Tables_number   1
_chemical_formula_structural   YbGd2NpH11
_chemical_formula_sum   'Yb1 Gd2 Np1 H11'
_cell_volume   139.91127475
_cell_formula_units_Z   1
loop_
 _symmetry_equiv_pos_site_id
 _symmetry_equiv_pos_as_xyz
  1  'x, y, z'
loop_
 _atom_site_type_symbol
 _atom_site_label
 _atom_site_symmetry_multiplicity
 _atom_site_fract_x
 _atom_site_fract_y
 _atom_site_fract_z
 _atom_site_occupancy
  Yb  Yb0  1  0.000000  0.500000  0.500000  1
  Gd  Gd1  1  0.259164  0.259164  0.000000  1
  Gd  Gd2  1  0.740836  0.740836  0.000000  1
  Np  Np3  1  0.500000  0.000000  0.500000  1
  H  H4  1  0.646031  0.110493  0.996031  1
  H  H5  1  0.353969  0.350000  0.464461  1
  H  H6  1  0.114462  0.650000  0.003969  1
  H  H7  1  0.885538  0.889507  0.535539  1
  H  H8  1  0.885538  0.350000  0.996031  1
  H  H9  1  0.646031  0.650000  0.535539  1
  H  H10  1  0.353969  0.889507  0.003969  1
  H  H11  1  0.114462  0.110493  0.464461  1
  H  H12  1  0.734903  0.234903  0.500000  1
  H  H13  1  0.500000  0.500000  0.000000  1
  H  H14  1  0.265097  0.765097  0.500000  1
