# generated using pymatgen
data_Lu8Ga12Ag3Os
_symmetry_space_group_name_H-M   'P 1'
_cell_length_a   8.88744200
_cell_length_b   8.88744239
_cell_length_c   6.85224600
_cell_angle_alpha   90.00000000
_cell_angle_beta   90.00000000
_cell_angle_gamma   119.99999854
_symmetry_Int_Tables_number   1
_chemical_formula_structural   Lu8Ga12Ag3Os
_chemical_formula_sum   'Lu8 Ga12 Ag3 Os1'
_cell_volume   468.72396884
_cell_formula_units_Z   1
loop_
 _symmetry_equiv_pos_site_id
 _symmetry_equiv_pos_as_xyz
  1  'x, y, z'
loop_
 _atom_site_type_symbol
 _atom_site_label
 _atom_site_symmetry_multiplicity
 _atom_site_fract_x
 _atom_site_fract_y
 _atom_site_fract_z
 _atom_site_occupancy
  Lu  Lu0  1  0.000000  0.000000  0.250166  1
  Lu  Lu1  1  0.000000  0.000000  0.744988  1
  Lu  Lu2  1  0.522725  0.045453  0.258838  1
  Lu  Lu3  1  0.522725  0.477275  0.258838  1
  Lu  Lu4  1  0.954547  0.477275  0.258838  1
  Lu  Lu5  1  0.490613  0.981226  0.746636  1
  Lu  Lu6  1  0.490613  0.509387  0.746636  1
  Lu  Lu7  1  0.018774  0.509387  0.746636  1
  Ga  Ga8  1  0.165436  0.330870  0.042113  1
  Ga  Ga9  1  0.164374  0.835626  0.462468  1
  Ga  Ga10  1  0.671251  0.835626  0.462468  1
  Ga  Ga11  1  0.669130  0.834564  0.042113  1
  Ga  Ga12  1  0.165436  0.834564  0.042113  1
  Ga  Ga13  1  0.836895  0.673789  0.961131  1
  Ga  Ga14  1  0.836895  0.163105  0.961131  1
  Ga  Ga15  1  0.326211  0.163105  0.961131  1
  Ga  Ga16  1  0.164374  0.328749  0.462468  1
  Ga  Ga17  1  0.337406  0.168704  0.541607  1
  Ga  Ga18  1  0.831296  0.662594  0.541607  1
  Ga  Ga19  1  0.831296  0.168704  0.541607  1
  Ag  Ag20  1  0.333333  0.666667  0.033502  1
  Ag  Ag21  1  0.333333  0.666667  0.470579  1
  Ag  Ag22  1  0.666667  0.333333  0.949106  1
  Os  Os23  1  0.666667  0.333333  0.513276  1
