# generated using pymatgen
data_Nd3Tm(Si3Ni5)4
_symmetry_space_group_name_H-M   'P 1'
_cell_length_a   3.83044900
_cell_length_b   18.88895886
_cell_length_c   6.59962465
_cell_angle_alpha   90.05093570
_cell_angle_beta   90.00000000
_cell_angle_gamma   90.00000000
_symmetry_Int_Tables_number   1
_chemical_formula_structural   Nd3Tm(Si3Ni5)4
_chemical_formula_sum   'Nd3 Tm1 Si12 Ni20'
_cell_volume   477.50373144
_cell_formula_units_Z   1
loop_
 _symmetry_equiv_pos_site_id
 _symmetry_equiv_pos_as_xyz
  1  'x, y, z'
loop_
 _atom_site_type_symbol
 _atom_site_label
 _atom_site_symmetry_multiplicity
 _atom_site_fract_x
 _atom_site_fract_y
 _atom_site_fract_z
 _atom_site_occupancy
  Nd  Nd0  1  0.750000  0.643326  0.123774  1
  Nd  Nd1  1  0.250000  0.355524  0.874822  1
  Nd  Nd2  1  0.250000  0.857774  0.625112  1
  Tm  Tm3  1  0.750000  0.144259  0.377845  1
  Si  Si4  1  0.750000  0.736255  0.618636  1
  Si  Si5  1  0.250000  0.261275  0.382423  1
  Si  Si6  1  0.250000  0.765068  0.117377  1
  Si  Si7  1  0.750000  0.234368  0.882742  1
  Si  Si8  1  0.750000  0.928122  0.339249  1
  Si  Si9  1  0.250000  0.073712  0.653898  1
  Si  Si10  1  0.250000  0.571119  0.839051  1
  Si  Si11  1  0.750000  0.427080  0.160372  1
  Si  Si12  1  0.750000  0.916376  0.928502  1
  Si  Si13  1  0.250000  0.088126  0.081612  1
  Si  Si14  1  0.250000  0.586603  0.430505  1
  Si  Si15  1  0.750000  0.411552  0.567844  1
  Ni  Ni16  1  0.750000  0.801606  0.310060  1
  Ni  Ni17  1  0.250000  0.197178  0.686642  1
  Ni  Ni18  1  0.250000  0.699012  0.810151  1
  Ni  Ni19  1  0.750000  0.299016  0.190694  1
  Ni  Ni20  1  0.750000  0.996073  0.634527  1
  Ni  Ni21  1  0.250000  0.007163  0.363074  1
  Ni  Ni22  1  0.250000  0.504677  0.138307  1
  Ni  Ni23  1  0.750000  0.493628  0.861246  1
  Ni  Ni24  1  0.750000  0.516194  0.390823  1
  Ni  Ni25  1  0.250000  0.482049  0.607673  1
  Ni  Ni26  1  0.250000  0.987074  0.890855  1
  Ni  Ni27  1  0.750000  0.019358  0.117416  1
  Ni  Ni28  1  0.750000  0.793916  0.928005  1
  Ni  Ni29  1  0.250000  0.206630  0.074059  1
  Ni  Ni30  1  0.250000  0.708260  0.427835  1
  Ni  Ni31  1  0.750000  0.289461  0.571108  1
  Ni  Ni32  1  0.750000  0.615557  0.646278  1
  Ni  Ni33  1  0.250000  0.382283  0.352833  1
  Ni  Ni34  1  0.250000  0.885945  0.143892  1
  Ni  Ni35  1  0.750000  0.114383  0.850760  1
