# generated using pymatgen
data_Th2Sc10Mn3I16
_symmetry_space_group_name_H-M   'P 1'
_cell_length_a   9.11961013
_cell_length_b   12.11670378
_cell_length_c   13.03431998
_cell_angle_alpha   118.91949935
_cell_angle_beta   100.53056150
_cell_angle_gamma   98.66690177
_symmetry_Int_Tables_number   1
_chemical_formula_structural   Th2Sc10Mn3I16
_chemical_formula_sum   'Th2 Sc10 Mn3 I16'
_cell_volume   1190.66196053
_cell_formula_units_Z   1
loop_
 _symmetry_equiv_pos_site_id
 _symmetry_equiv_pos_as_xyz
  1  'x, y, z'
loop_
 _atom_site_type_symbol
 _atom_site_label
 _atom_site_symmetry_multiplicity
 _atom_site_fract_x
 _atom_site_fract_y
 _atom_site_fract_z
 _atom_site_occupancy
  Th  Th0  1  0.079785  0.294798  0.373484  1
  Th  Th1  1  0.920327  0.705283  0.626564  1
  Sc  Sc2  1  0.767299  0.519374  0.315216  1
  Sc  Sc3  1  0.232705  0.480657  0.684772  1
  Sc  Sc4  1  0.296372  0.728311  0.639067  1
  Sc  Sc5  1  0.703626  0.271607  0.360882  1
  Sc  Sc6  1  0.157858  0.554145  0.335159  1
  Sc  Sc7  1  0.842169  0.445875  0.664889  1
  Sc  Sc8  1  0.413491  0.372869  0.294199  1
  Sc  Sc9  1  0.586462  0.627159  0.705807  1
  Sc  Sc10  1  0.461859  0.325652  0.520735  1
  Sc  Sc11  1  0.538096  0.674372  0.479294  1
  Mn  Mn12  1  0.000013  0.499998  0.499997  1
  Mn  Mn13  1  0.331513  0.505590  0.502996  1
  Mn  Mn14  1  0.668415  0.494433  0.497018  1
  I  I15  1  0.394619  0.748302  0.883167  1
  I  I16  1  0.605383  0.251686  0.116828  1
  I  I17  1  0.195837  0.970564  0.785138  1
  I  I18  1  0.804162  0.029412  0.214847  1
  I  I19  1  0.341414  0.103265  0.256557  1
  I  I20  1  0.658588  0.896730  0.743440  1
  I  I21  1  0.562381  0.438972  0.792208  1
  I  I22  1  0.437618  0.561011  0.207782  1
  I  I23  1  0.309146  0.834189  0.471985  1
  I  I24  1  0.690856  0.165801  0.528006  1
  I  I25  1  0.178071  0.183143  0.545525  1
  I  I26  1  0.821933  0.816842  0.454461  1
  I  I27  1  0.925985  0.574372  0.162772  1
  I  I28  1  0.074014  0.425609  0.837215  1
  I  I29  1  0.914590  0.726880  0.880401  1
  I  I30  1  0.085413  0.273101  0.119592  1
