# generated using pymatgen
data_Y2Er2V(ReN4)3
_symmetry_space_group_name_H-M   'P 1'
_cell_length_a   7.32801387
_cell_length_b   7.36992689
_cell_length_c   6.24172790
_cell_angle_alpha   72.85611701
_cell_angle_beta   73.23556226
_cell_angle_gamma   82.24639946
_symmetry_Int_Tables_number   1
_chemical_formula_structural   Y2Er2V(ReN4)3
_chemical_formula_sum   'Y2 Er2 V1 Re3 N12'
_cell_volume   307.96920441
_cell_formula_units_Z   1
loop_
 _symmetry_equiv_pos_site_id
 _symmetry_equiv_pos_as_xyz
  1  'x, y, z'
loop_
 _atom_site_type_symbol
 _atom_site_label
 _atom_site_symmetry_multiplicity
 _atom_site_fract_x
 _atom_site_fract_y
 _atom_site_fract_z
 _atom_site_occupancy
  Y  Y0  1  0.706206  0.281030  0.252560  1
  Y  Y1  1  0.295198  0.711046  0.746097  1
  Er  Er2  1  0.903278  0.084997  0.761428  1
  Er  Er3  1  0.091997  0.905874  0.251760  1
  V  V4  1  0.621299  0.800779  0.281646  1
  Re  Re5  1  0.201344  0.377716  0.219968  1
  Re  Re6  1  0.376974  0.203708  0.720773  1
  Re  Re7  1  0.792936  0.623063  0.783109  1
  N  N8  1  0.666144  0.633204  0.079273  1
  N  N9  1  0.383867  0.872344  0.335031  1
  N  N10  1  0.363015  0.333114  0.418385  1
  N  N11  1  0.129601  0.627375  0.159757  1
  N  N12  1  0.005423  0.216383  0.340366  1
  N  N13  1  0.782941  0.992213  0.157250  1
  N  N14  1  0.218275  0.005616  0.841113  1
  N  N15  1  0.628866  0.132048  0.660994  1
  N  N16  1  0.334510  0.364530  0.917229  1
  N  N17  1  0.874769  0.379084  0.829332  1
  N  N18  1  0.631268  0.672317  0.586250  1
  N  N19  1  0.992089  0.783561  0.657680  1
