# generated using pymatgen
data_Pr3Lu(Si5Os3)2
_symmetry_space_group_name_H-M   'P 1'
_cell_length_a   8.22992735
_cell_length_b   8.18984653
_cell_length_c   5.87327935
_cell_angle_alpha   70.49623498
_cell_angle_beta   70.36471083
_cell_angle_gamma   93.75624467
_symmetry_Int_Tables_number   1
_chemical_formula_structural   Pr3Lu(Si5Os3)2
_chemical_formula_sum   'Pr3 Lu1 Si10 Os6'
_cell_volume   344.34370970
_cell_formula_units_Z   1
loop_
 _symmetry_equiv_pos_site_id
 _symmetry_equiv_pos_as_xyz
  1  'x, y, z'
loop_
 _atom_site_type_symbol
 _atom_site_label
 _atom_site_symmetry_multiplicity
 _atom_site_fract_x
 _atom_site_fract_y
 _atom_site_fract_z
 _atom_site_occupancy
  Pr  Pr0  1  0.868802  0.602145  0.753885  1
  Pr  Pr1  1  0.396820  0.133282  0.745135  1
  Pr  Pr2  1  0.133376  0.396776  0.245176  1
  Lu  Lu3  1  0.601316  0.868779  0.255067  1
  Si  Si4  1  0.062099  0.262368  0.835885  1
  Si  Si5  1  0.739028  0.936894  0.665679  1
  Si  Si6  1  0.931544  0.740888  0.164856  1
  Si  Si7  1  0.259372  0.058722  0.337526  1
  Si  Si8  1  0.207464  0.791128  0.753792  1
  Si  Si9  1  0.789351  0.205450  0.249211  1
  Si  Si10  1  0.514015  0.489403  0.749803  1
  Si  Si11  1  0.491637  0.516746  0.245399  1
  Si  Si12  1  0.772223  0.224994  0.753991  1
  Si  Si13  1  0.232228  0.772876  0.247847  1
  Os  Os14  1  0.261525  0.545354  0.628942  1
  Os  Os15  1  0.460563  0.745479  0.863189  1
  Os  Os16  1  0.742712  0.456707  0.369290  1
  Os  Os17  1  0.541221  0.252754  0.132875  1
  Os  Os18  1  0.000703  0.997005  0.751360  1
  Os  Os19  1  0.994001  0.002251  0.251093  1
