# generated using pymatgen
data_Y12InGa(CoRh)2
_symmetry_space_group_name_H-M   'P 1'
_cell_length_a   8.42922112
_cell_length_b   8.42922127
_cell_length_c   8.42922117
_cell_angle_alpha   106.53506892
_cell_angle_beta   109.74314915
_cell_angle_gamma   112.18471266
_symmetry_Int_Tables_number   1
_chemical_formula_structural   Y12InGa(CoRh)2
_chemical_formula_sum   'Y12 In1 Ga1 Co2 Rh2'
_cell_volume   459.91900578
_cell_formula_units_Z   1
loop_
 _symmetry_equiv_pos_site_id
 _symmetry_equiv_pos_as_xyz
  1  'x, y, z'
loop_
 _atom_site_type_symbol
 _atom_site_label
 _atom_site_symmetry_multiplicity
 _atom_site_fract_x
 _atom_site_fract_y
 _atom_site_fract_z
 _atom_site_occupancy
  Y  Y0  1  0.695521  0.260685  0.956206  1
  Y  Y1  1  0.304479  0.739315  0.043794  1
  Y  Y2  1  0.695521  0.739315  0.434837  1
  Y  Y3  1  0.304479  0.260685  0.565163  1
  Y  Y4  1  0.812309  0.131066  0.318756  1
  Y  Y5  1  0.812309  0.493553  0.681244  1
  Y  Y6  1  0.187691  0.868934  0.681244  1
  Y  Y7  1  0.187691  0.506447  0.318756  1
  Y  Y8  1  0.602436  0.781987  0.820448  1
  Y  Y9  1  0.961540  0.781987  0.179552  1
  Y  Y10  1  0.038460  0.218013  0.820448  1
  Y  Y11  1  0.397564  0.218013  0.179552  1
  In  In12  1  0.500000  0.000000  0.500000  1
  Ga  Ga13  1  0.500000  0.500000  0.000000  1
  Co  Co14  1  0.000000  0.111301  0.111301  1
  Co  Co15  1  0.000000  0.888699  0.888699  1
  Rh  Rh16  1  0.838700  0.500000  0.338700  1
  Rh  Rh17  1  0.161300  0.500000  0.661300  1
