# generated using pymatgen
data_Ac4La2(InSn)5
_symmetry_space_group_name_H-M   'P 1'
_cell_length_a   6.87162750
_cell_length_b   6.87162653
_cell_length_c   10.81902000
_cell_angle_alpha   90.00000000
_cell_angle_beta   90.00000000
_cell_angle_gamma   102.54292159
_symmetry_Int_Tables_number   1
_chemical_formula_structural   Ac4La2(InSn)5
_chemical_formula_sum   'Ac4 La2 In5 Sn5'
_cell_volume   498.67355691
_cell_formula_units_Z   1
loop_
 _symmetry_equiv_pos_site_id
 _symmetry_equiv_pos_as_xyz
  1  'x, y, z'
loop_
 _atom_site_type_symbol
 _atom_site_label
 _atom_site_symmetry_multiplicity
 _atom_site_fract_x
 _atom_site_fract_y
 _atom_site_fract_z
 _atom_site_occupancy
  Ac  Ac0  1  0.202963  0.797527  0.500664  1
  Ac  Ac1  1  0.202963  0.797527  0.999336  1
  Ac  Ac2  1  0.797527  0.202963  0.500664  1
  Ac  Ac3  1  0.797527  0.202963  0.999336  1
  La  La4  1  0.642873  0.642873  0.250000  1
  La  La5  1  0.356848  0.356848  0.750000  1
  In  In6  1  0.028025  0.028025  0.250000  1
  In  In7  1  0.313378  0.313378  0.053231  1
  In  In8  1  0.685360  0.685360  0.951610  1
  In  In9  1  0.313378  0.313378  0.446769  1
  In  In10  1  0.685360  0.685360  0.548390  1
  Sn  Sn11  1  0.971670  0.971670  0.750000  1
  Sn  Sn12  1  0.491213  0.079793  0.250000  1
  Sn  Sn13  1  0.919432  0.511691  0.750000  1
  Sn  Sn14  1  0.511691  0.919432  0.750000  1
  Sn  Sn15  1  0.079793  0.491213  0.250000  1
