# generated using pymatgen
data_Na3Ca3GaAs4
_symmetry_space_group_name_H-M   'P 1'
_cell_length_a   9.48193800
_cell_length_b   9.48193784
_cell_length_c   7.22516200
_cell_angle_alpha   90.00000000
_cell_angle_beta   90.00000000
_cell_angle_gamma   120.00000056
_symmetry_Int_Tables_number   1
_chemical_formula_structural   Na3Ca3GaAs4
_chemical_formula_sum   'Na6 Ca6 Ga2 As8'
_cell_volume   562.56464315
_cell_formula_units_Z   2
loop_
 _symmetry_equiv_pos_site_id
 _symmetry_equiv_pos_as_xyz
  1  'x, y, z'
loop_
 _atom_site_type_symbol
 _atom_site_label
 _atom_site_symmetry_multiplicity
 _atom_site_fract_x
 _atom_site_fract_y
 _atom_site_fract_z
 _atom_site_occupancy
  Na  Na0  1  0.137759  0.862241  0.173070  1
  Na  Na1  1  0.275518  0.137759  0.673070  1
  Na  Na2  1  0.862241  0.724482  0.673070  1
  Na  Na3  1  0.137759  0.275518  0.173070  1
  Na  Na4  1  0.724482  0.862241  0.173070  1
  Na  Na5  1  0.862241  0.137759  0.673070  1
  Ca  Ca6  1  0.475218  0.950436  0.500145  1
  Ca  Ca7  1  0.524782  0.049564  0.000145  1
  Ca  Ca8  1  0.950436  0.475218  0.000145  1
  Ca  Ca9  1  0.475218  0.524782  0.500145  1
  Ca  Ca10  1  0.524782  0.475218  0.000145  1
  Ca  Ca11  1  0.049564  0.524782  0.500145  1
  Ga  Ga12  1  0.333333  0.666667  0.878460  1
  Ga  Ga13  1  0.666667  0.333333  0.378460  1
  As  As14  1  0.189489  0.810511  0.770402  1
  As  As15  1  0.378977  0.189489  0.270402  1
  As  As16  1  0.810511  0.621023  0.270402  1
  As  As17  1  0.189489  0.378977  0.770402  1
  As  As18  1  0.621023  0.810511  0.770402  1
  As  As19  1  0.810511  0.189489  0.270402  1
  As  As20  1  0.333333  0.666667  0.231371  1
  As  As21  1  0.666667  0.333333  0.731371  1
