# generated using pymatgen
data_HoPa(ZnIr)2
_symmetry_space_group_name_H-M   'P 1'
_cell_length_a   3.86054300
_cell_length_b   7.12781818
_cell_length_c   8.38935966
_cell_angle_alpha   90.90448221
_cell_angle_beta   90.00000000
_cell_angle_gamma   90.00000000
_symmetry_Int_Tables_number   1
_chemical_formula_structural   HoPa(ZnIr)2
_chemical_formula_sum   'Ho2 Pa2 Zn4 Ir4'
_cell_volume   230.82333130
_cell_formula_units_Z   2
loop_
 _symmetry_equiv_pos_site_id
 _symmetry_equiv_pos_as_xyz
  1  'x, y, z'
loop_
 _atom_site_type_symbol
 _atom_site_label
 _atom_site_symmetry_multiplicity
 _atom_site_fract_x
 _atom_site_fract_y
 _atom_site_fract_z
 _atom_site_occupancy
  Ho  Ho0  1  0.250000  0.054838  0.315584  1
  Ho  Ho1  1  0.750000  0.945162  0.684416  1
  Pa  Pa2  1  0.250000  0.550670  0.190029  1
  Pa  Pa3  1  0.750000  0.449330  0.809971  1
  Zn  Zn4  1  0.250000  0.118088  0.937830  1
  Zn  Zn5  1  0.750000  0.881912  0.062170  1
  Zn  Zn6  1  0.250000  0.633229  0.559099  1
  Zn  Zn7  1  0.750000  0.366771  0.440901  1
  Ir  Ir8  1  0.750000  0.749886  0.359838  1
  Ir  Ir9  1  0.250000  0.250114  0.640162  1
  Ir  Ir10  1  0.750000  0.276927  0.122290  1
  Ir  Ir11  1  0.250000  0.723073  0.877710  1
