# generated using pymatgen
data_DyY4Hf3Pt4
_symmetry_space_group_name_H-M   'P 1'
_cell_length_a   4.72250300
_cell_length_b   7.12105077
_cell_length_c   8.34444197
_cell_angle_alpha   90.23406701
_cell_angle_beta   90.00000000
_cell_angle_gamma   90.00000000
_symmetry_Int_Tables_number   1
_chemical_formula_structural   DyY4Hf3Pt4
_chemical_formula_sum   'Dy1 Y4 Hf3 Pt4'
_cell_volume   280.61442949
_cell_formula_units_Z   1
loop_
 _symmetry_equiv_pos_site_id
 _symmetry_equiv_pos_as_xyz
  1  'x, y, z'
loop_
 _atom_site_type_symbol
 _atom_site_label
 _atom_site_symmetry_multiplicity
 _atom_site_fract_x
 _atom_site_fract_y
 _atom_site_fract_z
 _atom_site_occupancy
  Dy  Dy0  1  0.750000  0.144687  0.082603  1
  Y  Y1  1  0.250000  0.978655  0.329320  1
  Y  Y2  1  0.250000  0.488476  0.173674  1
  Y  Y3  1  0.750000  0.019877  0.679636  1
  Y  Y4  1  0.750000  0.518662  0.817009  1
  Hf  Hf5  1  0.250000  0.359250  0.573623  1
  Hf  Hf6  1  0.250000  0.852476  0.922399  1
  Hf  Hf7  1  0.750000  0.649175  0.423482  1
  Pt  Pt8  1  0.250000  0.227760  0.886379  1
  Pt  Pt9  1  0.250000  0.729269  0.598384  1
  Pt  Pt10  1  0.750000  0.753547  0.095084  1
  Pt  Pt11  1  0.750000  0.278167  0.418404  1
