# generated using pymatgen
data_Tb4TmVMoO12
_symmetry_space_group_name_H-M   'P 1'
_cell_length_a   6.82585132
_cell_length_b   6.82534521
_cell_length_c   7.33809838
_cell_angle_alpha   74.18105056
_cell_angle_beta   74.18875456
_cell_angle_gamma   51.66365562
_symmetry_Int_Tables_number   1
_chemical_formula_structural   Tb4TmVMoO12
_chemical_formula_sum   'Tb4 Tm1 V1 Mo1 O12'
_cell_volume   255.57141160
_cell_formula_units_Z   1
loop_
 _symmetry_equiv_pos_site_id
 _symmetry_equiv_pos_as_xyz
  1  'x, y, z'
loop_
 _atom_site_type_symbol
 _atom_site_label
 _atom_site_symmetry_multiplicity
 _atom_site_fract_x
 _atom_site_fract_y
 _atom_site_fract_z
 _atom_site_occupancy
  Tb  Tb0  1  0.703632  0.689087  0.637670  1
  Tb  Tb1  1  0.311134  0.307534  0.825551  1
  Tb  Tb2  1  0.692315  0.688557  0.173516  1
  Tb  Tb3  1  0.001349  0.000349  0.498916  1
  Tm  Tm4  1  0.311669  0.296854  0.360761  1
  V  V5  1  0.746793  0.252133  0.001221  1
  Mo  Mo6  1  0.234375  0.764674  0.001034  1
  O  O7  1  0.896562  0.423982  0.920189  1
  O  O8  1  0.430034  0.896764  0.918935  1
  O  O9  1  0.104238  0.567862  0.084457  1
  O  O10  1  0.574028  0.104500  0.083542  1
  O  O11  1  0.102531  0.590688  0.571563  1
  O  O12  1  0.594722  0.095131  0.572455  1
  O  O13  1  0.912394  0.401129  0.422555  1
  O  O14  1  0.405356  0.904931  0.423652  1
  O  O15  1  0.992411  0.007104  0.816278  1
  O  O16  1  0.991818  0.006701  0.184899  1
  O  O17  1  0.497532  0.501280  0.812251  1
  O  O18  1  0.497107  0.500742  0.190554  1
