# generated using pymatgen
data_YHoTi2(ClO3)2
_symmetry_space_group_name_H-M   'P 1'
_cell_length_a   5.31519995
_cell_length_b   5.31519959
_cell_length_c   9.89971202
_cell_angle_alpha   105.03825354
_cell_angle_beta   105.03825307
_cell_angle_gamma   43.10666691
_symmetry_Int_Tables_number   1
_chemical_formula_structural   YHoTi2(ClO3)2
_chemical_formula_sum   'Y1 Ho1 Ti2 Cl2 O6'
_cell_volume   183.53430712
_cell_formula_units_Z   1
loop_
 _symmetry_equiv_pos_site_id
 _symmetry_equiv_pos_as_xyz
  1  'x, y, z'
loop_
 _atom_site_type_symbol
 _atom_site_label
 _atom_site_symmetry_multiplicity
 _atom_site_fract_x
 _atom_site_fract_y
 _atom_site_fract_z
 _atom_site_occupancy
  Y  Y0  1  0.225584  0.225584  0.204646  1
  Ho  Ho1  1  0.773810  0.773810  0.792269  1
  Ti  Ti2  1  0.618828  0.618828  0.430018  1
  Ti  Ti3  1  0.381103  0.381103  0.571435  1
  Cl  Cl4  1  0.884163  0.884163  0.090254  1
  Cl  Cl5  1  0.115653  0.115653  0.905756  1
  O  O6  1  0.651066  0.651066  0.251954  1
  O  O7  1  0.424013  0.424013  0.376363  1
  O  O8  1  0.169692  0.169692  0.436736  1
  O  O9  1  0.830793  0.830793  0.566438  1
  O  O10  1  0.576474  0.576474  0.624953  1
  O  O11  1  0.348821  0.348821  0.749179  1
