# generated using pymatgen
data_Dy5Mn2O12
_symmetry_space_group_name_H-M   'P 1'
_cell_length_a   6.81223852
_cell_length_b   6.81230948
_cell_length_c   7.24390320
_cell_angle_alpha   74.53562729
_cell_angle_beta   74.53582226
_cell_angle_gamma   50.04127592
_symmetry_Int_Tables_number   1
_chemical_formula_structural   Dy5Mn2O12
_chemical_formula_sum   'Dy5 Mn2 O12'
_cell_volume   246.26772282
_cell_formula_units_Z   1
loop_
 _symmetry_equiv_pos_site_id
 _symmetry_equiv_pos_as_xyz
  1  'x, y, z'
loop_
 _atom_site_type_symbol
 _atom_site_label
 _atom_site_symmetry_multiplicity
 _atom_site_fract_x
 _atom_site_fract_y
 _atom_site_fract_z
 _atom_site_occupancy
  Dy  Dy0  1  0.195113  0.195119  0.643437  1
  Dy  Dy1  1  0.192560  0.192598  0.164535  1
  Dy  Dy2  1  0.500000  0.500000  0.500000  1
  Dy  Dy3  1  0.804887  0.804881  0.356563  1
  Dy  Dy4  1  0.807440  0.807402  0.835465  1
  Mn  Mn5  1  0.745589  0.254395  0.999971  1
  Mn  Mn6  1  0.254411  0.745605  0.000029  1
  O  O7  1  0.401419  0.921510  0.918601  1
  O  O8  1  0.921478  0.401408  0.918605  1
  O  O9  1  0.902249  0.402867  0.425649  1
  O  O10  1  0.402866  0.902255  0.425646  1
  O  O11  1  0.500448  0.500421  0.178247  1
  O  O12  1  0.000050  0.000059  0.179776  1
  O  O13  1  0.999950  0.999941  0.820224  1
  O  O14  1  0.499552  0.499579  0.821753  1
  O  O15  1  0.078522  0.598592  0.081395  1
  O  O16  1  0.598581  0.078490  0.081399  1
  O  O17  1  0.097751  0.597133  0.574351  1
  O  O18  1  0.597134  0.097745  0.574354  1
