# generated using pymatgen
data_Sc6Ti4NbAl11Os7
_symmetry_space_group_name_H-M   'P 1'
_cell_length_a   8.86843806
_cell_length_b   8.86843939
_cell_length_c   8.85818902
_cell_angle_alpha   59.96171844
_cell_angle_beta   59.96171560
_cell_angle_gamma   59.99999794
_symmetry_Int_Tables_number   1
_chemical_formula_structural   Sc6Ti4NbAl11Os7
_chemical_formula_sum   'Sc6 Ti4 Nb1 Al11 Os7'
_cell_volume   492.34862795
_cell_formula_units_Z   1
loop_
 _symmetry_equiv_pos_site_id
 _symmetry_equiv_pos_as_xyz
  1  'x, y, z'
loop_
 _atom_site_type_symbol
 _atom_site_label
 _atom_site_symmetry_multiplicity
 _atom_site_fract_x
 _atom_site_fract_y
 _atom_site_fract_z
 _atom_site_occupancy
  Sc  Sc0  1  0.710614  0.710614  0.289255  1
  Sc  Sc1  1  0.289516  0.710614  0.289255  1
  Sc  Sc2  1  0.710614  0.289516  0.289255  1
  Sc  Sc3  1  0.289417  0.289417  0.714888  1
  Sc  Sc4  1  0.706277  0.289417  0.714888  1
  Sc  Sc5  1  0.289417  0.706277  0.714888  1
  Ti  Ti6  1  0.878784  0.362161  0.880270  1
  Ti  Ti7  1  0.362161  0.878784  0.880270  1
  Ti  Ti8  1  0.878784  0.878784  0.880270  1
  Ti  Ti9  1  0.123502  0.123502  0.629495  1
  Nb  Nb10  1  0.879876  0.879876  0.360373  1
  Al  Al11  1  0.119890  0.641696  0.118524  1
  Al  Al12  1  0.641696  0.119890  0.118524  1
  Al  Al13  1  0.119890  0.119890  0.118524  1
  Al  Al14  1  0.665419  0.665419  0.003744  1
  Al  Al15  1  0.664115  0.004226  0.667543  1
  Al  Al16  1  0.004226  0.664115  0.667543  1
  Al  Al17  1  0.664115  0.664115  0.667543  1
  Al  Al18  1  0.332283  0.332283  0.003150  1
  Al  Al19  1  0.336153  0.994259  0.333432  1
  Al  Al20  1  0.994259  0.336153  0.333432  1
  Al  Al21  1  0.336153  0.336153  0.333432  1
  Os  Os22  1  0.004185  0.004185  0.987445  1
  Os  Os23  1  0.998793  0.998793  0.503305  1
  Os  Os24  1  0.499107  0.998793  0.503305  1
  Os  Os25  1  0.998793  0.499107  0.503305  1
  Os  Os26  1  0.500639  0.500639  0.998046  1
  Os  Os27  1  0.000677  0.500639  0.998046  1
  Os  Os28  1  0.500639  0.000677  0.998046  1
