# generated using pymatgen
data_Zr10Tl5Ga3
_symmetry_space_group_name_H-M   'P 1'
_cell_length_a   8.81145000
_cell_length_b   8.76961405
_cell_length_c   5.93807800
_cell_angle_alpha   90.00000000
_cell_angle_beta   90.00000000
_cell_angle_gamma   119.84305410
_symmetry_Int_Tables_number   1
_chemical_formula_structural   Zr10Tl5Ga3
_chemical_formula_sum   'Zr10 Tl5 Ga3'
_cell_volume   398.00548190
_cell_formula_units_Z   1
loop_
 _symmetry_equiv_pos_site_id
 _symmetry_equiv_pos_as_xyz
  1  'x, y, z'
loop_
 _atom_site_type_symbol
 _atom_site_label
 _atom_site_symmetry_multiplicity
 _atom_site_fract_x
 _atom_site_fract_y
 _atom_site_fract_z
 _atom_site_occupancy
  Zr  Zr0  1  0.676831  0.335217  0.002994  1
  Zr  Zr1  1  0.323169  0.658388  0.002994  1
  Zr  Zr2  1  0.323169  0.658388  0.497006  1
  Zr  Zr3  1  0.676831  0.335217  0.497006  1
  Zr  Zr4  1  0.739412  0.737318  0.750000  1
  Zr  Zr5  1  0.260588  0.997906  0.750000  1
  Zr  Zr6  1  0.000000  0.261368  0.750000  1
  Zr  Zr7  1  0.251026  0.270963  0.250000  1
  Zr  Zr8  1  0.748974  0.019937  0.250000  1
  Zr  Zr9  1  0.000000  0.728991  0.250000  1
  Tl  Tl10  1  0.389081  0.384158  0.750000  1
  Tl  Tl11  1  0.610919  0.995077  0.750000  1
  Tl  Tl12  1  0.000000  0.612644  0.750000  1
  Tl  Tl13  1  0.615327  0.620197  0.250000  1
  Tl  Tl14  1  0.384673  0.004870  0.250000  1
  Ga  Ga15  1  0.000000  0.996708  0.003783  1
  Ga  Ga16  1  0.000000  0.996708  0.496217  1
  Ga  Ga17  1  0.000000  0.385944  0.250000  1
