# generated using pymatgen
data_LaYb11(HoSn2)8
_symmetry_space_group_name_H-M   'P 1'
_cell_length_a   7.84576641
_cell_length_b   8.42210330
_cell_length_c   16.01849180
_cell_angle_alpha   90.03881504
_cell_angle_beta   90.13941763
_cell_angle_gamma   89.90629292
_symmetry_Int_Tables_number   1
_chemical_formula_structural   LaYb11(HoSn2)8
_chemical_formula_sum   'La1 Yb11 Ho8 Sn16'
_cell_volume   1058.46279188
_cell_formula_units_Z   1
loop_
 _symmetry_equiv_pos_site_id
 _symmetry_equiv_pos_as_xyz
  1  'x, y, z'
loop_
 _atom_site_type_symbol
 _atom_site_label
 _atom_site_symmetry_multiplicity
 _atom_site_fract_x
 _atom_site_fract_y
 _atom_site_fract_z
 _atom_site_occupancy
  La  La0  1  0.502406  0.683064  0.593251  1
  Yb  Yb1  1  0.001369  0.813189  0.907996  1
  Yb  Yb2  1  0.498630  0.313587  0.092998  1
  Yb  Yb3  1  0.999847  0.186955  0.406479  1
  Yb  Yb4  1  0.498873  0.315005  0.406095  1
  Yb  Yb5  1  0.998262  0.187195  0.093092  1
  Yb  Yb6  1  0.501137  0.686428  0.906666  1
  Yb  Yb7  1  0.001635  0.814381  0.592301  1
  Yb  Yb8  1  0.831330  0.509246  0.751598  1
  Yb  Yb9  1  0.329916  0.990662  0.751022  1
  Yb  Yb10  1  0.169335  0.489243  0.249850  1
  Yb  Yb11  1  0.669371  0.010772  0.249725  1
  Ho  Ho12  1  0.668009  0.168739  0.622424  1
  Ho  Ho13  1  0.168711  0.332453  0.878506  1
  Ho  Ho14  1  0.330596  0.833117  0.122252  1
  Ho  Ho15  1  0.831475  0.667185  0.377384  1
  Ho  Ho16  1  0.330508  0.832982  0.376550  1
  Ho  Ho17  1  0.830535  0.666786  0.122188  1
  Ho  Ho18  1  0.669881  0.167081  0.878055  1
  Ho  Ho19  1  0.167244  0.331241  0.622069  1
  Sn  Sn20  1  0.673902  0.964410  0.460427  1
  Sn  Sn21  1  0.173706  0.536572  0.039780  1
  Sn  Sn22  1  0.327514  0.035216  0.959727  1
  Sn  Sn23  1  0.827435  0.462525  0.539588  1
  Sn  Sn24  1  0.326602  0.035493  0.540046  1
  Sn  Sn25  1  0.826608  0.464008  0.960068  1
  Sn  Sn26  1  0.673118  0.964262  0.040128  1
  Sn  Sn27  1  0.175502  0.537329  0.460237  1
  Sn  Sn28  1  0.465280  0.375466  0.749905  1
  Sn  Sn29  1  0.965056  0.125878  0.749797  1
  Sn  Sn30  1  0.533467  0.624432  0.249656  1
  Sn  Sn31  1  0.033254  0.875431  0.249633  1
  Sn  Sn32  1  0.711100  0.871659  0.750346  1
  Sn  Sn33  1  0.210832  0.627508  0.750107  1
  Sn  Sn34  1  0.288901  0.127737  0.249903  1
  Sn  Sn35  1  0.788657  0.372764  0.250152  1
