# generated using pymatgen
data_Tb2YbSm(B6Ru)2
_symmetry_space_group_name_H-M   'P 1'
_cell_length_a   3.69327700
_cell_length_b   9.20051858
_cell_length_c   11.60512410
_cell_angle_alpha   89.80479916
_cell_angle_beta   90.00000000
_cell_angle_gamma   90.00000000
_symmetry_Int_Tables_number   1
_chemical_formula_structural   Tb2YbSm(B6Ru)2
_chemical_formula_sum   'Tb4 Yb2 Sm2 B24 Ru4'
_cell_volume   394.34056722
_cell_formula_units_Z   2
loop_
 _symmetry_equiv_pos_site_id
 _symmetry_equiv_pos_as_xyz
  1  'x, y, z'
loop_
 _atom_site_type_symbol
 _atom_site_label
 _atom_site_symmetry_multiplicity
 _atom_site_fract_x
 _atom_site_fract_y
 _atom_site_fract_z
 _atom_site_occupancy
  Tb  Tb0  1  0.000000  0.941300  0.369980  1
  Tb  Tb1  1  0.000000  0.058700  0.630020  1
  Tb  Tb2  1  0.000000  0.442339  0.132239  1
  Tb  Tb3  1  0.000000  0.557661  0.867761  1
  Yb  Yb4  1  0.000000  0.325627  0.415156  1
  Yb  Yb5  1  0.000000  0.674373  0.584844  1
  Sm  Sm6  1  0.000000  0.822759  0.086406  1
  Sm  Sm7  1  0.000000  0.177241  0.913594  1
  B  B8  1  0.500000  0.553870  0.432819  1
  B  B9  1  0.500000  0.446130  0.567181  1
  B  B10  1  0.500000  0.054738  0.068575  1
  B  B11  1  0.500000  0.945262  0.931425  1
  B  B12  1  0.500000  0.746713  0.418302  1
  B  B13  1  0.500000  0.253287  0.581698  1
  B  B14  1  0.500000  0.248049  0.083040  1
  B  B15  1  0.500000  0.751951  0.916960  1
  B  B16  1  0.500000  0.789088  0.266556  1
  B  B17  1  0.500000  0.210912  0.733444  1
  B  B18  1  0.500000  0.289459  0.235140  1
  B  B19  1  0.500000  0.710541  0.764860  1
  B  B20  1  0.500000  0.630546  0.187026  1
  B  B21  1  0.500000  0.369454  0.812974  1
  B  B22  1  0.500000  0.131094  0.314331  1
  B  B23  1  0.500000  0.868906  0.685669  1
  B  B24  1  0.500000  0.985116  0.212463  1
  B  B25  1  0.500000  0.014884  0.787537  1
  B  B26  1  0.500000  0.484326  0.289470  1
  B  B27  1  0.500000  0.515674  0.710530  1
  B  B28  1  0.500000  0.602116  0.028196  1
  B  B29  1  0.500000  0.397884  0.971804  1
  B  B30  1  0.500000  0.100295  0.472114  1
  B  B31  1  0.500000  0.899705  0.527886  1
  Ru  Ru32  1  0.000000  0.638714  0.320341  1
  Ru  Ru33  1  0.000000  0.361286  0.679659  1
  Ru  Ru34  1  0.000000  0.137831  0.179349  1
  Ru  Ru35  1  0.000000  0.862169  0.820651  1
