# generated using pymatgen
data_Zr6Al2Zn4O
_symmetry_space_group_name_H-M   'P 1'
_cell_length_a   8.58536012
_cell_length_b   8.58535994
_cell_length_c   8.58536000
_cell_angle_alpha   59.99999978
_cell_angle_beta   60.00000047
_cell_angle_gamma   59.99999963
_symmetry_Int_Tables_number   1
_chemical_formula_structural   Zr6Al2Zn4O
_chemical_formula_sum   'Zr12 Al4 Zn8 O2'
_cell_volume   447.46651022
_cell_formula_units_Z   2
loop_
 _symmetry_equiv_pos_site_id
 _symmetry_equiv_pos_as_xyz
  1  'x, y, z'
loop_
 _atom_site_type_symbol
 _atom_site_label
 _atom_site_symmetry_multiplicity
 _atom_site_fract_x
 _atom_site_fract_y
 _atom_site_fract_z
 _atom_site_occupancy
  Zr  Zr0  1  0.192537  0.807463  0.192537  1
  Zr  Zr1  1  0.442537  0.057463  0.442537  1
  Zr  Zr2  1  0.442537  0.057463  0.057463  1
  Zr  Zr3  1  0.442537  0.442537  0.057463  1
  Zr  Zr4  1  0.192537  0.807463  0.807463  1
  Zr  Zr5  1  0.057463  0.442537  0.057463  1
  Zr  Zr6  1  0.807463  0.807463  0.192537  1
  Zr  Zr7  1  0.057463  0.442537  0.442537  1
  Zr  Zr8  1  0.192537  0.192537  0.807463  1
  Zr  Zr9  1  0.807463  0.192537  0.192537  1
  Zr  Zr10  1  0.807463  0.192537  0.807463  1
  Zr  Zr11  1  0.057463  0.057463  0.442537  1
  Al  Al12  1  0.625000  0.125000  0.625000  1
  Al  Al13  1  0.625000  0.625000  0.125000  1
  Al  Al14  1  0.125000  0.625000  0.625000  1
  Al  Al15  1  0.625000  0.625000  0.625000  1
  Zn  Zn16  1  0.832797  0.501609  0.832797  1
  Zn  Zn17  1  0.417203  0.417203  0.748391  1
  Zn  Zn18  1  0.748391  0.417203  0.417203  1
  Zn  Zn19  1  0.417203  0.417203  0.417203  1
  Zn  Zn20  1  0.832797  0.832797  0.501609  1
  Zn  Zn21  1  0.417203  0.748391  0.417203  1
  Zn  Zn22  1  0.832797  0.832797  0.832797  1
  Zn  Zn23  1  0.501609  0.832797  0.832797  1
  O  O24  1  0.000000  0.000000  0.000000  1
  O  O25  1  0.250000  0.250000  0.250000  1
