# generated using pymatgen
data_Ca20Bi5Sb7
_symmetry_space_group_name_H-M   'P 1'
_cell_length_a   8.36229265
_cell_length_b   9.69242702
_cell_length_c   12.71658653
_cell_angle_alpha   89.99317198
_cell_angle_beta   90.07190315
_cell_angle_gamma   89.99618020
_symmetry_Int_Tables_number   1
_chemical_formula_structural   Ca20Bi5Sb7
_chemical_formula_sum   'Ca20 Bi5 Sb7'
_cell_volume   1030.69010482
_cell_formula_units_Z   1
loop_
 _symmetry_equiv_pos_site_id
 _symmetry_equiv_pos_as_xyz
  1  'x, y, z'
loop_
 _atom_site_type_symbol
 _atom_site_label
 _atom_site_symmetry_multiplicity
 _atom_site_fract_x
 _atom_site_fract_y
 _atom_site_fract_z
 _atom_site_occupancy
  Ca  Ca0  1  0.310196  0.958070  0.076958  1
  Ca  Ca1  1  0.809736  0.041795  0.423647  1
  Ca  Ca2  1  0.690172  0.458207  0.923688  1
  Ca  Ca3  1  0.190157  0.541852  0.576342  1
  Ca  Ca4  1  0.688859  0.041760  0.921624  1
  Ca  Ca5  1  0.191912  0.958332  0.577299  1
  Ca  Ca6  1  0.309159  0.541501  0.078889  1
  Ca  Ca7  1  0.809064  0.458585  0.421094  1
  Ca  Ca8  1  0.680422  0.746926  0.227338  1
  Ca  Ca9  1  0.180424  0.253066  0.272796  1
  Ca  Ca10  1  0.320771  0.248393  0.772430  1
  Ca  Ca11  1  0.818052  0.751509  0.726745  1
  Ca  Ca12  1  0.152843  0.747216  0.293364  1
  Ca  Ca13  1  0.652849  0.252746  0.206690  1
  Ca  Ca14  1  0.846208  0.248514  0.706166  1
  Ca  Ca15  1  0.348797  0.751200  0.793053  1
  Ca  Ca16  1  0.536286  0.750201  0.504643  1
  Ca  Ca17  1  0.036020  0.251424  0.996190  1
  Ca  Ca18  1  0.463746  0.250210  0.495186  1
  Ca  Ca19  1  0.963075  0.748349  0.005828  1
  Bi  Bi20  1  0.937286  0.012130  0.171381  1
  Bi  Bi21  1  0.437325  0.987925  0.328661  1
  Bi  Bi22  1  0.062681  0.512157  0.828628  1
  Bi  Bi23  1  0.562659  0.487966  0.671299  1
  Bi  Bi24  1  0.062588  0.987874  0.828829  1
  Sb  Sb25  1  0.561133  0.012149  0.671080  1
  Sb  Sb26  1  0.938827  0.487815  0.171187  1
  Sb  Sb27  1  0.438913  0.512120  0.328924  1
  Sb  Sb28  1  0.577952  0.749920  0.984614  1
  Sb  Sb29  1  0.078011  0.250053  0.515498  1
  Sb  Sb30  1  0.421940  0.250205  0.015522  1
  Sb  Sb31  1  0.921936  0.749827  0.484407  1
