# generated using pymatgen
data_Sr5Si10As2Ir19
_symmetry_space_group_name_H-M   'P 1'
_cell_length_a   13.02206900
_cell_length_b   13.05164566
_cell_length_c   4.04860200
_cell_angle_alpha   90.00000000
_cell_angle_beta   90.00000000
_cell_angle_gamma   119.92507305
_symmetry_Int_Tables_number   1
_chemical_formula_structural   Sr5Si10As2Ir19
_chemical_formula_sum   'Sr5 Si10 As2 Ir19'
_cell_volume   596.35983688
_cell_formula_units_Z   1
loop_
 _symmetry_equiv_pos_site_id
 _symmetry_equiv_pos_as_xyz
  1  'x, y, z'
loop_
 _atom_site_type_symbol
 _atom_site_label
 _atom_site_symmetry_multiplicity
 _atom_site_fract_x
 _atom_site_fract_y
 _atom_site_fract_z
 _atom_site_occupancy
  Sr  Sr0  1  0.001560  0.815807  0.500000  1
  Sr  Sr1  1  0.185753  0.184193  0.500000  1
  Sr  Sr2  1  0.814893  0.000000  0.500000  1
  Sr  Sr3  1  0.332892  0.667558  0.000000  1
  Sr  Sr4  1  0.665335  0.332442  0.000000  1
  Si  Si5  1  0.188322  0.000000  0.000000  1
  Si  Si6  1  0.519067  0.687416  0.500000  1
  Si  Si7  1  0.311548  0.833444  0.500000  1
  Si  Si8  1  0.167923  0.481034  0.500000  1
  Si  Si9  1  0.478104  0.166556  0.500000  1
  Si  Si10  1  0.686889  0.518966  0.500000  1
  Si  Si11  1  0.831651  0.312584  0.500000  1
  Si  Si12  1  0.000381  0.628192  0.000000  1
  Si  Si13  1  0.372189  0.371808  0.000000  1
  Si  Si14  1  0.627687  0.000000  0.000000  1
  As  As15  1  0.001163  0.183580  0.000000  1
  As  As16  1  0.817583  0.816420  0.000000  1
  Ir  Ir17  1  0.000258  0.290067  0.500000  1
  Ir  Ir18  1  0.710191  0.709933  0.500000  1
  Ir  Ir19  1  0.286384  0.000000  0.500000  1
  Ir  Ir20  1  0.618182  0.803310  0.000000  1
  Ir  Ir21  1  0.196789  0.816269  0.000000  1
  Ir  Ir22  1  0.185467  0.382761  0.000000  1
  Ir  Ir23  1  0.380520  0.183731  0.000000  1
  Ir  Ir24  1  0.802706  0.617239  0.000000  1
  Ir  Ir25  1  0.814871  0.196690  0.000000  1
  Ir  Ir26  1  0.512465  0.874858  0.500000  1
  Ir  Ir27  1  0.124572  0.638806  0.500000  1
  Ir  Ir28  1  0.361783  0.487096  0.500000  1
  Ir  Ir29  1  0.485765  0.361194  0.500000  1
  Ir  Ir30  1  0.874688  0.512904  0.500000  1
  Ir  Ir31  1  0.637607  0.125142  0.500000  1
  Ir  Ir32  1  0.005706  0.000000  0.000000  1
  Ir  Ir33  1  0.999659  0.447370  0.000000  1
  Ir  Ir34  1  0.552290  0.552630  0.000000  1
  Ir  Ir35  1  0.447156  0.000000  0.000000  1
