# generated using pymatgen
data_Tm7Th(AlIr)2
_symmetry_space_group_name_H-M   'P 1'
_cell_length_a   9.49506729
_cell_length_b   9.49506778
_cell_length_c   9.46983800
_cell_angle_alpha   60.08786578
_cell_angle_beta   60.08786409
_cell_angle_gamma   60.37910386
_symmetry_Int_Tables_number   1
_chemical_formula_structural   Tm7Th(AlIr)2
_chemical_formula_sum   'Tm14 Th2 Al4 Ir4'
_cell_volume   606.22151466
_cell_formula_units_Z   2
loop_
 _symmetry_equiv_pos_site_id
 _symmetry_equiv_pos_as_xyz
  1  'x, y, z'
loop_
 _atom_site_type_symbol
 _atom_site_label
 _atom_site_symmetry_multiplicity
 _atom_site_fract_x
 _atom_site_fract_y
 _atom_site_fract_z
 _atom_site_occupancy
  Tm  Tm0  1  0.605065  0.189160  0.602888  1
  Tm  Tm1  1  0.189160  0.605065  0.602888  1
  Tm  Tm2  1  0.058310  0.443788  0.442052  1
  Tm  Tm3  1  0.443788  0.058310  0.055851  1
  Tm  Tm4  1  0.443788  0.058310  0.442052  1
  Tm  Tm5  1  0.058310  0.443788  0.055851  1
  Tm  Tm6  1  0.439721  0.439721  0.060279  1
  Tm  Tm7  1  0.054639  0.054639  0.445361  1
  Tm  Tm8  1  0.186722  0.815153  0.812856  1
  Tm  Tm9  1  0.815153  0.186722  0.185268  1
  Tm  Tm10  1  0.815153  0.186722  0.812856  1
  Tm  Tm11  1  0.186722  0.815153  0.185268  1
  Tm  Tm12  1  0.815985  0.815985  0.184015  1
  Tm  Tm13  1  0.191576  0.191576  0.808424  1
  Th  Th14  1  0.598926  0.598926  0.601676  1
  Th  Th15  1  0.598926  0.598926  0.200473  1
  Al  Al16  1  0.830141  0.830141  0.826935  1
  Al  Al17  1  0.830141  0.830141  0.512781  1
  Al  Al18  1  0.829149  0.514429  0.828210  1
  Al  Al19  1  0.514429  0.829149  0.828210  1
  Ir  Ir20  1  0.389140  0.389140  0.397636  1
  Ir  Ir21  1  0.389140  0.389140  0.824084  1
  Ir  Ir22  1  0.390364  0.825550  0.392043  1
  Ir  Ir23  1  0.825550  0.390364  0.392043  1
