# generated using pymatgen
data_Ba8USbSe12
_symmetry_space_group_name_H-M   'P 1'
_cell_length_a   9.05869645
_cell_length_b   9.05869606
_cell_length_c   9.05869721
_cell_angle_alpha   89.55938832
_cell_angle_beta   89.55938530
_cell_angle_gamma   89.55939456
_symmetry_Int_Tables_number   1
_chemical_formula_structural   Ba8USbSe12
_chemical_formula_sum   'Ba8 U1 Sb1 Se12'
_cell_volume   743.29088829
_cell_formula_units_Z   1
loop_
 _symmetry_equiv_pos_site_id
 _symmetry_equiv_pos_as_xyz
  1  'x, y, z'
loop_
 _atom_site_type_symbol
 _atom_site_label
 _atom_site_symmetry_multiplicity
 _atom_site_fract_x
 _atom_site_fract_y
 _atom_site_fract_z
 _atom_site_occupancy
  Ba  Ba0  1  0.868462  0.622354  0.255932  1
  Ba  Ba1  1  0.255932  0.868462  0.622354  1
  Ba  Ba2  1  0.622354  0.255932  0.868462  1
  Ba  Ba3  1  0.744068  0.131538  0.377646  1
  Ba  Ba4  1  0.377646  0.744068  0.131538  1
  Ba  Ba5  1  0.131538  0.377646  0.744068  1
  Ba  Ba6  1  0.256247  0.256247  0.256247  1
  Ba  Ba7  1  0.743753  0.743753  0.743753  1
  U  U8  1  0.000000  0.000000  0.000000  1
  Sb  Sb9  1  0.500000  0.500000  0.500000  1
  Se  Se10  1  0.195239  0.564228  0.421533  1
  Se  Se11  1  0.421533  0.195239  0.564228  1
  Se  Se12  1  0.564228  0.421533  0.195239  1
  Se  Se13  1  0.927113  0.058295  0.708127  1
  Se  Se14  1  0.708127  0.927113  0.058295  1
  Se  Se15  1  0.058295  0.708127  0.927113  1
  Se  Se16  1  0.804761  0.435772  0.578467  1
  Se  Se17  1  0.578467  0.804761  0.435772  1
  Se  Se18  1  0.435772  0.578467  0.804761  1
  Se  Se19  1  0.072887  0.941705  0.291873  1
  Se  Se20  1  0.291873  0.072887  0.941705  1
  Se  Se21  1  0.941705  0.291873  0.072887  1
