# generated using pymatgen
data_Y4Cu2(TcRu)3
_symmetry_space_group_name_H-M   'P 1'
_cell_length_a   5.31556686
_cell_length_b   5.31556707
_cell_length_c   9.00294600
_cell_angle_alpha   90.00000000
_cell_angle_beta   90.00000000
_cell_angle_gamma   121.57590873
_symmetry_Int_Tables_number   1
_chemical_formula_structural   Y4Cu2(TcRu)3
_chemical_formula_sum   'Y4 Cu2 Tc3 Ru3'
_cell_volume   216.71875754
_cell_formula_units_Z   1
loop_
 _symmetry_equiv_pos_site_id
 _symmetry_equiv_pos_as_xyz
  1  'x, y, z'
loop_
 _atom_site_type_symbol
 _atom_site_label
 _atom_site_symmetry_multiplicity
 _atom_site_fract_x
 _atom_site_fract_y
 _atom_site_fract_z
 _atom_site_occupancy
  Y  Y0  1  0.329788  0.670212  0.433569  1
  Y  Y1  1  0.660501  0.339499  0.559679  1
  Y  Y2  1  0.660501  0.339499  0.940321  1
  Y  Y3  1  0.329788  0.670212  0.066431  1
  Cu  Cu4  1  0.346100  0.157866  0.250000  1
  Cu  Cu5  1  0.842134  0.653900  0.250000  1
  Tc  Tc6  1  0.164986  0.335277  0.750000  1
  Tc  Tc7  1  0.172081  0.827919  0.750000  1
  Tc  Tc8  1  0.664723  0.835014  0.750000  1
  Ru  Ru9  1  0.990233  0.009767  0.005928  1
  Ru  Ru10  1  0.848928  0.151072  0.250000  1
  Ru  Ru11  1  0.990233  0.009767  0.494072  1
