# generated using pymatgen
data_Pr2Al(ZnPt2)2
_symmetry_space_group_name_H-M   'P 1'
_cell_length_a   8.30345631
_cell_length_b   8.30345657
_cell_length_c   7.68835600
_cell_angle_alpha   90.00000000
_cell_angle_beta   90.00000000
_cell_angle_gamma   139.83084717
_symmetry_Int_Tables_number   1
_chemical_formula_structural   Pr2Al(ZnPt2)2
_chemical_formula_sum   'Pr4 Al2 Zn4 Pt8'
_cell_volume   341.93397038
_cell_formula_units_Z   2
loop_
 _symmetry_equiv_pos_site_id
 _symmetry_equiv_pos_as_xyz
  1  'x, y, z'
loop_
 _atom_site_type_symbol
 _atom_site_label
 _atom_site_symmetry_multiplicity
 _atom_site_fract_x
 _atom_site_fract_y
 _atom_site_fract_z
 _atom_site_occupancy
  Pr  Pr0  1  0.113453  0.886547  0.410296  1
  Pr  Pr1  1  0.886547  0.113453  0.589704  1
  Pr  Pr2  1  0.386547  0.613453  0.910296  1
  Pr  Pr3  1  0.613453  0.386547  0.089704  1
  Al  Al4  1  0.000000  0.000000  0.000000  1
  Al  Al5  1  0.500000  0.500000  0.500000  1
  Zn  Zn6  1  0.024904  0.475096  0.250000  1
  Zn  Zn7  1  0.475096  0.024904  0.750000  1
  Zn  Zn8  1  0.975096  0.524904  0.750000  1
  Zn  Zn9  1  0.524904  0.975096  0.250000  1
  Pt  Pt10  1  0.194156  0.305844  0.250000  1
  Pt  Pt11  1  0.305844  0.194156  0.750000  1
  Pt  Pt12  1  0.805844  0.694156  0.750000  1
  Pt  Pt13  1  0.694156  0.805844  0.250000  1
  Pt  Pt14  1  0.176446  0.823554  0.022801  1
  Pt  Pt15  1  0.823554  0.176446  0.977199  1
  Pt  Pt16  1  0.323554  0.676446  0.522801  1
  Pt  Pt17  1  0.676446  0.323554  0.477199  1
