# generated using pymatgen
data_AcY2Al7Cu2
_symmetry_space_group_name_H-M   'P 1'
_cell_length_a   9.24801719
_cell_length_b   9.24801805
_cell_length_c   9.24801650
_cell_angle_alpha   35.18374937
_cell_angle_beta   35.18374368
_cell_angle_gamma   35.18373879
_symmetry_Int_Tables_number   1
_chemical_formula_structural   AcY2Al7Cu2
_chemical_formula_sum   'Ac1 Y2 Al7 Cu2'
_cell_volume   234.54337732
_cell_formula_units_Z   1
loop_
 _symmetry_equiv_pos_site_id
 _symmetry_equiv_pos_as_xyz
  1  'x, y, z'
loop_
 _atom_site_type_symbol
 _atom_site_label
 _atom_site_symmetry_multiplicity
 _atom_site_fract_x
 _atom_site_fract_y
 _atom_site_fract_z
 _atom_site_occupancy
  Ac  Ac0  1  0.000000  0.000000  0.000000  1
  Y  Y1  1  0.857366  0.857366  0.857366  1
  Y  Y2  1  0.142634  0.142634  0.142634  1
  Al  Al3  1  0.415561  0.415561  0.926124  1
  Al  Al4  1  0.926124  0.415561  0.415561  1
  Al  Al5  1  0.415561  0.926124  0.415561  1
  Al  Al6  1  0.500000  0.500000  0.500000  1
  Al  Al7  1  0.584439  0.073876  0.584439  1
  Al  Al8  1  0.073876  0.584439  0.584439  1
  Al  Al9  1  0.584439  0.584439  0.073876  1
  Cu  Cu10  1  0.664405  0.664405  0.664405  1
  Cu  Cu11  1  0.335595  0.335595  0.335595  1
