# generated using pymatgen
data_Tm7(IrSe)2
_symmetry_space_group_name_H-M   'P 1'
_cell_length_a   9.01500686
_cell_length_b   9.01500681
_cell_length_c   9.01500796
_cell_angle_alpha   155.35387213
_cell_angle_beta   119.01484710
_cell_angle_gamma   66.80031490
_symmetry_Int_Tables_number   1
_chemical_formula_structural   Tm7(IrSe)2
_chemical_formula_sum   'Tm7 Ir2 Se2'
_cell_volume   264.96023367
_cell_formula_units_Z   1
loop_
 _symmetry_equiv_pos_site_id
 _symmetry_equiv_pos_as_xyz
  1  'x, y, z'
loop_
 _atom_site_type_symbol
 _atom_site_label
 _atom_site_symmetry_multiplicity
 _atom_site_fract_x
 _atom_site_fract_y
 _atom_site_fract_z
 _atom_site_occupancy
  Tm  Tm0  1  0.540611  0.124723  0.415889  1
  Tm  Tm1  1  0.291165  0.875277  0.415889  1
  Tm  Tm2  1  0.945986  0.318127  0.627860  1
  Tm  Tm3  1  0.309734  0.681873  0.627860  1
  Tm  Tm4  1  0.619701  0.359519  0.260181  1
  Tm  Tm5  1  0.900661  0.640481  0.260181  1
  Tm  Tm6  1  0.003848  0.000000  0.003848  1
  Ir  Ir7  1  0.167043  0.238465  0.928579  1
  Ir  Ir8  1  0.690114  0.761535  0.928579  1
  Se  Se9  1  0.260879  0.500000  0.760879  1
  Se  Se10  1  0.661116  0.000000  0.661116  1
