# generated using pymatgen
data_LuBi3(PS4)4
_symmetry_space_group_name_H-M   'P 1'
_cell_length_a   6.68089105
_cell_length_b   8.93055869
_cell_length_c   12.88814475
_cell_angle_alpha   59.01992650
_cell_angle_beta   89.78899894
_cell_angle_gamma   89.99733068
_symmetry_Int_Tables_number   1
_chemical_formula_structural   LuBi3(PS4)4
_chemical_formula_sum   'Lu1 Bi3 P4 S16'
_cell_volume   659.25856685
_cell_formula_units_Z   1
loop_
 _symmetry_equiv_pos_site_id
 _symmetry_equiv_pos_as_xyz
  1  'x, y, z'
loop_
 _atom_site_type_symbol
 _atom_site_label
 _atom_site_symmetry_multiplicity
 _atom_site_fract_x
 _atom_site_fract_y
 _atom_site_fract_z
 _atom_site_occupancy
  Lu  Lu0  1  0.178054  0.554899  0.336897  1
  Bi  Bi1  1  0.327917  0.566356  0.832778  1
  Bi  Bi2  1  0.827595  0.436953  0.665167  1
  Bi  Bi3  1  0.671298  0.440209  0.163467  1
  P  P4  1  0.228409  0.688430  0.044808  1
  P  P5  1  0.734283  0.317890  0.458136  1
  P  P6  1  0.767854  0.307933  0.960357  1
  P  P7  1  0.266936  0.688244  0.535393  1
  S  S8  1  0.235134  0.427613  0.583451  1
  S  S9  1  0.737549  0.570790  0.909554  1
  S  S10  1  0.778970  0.577157  0.407812  1
  S  S11  1  0.263060  0.428269  0.091138  1
  S  S12  1  0.253808  0.837032  0.353693  1
  S  S13  1  0.756471  0.153245  0.142658  1
  S  S14  1  0.739211  0.155794  0.639785  1
  S  S15  1  0.244244  0.846693  0.862439  1
  S  S16  1  0.528375  0.725810  0.605150  1
  S  S17  1  0.030104  0.272252  0.890885  1
  S  S18  1  0.465350  0.286615  0.389805  1
  S  S19  1  0.970557  0.718982  0.119156  1
  S  S20  1  0.050186  0.742685  0.625824  1
  S  S21  1  0.548066  0.256116  0.871485  1
  S  S22  1  0.954943  0.264074  0.370270  1
  S  S23  1  0.441628  0.735956  0.139888  1
