# generated using pymatgen
data_Hf2Sc6Si16Mo11W
_symmetry_space_group_name_H-M   'P 1'
_cell_length_a   6.57047150
_cell_length_b   6.76912418
_cell_length_c   12.69851776
_cell_angle_alpha   89.93856323
_cell_angle_beta   89.93639974
_cell_angle_gamma   90.14271116
_symmetry_Int_Tables_number   1
_chemical_formula_structural   Hf2Sc6Si16Mo11W
_chemical_formula_sum   'Hf2 Sc6 Si16 Mo11 W1'
_cell_volume   564.78113601
_cell_formula_units_Z   1
loop_
 _symmetry_equiv_pos_site_id
 _symmetry_equiv_pos_as_xyz
  1  'x, y, z'
loop_
 _atom_site_type_symbol
 _atom_site_label
 _atom_site_symmetry_multiplicity
 _atom_site_fract_x
 _atom_site_fract_y
 _atom_site_fract_z
 _atom_site_occupancy
  Hf  Hf0  1  0.496572  0.331922  0.405980  1
  Hf  Hf1  1  0.502180  0.667270  0.594532  1
  Sc  Sc2  1  0.994879  0.168670  0.092150  1
  Sc  Sc3  1  0.005420  0.830877  0.907575  1
  Sc  Sc4  1  0.504615  0.668854  0.906862  1
  Sc  Sc5  1  0.005635  0.830390  0.592828  1
  Sc  Sc6  1  0.494524  0.330622  0.092809  1
  Sc  Sc7  1  0.994605  0.169140  0.407362  1
  Si  Si8  1  0.032264  0.123748  0.749266  1
  Si  Si9  1  0.967138  0.875046  0.250762  1
  Si  Si10  1  0.466076  0.624989  0.248889  1
  Si  Si11  1  0.535392  0.374642  0.751120  1
  Si  Si12  1  0.300052  0.860547  0.751037  1
  Si  Si13  1  0.700023  0.139783  0.248980  1
  Si  Si14  1  0.197518  0.359221  0.248934  1
  Si  Si15  1  0.801479  0.641670  0.751050  1
  Si  Si16  1  0.165859  0.459963  0.543360  1
  Si  Si17  1  0.834126  0.540068  0.455943  1
  Si  Si18  1  0.334304  0.961133  0.456398  1
  Si  Si19  1  0.834149  0.537110  0.045218  1
  Si  Si20  1  0.665861  0.038808  0.543918  1
  Si  Si21  1  0.166062  0.463106  0.955412  1
  Si  Si22  1  0.664493  0.037140  0.954651  1
  Si  Si23  1  0.335821  0.963010  0.045039  1
  Mo  Mo24  1  0.832634  0.493192  0.251361  1
  Mo  Mo25  1  0.334406  0.008163  0.251052  1
  Mo  Mo26  1  0.665415  0.992201  0.748970  1
  Mo  Mo27  1  0.331956  0.164510  0.623508  1
  Mo  Mo28  1  0.667627  0.836427  0.376657  1
  Mo  Mo29  1  0.171974  0.661269  0.376735  1
  Mo  Mo30  1  0.670375  0.835902  0.124093  1
  Mo  Mo31  1  0.829333  0.339326  0.623297  1
  Mo  Mo32  1  0.329244  0.164939  0.875562  1
  Mo  Mo33  1  0.832202  0.336145  0.875587  1
  Mo  Mo34  1  0.168915  0.664756  0.124373  1
  W  W35  1  0.166867  0.505443  0.748729  1
