# generated using pymatgen
data_Hf4(Ni3Pt)3
_symmetry_space_group_name_H-M   'P 1'
_cell_length_a   5.38037343
_cell_length_b   5.44317094
_cell_length_c   8.77781700
_cell_angle_alpha   90.00000000
_cell_angle_beta   90.00000000
_cell_angle_gamma   120.38290865
_symmetry_Int_Tables_number   1
_chemical_formula_structural   Hf4(Ni3Pt)3
_chemical_formula_sum   'Hf4 Ni9 Pt3'
_cell_volume   221.76493765
_cell_formula_units_Z   1
loop_
 _symmetry_equiv_pos_site_id
 _symmetry_equiv_pos_as_xyz
  1  'x, y, z'
loop_
 _atom_site_type_symbol
 _atom_site_label
 _atom_site_symmetry_multiplicity
 _atom_site_fract_x
 _atom_site_fract_y
 _atom_site_fract_z
 _atom_site_occupancy
  Hf  Hf0  1  0.003892  0.001950  0.005699  1
  Hf  Hf1  1  0.348176  0.674072  0.250000  1
  Hf  Hf2  1  0.003892  0.001950  0.494301  1
  Hf  Hf3  1  0.651795  0.325912  0.750000  1
  Ni  Ni4  1  0.498959  0.003113  0.003757  1
  Ni  Ni5  1  0.498965  0.495850  0.003762  1
  Ni  Ni6  1  0.356269  0.178133  0.250000  1
  Ni  Ni7  1  0.820141  0.171648  0.250000  1
  Ni  Ni8  1  0.820144  0.648492  0.250000  1
  Ni  Ni9  1  0.498959  0.003113  0.496243  1
  Ni  Ni10  1  0.498965  0.495850  0.496238  1
  Ni  Ni11  1  0.173462  0.344090  0.750000  1
  Ni  Ni12  1  0.173482  0.829373  0.750000  1
  Pt  Pt13  1  0.000127  0.500064  0.001123  1
  Pt  Pt14  1  0.000127  0.500064  0.498877  1
  Pt  Pt15  1  0.652644  0.826326  0.750000  1
