# generated using pymatgen
data_LaTb5(MoO7)2
_symmetry_space_group_name_H-M   'P 1'
_cell_length_a   6.50632989
_cell_length_b   6.50633041
_cell_length_c   7.60427509
_cell_angle_alpha   89.95820723
_cell_angle_beta   90.04179330
_cell_angle_gamma   109.03570559
_symmetry_Int_Tables_number   1
_chemical_formula_structural   LaTb5(MoO7)2
_chemical_formula_sum   'La1 Tb5 Mo2 O14'
_cell_volume   304.30326987
_cell_formula_units_Z   1
loop_
 _symmetry_equiv_pos_site_id
 _symmetry_equiv_pos_as_xyz
  1  'x, y, z'
loop_
 _atom_site_type_symbol
 _atom_site_label
 _atom_site_symmetry_multiplicity
 _atom_site_fract_x
 _atom_site_fract_y
 _atom_site_fract_z
 _atom_site_occupancy
  La  La0  1  0.500000  0.500000  0.500000  1
  Tb  Tb1  1  0.500000  0.500000  0.000000  1
  Tb  Tb2  1  0.535432  0.000679  0.753182  1
  Tb  Tb3  1  0.000679  0.535432  0.246818  1
  Tb  Tb4  1  0.464568  0.999321  0.246818  1
  Tb  Tb5  1  0.999321  0.464568  0.753182  1
  Mo  Mo6  1  0.000000  0.000000  0.500000  1
  Mo  Mo7  1  0.000000  0.000000  0.000000  1
  O  O8  1  0.680315  0.930812  0.469870  1
  O  O9  1  0.930812  0.680315  0.530130  1
  O  O10  1  0.680370  0.927082  0.029587  1
  O  O11  1  0.927082  0.680370  0.970413  1
  O  O12  1  0.319685  0.069188  0.530130  1
  O  O13  1  0.069188  0.319685  0.469870  1
  O  O14  1  0.319630  0.072918  0.970413  1
  O  O15  1  0.072918  0.319630  0.029587  1
  O  O16  1  0.929201  0.070799  0.750026  1
  O  O17  1  0.070799  0.929201  0.249974  1
  O  O18  1  0.366199  0.633801  0.760206  1
  O  O19  1  0.633801  0.366199  0.239794  1
  O  O20  1  0.638594  0.361406  0.759102  1
  O  O21  1  0.361406  0.638594  0.240898  1
