# generated using pymatgen
data_Li8TbY7Sn3Sb5
_symmetry_space_group_name_H-M   'P 1'
_cell_length_a   9.41019592
_cell_length_b   9.41018391
_cell_length_c   7.17496928
_cell_angle_alpha   90.08091203
_cell_angle_beta   89.91901578
_cell_angle_gamma   119.99824155
_symmetry_Int_Tables_number   1
_chemical_formula_structural   Li8TbY7Sn3Sb5
_chemical_formula_sum   'Li8 Tb1 Y7 Sn3 Sb5'
_cell_volume   550.24305763
_cell_formula_units_Z   1
loop_
 _symmetry_equiv_pos_site_id
 _symmetry_equiv_pos_as_xyz
  1  'x, y, z'
loop_
 _atom_site_type_symbol
 _atom_site_label
 _atom_site_symmetry_multiplicity
 _atom_site_fract_x
 _atom_site_fract_y
 _atom_site_fract_z
 _atom_site_occupancy
  Li  Li0  1  0.167723  0.832278  0.199472  1
  Li  Li1  1  0.335001  0.167140  0.698973  1
  Li  Li2  1  0.832860  0.664999  0.698973  1
  Li  Li3  1  0.166183  0.334562  0.200409  1
  Li  Li4  1  0.665438  0.833818  0.200409  1
  Li  Li5  1  0.832396  0.167604  0.699740  1
  Li  Li6  1  0.333105  0.666895  0.809451  1
  Li  Li7  1  0.667325  0.332676  0.308773  1
  Tb  Tb8  1  0.511510  0.488490  0.992942  1
  Y  Y9  1  0.023559  0.509936  0.491360  1
  Y  Y10  1  0.490063  0.976440  0.491358  1
  Y  Y11  1  0.514252  0.025429  0.993263  1
  Y  Y12  1  0.974573  0.485748  0.993262  1
  Y  Y13  1  0.488250  0.511751  0.491834  1
  Y  Y14  1  0.998922  0.001077  0.983346  1
  Y  Y15  1  0.998822  0.001177  0.481385  1
  Sn  Sn16  1  0.833607  0.166392  0.252222  1
  Sn  Sn17  1  0.333479  0.666520  0.224443  1
  Sn  Sn18  1  0.666384  0.333616  0.724353  1
  Sb  Sb19  1  0.166392  0.833608  0.750855  1
  Sb  Sb20  1  0.332746  0.166619  0.250909  1
  Sb  Sb21  1  0.833381  0.667255  0.250909  1
  Sb  Sb22  1  0.166800  0.332770  0.750684  1
  Sb  Sb23  1  0.667230  0.833200  0.750684  1
