# generated using pymatgen
data_Y4Lu8Tc3Os
_symmetry_space_group_name_H-M   'P 1'
_cell_length_a   6.18643012
_cell_length_b   7.44961414
_cell_length_c   8.86473000
_cell_angle_alpha   90.00000000
_cell_angle_beta   90.00000000
_cell_angle_gamma   90.10002934
_symmetry_Int_Tables_number   1
_chemical_formula_structural   Y4Lu8Tc3Os
_chemical_formula_sum   'Y4 Lu8 Tc3 Os1'
_cell_volume   408.54390980
_cell_formula_units_Z   1
loop_
 _symmetry_equiv_pos_site_id
 _symmetry_equiv_pos_as_xyz
  1  'x, y, z'
loop_
 _atom_site_type_symbol
 _atom_site_label
 _atom_site_symmetry_multiplicity
 _atom_site_fract_x
 _atom_site_fract_y
 _atom_site_fract_z
 _atom_site_occupancy
  Y  Y0  1  0.878895  0.539759  0.250000  1
  Y  Y1  1  0.622389  0.038077  0.250000  1
  Y  Y2  1  0.125130  0.458550  0.750000  1
  Y  Y3  1  0.377435  0.962136  0.750000  1
  Lu  Lu4  1  0.344081  0.673823  0.061691  1
  Lu  Lu5  1  0.152861  0.174456  0.437231  1
  Lu  Lu6  1  0.655572  0.327694  0.562849  1
  Lu  Lu7  1  0.844768  0.823899  0.936738  1
  Lu  Lu8  1  0.655572  0.327694  0.937151  1
  Lu  Lu9  1  0.844768  0.823899  0.563262  1
  Lu  Lu10  1  0.344081  0.673823  0.438309  1
  Lu  Lu11  1  0.152861  0.174456  0.062769  1
  Tc  Tc12  1  0.051260  0.882238  0.250000  1
  Tc  Tc13  1  0.452289  0.383715  0.250000  1
  Tc  Tc14  1  0.949591  0.117048  0.750000  1
  Os  Os15  1  0.548445  0.618736  0.750000  1
