# generated using pymatgen
data_Tm2Fe7Ni5P7
_symmetry_space_group_name_H-M   'P 1'
_cell_length_a   8.98669595
_cell_length_b   9.00398900
_cell_length_c   3.63251900
_cell_angle_alpha   90.00000000
_cell_angle_beta   90.00000000
_cell_angle_gamma   119.69946575
_symmetry_Int_Tables_number   1
_chemical_formula_structural   Tm2Fe7Ni5P7
_chemical_formula_sum   'Tm2 Fe7 Ni5 P7'
_cell_volume   255.31762170
_cell_formula_units_Z   1
loop_
 _symmetry_equiv_pos_site_id
 _symmetry_equiv_pos_as_xyz
  1  'x, y, z'
loop_
 _atom_site_type_symbol
 _atom_site_label
 _atom_site_symmetry_multiplicity
 _atom_site_fract_x
 _atom_site_fract_y
 _atom_site_fract_z
 _atom_site_occupancy
  Tm  Tm0  1  0.001653  0.998553  0.000000  1
  Tm  Tm1  1  0.331848  0.667878  0.500000  1
  Fe  Fe2  1  0.823841  0.213678  0.000000  1
  Fe  Fe3  1  0.784114  0.609633  0.000000  1
  Fe  Fe4  1  0.394791  0.179680  0.000000  1
  Fe  Fe5  1  0.231429  0.945924  0.500000  1
  Fe  Fe6  1  0.887267  0.457988  0.500000  1
  Fe  Fe7  1  0.544389  0.429535  0.500000  1
  Fe  Fe8  1  0.572738  0.119084  0.500000  1
  Ni  Ni9  1  0.098639  0.702975  0.000000  1
  Ni  Ni10  1  0.292223  0.393964  0.000000  1
  Ni  Ni11  1  0.601682  0.897740  0.000000  1
  Ni  Ni12  1  0.055067  0.282006  0.500000  1
  Ni  Ni13  1  0.715692  0.771539  0.500000  1
  P  P14  1  0.071955  0.445666  0.000000  1
  P  P15  1  0.551148  0.625181  0.000000  1
  P  P16  1  0.366541  0.925857  0.000000  1
  P  P17  1  0.782484  0.049661  0.500000  1
  P  P18  1  0.955657  0.737105  0.500000  1
  P  P19  1  0.267642  0.211086  0.500000  1
  P  P20  1  0.669201  0.335262  0.000000  1
