# generated using pymatgen
data_LiCa2SmCd2Sn3
_symmetry_space_group_name_H-M   'P 1'
_cell_length_a   7.61657825
_cell_length_b   7.57439076
_cell_length_c   4.70280800
_cell_angle_alpha   90.00000000
_cell_angle_beta   90.00000000
_cell_angle_gamma   119.81693667
_symmetry_Int_Tables_number   1
_chemical_formula_structural   LiCa2SmCd2Sn3
_chemical_formula_sum   'Li1 Ca2 Sm1 Cd2 Sn3'
_cell_volume   235.39306932
_cell_formula_units_Z   1
loop_
 _symmetry_equiv_pos_site_id
 _symmetry_equiv_pos_as_xyz
  1  'x, y, z'
loop_
 _atom_site_type_symbol
 _atom_site_label
 _atom_site_symmetry_multiplicity
 _atom_site_fract_x
 _atom_site_fract_y
 _atom_site_fract_z
 _atom_site_occupancy
  Li  Li0  1  0.000000  0.763973  0.000000  1
  Ca  Ca1  1  0.566338  0.567929  0.500000  1
  Ca  Ca2  1  0.433662  0.001589  0.500000  1
  Sm  Sm3  1  0.000000  0.426736  0.500000  1
  Cd  Cd4  1  0.247320  0.244879  0.000000  1
  Cd  Cd5  1  0.752680  0.997559  0.000000  1
  Sn  Sn6  1  0.321391  0.665538  0.000000  1
  Sn  Sn7  1  0.678609  0.344147  0.000000  1
  Sn  Sn8  1  0.000000  0.987650  0.500000  1
