# generated using pymatgen
data_Eu2Ho2H9
_symmetry_space_group_name_H-M   'P 1'
_cell_length_a   6.60303561
_cell_length_b   6.60303552
_cell_length_c   6.60303499
_cell_angle_alpha   132.20924316
_cell_angle_beta   132.20924439
_cell_angle_gamma   69.89875136
_symmetry_Int_Tables_number   1
_chemical_formula_structural   Eu2Ho2H9
_chemical_formula_sum   'Eu2 Ho2 H9'
_cell_volume   154.87429246
_cell_formula_units_Z   1
loop_
 _symmetry_equiv_pos_site_id
 _symmetry_equiv_pos_as_xyz
  1  'x, y, z'
loop_
 _atom_site_type_symbol
 _atom_site_label
 _atom_site_symmetry_multiplicity
 _atom_site_fract_x
 _atom_site_fract_y
 _atom_site_fract_z
 _atom_site_occupancy
  Eu  Eu0  1  0.500000  0.000000  0.500000  1
  Eu  Eu1  1  0.000000  0.500000  0.500000  1
  Ho  Ho2  1  0.736383  0.736383  0.000000  1
  Ho  Ho3  1  0.263617  0.263617  0.000000  1
  H  H4  1  0.900447  0.375870  0.000000  1
  H  H5  1  0.375870  0.900447  0.000000  1
  H  H6  1  0.624130  0.099553  0.000000  1
  H  H7  1  0.099553  0.099553  0.475422  1
  H  H8  1  0.375870  0.375870  0.475422  1
  H  H9  1  0.500000  0.500000  0.000000  1
  H  H10  1  0.099553  0.624130  0.000000  1
  H  H11  1  0.624130  0.624130  0.524578  1
  H  H12  1  0.900447  0.900447  0.524578  1
