# generated using pymatgen
data_Tb7Y(HoIn5)4
_symmetry_space_group_name_H-M   'P 1'
_cell_length_a   6.52492111
_cell_length_b   10.43445236
_cell_length_c   12.29427543
_cell_angle_alpha   89.95862898
_cell_angle_beta   90.00795513
_cell_angle_gamma   90.01268132
_symmetry_Int_Tables_number   1
_chemical_formula_structural   Tb7Y(HoIn5)4
_chemical_formula_sum   'Tb7 Y1 Ho4 In20'
_cell_volume   837.04293678
_cell_formula_units_Z   1
loop_
 _symmetry_equiv_pos_site_id
 _symmetry_equiv_pos_as_xyz
  1  'x, y, z'
loop_
 _atom_site_type_symbol
 _atom_site_label
 _atom_site_symmetry_multiplicity
 _atom_site_fract_x
 _atom_site_fract_y
 _atom_site_fract_z
 _atom_site_occupancy
  Tb  Tb0  1  0.890276  0.492967  0.142084  1
  Tb  Tb1  1  0.609536  0.006961  0.642180  1
  Tb  Tb2  1  0.109546  0.993134  0.857886  1
  Tb  Tb3  1  0.390253  0.507047  0.357773  1
  Tb  Tb4  1  0.109670  0.507010  0.857676  1
  Tb  Tb5  1  0.390370  0.992916  0.357970  1
  Tb  Tb6  1  0.890369  0.006923  0.141994  1
  Y  Y7  1  0.609667  0.492880  0.642373  1
  Ho  Ho8  1  0.349833  0.749825  0.056058  1
  Ho  Ho9  1  0.150313  0.749975  0.556018  1
  Ho  Ho10  1  0.650279  0.250054  0.943854  1
  Ho  Ho11  1  0.849952  0.250039  0.444044  1
  In  In12  1  0.616748  0.749907  0.505630  1
  In  In13  1  0.883097  0.750131  0.005087  1
  In  In14  1  0.383238  0.250045  0.494473  1
  In  In15  1  0.117320  0.250067  0.994854  1
  In  In16  1  0.651191  0.750153  0.245310  1
  In  In17  1  0.848683  0.750317  0.745300  1
  In  In18  1  0.348812  0.249754  0.754552  1
  In  In19  1  0.151152  0.250021  0.254601  1
  In  In20  1  0.124890  0.750007  0.284383  1
  In  In21  1  0.375104  0.750579  0.784770  1
  In  In22  1  0.875226  0.249974  0.715190  1
  In  In23  1  0.624823  0.249874  0.215671  1
  In  In24  1  0.874647  0.543174  0.401045  1
  In  In25  1  0.624568  0.956402  0.901311  1
  In  In26  1  0.124782  0.043473  0.598901  1
  In  In27  1  0.375270  0.456508  0.098894  1
  In  In28  1  0.125222  0.456214  0.598848  1
  In  In29  1  0.375157  0.043479  0.098869  1
  In  In30  1  0.874952  0.956617  0.401072  1
  In  In31  1  0.625050  0.543571  0.901328  1
