# generated using pymatgen
data_SmDy2Sc(WN3)4
_symmetry_space_group_name_H-M   'P 1'
_cell_length_a   7.24731587
_cell_length_b   7.24731555
_cell_length_c   6.18104482
_cell_angle_alpha   74.55504470
_cell_angle_beta   74.55505432
_cell_angle_gamma   81.84180160
_symmetry_Int_Tables_number   1
_chemical_formula_structural   SmDy2Sc(WN3)4
_chemical_formula_sum   'Sm1 Dy2 Sc1 W4 N12'
_cell_volume   300.74401473
_cell_formula_units_Z   1
loop_
 _symmetry_equiv_pos_site_id
 _symmetry_equiv_pos_as_xyz
  1  'x, y, z'
loop_
 _atom_site_type_symbol
 _atom_site_label
 _atom_site_symmetry_multiplicity
 _atom_site_fract_x
 _atom_site_fract_y
 _atom_site_fract_z
 _atom_site_occupancy
  Sm  Sm0  1  0.703391  0.296609  0.750000  1
  Dy  Dy1  1  0.293502  0.706498  0.250000  1
  Dy  Dy2  1  0.917459  0.082541  0.250000  1
  Sc  Sc3  1  0.090275  0.909725  0.750000  1
  W  W4  1  0.379147  0.197569  0.248738  1
  W  W5  1  0.615750  0.802871  0.759566  1
  W  W6  1  0.802431  0.620853  0.251262  1
  W  W7  1  0.197129  0.384250  0.740434  1
  N  N8  1  0.623628  0.103106  0.167062  1
  N  N9  1  0.361498  0.367427  0.449924  1
  N  N10  1  0.006618  0.210815  0.844384  1
  N  N11  1  0.368360  0.897947  0.829112  1
  N  N12  1  0.789185  0.993382  0.655616  1
  N  N13  1  0.102053  0.631640  0.670888  1
  N  N14  1  0.896894  0.376372  0.332938  1
  N  N15  1  0.645179  0.647200  0.541315  1
  N  N16  1  0.632573  0.638502  0.050076  1
  N  N17  1  0.352800  0.354821  0.958685  1
  N  N18  1  0.004783  0.782659  0.134283  1
  N  N19  1  0.217341  0.995217  0.365717  1
