# generated using pymatgen
data_Dy4LuCoRu
_symmetry_space_group_name_H-M   'P 1'
_cell_length_a   6.27757522
_cell_length_b   7.09052580
_cell_length_c   8.48596081
_cell_angle_alpha   96.52948574
_cell_angle_beta   112.27399426
_cell_angle_gamma   89.64103022
_symmetry_Int_Tables_number   1
_chemical_formula_structural   Dy4LuCoRu
_chemical_formula_sum   'Dy8 Lu2 Co2 Ru2'
_cell_volume   346.99022865
_cell_formula_units_Z   2
loop_
 _symmetry_equiv_pos_site_id
 _symmetry_equiv_pos_as_xyz
  1  'x, y, z'
loop_
 _atom_site_type_symbol
 _atom_site_label
 _atom_site_symmetry_multiplicity
 _atom_site_fract_x
 _atom_site_fract_y
 _atom_site_fract_z
 _atom_site_occupancy
  Dy  Dy0  1  0.526645  0.088509  0.816846  1
  Dy  Dy1  1  0.473355  0.911491  0.183154  1
  Dy  Dy2  1  0.700124  0.418041  0.188124  1
  Dy  Dy3  1  0.299876  0.581959  0.811876  1
  Dy  Dy4  1  0.287437  0.318730  0.429747  1
  Dy  Dy5  1  0.712563  0.681270  0.570253  1
  Dy  Dy6  1  0.856080  0.187071  0.567159  1
  Dy  Dy7  1  0.143920  0.812929  0.432841  1
  Lu  Lu8  1  0.074882  0.258336  0.000183  1
  Lu  Lu9  1  0.925118  0.741664  0.999817  1
  Co  Co10  1  0.323380  0.576374  0.225160  1
  Co  Co11  1  0.676620  0.423626  0.774840  1
  Ru  Ru12  1  0.104847  0.927262  0.786926  1
  Ru  Ru13  1  0.895153  0.072738  0.213074  1
