# generated using pymatgen
data_CaTbNd5RhBr12
_symmetry_space_group_name_H-M   'P 1'
_cell_length_a   9.59530895
_cell_length_b   9.45164861
_cell_length_c   9.53800660
_cell_angle_alpha   106.95039498
_cell_angle_beta   106.74432200
_cell_angle_gamma   107.18244846
_symmetry_Int_Tables_number   1
_chemical_formula_structural   CaTbNd5RhBr12
_chemical_formula_sum   'Ca1 Tb1 Nd5 Rh1 Br12'
_cell_volume   721.18856078
_cell_formula_units_Z   1
loop_
 _symmetry_equiv_pos_site_id
 _symmetry_equiv_pos_as_xyz
  1  'x, y, z'
loop_
 _atom_site_type_symbol
 _atom_site_label
 _atom_site_symmetry_multiplicity
 _atom_site_fract_x
 _atom_site_fract_y
 _atom_site_fract_z
 _atom_site_occupancy
  Ca  Ca0  1  0.500162  0.500841  0.499444  1
  Tb  Tb1  1  0.893973  0.975824  0.686722  1
  Nd  Nd2  1  0.318559  0.107512  0.023065  1
  Nd  Nd3  1  0.022183  0.306803  0.101537  1
  Nd  Nd4  1  0.107745  0.023772  0.320830  1
  Nd  Nd5  1  0.681028  0.892364  0.977297  1
  Nd  Nd6  1  0.976883  0.691505  0.894695  1
  Rh  Rh7  1  0.999183  0.998829  0.998886  1
  Br  Br8  1  0.682391  0.221829  0.072814  1
  Br  Br9  1  0.071056  0.679433  0.218144  1
  Br  Br10  1  0.210054  0.069406  0.680266  1
  Br  Br11  1  0.317672  0.777928  0.926699  1
  Br  Br12  1  0.926864  0.310902  0.775089  1
  Br  Br13  1  0.782536  0.929419  0.325851  1
  Br  Br14  1  0.457335  0.163722  0.376717  1
  Br  Br15  1  0.376797  0.459298  0.165506  1
  Br  Br16  1  0.165868  0.378980  0.457293  1
  Br  Br17  1  0.551209  0.841473  0.623310  1
  Br  Br18  1  0.623024  0.540573  0.833391  1
  Br  Br19  1  0.835479  0.629586  0.542444  1
