# generated using pymatgen
data_Tb5Yb3(InIr)2
_symmetry_space_group_name_H-M   'P 1'
_cell_length_a   9.79690696
_cell_length_b   9.79690706
_cell_length_c   9.79690800
_cell_angle_alpha   59.99999684
_cell_angle_beta   59.99999647
_cell_angle_gamma   59.99999997
_symmetry_Int_Tables_number   1
_chemical_formula_structural   Tb5Yb3(InIr)2
_chemical_formula_sum   'Tb10 Yb6 In4 Ir4'
_cell_volume   664.89333803
_cell_formula_units_Z   2
loop_
 _symmetry_equiv_pos_site_id
 _symmetry_equiv_pos_as_xyz
  1  'x, y, z'
loop_
 _atom_site_type_symbol
 _atom_site_label
 _atom_site_symmetry_multiplicity
 _atom_site_fract_x
 _atom_site_fract_y
 _atom_site_fract_z
 _atom_site_occupancy
  Tb  Tb0  1  0.596826  0.596826  0.596826  1
  Tb  Tb1  1  0.596826  0.596826  0.209522  1
  Tb  Tb2  1  0.596826  0.209522  0.596826  1
  Tb  Tb3  1  0.209522  0.596826  0.596826  1
  Tb  Tb4  1  0.056826  0.443174  0.443174  1
  Tb  Tb5  1  0.443174  0.056826  0.056826  1
  Tb  Tb6  1  0.443174  0.056826  0.443174  1
  Tb  Tb7  1  0.056826  0.443174  0.056826  1
  Tb  Tb8  1  0.443174  0.443174  0.056826  1
  Tb  Tb9  1  0.056826  0.056826  0.443174  1
  Yb  Yb10  1  0.196087  0.803913  0.803913  1
  Yb  Yb11  1  0.803913  0.196087  0.196087  1
  Yb  Yb12  1  0.803913  0.196087  0.803913  1
  Yb  Yb13  1  0.196087  0.803913  0.196087  1
  Yb  Yb14  1  0.803913  0.803913  0.196087  1
  Yb  Yb15  1  0.196087  0.196087  0.803913  1
  In  In16  1  0.830973  0.830973  0.830973  1
  In  In17  1  0.830973  0.830973  0.507082  1
  In  In18  1  0.830973  0.507082  0.830973  1
  In  In19  1  0.507082  0.830973  0.830973  1
  Ir  Ir20  1  0.389308  0.389308  0.389308  1
  Ir  Ir21  1  0.389308  0.389308  0.832078  1
  Ir  Ir22  1  0.389308  0.832078  0.389308  1
  Ir  Ir23  1  0.832078  0.389308  0.389308  1
