# generated using pymatgen
data_Y2AlRuPt
_symmetry_space_group_name_H-M   'P 1'
_cell_length_a   5.59998479
_cell_length_b   5.59998405
_cell_length_c   5.59998378
_cell_angle_alpha   136.75555631
_cell_angle_beta   117.01795732
_cell_angle_gamma   79.47253336
_symmetry_Int_Tables_number   1
_chemical_formula_structural   Y2AlRuPt
_chemical_formula_sum   'Y2 Al1 Ru1 Pt1'
_cell_volume   103.97716014
_cell_formula_units_Z   1
loop_
 _symmetry_equiv_pos_site_id
 _symmetry_equiv_pos_as_xyz
  1  'x, y, z'
loop_
 _atom_site_type_symbol
 _atom_site_label
 _atom_site_symmetry_multiplicity
 _atom_site_fract_x
 _atom_site_fract_y
 _atom_site_fract_z
 _atom_site_occupancy
  Y  Y0  1  0.693015  0.199748  0.493267  1
  Y  Y1  1  0.293520  0.800252  0.493267  1
  Al  Al2  1  0.013382  0.000000  0.013382  1
  Ru  Ru3  1  0.260292  0.500000  0.760292  1
  Pt  Pt4  1  0.739790  0.500000  0.239790  1
