# generated using pymatgen
data_Dy4Ga18CuRu5
_symmetry_space_group_name_H-M   'P 1'
_cell_length_a   7.52152162
_cell_length_b   7.52152157
_cell_length_c   9.64527247
_cell_angle_alpha   89.66447150
_cell_angle_beta   89.66447288
_cell_angle_gamma   119.23445690
_symmetry_Int_Tables_number   1
_chemical_formula_structural   Dy4Ga18CuRu5
_chemical_formula_sum   'Dy4 Ga18 Cu1 Ru5'
_cell_volume   476.13072538
_cell_formula_units_Z   1
loop_
 _symmetry_equiv_pos_site_id
 _symmetry_equiv_pos_as_xyz
  1  'x, y, z'
loop_
 _atom_site_type_symbol
 _atom_site_label
 _atom_site_symmetry_multiplicity
 _atom_site_fract_x
 _atom_site_fract_y
 _atom_site_fract_z
 _atom_site_occupancy
  Dy  Dy0  1  0.324894  0.000986  0.750645  1
  Dy  Dy1  1  0.675106  0.999014  0.249355  1
  Dy  Dy2  1  0.000986  0.324894  0.750645  1
  Dy  Dy3  1  0.999014  0.675106  0.249355  1
  Ga  Ga4  1  0.866746  0.866746  0.750483  1
  Ga  Ga5  1  0.133254  0.133254  0.249517  1
  Ga  Ga6  1  0.660292  0.660292  0.437676  1
  Ga  Ga7  1  0.337520  0.337520  0.938970  1
  Ga  Ga8  1  0.662480  0.662480  0.061030  1
  Ga  Ga9  1  0.339708  0.339708  0.562324  1
  Ga  Ga10  1  0.446855  0.662113  0.749546  1
  Ga  Ga11  1  0.553145  0.337887  0.250454  1
  Ga  Ga12  1  0.662113  0.446855  0.749546  1
  Ga  Ga13  1  0.337887  0.553145  0.250454  1
  Ga  Ga14  1  0.007343  0.337698  0.076701  1
  Ga  Ga15  1  0.994282  0.661223  0.577673  1
  Ga  Ga16  1  0.338777  0.005718  0.422327  1
  Ga  Ga17  1  0.662302  0.992657  0.923299  1
  Ga  Ga18  1  0.992657  0.662302  0.923299  1
  Ga  Ga19  1  0.005718  0.338777  0.422327  1
  Ga  Ga20  1  0.661223  0.994282  0.577673  1
  Ga  Ga21  1  0.337698  0.007343  0.076701  1
  Cu  Cu22  1  0.000000  0.000000  0.500000  1
  Ru  Ru23  1  0.000000  0.000000  0.000000  1
  Ru  Ru24  1  0.674317  0.325683  0.500000  1
  Ru  Ru25  1  0.324931  0.675069  0.000000  1
  Ru  Ru26  1  0.325683  0.674317  0.500000  1
  Ru  Ru27  1  0.675069  0.324931  0.000000  1
