# generated using pymatgen
data_Lu6Sc4Tl7InPt4
_symmetry_space_group_name_H-M   'P 1'
_cell_length_a   3.55298500
_cell_length_b   7.99464253
_cell_length_c   17.93519429
_cell_angle_alpha   89.95014195
_cell_angle_beta   90.00000000
_cell_angle_gamma   90.00000000
_symmetry_Int_Tables_number   1
_chemical_formula_structural   Lu6Sc4Tl7InPt4
_chemical_formula_sum   'Lu6 Sc4 Tl7 In1 Pt4'
_cell_volume   509.44622088
_cell_formula_units_Z   1
loop_
 _symmetry_equiv_pos_site_id
 _symmetry_equiv_pos_as_xyz
  1  'x, y, z'
loop_
 _atom_site_type_symbol
 _atom_site_label
 _atom_site_symmetry_multiplicity
 _atom_site_fract_x
 _atom_site_fract_y
 _atom_site_fract_z
 _atom_site_occupancy
  Lu  Lu0  1  0.000000  0.614181  0.085932  1
  Lu  Lu1  1  0.000000  0.244920  0.222034  1
  Lu  Lu2  1  0.000000  0.754663  0.779142  1
  Lu  Lu3  1  0.000000  0.253247  0.720707  1
  Lu  Lu4  1  0.000000  0.746086  0.280092  1
  Lu  Lu5  1  0.000000  0.502590  0.500259  1
  Sc  Sc6  1  0.000000  0.115218  0.412900  1
  Sc  Sc7  1  0.000000  0.885271  0.587337  1
  Sc  Sc8  1  0.000000  0.385698  0.911950  1
  Sc  Sc9  1  0.000000  0.998978  0.998618  1
  Tl  Tl10  1  0.500000  0.420593  0.355997  1
  Tl  Tl11  1  0.500000  0.581344  0.645538  1
  Tl  Tl12  1  0.500000  0.080653  0.856318  1
  Tl  Tl13  1  0.500000  0.926203  0.144221  1
  Tl  Tl14  1  0.500000  0.289484  0.058556  1
  Tl  Tl15  1  0.500000  0.706353  0.937531  1
  Tl  Tl16  1  0.500000  0.198701  0.559413  1
  In  In17  1  0.500000  0.803095  0.439214  1
  Pt  Pt18  1  0.500000  0.026716  0.307531  1
  Pt  Pt19  1  0.500000  0.970073  0.694726  1
  Pt  Pt20  1  0.500000  0.469152  0.805394  1
  Pt  Pt21  1  0.500000  0.526779  0.196590  1
