# generated using pymatgen
data_YbZn2CdAu2
_symmetry_space_group_name_H-M   'P 1'
_cell_length_a   4.24018500
_cell_length_b   7.07762500
_cell_length_c   8.04078600
_cell_angle_alpha   90.00000000
_cell_angle_beta   90.00000000
_cell_angle_gamma   90.00000000
_symmetry_Int_Tables_number   1
_chemical_formula_structural   YbZn2CdAu2
_chemical_formula_sum   'Yb2 Zn4 Cd2 Au4'
_cell_volume   241.30752066
_cell_formula_units_Z   2
loop_
 _symmetry_equiv_pos_site_id
 _symmetry_equiv_pos_as_xyz
  1  'x, y, z'
loop_
 _atom_site_type_symbol
 _atom_site_label
 _atom_site_symmetry_multiplicity
 _atom_site_fract_x
 _atom_site_fract_y
 _atom_site_fract_z
 _atom_site_occupancy
  Yb  Yb0  1  0.750000  0.979881  0.674508  1
  Yb  Yb1  1  0.250000  0.520119  0.174508  1
  Zn  Zn2  1  0.250000  0.644011  0.557913  1
  Zn  Zn3  1  0.250000  0.137137  0.941281  1
  Zn  Zn4  1  0.750000  0.362863  0.441281  1
  Zn  Zn5  1  0.750000  0.855989  0.057913  1
  Cd  Cd6  1  0.750000  0.464312  0.825740  1
  Cd  Cd7  1  0.250000  0.035688  0.325740  1
  Au  Au8  1  0.250000  0.763453  0.869190  1
  Au  Au9  1  0.250000  0.277437  0.631368  1
  Au  Au10  1  0.750000  0.736547  0.369190  1
  Au  Au11  1  0.750000  0.222563  0.131368  1
