# generated using pymatgen
data_ZrPaInCo2
_symmetry_space_group_name_H-M   'P 1'
_cell_length_a   7.46243300
_cell_length_b   7.19674100
_cell_length_c   3.42464600
_cell_angle_alpha   90.00000000
_cell_angle_beta   90.00000000
_cell_angle_gamma   90.00000000
_symmetry_Int_Tables_number   1
_chemical_formula_structural   ZrPaInCo2
_chemical_formula_sum   'Zr2 Pa2 In2 Co4'
_cell_volume   183.92128990
_cell_formula_units_Z   2
loop_
 _symmetry_equiv_pos_site_id
 _symmetry_equiv_pos_as_xyz
  1  'x, y, z'
loop_
 _atom_site_type_symbol
 _atom_site_label
 _atom_site_symmetry_multiplicity
 _atom_site_fract_x
 _atom_site_fract_y
 _atom_site_fract_z
 _atom_site_occupancy
  Zr  Zr0  1  0.830968  0.668088  0.500000  1
  Zr  Zr1  1  0.330968  0.831912  0.500000  1
  Pa  Pa2  1  0.676310  0.159931  0.500000  1
  Pa  Pa3  1  0.176310  0.340069  0.500000  1
  In  In4  1  0.010323  0.981988  0.000000  1
  In  In5  1  0.510323  0.518012  0.000000  1
  Co  Co6  1  0.358991  0.149351  0.000000  1
  Co  Co7  1  0.123408  0.602734  0.000000  1
  Co  Co8  1  0.623408  0.897266  0.000000  1
  Co  Co9  1  0.858991  0.350649  0.000000  1
