# generated using pymatgen
data_Tb3ErAl18(OsRh2)2
_symmetry_space_group_name_H-M   'P 1'
_cell_length_a   7.51847462
_cell_length_b   7.52250926
_cell_length_c   9.49713800
_cell_angle_alpha   90.00000000
_cell_angle_beta   90.00000000
_cell_angle_gamma   118.32813570
_symmetry_Int_Tables_number   1
_chemical_formula_structural   Tb3ErAl18(OsRh2)2
_chemical_formula_sum   'Tb3 Er1 Al18 Os2 Rh4'
_cell_volume   472.81202001
_cell_formula_units_Z   1
loop_
 _symmetry_equiv_pos_site_id
 _symmetry_equiv_pos_as_xyz
  1  'x, y, z'
loop_
 _atom_site_type_symbol
 _atom_site_label
 _atom_site_symmetry_multiplicity
 _atom_site_fract_x
 _atom_site_fract_y
 _atom_site_fract_z
 _atom_site_occupancy
  Tb  Tb0  1  0.992576  0.680909  0.750000  1
  Tb  Tb1  1  0.007529  0.318362  0.250000  1
  Tb  Tb2  1  0.681098  0.992464  0.750000  1
  Er  Er3  1  0.317378  0.007584  0.250000  1
  Al  Al4  1  0.135820  0.135407  0.750000  1
  Al  Al5  1  0.864798  0.864684  0.250000  1
  Al  Al6  1  0.002927  0.338495  0.575112  1
  Al  Al7  1  0.997916  0.661588  0.423638  1
  Al  Al8  1  0.997916  0.661588  0.076362  1
  Al  Al9  1  0.338506  0.002665  0.925589  1
  Al  Al10  1  0.002927  0.338495  0.924888  1
  Al  Al11  1  0.660886  0.997646  0.076462  1
  Al  Al12  1  0.660886  0.997646  0.423538  1
  Al  Al13  1  0.338506  0.002665  0.574411  1
  Al  Al14  1  0.331586  0.331350  0.044033  1
  Al  Al15  1  0.669096  0.669069  0.957787  1
  Al  Al16  1  0.669096  0.669069  0.542213  1
  Al  Al17  1  0.331586  0.331350  0.455967  1
  Al  Al18  1  0.342092  0.554617  0.750000  1
  Al  Al19  1  0.657144  0.443870  0.250000  1
  Al  Al20  1  0.554588  0.341534  0.750000  1
  Al  Al21  1  0.444024  0.658689  0.250000  1
  Os  Os22  1  0.000780  0.000315  0.499250  1
  Os  Os23  1  0.000780  0.000315  0.000750  1
  Rh  Rh24  1  0.671418  0.328151  0.499768  1
  Rh  Rh25  1  0.328361  0.671661  0.499861  1
  Rh  Rh26  1  0.328361  0.671661  0.000139  1
  Rh  Rh27  1  0.671418  0.328151  0.000232  1
