# generated using pymatgen
data_Ti12ZnGa7(CuO)4
_symmetry_space_group_name_H-M   'P 1'
_cell_length_a   8.09781541
_cell_length_b   8.09472102
_cell_length_c   8.10094683
_cell_angle_alpha   59.92393649
_cell_angle_beta   59.95860840
_cell_angle_gamma   59.96988999
_symmetry_Int_Tables_number   1
_chemical_formula_structural   Ti12ZnGa7(CuO)4
_chemical_formula_sum   'Ti12 Zn1 Ga7 Cu4 O4'
_cell_volume   375.06421991
_cell_formula_units_Z   1
loop_
 _symmetry_equiv_pos_site_id
 _symmetry_equiv_pos_as_xyz
  1  'x, y, z'
loop_
 _atom_site_type_symbol
 _atom_site_label
 _atom_site_symmetry_multiplicity
 _atom_site_fract_x
 _atom_site_fract_y
 _atom_site_fract_z
 _atom_site_occupancy
  Ti  Ti0  1  0.932256  0.567725  0.567951  1
  Ti  Ti1  1  0.682165  0.318762  0.682100  1
  Ti  Ti2  1  0.932047  0.567836  0.931972  1
  Ti  Ti3  1  0.567679  0.932911  0.931633  1
  Ti  Ti4  1  0.318105  0.681024  0.317938  1
  Ti  Ti5  1  0.567787  0.932975  0.567740  1
  Ti  Ti6  1  0.683033  0.681200  0.317817  1
  Ti  Ti7  1  0.931639  0.932853  0.567633  1
  Ti  Ti8  1  0.317131  0.318839  0.681919  1
  Ti  Ti9  1  0.682021  0.318902  0.317013  1
  Ti  Ti10  1  0.568068  0.567822  0.932121  1
  Ti  Ti11  1  0.317970  0.681164  0.682909  1
  Zn  Zn12  1  0.334907  0.995133  0.334827  1
  Ga  Ga13  1  0.258430  0.913459  0.914307  1
  Ga  Ga14  1  0.336992  0.332868  0.336895  1
  Ga  Ga15  1  0.336819  0.332476  0.993535  1
  Ga  Ga16  1  0.913685  0.259374  0.913457  1
  Ga  Ga17  1  0.913866  0.913308  0.914074  1
  Ga  Ga18  1  0.993465  0.332660  0.336887  1
  Ga  Ga19  1  0.914171  0.913168  0.258457  1
  Cu  Cu20  1  0.125357  0.623444  0.125603  1
  Cu  Cu21  1  0.124525  0.124310  0.626752  1
  Cu  Cu22  1  0.626724  0.124536  0.124817  1
  Cu  Cu23  1  0.123437  0.125141  0.124561  1
  O  O24  1  0.624576  0.126618  0.624405  1
  O  O25  1  0.624225  0.627187  0.124556  1
  O  O26  1  0.124730  0.627169  0.624047  1
  O  O27  1  0.624188  0.627141  0.624073  1
