# generated using pymatgen
data_Tb2LuThNi4
_symmetry_space_group_name_H-M   'P 1'
_cell_length_a   4.31337600
_cell_length_b   5.37739024
_cell_length_c   13.79441151
_cell_angle_alpha   90.11409287
_cell_angle_beta   90.00000000
_cell_angle_gamma   90.00000000
_symmetry_Int_Tables_number   1
_chemical_formula_structural   Tb2LuThNi4
_chemical_formula_sum   'Tb4 Lu2 Th2 Ni8'
_cell_volume   319.95668523
_cell_formula_units_Z   2
loop_
 _symmetry_equiv_pos_site_id
 _symmetry_equiv_pos_as_xyz
  1  'x, y, z'
loop_
 _atom_site_type_symbol
 _atom_site_label
 _atom_site_symmetry_multiplicity
 _atom_site_fract_x
 _atom_site_fract_y
 _atom_site_fract_z
 _atom_site_occupancy
  Tb  Tb0  1  0.250000  0.975534  0.783097  1
  Tb  Tb1  1  0.250000  0.752952  0.538410  1
  Tb  Tb2  1  0.250000  0.740333  0.029681  1
  Tb  Tb3  1  0.750000  0.255399  0.964285  1
  Lu  Lu4  1  0.250000  0.528278  0.284616  1
  Lu  Lu5  1  0.750000  0.473089  0.716922  1
  Th  Th6  1  0.750000  0.025746  0.215753  1
  Th  Th7  1  0.750000  0.247298  0.467557  1
  Ni  Ni8  1  0.250000  0.030090  0.354063  1
  Ni  Ni9  1  0.750000  0.526119  0.151957  1
  Ni  Ni10  1  0.750000  0.744595  0.391203  1
  Ni  Ni11  1  0.250000  0.476752  0.849525  1
  Ni  Ni12  1  0.750000  0.975927  0.645265  1
  Ni  Ni13  1  0.750000  0.743378  0.888652  1
  Ni  Ni14  1  0.250000  0.250036  0.109326  1
  Ni  Ni15  1  0.250000  0.254474  0.609689  1
