# generated using pymatgen
data_Zr10AlGaBiPb5
_symmetry_space_group_name_H-M   'P 1'
_cell_length_a   8.87404158
_cell_length_b   8.87404217
_cell_length_c   5.96404403
_cell_angle_alpha   89.99415576
_cell_angle_beta   89.99415662
_cell_angle_gamma   119.83628933
_symmetry_Int_Tables_number   1
_chemical_formula_structural   Zr10AlGaBiPb5
_chemical_formula_sum   'Zr10 Al1 Ga1 Bi1 Pb5'
_cell_volume   407.40700026
_cell_formula_units_Z   1
loop_
 _symmetry_equiv_pos_site_id
 _symmetry_equiv_pos_as_xyz
  1  'x, y, z'
loop_
 _atom_site_type_symbol
 _atom_site_label
 _atom_site_symmetry_multiplicity
 _atom_site_fract_x
 _atom_site_fract_y
 _atom_site_fract_z
 _atom_site_occupancy
  Zr  Zr0  1  0.666813  0.333477  0.000282  1
  Zr  Zr1  1  0.333477  0.666813  0.000282  1
  Zr  Zr2  1  0.333403  0.666823  0.499705  1
  Zr  Zr3  1  0.666823  0.333403  0.499705  1
  Zr  Zr4  1  0.734258  0.734258  0.751006  1
  Zr  Zr5  1  0.265065  0.999062  0.750818  1
  Zr  Zr6  1  0.999062  0.265065  0.750818  1
  Zr  Zr7  1  0.265752  0.265752  0.249478  1
  Zr  Zr8  1  0.734799  0.999759  0.249031  1
  Zr  Zr9  1  0.999759  0.734799  0.249031  1
  Al  Al10  1  0.999532  0.999532  0.500283  1
  Ga  Ga11  1  0.999652  0.999652  0.999789  1
  Bi  Bi12  1  0.388713  0.388713  0.749205  1
  Pb  Pb13  1  0.612401  0.999838  0.749419  1
  Pb  Pb14  1  0.999838  0.612401  0.749419  1
  Pb  Pb15  1  0.612932  0.612932  0.250548  1
  Pb  Pb16  1  0.387762  0.999960  0.250590  1
  Pb  Pb17  1  0.999960  0.387762  0.250590  1
