# generated using pymatgen
data_Nd3SnGeRh2
_symmetry_space_group_name_H-M   'P 1'
_cell_length_a   5.77760800
_cell_length_b   8.38031000
_cell_length_c   13.68945200
_cell_angle_alpha   90.00000000
_cell_angle_beta   90.00000000
_cell_angle_gamma   90.00000000
_symmetry_Int_Tables_number   1
_chemical_formula_structural   Nd3SnGeRh2
_chemical_formula_sum   'Nd12 Sn4 Ge4 Rh8'
_cell_volume   662.81788694
_cell_formula_units_Z   4
loop_
 _symmetry_equiv_pos_site_id
 _symmetry_equiv_pos_as_xyz
  1  'x, y, z'
loop_
 _atom_site_type_symbol
 _atom_site_label
 _atom_site_symmetry_multiplicity
 _atom_site_fract_x
 _atom_site_fract_y
 _atom_site_fract_z
 _atom_site_occupancy
  Nd  Nd0  1  0.643724  0.249341  0.250000  1
  Nd  Nd1  1  0.356276  0.750659  0.750000  1
  Nd  Nd2  1  0.356276  0.749341  0.250000  1
  Nd  Nd3  1  0.643724  0.250659  0.750000  1
  Nd  Nd4  1  0.155574  0.394318  0.101501  1
  Nd  Nd5  1  0.844426  0.605682  0.898499  1
  Nd  Nd6  1  0.844426  0.605682  0.601501  1
  Nd  Nd7  1  0.844426  0.894318  0.398499  1
  Nd  Nd8  1  0.155574  0.394318  0.398499  1
  Nd  Nd9  1  0.155574  0.105682  0.601501  1
  Nd  Nd10  1  0.155574  0.105682  0.898499  1
  Nd  Nd11  1  0.844426  0.894318  0.101501  1
  Sn  Sn12  1  0.659088  0.250000  0.000000  1
  Sn  Sn13  1  0.340912  0.750000  0.000000  1
  Sn  Sn14  1  0.340912  0.750000  0.500000  1
  Sn  Sn15  1  0.659088  0.250000  0.500000  1
  Ge  Ge16  1  0.141881  0.104504  0.250000  1
  Ge  Ge17  1  0.858119  0.895496  0.750000  1
  Ge  Ge18  1  0.858119  0.604504  0.250000  1
  Ge  Ge19  1  0.141881  0.395496  0.750000  1
  Rh  Rh20  1  0.373549  0.038613  0.097165  1
  Rh  Rh21  1  0.626451  0.961387  0.902835  1
  Rh  Rh22  1  0.626451  0.961387  0.597165  1
  Rh  Rh23  1  0.626451  0.538613  0.402835  1
  Rh  Rh24  1  0.373549  0.038613  0.402835  1
  Rh  Rh25  1  0.373549  0.461387  0.597165  1
  Rh  Rh26  1  0.373549  0.461387  0.902835  1
  Rh  Rh27  1  0.626451  0.538613  0.097165  1
