# generated using pymatgen
data_Li8Sm8SnBiPb6
_symmetry_space_group_name_H-M   'P 1'
_cell_length_a   9.60570845
_cell_length_b   9.60570281
_cell_length_c   7.53571444
_cell_angle_alpha   89.93900242
_cell_angle_beta   90.06103059
_cell_angle_gamma   119.98356330
_symmetry_Int_Tables_number   1
_chemical_formula_structural   Li8Sm8SnBiPb6
_chemical_formula_sum   'Li8 Sm8 Sn1 Bi1 Pb6'
_cell_volume   602.26162288
_cell_formula_units_Z   1
loop_
 _symmetry_equiv_pos_site_id
 _symmetry_equiv_pos_as_xyz
  1  'x, y, z'
loop_
 _atom_site_type_symbol
 _atom_site_label
 _atom_site_symmetry_multiplicity
 _atom_site_fract_x
 _atom_site_fract_y
 _atom_site_fract_z
 _atom_site_occupancy
  Li  Li0  1  0.832847  0.167153  0.710516  1
  Li  Li1  1  0.832955  0.665745  0.709681  1
  Li  Li2  1  0.334254  0.167044  0.709682  1
  Li  Li3  1  0.167654  0.832346  0.210465  1
  Li  Li4  1  0.169252  0.336094  0.209762  1
  Li  Li5  1  0.663906  0.830747  0.209761  1
  Li  Li6  1  0.665913  0.334086  0.331632  1
  Li  Li7  1  0.333249  0.666751  0.832901  1
  Sm  Sm8  1  0.486198  0.513802  0.504819  1
  Sm  Sm9  1  0.483264  0.971265  0.507022  1
  Sm  Sm10  1  0.028736  0.516737  0.507021  1
  Sm  Sm11  1  0.511896  0.488103  0.005721  1
  Sm  Sm12  1  0.509248  0.022159  0.004404  1
  Sm  Sm13  1  0.977841  0.490753  0.004405  1
  Sm  Sm14  1  0.001546  0.998454  0.501295  1
  Sm  Sm15  1  0.001050  0.998950  0.997938  1
  Sn  Sn16  1  0.333212  0.666788  0.234535  1
  Bi  Bi17  1  0.833264  0.166737  0.270460  1
  Pb  Pb18  1  0.833489  0.666425  0.272032  1
  Pb  Pb19  1  0.333575  0.166511  0.272032  1
  Pb  Pb20  1  0.166755  0.833244  0.771247  1
  Pb  Pb21  1  0.166291  0.333338  0.771621  1
  Pb  Pb22  1  0.666662  0.833709  0.771621  1
  Pb  Pb23  1  0.666941  0.333059  0.737444  1
