# generated using pymatgen
data_SrCaPr2Al6O14
_symmetry_space_group_name_H-M   'P 1'
_cell_length_a   7.88566202
_cell_length_b   5.22196742
_cell_length_c   7.89158774
_cell_angle_alpha   89.94852685
_cell_angle_beta   89.32630274
_cell_angle_gamma   89.83273434
_symmetry_Int_Tables_number   1
_chemical_formula_structural   SrCaPr2Al6O14
_chemical_formula_sum   'Sr1 Ca1 Pr2 Al6 O14'
_cell_volume   324.94111840
_cell_formula_units_Z   1
loop_
 _symmetry_equiv_pos_site_id
 _symmetry_equiv_pos_as_xyz
  1  'x, y, z'
loop_
 _atom_site_type_symbol
 _atom_site_label
 _atom_site_symmetry_multiplicity
 _atom_site_fract_x
 _atom_site_fract_y
 _atom_site_fract_z
 _atom_site_occupancy
  Sr  Sr0  1  0.162180  0.512487  0.419518  1
  Ca  Ca1  1  0.660722  0.478489  0.576746  1
  Pr  Pr2  1  0.839267  0.506977  0.093576  1
  Pr  Pr3  1  0.344260  0.493618  0.907232  1
  Al  Al4  1  0.364323  0.963635  0.608919  1
  Al  Al5  1  0.850688  0.034804  0.393639  1
  Al  Al6  1  0.646487  0.957676  0.891275  1
  Al  Al7  1  0.141057  0.040525  0.103885  1
  Al  Al8  1  0.498640  0.002107  0.242764  1
  Al  Al9  1  0.000591  0.004609  0.755408  1
  O  O10  1  0.368107  0.297633  0.626353  1
  O  O11  1  0.846604  0.700386  0.380723  1
  O  O12  1  0.639669  0.292423  0.902678  1
  O  O13  1  0.137929  0.705888  0.098241  1
  O  O14  1  0.000659  0.174991  0.253476  1
  O  O15  1  0.515451  0.811647  0.740156  1
  O  O16  1  0.403844  0.827227  0.408379  1
  O  O17  1  0.898722  0.176430  0.591540  1
  O  O18  1  0.579236  0.793745  0.081250  1
  O  O19  1  0.079851  0.212050  0.916042  1
  O  O20  1  0.338990  0.189632  0.144440  1
  O  O21  1  0.846761  0.811139  0.858640  1
  O  O22  1  0.663355  0.197111  0.324376  1
  O  O23  1  0.172607  0.814773  0.680745  1
