# generated using pymatgen
data_VGaS2(O4F)2
_symmetry_space_group_name_H-M   'P 1'
_cell_length_a   5.25986738
_cell_length_b   5.13192449
_cell_length_c   7.47695309
_cell_angle_alpha   68.25945948
_cell_angle_beta   67.83741387
_cell_angle_gamma   84.99414898
_symmetry_Int_Tables_number   1
_chemical_formula_structural   VGaS2(O4F)2
_chemical_formula_sum   'V1 Ga1 S2 O8 F2'
_cell_volume   173.29716433
_cell_formula_units_Z   1
loop_
 _symmetry_equiv_pos_site_id
 _symmetry_equiv_pos_as_xyz
  1  'x, y, z'
loop_
 _atom_site_type_symbol
 _atom_site_label
 _atom_site_symmetry_multiplicity
 _atom_site_fract_x
 _atom_site_fract_y
 _atom_site_fract_z
 _atom_site_occupancy
  V  V0  1  0.000007  0.000034  0.999981  1
  Ga  Ga1  1  0.000007  0.499997  0.499981  1
  S  S2  1  0.358029  0.076626  0.261270  1
  S  S3  1  0.641970  0.923363  0.738736  1
  O  O4  1  0.224462  0.172716  0.106967  1
  O  O5  1  0.658082  0.155558  0.155315  1
  O  O6  1  0.323310  0.765015  0.371517  1
  O  O7  1  0.246683  0.214815  0.414725  1
  O  O8  1  0.753277  0.785123  0.585316  1
  O  O9  1  0.676708  0.234964  0.628453  1
  O  O10  1  0.341914  0.844453  0.844708  1
  O  O11  1  0.775543  0.827310  0.893037  1
  F  F12  1  0.933603  0.647153  0.245268  1
  F  F13  1  0.066403  0.352873  0.754726  1
