# generated using pymatgen
data_Ho10In8PtRh3
_symmetry_space_group_name_H-M   'P 1'
_cell_length_a   3.61485000
_cell_length_b   8.06065778
_cell_length_c   18.24817869
_cell_angle_alpha   90.04988431
_cell_angle_beta   90.00000000
_cell_angle_gamma   90.00000000
_symmetry_Int_Tables_number   1
_chemical_formula_structural   Ho10In8PtRh3
_chemical_formula_sum   'Ho10 In8 Pt1 Rh3'
_cell_volume   531.71648426
_cell_formula_units_Z   1
loop_
 _symmetry_equiv_pos_site_id
 _symmetry_equiv_pos_as_xyz
  1  'x, y, z'
loop_
 _atom_site_type_symbol
 _atom_site_label
 _atom_site_symmetry_multiplicity
 _atom_site_fract_x
 _atom_site_fract_y
 _atom_site_fract_z
 _atom_site_occupancy
  Ho  Ho0  1  0.000000  0.115234  0.411868  1
  Ho  Ho1  1  0.000000  0.884156  0.588717  1
  Ho  Ho2  1  0.000000  0.384404  0.911280  1
  Ho  Ho3  1  0.000000  0.617543  0.085888  1
  Ho  Ho4  1  0.000000  0.239107  0.221266  1
  Ho  Ho5  1  0.000000  0.755358  0.779236  1
  Ho  Ho6  1  0.000000  0.255014  0.720865  1
  Ho  Ho7  1  0.000000  0.748987  0.280219  1
  Ho  Ho8  1  0.000000  0.000302  0.000014  1
  Ho  Ho9  1  0.000000  0.500221  0.499870  1
  In  In10  1  0.500000  0.423498  0.351088  1
  In  In11  1  0.500000  0.574586  0.649939  1
  In  In12  1  0.500000  0.074700  0.850022  1
  In  In13  1  0.500000  0.925976  0.149942  1
  In  In14  1  0.500000  0.291992  0.066428  1
  In  In15  1  0.500000  0.706884  0.932478  1
  In  In16  1  0.500000  0.206811  0.567431  1
  In  In17  1  0.500000  0.793358  0.432501  1
  Pt  Pt18  1  0.500000  0.524140  0.196585  1
  Rh  Rh19  1  0.500000  0.023319  0.304374  1
  Rh  Rh20  1  0.500000  0.977392  0.695365  1
  Rh  Rh21  1  0.500000  0.477020  0.804622  1
