# generated using pymatgen
data_Y3Tm5Cd2NiIr
_symmetry_space_group_name_H-M   'P 1'
_cell_length_a   9.51612192
_cell_length_b   9.51612166
_cell_length_c   9.55673600
_cell_angle_alpha   59.85872357
_cell_angle_beta   59.85872448
_cell_angle_gamma   59.59289465
_symmetry_Int_Tables_number   1
_chemical_formula_structural   Y3Tm5Cd2NiIr
_chemical_formula_sum   'Y6 Tm10 Cd4 Ni2 Ir2'
_cell_volume   608.74518966
_cell_formula_units_Z   2
loop_
 _symmetry_equiv_pos_site_id
 _symmetry_equiv_pos_as_xyz
  1  'x, y, z'
loop_
 _atom_site_type_symbol
 _atom_site_label
 _atom_site_symmetry_multiplicity
 _atom_site_fract_x
 _atom_site_fract_y
 _atom_site_fract_z
 _atom_site_occupancy
  Y  Y0  1  0.188915  0.809670  0.814263  1
  Y  Y1  1  0.809670  0.188915  0.187153  1
  Y  Y2  1  0.809670  0.188915  0.814263  1
  Y  Y3  1  0.188915  0.809670  0.187153  1
  Y  Y4  1  0.814229  0.814229  0.185771  1
  Y  Y5  1  0.190821  0.190821  0.809179  1
  Tm  Tm6  1  0.599816  0.599816  0.594004  1
  Tm  Tm7  1  0.599816  0.599816  0.206365  1
  Tm  Tm8  1  0.602641  0.203933  0.596713  1
  Tm  Tm9  1  0.203933  0.602641  0.596713  1
  Tm  Tm10  1  0.060028  0.436196  0.439770  1
  Tm  Tm11  1  0.436196  0.060028  0.064006  1
  Tm  Tm12  1  0.436196  0.060028  0.439770  1
  Tm  Tm13  1  0.060028  0.436196  0.064006  1
  Tm  Tm14  1  0.438217  0.438217  0.061783  1
  Tm  Tm15  1  0.062168  0.062168  0.437832  1
  Cd  Cd16  1  0.829373  0.829373  0.832310  1
  Cd  Cd17  1  0.829373  0.829373  0.508941  1
  Cd  Cd18  1  0.829776  0.507125  0.831549  1
  Cd  Cd19  1  0.507125  0.829776  0.831549  1
  Ni  Ni20  1  0.391905  0.825166  0.391465  1
  Ni  Ni21  1  0.825166  0.391905  0.391465  1
  Ir  Ir22  1  0.393012  0.393012  0.391524  1
  Ir  Ir23  1  0.393012  0.393012  0.822452  1
