# generated using pymatgen
data_Er3TmPt4F28
_symmetry_space_group_name_H-M   'P 1'
_cell_length_a   5.51392208
_cell_length_b   8.81335714
_cell_length_c   11.92635038
_cell_angle_alpha   62.58670972
_cell_angle_beta   90.01810578
_cell_angle_gamma   90.01437471
_symmetry_Int_Tables_number   1
_chemical_formula_structural   Er3TmPt4F28
_chemical_formula_sum   'Er3 Tm1 Pt4 F28'
_cell_volume   514.49358866
_cell_formula_units_Z   1
loop_
 _symmetry_equiv_pos_site_id
 _symmetry_equiv_pos_as_xyz
  1  'x, y, z'
loop_
 _atom_site_type_symbol
 _atom_site_label
 _atom_site_symmetry_multiplicity
 _atom_site_fract_x
 _atom_site_fract_y
 _atom_site_fract_z
 _atom_site_occupancy
  Er  Er0  1  0.261195  0.185355  0.735763  1
  Er  Er1  1  0.238850  0.185774  0.235720  1
  Er  Er2  1  0.738768  0.814284  0.264306  1
  Tm  Tm3  1  0.761268  0.814625  0.764107  1
  Pt  Pt4  1  0.759419  0.272480  0.956813  1
  Pt  Pt5  1  0.259478  0.727845  0.543308  1
  Pt  Pt6  1  0.240508  0.727848  0.042842  1
  Pt  Pt7  1  0.740616  0.272001  0.457049  1
  F  F8  1  0.437384  0.702654  0.914828  1
  F  F9  1  0.936883  0.297531  0.584986  1
  F  F10  1  0.563224  0.297595  0.084927  1
  F  F11  1  0.063335  0.702445  0.415236  1
  F  F12  1  0.437256  0.276416  0.543403  1
  F  F13  1  0.936879  0.723842  0.956007  1
  F  F14  1  0.562546  0.723503  0.456723  1
  F  F15  1  0.062780  0.276517  0.043342  1
  F  F16  1  0.776879  0.523741  0.857967  1
  F  F17  1  0.276973  0.476929  0.641875  1
  F  F18  1  0.222995  0.477010  0.141779  1
  F  F19  1  0.723028  0.522870  0.358210  1
  F  F20  1  0.753390  0.021815  0.050607  1
  F  F21  1  0.253394  0.978452  0.449318  1
  F  F22  1  0.246661  0.978478  0.949221  1
  F  F23  1  0.746618  0.021237  0.551134  1
  F  F24  1  0.964546  0.724513  0.637601  1
  F  F25  1  0.464762  0.275789  0.862697  1
  F  F26  1  0.035142  0.275782  0.362782  1
  F  F27  1  0.534978  0.724168  0.137201  1
  F  F28  1  0.050470  0.746249  0.176255  1
  F  F29  1  0.550467  0.253693  0.323671  1
  F  F30  1  0.949605  0.253745  0.823623  1
  F  F31  1  0.450636  0.746550  0.676562  1
  F  F32  1  0.416298  0.970366  0.232756  1
  F  F33  1  0.916312  0.029643  0.267240  1
  F  F34  1  0.584282  0.028508  0.767225  1
  F  F35  1  0.082177  0.969747  0.732914  1
