# generated using pymatgen
data_Tb2HoIn3HgIr2
_symmetry_space_group_name_H-M   'P 1'
_cell_length_a   7.81272246
_cell_length_b   7.81486995
_cell_length_c   3.88025700
_cell_angle_alpha   90.00000000
_cell_angle_beta   90.00000000
_cell_angle_gamma   120.03039189
_symmetry_Int_Tables_number   1
_chemical_formula_structural   Tb2HoIn3HgIr2
_chemical_formula_sum   'Tb2 Ho1 In3 Hg1 Ir2'
_cell_volume   205.10780688
_cell_formula_units_Z   1
loop_
 _symmetry_equiv_pos_site_id
 _symmetry_equiv_pos_as_xyz
  1  'x, y, z'
loop_
 _atom_site_type_symbol
 _atom_site_label
 _atom_site_symmetry_multiplicity
 _atom_site_fract_x
 _atom_site_fract_y
 _atom_site_fract_z
 _atom_site_occupancy
  Tb  Tb0  1  0.584943  0.614661  0.000000  1
  Tb  Tb1  1  0.385210  0.970304  0.000000  1
  Ho  Ho2  1  0.030553  0.415014  0.000000  1
  In  In3  1  0.001961  0.745015  0.500000  1
  In  In4  1  0.254456  0.256943  0.500000  1
  In  In5  1  0.743414  0.998238  0.500000  1
  Hg  Hg6  1  0.667181  0.333440  0.500000  1
  Ir  Ir7  1  0.000006  0.000517  0.000000  1
  Ir  Ir8  1  0.332276  0.665868  0.500000  1
