# generated using pymatgen
data_TmZrNi4As3
_symmetry_space_group_name_H-M   'P 1'
_cell_length_a   12.70804900
_cell_length_b   12.72464431
_cell_length_c   3.87469100
_cell_angle_alpha   90.00000000
_cell_angle_beta   90.00000000
_cell_angle_gamma   119.95686464
_symmetry_Int_Tables_number   1
_chemical_formula_structural   TmZrNi4As3
_chemical_formula_sum   'Tm4 Zr4 Ni16 As12'
_cell_volume   542.85125261
_cell_formula_units_Z   4
loop_
 _symmetry_equiv_pos_site_id
 _symmetry_equiv_pos_as_xyz
  1  'x, y, z'
loop_
 _atom_site_type_symbol
 _atom_site_label
 _atom_site_symmetry_multiplicity
 _atom_site_fract_x
 _atom_site_fract_y
 _atom_site_fract_z
 _atom_site_occupancy
  Tm  Tm0  1  0.000153  0.180570  0.500000  1
  Tm  Tm1  1  0.819583  0.819430  0.500000  1
  Tm  Tm2  1  0.667983  0.334504  0.000000  1
  Tm  Tm3  1  0.333478  0.665496  0.000000  1
  Zr  Zr4  1  0.181070  0.000000  0.500000  1
  Zr  Zr5  1  0.000011  0.560776  0.000000  1
  Zr  Zr6  1  0.439234  0.439224  0.000000  1
  Zr  Zr7  1  0.559505  0.000000  0.000000  1
  Ni  Ni8  1  0.003004  0.726194  0.500000  1
  Ni  Ni9  1  0.276810  0.273806  0.500000  1
  Ni  Ni10  1  0.723239  0.000000  0.500000  1
  Ni  Ni11  1  0.806941  0.181526  0.000000  1
  Ni  Ni12  1  0.819609  0.627797  0.000000  1
  Ni  Ni13  1  0.373855  0.191577  0.000000  1
  Ni  Ni14  1  0.182279  0.808423  0.000000  1
  Ni  Ni15  1  0.625415  0.818474  0.000000  1
  Ni  Ni16  1  0.191813  0.372203  0.000000  1
  Ni  Ni17  1  0.877742  0.360424  0.500000  1
  Ni  Ni18  1  0.640555  0.519265  0.500000  1
  Ni  Ni19  1  0.479068  0.121024  0.500000  1
  Ni  Ni20  1  0.358044  0.878976  0.500000  1
  Ni  Ni21  1  0.517317  0.639576  0.500000  1
  Ni  Ni22  1  0.121290  0.480735  0.500000  1
  Ni  Ni23  1  0.001437  0.000000  0.000000  1
  As  As24  1  0.002594  0.824334  0.000000  1
  As  As25  1  0.178260  0.175666  0.000000  1
  As  As26  1  0.822920  0.000000  0.000000  1
  As  As27  1  0.690511  0.172492  0.500000  1
  As  As28  1  0.828382  0.521111  0.500000  1
  As  As29  1  0.482159  0.309047  0.500000  1
  As  As30  1  0.173112  0.690953  0.500000  1
  As  As31  1  0.518019  0.827508  0.500000  1
  As  As32  1  0.307270  0.478889  0.500000  1
  As  As33  1  0.999754  0.352598  0.000000  1
  As  As34  1  0.647156  0.647402  0.000000  1
  As  As35  1  0.350429  0.000000  0.000000  1
