# generated using pymatgen
data_Ho16Cd3InRu4
_symmetry_space_group_name_H-M   'P 1'
_cell_length_a   9.58762929
_cell_length_b   9.62124817
_cell_length_c   9.62124600
_cell_angle_alpha   60.00000058
_cell_angle_beta   59.88393906
_cell_angle_gamma   59.88394251
_symmetry_Int_Tables_number   1
_chemical_formula_structural   Ho16Cd3InRu4
_chemical_formula_sum   'Ho16 Cd3 In1 Ru4'
_cell_volume   626.46222368
_cell_formula_units_Z   1
loop_
 _symmetry_equiv_pos_site_id
 _symmetry_equiv_pos_as_xyz
  1  'x, y, z'
loop_
 _atom_site_type_symbol
 _atom_site_label
 _atom_site_symmetry_multiplicity
 _atom_site_fract_x
 _atom_site_fract_y
 _atom_site_fract_z
 _atom_site_occupancy
  Ho  Ho0  1  0.345867  0.347051  0.347051  1
  Ho  Ho1  1  0.345867  0.347051  0.960032  1
  Ho  Ho2  1  0.345867  0.960032  0.347051  1
  Ho  Ho3  1  0.960353  0.346549  0.346549  1
  Ho  Ho4  1  0.810677  0.189332  0.189332  1
  Ho  Ho5  1  0.189508  0.809656  0.809656  1
  Ho  Ho6  1  0.189508  0.809656  0.191182  1
  Ho  Ho7  1  0.810677  0.189332  0.810659  1
  Ho  Ho8  1  0.189508  0.191182  0.809656  1
  Ho  Ho9  1  0.810677  0.810659  0.189332  1
  Ho  Ho10  1  0.937593  0.561439  0.561439  1
  Ho  Ho11  1  0.560796  0.938917  0.938917  1
  Ho  Ho12  1  0.560796  0.938917  0.561370  1
  Ho  Ho13  1  0.937593  0.561439  0.939529  1
  Ho  Ho14  1  0.560796  0.561370  0.938917  1
  Ho  Ho15  1  0.937593  0.939529  0.561439  1
  Cd  Cd16  1  0.581829  0.580048  0.580048  1
  Cd  Cd17  1  0.581829  0.580048  0.258077  1
  Cd  Cd18  1  0.581829  0.258077  0.580048  1
  In  In19  1  0.260860  0.579714  0.579714  1
  Ru  Ru20  1  0.139692  0.139239  0.139239  1
  Ru  Ru21  1  0.139692  0.139239  0.581829  1
  Ru  Ru22  1  0.139692  0.581829  0.139239  1
  Ru  Ru23  1  0.580907  0.139697  0.139697  1
