# generated using pymatgen
data_Tb4SmHo5(In2Pd)4
_symmetry_space_group_name_H-M   'P 1'
_cell_length_a   3.63089600
_cell_length_b   8.18329611
_cell_length_c   18.33042846
_cell_angle_alpha   90.02006708
_cell_angle_beta   90.00000000
_cell_angle_gamma   90.00000000
_symmetry_Int_Tables_number   1
_chemical_formula_structural   Tb4SmHo5(In2Pd)4
_chemical_formula_sum   'Tb4 Sm1 Ho5 In8 Pd4'
_cell_volume   544.64643561
_cell_formula_units_Z   1
loop_
 _symmetry_equiv_pos_site_id
 _symmetry_equiv_pos_as_xyz
  1  'x, y, z'
loop_
 _atom_site_type_symbol
 _atom_site_label
 _atom_site_symmetry_multiplicity
 _atom_site_fract_x
 _atom_site_fract_y
 _atom_site_fract_z
 _atom_site_occupancy
  Tb  Tb0  1  0.000000  0.999760  0.000091  1
  Tb  Tb1  1  0.000000  0.739337  0.280869  1
  Tb  Tb2  1  0.000000  0.260681  0.719041  1
  Tb  Tb3  1  0.000000  0.761266  0.781548  1
  Sm  Sm4  1  0.000000  0.500175  0.499698  1
  Ho  Ho5  1  0.000000  0.238955  0.218747  1
  Ho  Ho6  1  0.000000  0.617260  0.083747  1
  Ho  Ho7  1  0.000000  0.382191  0.916831  1
  Ho  Ho8  1  0.000000  0.881281  0.583530  1
  Ho  Ho9  1  0.000000  0.118971  0.416007  1
  In  In10  1  0.500000  0.706699  0.932874  1
  In  In11  1  0.500000  0.292372  0.067892  1
  In  In12  1  0.500000  0.796191  0.432046  1
  In  In13  1  0.500000  0.204655  0.567551  1
  In  In14  1  0.500000  0.582125  0.651555  1
  In  In15  1  0.500000  0.417708  0.348126  1
  In  In16  1  0.500000  0.919447  0.150379  1
  In  In17  1  0.500000  0.081632  0.849910  1
  Pd  Pd18  1  0.500000  0.521560  0.195016  1
  Pd  Pd19  1  0.500000  0.475984  0.805265  1
  Pd  Pd20  1  0.500000  0.976005  0.695236  1
  Pd  Pd21  1  0.500000  0.025743  0.304041  1
