# generated using pymatgen
data_Er4Ga20Pt11
_symmetry_space_group_name_H-M   'P 1'
_cell_length_a   4.21771514
_cell_length_b   10.89290974
_cell_length_c   13.76506323
_cell_angle_alpha   82.04000362
_cell_angle_beta   81.18737005
_cell_angle_gamma   78.83710209
_symmetry_Int_Tables_number   1
_chemical_formula_structural   Er4Ga20Pt11
_chemical_formula_sum   'Er4 Ga20 Pt11'
_cell_volume   609.24697406
_cell_formula_units_Z   1
loop_
 _symmetry_equiv_pos_site_id
 _symmetry_equiv_pos_as_xyz
  1  'x, y, z'
loop_
 _atom_site_type_symbol
 _atom_site_label
 _atom_site_symmetry_multiplicity
 _atom_site_fract_x
 _atom_site_fract_y
 _atom_site_fract_z
 _atom_site_occupancy
  Er  Er0  1  0.122364  0.089680  0.665593  1
  Er  Er1  1  0.877636  0.910320  0.334407  1
  Er  Er2  1  0.773417  0.630775  0.822390  1
  Er  Er3  1  0.226583  0.369225  0.177610  1
  Ga  Ga4  1  0.007496  0.073256  0.911752  1
  Ga  Ga5  1  0.992504  0.926744  0.088248  1
  Ga  Ga6  1  0.065045  0.674366  0.195543  1
  Ga  Ga7  1  0.934955  0.325634  0.804457  1
  Ga  Ga8  1  0.103493  0.339717  0.453297  1
  Ga  Ga9  1  0.896507  0.660283  0.546703  1
  Ga  Ga10  1  0.200814  0.605514  0.992857  1
  Ga  Ga11  1  0.799186  0.394486  0.007143  1
  Ga  Ga12  1  0.256054  0.784198  0.703694  1
  Ga  Ga13  1  0.743946  0.215802  0.296306  1
  Ga  Ga14  1  0.301314  0.901165  0.496207  1
  Ga  Ga15  1  0.698686  0.098835  0.503793  1
  Ga  Ga16  1  0.386006  0.528239  0.699750  1
  Ga  Ga17  1  0.613994  0.471761  0.300250  1
  Ga  Ga18  1  0.397372  0.206359  0.998897  1
  Ga  Ga19  1  0.602628  0.793641  0.001103  1
  Ga  Ga20  1  0.544978  0.283686  0.626359  1
  Ga  Ga21  1  0.455022  0.716314  0.373641  1
  Ga  Ga22  1  0.635521  0.934144  0.794815  1
  Ga  Ga23  1  0.364479  0.065856  0.205185  1
  Pt  Pt24  1  0.500000  0.500000  0.500000  1
  Pt  Pt25  1  0.027208  0.574737  0.370846  1
  Pt  Pt26  1  0.972792  0.425263  0.629154  1
  Pt  Pt27  1  0.137342  0.834105  0.891211  1
  Pt  Pt28  1  0.862658  0.165895  0.108789  1
  Pt  Pt29  1  0.242508  0.125740  0.389243  1
  Pt  Pt30  1  0.757492  0.874260  0.610757  1
  Pt  Pt31  1  0.344003  0.422533  0.889461  1
  Pt  Pt32  1  0.655997  0.577467  0.110539  1
  Pt  Pt33  1  0.507530  0.170352  0.814590  1
  Pt  Pt34  1  0.492470  0.829648  0.185410  1
