# generated using pymatgen
data_LaNd3Ta4(Bi2O11)2
_symmetry_space_group_name_H-M   'P 1'
_cell_length_a   6.69695432
_cell_length_b   7.76334342
_cell_length_c   9.93736002
_cell_angle_alpha   101.21422771
_cell_angle_beta   90.69701206
_cell_angle_gamma   90.01946166
_symmetry_Int_Tables_number   1
_chemical_formula_structural   LaNd3Ta4(Bi2O11)2
_chemical_formula_sum   'La1 Nd3 Ta4 Bi4 O22'
_cell_volume   506.74696493
_cell_formula_units_Z   1
loop_
 _symmetry_equiv_pos_site_id
 _symmetry_equiv_pos_as_xyz
  1  'x, y, z'
loop_
 _atom_site_type_symbol
 _atom_site_label
 _atom_site_symmetry_multiplicity
 _atom_site_fract_x
 _atom_site_fract_y
 _atom_site_fract_z
 _atom_site_occupancy
  La  La0  1  0.749240  0.370913  0.485844  1
  Nd  Nd1  1  0.249862  0.631097  0.517673  1
  Nd  Nd2  1  0.758974  0.872737  0.487812  1
  Nd  Nd3  1  0.240767  0.126448  0.511738  1
  Ta  Ta4  1  0.915605  0.702301  0.808370  1
  Ta  Ta5  1  0.085073  0.298560  0.192718  1
  Ta  Ta6  1  0.916465  0.200600  0.810351  1
  Ta  Ta7  1  0.084103  0.799135  0.190772  1
  Bi  Bi8  1  0.431559  0.954159  0.815953  1
  Bi  Bi9  1  0.568552  0.045443  0.183654  1
  Bi  Bi10  1  0.394673  0.455044  0.827561  1
  Bi  Bi11  1  0.603731  0.545101  0.173073  1
  O  O12  1  0.217853  0.726529  0.763357  1
  O  O13  1  0.783222  0.272503  0.234811  1
  O  O14  1  0.634925  0.662245  0.838610  1
  O  O15  1  0.365731  0.337143  0.160225  1
  O  O16  1  0.635292  0.255433  0.842436  1
  O  O17  1  0.364716  0.744672  0.156482  1
  O  O18  1  0.895436  0.153128  0.596022  1
  O  O19  1  0.106354  0.843660  0.403760  1
  O  O20  1  0.216480  0.151930  0.761041  1
  O  O21  1  0.784292  0.848294  0.238883  1
  O  O22  1  0.900245  0.645526  0.596885  1
  O  O23  1  0.104860  0.357772  0.402553  1
  O  O24  1  0.024260  0.549820  0.196068  1
  O  O25  1  0.975027  0.449949  0.802914  1
  O  O26  1  0.998443  0.780835  0.999970  1
  O  O27  1  0.002694  0.219050  0.999599  1
  O  O28  1  0.569939  0.601088  0.389615  1
  O  O29  1  0.423505  0.401350  0.610925  1
  O  O30  1  0.158265  0.054397  0.216296  1
  O  O31  1  0.841109  0.945700  0.784461  1
  O  O32  1  0.545868  0.098455  0.398191  1
  O  O33  1  0.452883  0.898982  0.601377  1
