# generated using pymatgen
data_Er3TmBBr6
_symmetry_space_group_name_H-M   'P 1'
_cell_length_a   3.91465800
_cell_length_b   13.04191116
_cell_length_c   13.49848720
_cell_angle_alpha   90.04829657
_cell_angle_beta   90.00000000
_cell_angle_gamma   90.00000000
_symmetry_Int_Tables_number   1
_chemical_formula_structural   Er3TmBBr6
_chemical_formula_sum   'Er6 Tm2 B2 Br12'
_cell_volume   689.15991467
_cell_formula_units_Z   2
loop_
 _symmetry_equiv_pos_site_id
 _symmetry_equiv_pos_as_xyz
  1  'x, y, z'
loop_
 _atom_site_type_symbol
 _atom_site_label
 _atom_site_symmetry_multiplicity
 _atom_site_fract_x
 _atom_site_fract_y
 _atom_site_fract_z
 _atom_site_occupancy
  Er  Er0  1  0.000000  0.600999  0.419797  1
  Er  Er1  1  0.000000  0.399001  0.580203  1
  Er  Er2  1  0.500000  0.122172  0.856371  1
  Er  Er3  1  0.500000  0.877828  0.143629  1
  Er  Er4  1  0.500000  0.622132  0.643607  1
  Er  Er5  1  0.500000  0.377868  0.356393  1
  Tm  Tm6  1  0.000000  0.100194  0.079631  1
  Tm  Tm7  1  0.000000  0.899806  0.920369  1
  B  B8  1  0.500000  0.000000  0.000000  1
  B  B9  1  0.500000  0.500000  0.500000  1
  Br  Br10  1  0.500000  0.267882  0.682316  1
  Br  Br11  1  0.500000  0.732118  0.317684  1
  Br  Br12  1  0.500000  0.768946  0.818482  1
  Br  Br13  1  0.500000  0.231054  0.181518  1
  Br  Br14  1  0.000000  0.260717  0.931659  1
  Br  Br15  1  0.000000  0.739283  0.068341  1
  Br  Br16  1  0.000000  0.480514  0.239122  1
  Br  Br17  1  0.000000  0.519486  0.760878  1
  Br  Br18  1  0.000000  0.981084  0.260328  1
  Br  Br19  1  0.000000  0.018916  0.739672  1
  Br  Br20  1  0.000000  0.238849  0.430987  1
  Br  Br21  1  0.000000  0.761151  0.569013  1
