# generated using pymatgen
data_Sc6Zn16Pd7Se
_symmetry_space_group_name_H-M   'P 1'
_cell_length_a   8.83783148
_cell_length_b   8.83783090
_cell_length_c   8.83783100
_cell_angle_alpha   60.00000338
_cell_angle_beta   60.00000553
_cell_angle_gamma   60.00000370
_symmetry_Int_Tables_number   1
_chemical_formula_structural   Sc6Zn16Pd7Se
_chemical_formula_sum   'Sc6 Zn16 Pd7 Se1'
_cell_volume   488.11498426
_cell_formula_units_Z   1
loop_
 _symmetry_equiv_pos_site_id
 _symmetry_equiv_pos_as_xyz
  1  'x, y, z'
loop_
 _atom_site_type_symbol
 _atom_site_label
 _atom_site_symmetry_multiplicity
 _atom_site_fract_x
 _atom_site_fract_y
 _atom_site_fract_z
 _atom_site_occupancy
  Sc  Sc0  1  0.715825  0.284175  0.284175  1
  Sc  Sc1  1  0.284175  0.715825  0.715825  1
  Sc  Sc2  1  0.284175  0.715825  0.284175  1
  Sc  Sc3  1  0.715825  0.284175  0.715825  1
  Sc  Sc4  1  0.284175  0.284175  0.715825  1
  Sc  Sc5  1  0.715825  0.715825  0.284175  1
  Zn  Zn6  1  0.121741  0.121741  0.121741  1
  Zn  Zn7  1  0.878259  0.878259  0.878259  1
  Zn  Zn8  1  0.121741  0.121741  0.634779  1
  Zn  Zn9  1  0.121741  0.634779  0.121741  1
  Zn  Zn10  1  0.878259  0.878259  0.365221  1
  Zn  Zn11  1  0.878259  0.365221  0.878259  1
  Zn  Zn12  1  0.634779  0.121741  0.121741  1
  Zn  Zn13  1  0.365221  0.878259  0.878259  1
  Zn  Zn14  1  0.337184  0.337184  0.337184  1
  Zn  Zn15  1  0.662816  0.662816  0.662816  1
  Zn  Zn16  1  0.337184  0.337184  0.988450  1
  Zn  Zn17  1  0.337184  0.988450  0.337184  1
  Zn  Zn18  1  0.662816  0.662816  0.011550  1
  Zn  Zn19  1  0.662816  0.011550  0.662816  1
  Zn  Zn20  1  0.988450  0.337184  0.337184  1
  Zn  Zn21  1  0.011550  0.662816  0.662816  1
  Pd  Pd22  1  0.500000  0.000000  0.000000  1
  Pd  Pd23  1  0.000000  0.500000  0.500000  1
  Pd  Pd24  1  0.000000  0.500000  0.000000  1
  Pd  Pd25  1  0.500000  0.000000  0.500000  1
  Pd  Pd26  1  0.000000  0.000000  0.500000  1
  Pd  Pd27  1  0.500000  0.500000  0.000000  1
  Pd  Pd28  1  0.000000  0.000000  0.000000  1
  Se  Se29  1  0.500000  0.500000  0.500000  1
