# generated using pymatgen
data_Ca5Co19P12
_symmetry_space_group_name_H-M   'P 1'
_cell_length_a   12.01336300
_cell_length_b   12.01336365
_cell_length_c   3.66149900
_cell_angle_alpha   90.00000000
_cell_angle_beta   90.00000000
_cell_angle_gamma   120.00000098
_symmetry_Int_Tables_number   1
_chemical_formula_structural   Ca5Co19P12
_chemical_formula_sum   'Ca5 Co19 P12'
_cell_volume   457.63451402
_cell_formula_units_Z   1
loop_
 _symmetry_equiv_pos_site_id
 _symmetry_equiv_pos_as_xyz
  1  'x, y, z'
loop_
 _atom_site_type_symbol
 _atom_site_label
 _atom_site_symmetry_multiplicity
 _atom_site_fract_x
 _atom_site_fract_y
 _atom_site_fract_z
 _atom_site_occupancy
  Ca  Ca0  1  0.333333  0.666667  0.000000  1
  Ca  Ca1  1  0.666667  0.333333  0.000000  1
  Ca  Ca2  1  0.185178  0.000000  0.500000  1
  Ca  Ca3  1  0.000000  0.185178  0.500000  1
  Ca  Ca4  1  0.814822  0.814822  0.500000  1
  Co  Co5  1  0.199464  0.378441  0.000000  1
  Co  Co6  1  0.621559  0.821023  0.000000  1
  Co  Co7  1  0.178977  0.800536  0.000000  1
  Co  Co8  1  0.821023  0.621559  0.000000  1
  Co  Co9  1  0.800536  0.178977  0.000000  1
  Co  Co10  1  0.378441  0.199464  0.000000  1
  Co  Co11  1  0.553395  0.000000  0.000000  1
  Co  Co12  1  0.000000  0.553395  0.000000  1
  Co  Co13  1  0.446605  0.446605  0.000000  1
  Co  Co14  1  0.124605  0.482813  0.500000  1
  Co  Co15  1  0.517187  0.641793  0.500000  1
  Co  Co16  1  0.358207  0.875395  0.500000  1
  Co  Co17  1  0.641793  0.517187  0.500000  1
  Co  Co18  1  0.875395  0.358207  0.500000  1
  Co  Co19  1  0.482813  0.124605  0.500000  1
  Co  Co20  1  0.713784  0.000000  0.500000  1
  Co  Co21  1  0.000000  0.713784  0.500000  1
  Co  Co22  1  0.286216  0.286216  0.500000  1
  Co  Co23  1  0.000000  0.000000  0.000000  1
  P  P24  1  0.370128  0.000000  0.000000  1
  P  P25  1  0.000000  0.370128  0.000000  1
  P  P26  1  0.629872  0.629872  0.000000  1
  P  P27  1  0.314479  0.480019  0.500000  1
  P  P28  1  0.519981  0.834460  0.500000  1
  P  P29  1  0.165540  0.685521  0.500000  1
  P  P30  1  0.834460  0.519981  0.500000  1
  P  P31  1  0.685521  0.165540  0.500000  1
  P  P32  1  0.480019  0.314479  0.500000  1
  P  P33  1  0.817525  0.000000  0.000000  1
  P  P34  1  0.000000  0.817525  0.000000  1
  P  P35  1  0.182475  0.182475  0.000000  1
