# generated using pymatgen
data_NdSmPa8O20
_symmetry_space_group_name_H-M   'P 1'
_cell_length_a   6.70542428
_cell_length_b   7.74854707
_cell_length_c   8.66172577
_cell_angle_alpha   102.96309367
_cell_angle_beta   97.39578503
_cell_angle_gamma   106.73956298
_symmetry_Int_Tables_number   1
_chemical_formula_structural   NdSmPa8O20
_chemical_formula_sum   'Nd1 Sm1 Pa8 O20'
_cell_volume   410.87415032
_cell_formula_units_Z   1
loop_
 _symmetry_equiv_pos_site_id
 _symmetry_equiv_pos_as_xyz
  1  'x, y, z'
loop_
 _atom_site_type_symbol
 _atom_site_label
 _atom_site_symmetry_multiplicity
 _atom_site_fract_x
 _atom_site_fract_y
 _atom_site_fract_z
 _atom_site_occupancy
  Nd  Nd0  1  0.000196  0.500115  0.998729  1
  Sm  Sm1  1  0.799314  0.599875  0.600744  1
  Pa  Pa2  1  0.602802  0.202194  0.201141  1
  Pa  Pa3  1  0.799326  0.100799  0.600665  1
  Pa  Pa4  1  0.396987  0.798507  0.798994  1
  Pa  Pa5  1  0.600002  0.699232  0.200748  1
  Pa  Pa6  1  0.201109  0.401178  0.400287  1
  Pa  Pa7  1  0.402478  0.301285  0.800124  1
  Pa  Pa8  1  0.000214  0.998589  0.998855  1
  Pa  Pa9  1  0.197526  0.898028  0.399630  1
  O  O10  1  0.648330  0.925736  0.050923  1
  O  O11  1  0.438721  0.522346  0.649822  1
  O  O12  1  0.640545  0.422443  0.052688  1
  O  O13  1  0.738010  0.362492  0.744846  1
  O  O14  1  0.253257  0.124593  0.250485  1
  O  O15  1  0.445520  0.022919  0.648502  1
  O  O16  1  0.549383  0.976134  0.350457  1
  O  O17  1  0.058549  0.738165  0.851917  1
  O  O18  1  0.743687  0.881331  0.753694  1
  O  O19  1  0.362636  0.578002  0.948699  1
  O  O20  1  0.852853  0.318208  0.447010  1
  O  O21  1  0.258704  0.630092  0.257017  1
  O  O22  1  0.544938  0.471415  0.345359  1
  O  O23  1  0.151758  0.174309  0.549002  1
  O  O24  1  0.054403  0.215747  0.844367  1
  O  O25  1  0.947749  0.784098  0.154657  1
  O  O26  1  0.849861  0.831458  0.448216  1
  O  O27  1  0.353739  0.076585  0.951057  1
  O  O28  1  0.156583  0.676960  0.547859  1
  O  O29  1  0.950819  0.267167  0.153504  1
