# generated using pymatgen
data_Ba2LiReTcH17
_symmetry_space_group_name_H-M   'P 1'
_cell_length_a   5.16061920
_cell_length_b   5.16062081
_cell_length_c   9.79361824
_cell_angle_alpha   89.66683026
_cell_angle_beta   90.33317047
_cell_angle_gamma   119.46059212
_symmetry_Int_Tables_number   1
_chemical_formula_structural   Ba2LiReTcH17
_chemical_formula_sum   'Ba2 Li1 Re1 Tc1 H17'
_cell_volume   227.09246825
_cell_formula_units_Z   1
loop_
 _symmetry_equiv_pos_site_id
 _symmetry_equiv_pos_as_xyz
  1  'x, y, z'
loop_
 _atom_site_type_symbol
 _atom_site_label
 _atom_site_symmetry_multiplicity
 _atom_site_fract_x
 _atom_site_fract_y
 _atom_site_fract_z
 _atom_site_occupancy
  Ba  Ba0  1  0.991792  0.008208  0.990253  1
  Ba  Ba1  1  0.991455  0.008545  0.493060  1
  Li  Li2  1  0.657902  0.342098  0.246725  1
  Re  Re3  1  0.649580  0.350420  0.746487  1
  Tc  Tc4  1  0.318326  0.681674  0.254997  1
  H  H5  1  0.519541  0.480459  0.874959  1
  H  H6  1  0.439609  0.560391  0.389424  1
  H  H7  1  0.517670  0.482330  0.619109  1
  H  H8  1  0.494204  0.980154  0.364931  1
  H  H9  1  0.921013  0.486105  0.624682  1
  H  H10  1  0.476490  0.940395  0.126738  1
  H  H11  1  0.927898  0.485971  0.866843  1
  H  H12  1  0.513895  0.078987  0.624682  1
  H  H13  1  0.019846  0.505796  0.364931  1
  H  H14  1  0.514029  0.072102  0.866843  1
  H  H15  1  0.059605  0.523510  0.126738  1
  H  H16  1  0.666093  0.745007  0.220625  1
  H  H17  1  0.822806  0.723495  0.744655  1
  H  H18  1  0.276505  0.177194  0.744655  1
  H  H19  1  0.254993  0.333907  0.220625  1
  H  H20  1  0.130464  0.869536  0.244257  1
  H  H21  1  0.836285  0.163715  0.743778  1
