# generated using pymatgen
data_Li2MnZn3B6Ir11
_symmetry_space_group_name_H-M   'P 1'
_cell_length_a   2.89437800
_cell_length_b   8.52424100
_cell_length_c   11.50606500
_cell_angle_alpha   90.00000000
_cell_angle_beta   90.00000000
_cell_angle_gamma   90.00000000
_symmetry_Int_Tables_number   1
_chemical_formula_structural   Li2MnZn3B6Ir11
_chemical_formula_sum   'Li2 Mn1 Zn3 B6 Ir11'
_cell_volume   283.88195755
_cell_formula_units_Z   1
loop_
 _symmetry_equiv_pos_site_id
 _symmetry_equiv_pos_as_xyz
  1  'x, y, z'
loop_
 _atom_site_type_symbol
 _atom_site_label
 _atom_site_symmetry_multiplicity
 _atom_site_fract_x
 _atom_site_fract_y
 _atom_site_fract_z
 _atom_site_occupancy
  Li  Li0  1  0.500000  0.000945  0.197440  1
  Li  Li1  1  0.500000  0.000945  0.802560  1
  Mn  Mn2  1  0.500000  0.651038  0.500000  1
  Zn  Zn3  1  0.500000  0.000257  0.500000  1
  Zn  Zn4  1  0.500000  0.501392  0.000000  1
  Zn  Zn5  1  0.500000  0.348639  0.500000  1
  B  B6  1  0.500000  0.811161  0.000000  1
  B  B7  1  0.500000  0.190002  0.000000  1
  B  B8  1  0.500000  0.687599  0.269756  1
  B  B9  1  0.500000  0.309820  0.268623  1
  B  B10  1  0.500000  0.309820  0.731377  1
  B  B11  1  0.500000  0.687599  0.730244  1
  Ir  Ir12  1  0.000000  0.000668  0.000000  1
  Ir  Ir13  1  0.000000  0.500284  0.318095  1
  Ir  Ir14  1  0.000000  0.500284  0.681905  1
  Ir  Ir15  1  0.000000  0.713144  0.124025  1
  Ir  Ir16  1  0.000000  0.288966  0.123315  1
  Ir  Ir17  1  0.000000  0.288966  0.876685  1
  Ir  Ir18  1  0.000000  0.713144  0.875975  1
  Ir  Ir19  1  0.000000  0.828284  0.357964  1
  Ir  Ir20  1  0.000000  0.169380  0.355715  1
  Ir  Ir21  1  0.000000  0.169380  0.644285  1
  Ir  Ir22  1  0.000000  0.828284  0.642036  1
