# generated using pymatgen
data_Hf4MnCu2Si4Ni
_symmetry_space_group_name_H-M   'P 1'
_cell_length_a   3.80533400
_cell_length_b   6.48599607
_cell_length_c   7.35969199
_cell_angle_alpha   90.25832796
_cell_angle_beta   90.00000000
_cell_angle_gamma   90.00000000
_symmetry_Int_Tables_number   1
_chemical_formula_structural   Hf4MnCu2Si4Ni
_chemical_formula_sum   'Hf4 Mn1 Cu2 Si4 Ni1'
_cell_volume   181.64551863
_cell_formula_units_Z   1
loop_
 _symmetry_equiv_pos_site_id
 _symmetry_equiv_pos_as_xyz
  1  'x, y, z'
loop_
 _atom_site_type_symbol
 _atom_site_label
 _atom_site_symmetry_multiplicity
 _atom_site_fract_x
 _atom_site_fract_y
 _atom_site_fract_z
 _atom_site_occupancy
  Hf  Hf0  1  0.250000  0.520902  0.677184  1
  Hf  Hf1  1  0.750000  0.479629  0.321711  1
  Hf  Hf2  1  0.250000  0.014881  0.811368  1
  Hf  Hf3  1  0.750000  0.982517  0.187331  1
  Mn  Mn4  1  0.750000  0.859270  0.565013  1
  Cu  Cu5  1  0.750000  0.350615  0.934831  1
  Cu  Cu6  1  0.250000  0.650245  0.065980  1
  Si  Si7  1  0.250000  0.268621  0.121975  1
  Si  Si8  1  0.750000  0.730231  0.879061  1
  Si  Si9  1  0.250000  0.775414  0.387776  1
  Si  Si10  1  0.750000  0.224259  0.610501  1
  Ni  Ni11  1  0.250000  0.143417  0.437269  1
