# generated using pymatgen
data_HfTaTi3Tc2
_symmetry_space_group_name_H-M   'P 1'
_cell_length_a   7.07263592
_cell_length_b   7.07263450
_cell_length_c   7.07263418
_cell_angle_alpha   37.57728886
_cell_angle_beta   37.57728911
_cell_angle_gamma   37.57729202
_symmetry_Int_Tables_number   1
_chemical_formula_structural   HfTaTi3Tc2
_chemical_formula_sum   'Hf1 Ta1 Ti3 Tc2'
_cell_volume   118.01347494
_cell_formula_units_Z   1
loop_
 _symmetry_equiv_pos_site_id
 _symmetry_equiv_pos_as_xyz
  1  'x, y, z'
loop_
 _atom_site_type_symbol
 _atom_site_label
 _atom_site_symmetry_multiplicity
 _atom_site_fract_x
 _atom_site_fract_y
 _atom_site_fract_z
 _atom_site_occupancy
  Hf  Hf0  1  0.766465  0.766465  0.766465  1
  Ta  Ta1  1  0.194149  0.194149  0.194149  1
  Ti  Ti2  1  0.342293  0.342293  0.342293  1
  Ti  Ti3  1  0.612483  0.612483  0.612483  1
  Ti  Ti4  1  0.923086  0.923086  0.923086  1
  Tc  Tc5  1  0.051993  0.051993  0.051993  1
  Tc  Tc6  1  0.484530  0.484530  0.484530  1
