# generated using pymatgen
data_TmMn3CoP3W
_symmetry_space_group_name_H-M   'P 1'
_cell_length_a   3.63406100
_cell_length_b   10.60922700
_cell_length_c   12.24007700
_cell_angle_alpha   90.00000000
_cell_angle_beta   90.00000000
_cell_angle_gamma   90.00000000
_symmetry_Int_Tables_number   1
_chemical_formula_structural   TmMn3CoP3W
_chemical_formula_sum   'Tm4 Mn12 Co4 P12 W4'
_cell_volume   471.91100441
_cell_formula_units_Z   4
loop_
 _symmetry_equiv_pos_site_id
 _symmetry_equiv_pos_as_xyz
  1  'x, y, z'
loop_
 _atom_site_type_symbol
 _atom_site_label
 _atom_site_symmetry_multiplicity
 _atom_site_fract_x
 _atom_site_fract_y
 _atom_site_fract_z
 _atom_site_occupancy
  Tm  Tm0  1  0.250000  0.583712  0.708901  1
  Tm  Tm1  1  0.250000  0.916288  0.208901  1
  Tm  Tm2  1  0.750000  0.416288  0.291099  1
  Tm  Tm3  1  0.750000  0.083712  0.791099  1
  Mn  Mn4  1  0.250000  0.408318  0.492401  1
  Mn  Mn5  1  0.250000  0.091682  0.992401  1
  Mn  Mn6  1  0.750000  0.591682  0.507599  1
  Mn  Mn7  1  0.750000  0.908318  0.007599  1
  Mn  Mn8  1  0.250000  0.216156  0.179014  1
  Mn  Mn9  1  0.250000  0.283844  0.679014  1
  Mn  Mn10  1  0.750000  0.783844  0.820986  1
  Mn  Mn11  1  0.750000  0.716156  0.320986  1
  Mn  Mn12  1  0.250000  0.880449  0.696666  1
  Mn  Mn13  1  0.250000  0.619551  0.196666  1
  Mn  Mn14  1  0.750000  0.119551  0.303334  1
  Mn  Mn15  1  0.750000  0.380449  0.803334  1
  Co  Co16  1  0.250000  0.464231  0.935684  1
  Co  Co17  1  0.250000  0.035769  0.435684  1
  Co  Co18  1  0.750000  0.535769  0.064316  1
  Co  Co19  1  0.750000  0.964231  0.564316  1
  P  P20  1  0.250000  0.421494  0.115671  1
  P  P21  1  0.250000  0.078506  0.615671  1
  P  P22  1  0.750000  0.578506  0.884329  1
  P  P23  1  0.750000  0.921494  0.384329  1
  P  P24  1  0.250000  0.263984  0.868312  1
  P  P25  1  0.250000  0.236016  0.368312  1
  P  P26  1  0.750000  0.736016  0.131688  1
  P  P27  1  0.750000  0.763984  0.631688  1
  P  P28  1  0.250000  0.590550  0.384318  1
  P  P29  1  0.250000  0.909450  0.884318  1
  P  P30  1  0.750000  0.409450  0.615682  1
  P  P31  1  0.750000  0.090550  0.115682  1
  W  W32  1  0.250000  0.708913  0.985803  1
  W  W33  1  0.250000  0.791087  0.485803  1
  W  W34  1  0.750000  0.291087  0.014197  1
  W  W35  1  0.750000  0.208913  0.514197  1
