# generated using pymatgen
data_Zr4Al24FePt8
_symmetry_space_group_name_H-M   'P 1'
_cell_length_a   7.44189036
_cell_length_b   7.44309438
_cell_length_c   12.92571037
_cell_angle_alpha   84.48985195
_cell_angle_beta   78.88704483
_cell_angle_gamma   60.01247288
_symmetry_Int_Tables_number   1
_chemical_formula_structural   Zr4Al24FePt8
_chemical_formula_sum   'Zr4 Al24 Fe1 Pt8'
_cell_volume   608.49310423
_cell_formula_units_Z   1
loop_
 _symmetry_equiv_pos_site_id
 _symmetry_equiv_pos_as_xyz
  1  'x, y, z'
loop_
 _atom_site_type_symbol
 _atom_site_label
 _atom_site_symmetry_multiplicity
 _atom_site_fract_x
 _atom_site_fract_y
 _atom_site_fract_z
 _atom_site_occupancy
  Zr  Zr0  1  0.394235  0.165611  0.812035  1
  Zr  Zr1  1  0.605765  0.834389  0.187964  1
  Zr  Zr2  1  0.730109  0.498407  0.811755  1
  Zr  Zr3  1  0.269891  0.501593  0.188245  1
  Al  Al4  1  0.690715  0.823131  0.945641  1
  Al  Al5  1  0.309285  0.176869  0.054360  1
  Al  Al6  1  0.145408  0.832497  0.564351  1
  Al  Al7  1  0.854592  0.167503  0.435649  1
  Al  Al8  1  0.480515  0.166926  0.561786  1
  Al  Al9  1  0.519485  0.833073  0.438214  1
  Al  Al10  1  0.220515  0.165735  0.321805  1
  Al  Al11  1  0.779486  0.834265  0.678195  1
  Al  Al12  1  0.435482  0.505702  0.678078  1
  Al  Al13  1  0.564518  0.494298  0.321922  1
  Al  Al14  1  0.107708  0.162087  0.675750  1
  Al  Al15  1  0.892292  0.837913  0.324250  1
  Al  Al16  1  0.345557  0.495721  0.945637  1
  Al  Al17  1  0.654443  0.504279  0.054364  1
  Al  Al18  1  0.015757  0.182776  0.952805  1
  Al  Al19  1  0.984243  0.817224  0.047195  1
  Al  Al20  1  0.187656  0.499380  0.438898  1
  Al  Al21  1  0.812344  0.500620  0.561102  1
  Al  Al22  1  0.732082  0.163410  0.182038  1
  Al  Al23  1  0.267917  0.836590  0.817962  1
  Al  Al24  1  0.059084  0.616065  0.822911  1
  Al  Al25  1  0.940916  0.383936  0.177089  1
  Al  Al26  1  0.852660  0.044722  0.817354  1
  Al  Al27  1  0.147340  0.955277  0.182648  1
  Fe  Fe28  1  0.999998  0.500002  0.000001  1
  Pt  Pt29  1  0.119739  0.491451  0.640487  1
  Pt  Pt30  1  0.880261  0.508549  0.359513  1
  Pt  Pt31  1  0.656177  0.172111  0.999659  1
  Pt  Pt32  1  0.343823  0.827889  0.000341  1
  Pt  Pt33  1  0.536510  0.166243  0.360988  1
  Pt  Pt34  1  0.463490  0.833757  0.639012  1
  Pt  Pt35  1  0.777841  0.176843  0.637919  1
  Pt  Pt36  1  0.222160  0.823156  0.362081  1
