# generated using pymatgen
data_MgScB4Ru5
_symmetry_space_group_name_H-M   'P 1'
_cell_length_a   2.99184000
_cell_length_b   8.45823486
_cell_length_c   10.08885882
_cell_angle_alpha   90.95704748
_cell_angle_beta   90.00000000
_cell_angle_gamma   90.00000000
_symmetry_Int_Tables_number   1
_chemical_formula_structural   MgScB4Ru5
_chemical_formula_sum   'Mg2 Sc2 B8 Ru10'
_cell_volume   255.26987161
_cell_formula_units_Z   2
loop_
 _symmetry_equiv_pos_site_id
 _symmetry_equiv_pos_as_xyz
  1  'x, y, z'
loop_
 _atom_site_type_symbol
 _atom_site_label
 _atom_site_symmetry_multiplicity
 _atom_site_fract_x
 _atom_site_fract_y
 _atom_site_fract_z
 _atom_site_occupancy
  Mg  Mg0  1  0.500000  0.149110  0.682391  1
  Mg  Mg1  1  0.500000  0.850890  0.317609  1
  Sc  Sc2  1  0.500000  0.652695  0.815623  1
  Sc  Sc3  1  0.500000  0.347305  0.184377  1
  B  B4  1  0.500000  0.854448  0.600299  1
  B  B5  1  0.500000  0.145552  0.399701  1
  B  B6  1  0.500000  0.349309  0.896523  1
  B  B7  1  0.500000  0.650691  0.103477  1
  B  B8  1  0.500000  0.960286  0.910874  1
  B  B9  1  0.500000  0.039714  0.089126  1
  B  B10  1  0.500000  0.460917  0.588890  1
  B  B11  1  0.500000  0.539083  0.411110  1
  Ru  Ru12  1  0.000000  0.394505  0.737322  1
  Ru  Ru13  1  0.000000  0.605495  0.262678  1
  Ru  Ru14  1  0.000000  0.901161  0.761302  1
  Ru  Ru15  1  0.000000  0.098839  0.238698  1
  Ru  Ru16  1  0.000000  0.000000  0.500000  1
  Ru  Ru17  1  0.000000  0.500000  0.000000  1
  Ru  Ru18  1  0.000000  0.656125  0.550315  1
  Ru  Ru19  1  0.000000  0.343875  0.449685  1
  Ru  Ru20  1  0.000000  0.157968  0.955009  1
  Ru  Ru21  1  0.000000  0.842032  0.044991  1
