# generated using pymatgen
data_Tb5Dy5(Bi2Os)2
_symmetry_space_group_name_H-M   'P 1'
_cell_length_a   7.98594905
_cell_length_b   9.06792600
_cell_length_c   12.52499009
_cell_angle_alpha   90.00000000
_cell_angle_beta   89.98664885
_cell_angle_gamma   90.00000000
_symmetry_Int_Tables_number   1
_chemical_formula_structural   Tb5Dy5(Bi2Os)2
_chemical_formula_sum   'Tb10 Dy10 Bi8 Os4'
_cell_volume   907.00959554
_cell_formula_units_Z   2
loop_
 _symmetry_equiv_pos_site_id
 _symmetry_equiv_pos_as_xyz
  1  'x, y, z'
loop_
 _atom_site_type_symbol
 _atom_site_label
 _atom_site_symmetry_multiplicity
 _atom_site_fract_x
 _atom_site_fract_y
 _atom_site_fract_z
 _atom_site_occupancy
  Tb  Tb0  1  0.841394  0.750000  0.791946  1
  Tb  Tb1  1  0.158606  0.250000  0.208054  1
  Tb  Tb2  1  0.341425  0.250000  0.708134  1
  Tb  Tb3  1  0.658575  0.750000  0.291866  1
  Tb  Tb4  1  0.374585  0.750000  0.692349  1
  Tb  Tb5  1  0.625415  0.250000  0.307651  1
  Tb  Tb6  1  0.874598  0.250000  0.807665  1
  Tb  Tb7  1  0.125402  0.750000  0.192335  1
  Tb  Tb8  1  0.942962  0.750000  0.504573  1
  Tb  Tb9  1  0.057038  0.250000  0.495427  1
  Dy  Dy10  1  0.442874  0.250000  0.995425  1
  Dy  Dy11  1  0.557126  0.750000  0.004575  1
  Dy  Dy12  1  0.674679  0.041747  0.564064  1
  Dy  Dy13  1  0.325321  0.958253  0.435936  1
  Dy  Dy14  1  0.174735  0.958301  0.935940  1
  Dy  Dy15  1  0.325321  0.541747  0.435936  1
  Dy  Dy16  1  0.825265  0.041699  0.064060  1
  Dy  Dy17  1  0.674679  0.458253  0.564064  1
  Dy  Dy18  1  0.825265  0.458301  0.064060  1
  Dy  Dy19  1  0.174735  0.541699  0.935940  1
  Bi  Bi20  1  0.568105  0.493669  0.827873  1
  Bi  Bi21  1  0.431895  0.506331  0.172127  1
  Bi  Bi22  1  0.068155  0.506330  0.672242  1
  Bi  Bi23  1  0.431895  0.993669  0.172127  1
  Bi  Bi24  1  0.931845  0.493670  0.327758  1
  Bi  Bi25  1  0.568105  0.006331  0.827873  1
  Bi  Bi26  1  0.931845  0.006330  0.327758  1
  Bi  Bi27  1  0.068155  0.993670  0.672242  1
  Os  Os28  1  0.575369  0.750000  0.510637  1
  Os  Os29  1  0.424631  0.250000  0.489363  1
  Os  Os30  1  0.075482  0.250000  0.989376  1
  Os  Os31  1  0.924518  0.750000  0.010624  1
