# generated using pymatgen
data_CeBe12Ni
_symmetry_space_group_name_H-M   'P 1'
_cell_length_a   7.29482588
_cell_length_b   7.28596531
_cell_length_c   7.33659423
_cell_angle_alpha   119.88075440
_cell_angle_beta   90.17251668
_cell_angle_gamma   120.16194249
_symmetry_Int_Tables_number   1
_chemical_formula_structural   CeBe12Ni
_chemical_formula_sum   'Ce2 Be24 Ni2'
_cell_volume   275.12999700
_cell_formula_units_Z   2
loop_
 _symmetry_equiv_pos_site_id
 _symmetry_equiv_pos_as_xyz
  1  'x, y, z'
loop_
 _atom_site_type_symbol
 _atom_site_label
 _atom_site_symmetry_multiplicity
 _atom_site_fract_x
 _atom_site_fract_y
 _atom_site_fract_z
 _atom_site_occupancy
  Ce  Ce0  1  0.747366  0.501923  0.252231  1
  Ce  Ce1  1  0.252428  0.505911  0.756357  1
  Be  Be2  1  0.999711  0.997570  0.000495  1
  Be  Be3  1  0.058831  0.353437  0.060983  1
  Be  Be4  1  0.433689  0.649432  0.217315  1
  Be  Be5  1  0.565324  0.999584  0.215764  1
  Be  Be6  1  0.212520  0.776430  0.213545  1
  Be  Be7  1  0.066652  0.000715  0.289917  1
  Be  Be8  1  0.293789  0.357688  0.295841  1
  Be  Be9  1  0.936056  0.225558  0.291089  1
  Be  Be10  1  0.788251  0.999536  0.435796  1
  Be  Be11  1  0.436776  0.222411  0.434012  1
  Be  Be12  1  0.209979  0.646273  0.433514  1
  Be  Be13  1  0.499882  0.002119  0.503615  1
  Be  Be14  1  0.209184  0.999177  0.562937  1
  Be  Be15  1  0.562844  0.776138  0.564097  1
  Be  Be16  1  0.790900  0.353411  0.563990  1
  Be  Be17  1  0.708324  0.646412  0.706442  1
  Be  Be18  1  0.062185  0.771377  0.705669  1
  Be  Be19  1  0.938712  0.001595  0.708418  1
  Be  Be20  1  0.435757  0.999373  0.785761  1
  Be  Be21  1  0.788426  0.221766  0.785495  1
  Be  Be22  1  0.564676  0.351146  0.783848  1
  Be  Be23  1  0.938287  0.643345  0.934949  1
  Be  Be24  1  0.704812  0.000384  0.939512  1
  Be  Be25  1  0.293566  0.234969  0.938997  1
  Ni  Ni26  1  0.298602  0.002226  0.059874  1
  Ni  Ni27  1  0.702462  0.760083  0.059532  1
