# generated using pymatgen
data_Sm2Al19Co6
_symmetry_space_group_name_H-M   'P 1'
_cell_length_a   10.61423232
_cell_length_b   10.61423283
_cell_length_c   8.15856300
_cell_angle_alpha   78.53480491
_cell_angle_beta   78.53480435
_cell_angle_gamma   68.88765937
_symmetry_Int_Tables_number   1
_chemical_formula_structural   Sm2Al19Co6
_chemical_formula_sum   'Sm4 Al38 Co12'
_cell_volume   832.18188295
_cell_formula_units_Z   2
loop_
 _symmetry_equiv_pos_site_id
 _symmetry_equiv_pos_as_xyz
  1  'x, y, z'
loop_
 _atom_site_type_symbol
 _atom_site_label
 _atom_site_symmetry_multiplicity
 _atom_site_fract_x
 _atom_site_fract_y
 _atom_site_fract_z
 _atom_site_occupancy
  Sm  Sm0  1  0.279606  0.279606  0.744258  1
  Sm  Sm1  1  0.720394  0.720394  0.255742  1
  Sm  Sm2  1  0.280695  0.280695  0.227331  1
  Sm  Sm3  1  0.719305  0.719305  0.772669  1
  Al  Al4  1  0.199778  0.853205  0.637811  1
  Al  Al5  1  0.536339  0.187348  0.944282  1
  Al  Al6  1  0.329853  0.565843  0.154461  1
  Al  Al7  1  0.814982  0.481377  0.551447  1
  Al  Al8  1  0.001835  0.503241  0.761179  1
  Al  Al9  1  0.496759  0.998165  0.238821  1
  Al  Al10  1  0.167688  0.832312  0.000000  1
  Al  Al11  1  0.911494  0.911494  0.184368  1
  Al  Al12  1  0.088506  0.088506  0.815632  1
  Al  Al13  1  0.919064  0.919064  0.643420  1
  Al  Al14  1  0.565843  0.329853  0.154461  1
  Al  Al15  1  0.812652  0.463661  0.055718  1
  Al  Al16  1  0.080936  0.080936  0.356580  1
  Al  Al17  1  0.832312  0.167688  0.000000  1
  Al  Al18  1  0.434157  0.670147  0.845539  1
  Al  Al19  1  0.702185  0.934152  0.465844  1
  Al  Al20  1  0.065848  0.297815  0.534156  1
  Al  Al21  1  0.800222  0.146795  0.362189  1
  Al  Al22  1  0.275557  0.051156  0.048742  1
  Al  Al23  1  0.948844  0.724443  0.951258  1
  Al  Al24  1  0.187348  0.536339  0.944282  1
  Al  Al25  1  0.853205  0.199778  0.637811  1
  Al  Al26  1  0.297815  0.065848  0.534156  1
  Al  Al27  1  0.329179  0.562554  0.648414  1
  Al  Al28  1  0.051156  0.275557  0.048742  1
  Al  Al29  1  0.185018  0.518623  0.448553  1
  Al  Al30  1  0.934152  0.702185  0.465844  1
  Al  Al31  1  0.562554  0.329179  0.648414  1
  Al  Al32  1  0.670147  0.434157  0.845539  1
  Al  Al33  1  0.670821  0.437446  0.351586  1
  Al  Al34  1  0.724443  0.948844  0.951258  1
  Al  Al35  1  0.146795  0.800222  0.362189  1
  Al  Al36  1  0.463661  0.812652  0.055718  1
  Al  Al37  1  0.518623  0.185018  0.448553  1
  Al  Al38  1  0.481377  0.814982  0.551447  1
  Al  Al39  1  0.503241  0.001835  0.761179  1
  Al  Al40  1  0.437446  0.670821  0.351586  1
  Al  Al41  1  0.998165  0.496759  0.238821  1
  Co  Co42  1  0.320279  0.921104  0.811604  1
  Co  Co43  1  0.082855  0.686512  0.670011  1
  Co  Co44  1  0.562118  0.562118  0.093547  1
  Co  Co45  1  0.921104  0.320279  0.811604  1
  Co  Co46  1  0.313488  0.917145  0.329989  1
  Co  Co47  1  0.437882  0.437882  0.906453  1
  Co  Co48  1  0.438154  0.438154  0.405233  1
  Co  Co49  1  0.917145  0.313488  0.329989  1
  Co  Co50  1  0.679721  0.078896  0.188396  1
  Co  Co51  1  0.686512  0.082855  0.670011  1
  Co  Co52  1  0.561846  0.561846  0.594767  1
  Co  Co53  1  0.078896  0.679721  0.188396  1
