# generated using pymatgen
data_HoTm2In3Rh2Pb
_symmetry_space_group_name_H-M   'P 1'
_cell_length_a   7.84047360
_cell_length_b   7.82763409
_cell_length_c   3.86588600
_cell_angle_alpha   90.00000000
_cell_angle_beta   90.00000000
_cell_angle_gamma   119.98090681
_symmetry_Int_Tables_number   1
_chemical_formula_structural   HoTm2In3Rh2Pb
_chemical_formula_sum   'Ho1 Tm2 In3 Rh2 Pb1'
_cell_volume   205.51144465
_cell_formula_units_Z   1
loop_
 _symmetry_equiv_pos_site_id
 _symmetry_equiv_pos_as_xyz
  1  'x, y, z'
loop_
 _atom_site_type_symbol
 _atom_site_label
 _atom_site_symmetry_multiplicity
 _atom_site_fract_x
 _atom_site_fract_y
 _atom_site_fract_z
 _atom_site_occupancy
  Ho  Ho0  1  0.966150  0.385829  0.500000  1
  Tm  Tm1  1  0.615090  0.579923  0.500000  1
  Tm  Tm2  1  0.419858  0.035293  0.500000  1
  In  In3  1  0.257785  0.245068  0.000000  1
  In  In4  1  0.987390  0.742672  0.000000  1
  In  In5  1  0.754116  0.011248  0.000000  1
  Rh  Rh6  1  0.000006  0.999409  0.500000  1
  Rh  Rh7  1  0.665068  0.333021  0.000000  1
  Pb  Pb8  1  0.334537  0.667539  0.000000  1
