# generated using pymatgen
data_Li3Dy5ZnP11Ir16
_symmetry_space_group_name_H-M   'P 1'
_cell_length_a   12.76022372
_cell_length_b   12.74494553
_cell_length_c   3.97710800
_cell_angle_alpha   90.00000000
_cell_angle_beta   90.00000000
_cell_angle_gamma   119.96040187
_symmetry_Int_Tables_number   1
_chemical_formula_structural   Li3Dy5ZnP11Ir16
_chemical_formula_sum   'Li3 Dy5 Zn1 P11 Ir16'
_cell_volume   560.36040638
_cell_formula_units_Z   1
loop_
 _symmetry_equiv_pos_site_id
 _symmetry_equiv_pos_as_xyz
  1  'x, y, z'
loop_
 _atom_site_type_symbol
 _atom_site_label
 _atom_site_symmetry_multiplicity
 _atom_site_fract_x
 _atom_site_fract_y
 _atom_site_fract_z
 _atom_site_occupancy
  Li  Li0  1  0.000000  0.438873  0.500000  1
  Li  Li1  1  0.553152  0.561154  0.500000  1
  Li  Li2  1  0.446848  0.008002  0.500000  1
  Dy  Dy3  1  0.331467  0.665196  0.500000  1
  Dy  Dy4  1  0.668533  0.333728  0.500000  1
  Dy  Dy5  1  0.000000  0.811025  0.000000  1
  Dy  Dy6  1  0.190890  0.190300  0.000000  1
  Dy  Dy7  1  0.809110  0.999410  0.000000  1
  Zn  Zn8  1  0.000000  0.628331  0.500000  1
  P  P9  1  0.369068  0.369989  0.500000  1
  P  P10  1  0.630932  0.000922  0.500000  1
  P  P11  1  0.514303  0.688082  0.000000  1
  P  P12  1  0.313037  0.828750  0.000000  1
  P  P13  1  0.170013  0.481684  0.000000  1
  P  P14  1  0.485697  0.173778  0.000000  1
  P  P15  1  0.686963  0.515714  0.000000  1
  P  P16  1  0.829987  0.311671  0.000000  1
  P  P17  1  0.000000  0.175922  0.500000  1
  P  P18  1  0.816852  0.818438  0.500000  1
  P  P19  1  0.183148  0.001586  0.500000  1
  Ir  Ir20  1  0.510401  0.870375  0.000000  1
  Ir  Ir21  1  0.135705  0.640960  0.000000  1
  Ir  Ir22  1  0.358329  0.488683  0.000000  1
  Ir  Ir23  1  0.489599  0.359973  0.000000  1
  Ir  Ir24  1  0.864295  0.505253  0.000000  1
  Ir  Ir25  1  0.641671  0.130353  0.000000  1
  Ir  Ir26  1  0.000000  0.275972  0.000000  1
  Ir  Ir27  1  0.717840  0.722905  0.000000  1
  Ir  Ir28  1  0.282160  0.005065  0.000000  1
  Ir  Ir29  1  0.624523  0.807869  0.500000  1
  Ir  Ir30  1  0.210648  0.829604  0.500000  1
  Ir  Ir31  1  0.178469  0.370876  0.500000  1
  Ir  Ir32  1  0.375477  0.183345  0.500000  1
  Ir  Ir33  1  0.789352  0.618956  0.500000  1
  Ir  Ir34  1  0.821531  0.192407  0.500000  1
  Ir  Ir35  1  0.000000  0.994848  0.500000  1
