# generated using pymatgen
data_Dy5Er5GaSb5
_symmetry_space_group_name_H-M   'P 1'
_cell_length_a   6.35342900
_cell_length_b   8.88073537
_cell_length_c   8.87586393
_cell_angle_alpha   120.01816861
_cell_angle_beta   90.00123207
_cell_angle_gamma   89.99753309
_symmetry_Int_Tables_number   1
_chemical_formula_structural   Dy5Er5GaSb5
_chemical_formula_sum   'Dy5 Er5 Ga1 Sb5'
_cell_volume   433.62951812
_cell_formula_units_Z   1
loop_
 _symmetry_equiv_pos_site_id
 _symmetry_equiv_pos_as_xyz
  1  'x, y, z'
loop_
 _atom_site_type_symbol
 _atom_site_label
 _atom_site_symmetry_multiplicity
 _atom_site_fract_x
 _atom_site_fract_y
 _atom_site_fract_z
 _atom_site_occupancy
  Dy  Dy0  1  0.750005  0.249976  0.000000  1
  Dy  Dy1  1  0.750012  0.752603  0.763688  1
  Dy  Dy2  1  0.750012  0.988916  0.236312  1
  Dy  Dy3  1  0.249997  0.244937  0.244369  1
  Dy  Dy4  1  0.249997  0.000568  0.755631  1
  Er  Er5  1  0.501272  0.340457  0.675271  1
  Er  Er6  1  0.501272  0.665185  0.324729  1
  Er  Er7  1  0.998711  0.665196  0.324770  1
  Er  Er8  1  0.998711  0.340427  0.675230  1
  Er  Er9  1  0.250001  0.755027  0.000000  1
  Ga  Ga10  1  0.750002  0.606218  0.000000  1
  Sb  Sb11  1  0.750008  0.388283  0.390418  1
  Sb  Sb12  1  0.750008  0.997865  0.609582  1
  Sb  Sb13  1  0.250010  0.391564  0.000000  1
  Sb  Sb14  1  0.249993  0.610388  0.607999  1
  Sb  Sb15  1  0.249993  0.002390  0.392001  1
