# generated using pymatgen
data_La2GaNi8Ge
_symmetry_space_group_name_H-M   'P 1'
_cell_length_a   4.97794415
_cell_length_b   4.97794349
_cell_length_c   8.10232300
_cell_angle_alpha   90.00000000
_cell_angle_beta   90.00000000
_cell_angle_gamma   117.41605223
_symmetry_Int_Tables_number   1
_chemical_formula_structural   La2GaNi8Ge
_chemical_formula_sum   'La2 Ga1 Ni8 Ge1'
_cell_volume   178.22519940
_cell_formula_units_Z   1
loop_
 _symmetry_equiv_pos_site_id
 _symmetry_equiv_pos_as_xyz
  1  'x, y, z'
loop_
 _atom_site_type_symbol
 _atom_site_label
 _atom_site_symmetry_multiplicity
 _atom_site_fract_x
 _atom_site_fract_y
 _atom_site_fract_z
 _atom_site_occupancy
  La  La0  1  0.000000  0.000000  0.749153  1
  La  La1  1  0.000000  0.000000  0.250847  1
  Ga  Ga2  1  0.500000  0.500000  0.000000  1
  Ni  Ni3  1  0.667120  0.332880  0.750467  1
  Ni  Ni4  1  0.667120  0.332880  0.249533  1
  Ni  Ni5  1  0.332880  0.667120  0.750467  1
  Ni  Ni6  1  0.500000  0.000000  0.500000  1
  Ni  Ni7  1  0.000000  0.500000  0.000000  1
  Ni  Ni8  1  0.500000  0.000000  0.000000  1
  Ni  Ni9  1  0.332880  0.667120  0.249533  1
  Ni  Ni10  1  0.000000  0.500000  0.500000  1
  Ge  Ge11  1  0.500000  0.500000  0.500000  1
