# generated using pymatgen
data_Pr4AgPd4Pb
_symmetry_space_group_name_H-M   'P 1'
_cell_length_a   7.89294200
_cell_length_b   7.89294200
_cell_length_c   3.94066400
_cell_angle_alpha   90.00000000
_cell_angle_beta   90.00000000
_cell_angle_gamma   90.00000000
_symmetry_Int_Tables_number   1
_chemical_formula_structural   Pr4AgPd4Pb
_chemical_formula_sum   'Pr4 Ag1 Pd4 Pb1'
_cell_volume   245.49758788
_cell_formula_units_Z   1
loop_
 _symmetry_equiv_pos_site_id
 _symmetry_equiv_pos_as_xyz
  1  'x, y, z'
loop_
 _atom_site_type_symbol
 _atom_site_label
 _atom_site_symmetry_multiplicity
 _atom_site_fract_x
 _atom_site_fract_y
 _atom_site_fract_z
 _atom_site_occupancy
  Pr  Pr0  1  0.326139  0.822922  0.500000  1
  Pr  Pr1  1  0.673861  0.177078  0.500000  1
  Pr  Pr2  1  0.822922  0.673861  0.500000  1
  Pr  Pr3  1  0.177078  0.326139  0.500000  1
  Ag  Ag4  1  0.500000  0.500000  0.000000  1
  Pd  Pd5  1  0.871868  0.377109  0.000000  1
  Pd  Pd6  1  0.622891  0.871868  0.000000  1
  Pd  Pd7  1  0.377109  0.128132  0.000000  1
  Pd  Pd8  1  0.128132  0.622891  0.000000  1
  Pb  Pb9  1  0.000000  0.000000  0.000000  1
