# generated using pymatgen
data_Nd2Al8ZnCu17
_symmetry_space_group_name_H-M   'P 1'
_cell_length_a   8.36131403
_cell_length_b   8.36471579
_cell_length_c   8.35619500
_cell_angle_alpha   120.34799177
_cell_angle_beta   120.97970388
_cell_angle_gamma   88.95028771
_symmetry_Int_Tables_number   1
_chemical_formula_structural   Nd2Al8ZnCu17
_chemical_formula_sum   'Nd2 Al8 Zn1 Cu17'
_cell_volume   408.66980070
_cell_formula_units_Z   1
loop_
 _symmetry_equiv_pos_site_id
 _symmetry_equiv_pos_as_xyz
  1  'x, y, z'
loop_
 _atom_site_type_symbol
 _atom_site_label
 _atom_site_symmetry_multiplicity
 _atom_site_fract_x
 _atom_site_fract_y
 _atom_site_fract_z
 _atom_site_occupancy
  Nd  Nd0  1  0.748474  0.746990  0.998655  1
  Nd  Nd1  1  0.251774  0.250215  0.998857  1
  Al  Al2  1  0.800632  0.301090  0.859567  1
  Al  Al3  1  0.447254  0.938112  0.138355  1
  Al  Al4  1  0.698615  0.558915  0.500520  1
  Al  Al5  1  0.057226  0.201540  0.506479  1
  Al  Al6  1  0.200169  0.690949  0.138312  1
  Al  Al7  1  0.558562  0.058948  0.859514  1
  Al  Al8  1  0.941654  0.801929  0.500639  1
  Al  Al9  1  0.304875  0.449199  0.506351  1
  Zn  Zn10  1  0.197228  0.059214  0.256424  1
  Cu  Cu11  1  0.798588  0.938713  0.737257  1
  Cu  Cu12  1  0.297429  0.561533  0.858928  1
  Cu  Cu13  1  0.702393  0.438956  0.141373  1
  Cu  Cu14  1  0.437356  0.296796  0.734075  1
  Cu  Cu15  1  0.562747  0.703732  0.266578  1
  Cu  Cu16  1  0.937286  0.206154  0.143229  1
  Cu  Cu17  1  0.063021  0.793087  0.856219  1
  Cu  Cu18  1  0.499619  0.999376  0.499007  1
  Cu  Cu19  1  0.000078  0.499551  0.499619  1
  Cu  Cu20  1  0.295010  0.796175  0.732647  1
  Cu  Cu21  1  0.061053  0.563253  0.267729  1
  Cu  Cu22  1  0.203952  0.937742  0.498391  1
  Cu  Cu23  1  0.438847  0.706836  0.501437  1
  Cu  Cu24  1  0.704427  0.206554  0.267624  1
  Cu  Cu25  1  0.936504  0.437613  0.732571  1
  Cu  Cu26  1  0.560654  0.294351  0.498296  1
  Cu  Cu27  1  0.794574  0.062478  0.501356  1
