# generated using pymatgen
data_TbDy6CoSn23Ir5
_symmetry_space_group_name_H-M   'P 1'
_cell_length_a   9.84018310
_cell_length_b   9.86706405
_cell_length_c   10.08016034
_cell_angle_alpha   89.99999959
_cell_angle_beta   89.96817769
_cell_angle_gamma   120.09041088
_symmetry_Int_Tables_number   1
_chemical_formula_structural   TbDy6CoSn23Ir5
_chemical_formula_sum   'Tb1 Dy6 Co1 Sn23 Ir5'
_cell_volume   846.82316340
_cell_formula_units_Z   1
loop_
 _symmetry_equiv_pos_site_id
 _symmetry_equiv_pos_as_xyz
  1  'x, y, z'
loop_
 _atom_site_type_symbol
 _atom_site_label
 _atom_site_symmetry_multiplicity
 _atom_site_fract_x
 _atom_site_fract_y
 _atom_site_fract_z
 _atom_site_occupancy
  Tb  Tb0  1  0.006041  0.003021  0.004307  1
  Dy  Dy1  1  0.480441  0.520171  0.308174  1
  Dy  Dy2  1  0.519333  0.479344  0.690932  1
  Dy  Dy3  1  0.480441  0.960270  0.308174  1
  Dy  Dy4  1  0.519333  0.039989  0.690932  1
  Dy  Dy5  1  0.039276  0.519638  0.307283  1
  Dy  Dy6  1  0.959490  0.479745  0.692391  1
  Co  Co7  1  0.661358  0.830679  0.801037  1
  Sn  Sn8  1  0.355367  0.000178  0.999086  1
  Sn  Sn9  1  0.649261  0.993963  0.994587  1
  Sn  Sn10  1  0.999762  0.352495  0.999774  1
  Sn  Sn11  1  0.999762  0.647267  0.999774  1
  Sn  Sn12  1  0.649261  0.655298  0.994587  1
  Sn  Sn13  1  0.355367  0.355189  0.999086  1
  Sn  Sn14  1  0.338542  0.669272  0.823770  1
  Sn  Sn15  1  0.666087  0.333043  0.173071  1
  Sn  Sn16  1  0.999851  0.999926  0.500567  1
  Sn  Sn17  1  0.780526  0.220782  0.458000  1
  Sn  Sn18  1  0.220044  0.778669  0.542021  1
  Sn  Sn19  1  0.780526  0.559744  0.458000  1
  Sn  Sn20  1  0.220044  0.441376  0.542021  1
  Sn  Sn21  1  0.442545  0.221272  0.457748  1
  Sn  Sn22  1  0.562992  0.781497  0.548429  1
  Sn  Sn23  1  0.334522  0.667261  0.117895  1
  Sn  Sn24  1  0.664885  0.332442  0.880290  1
  Sn  Sn25  1  0.117469  0.880052  0.284218  1
  Sn  Sn26  1  0.876023  0.110749  0.722488  1
  Sn  Sn27  1  0.117469  0.237417  0.284218  1
  Sn  Sn28  1  0.876023  0.765274  0.722488  1
  Sn  Sn29  1  0.760858  0.880429  0.284333  1
  Sn  Sn30  1  0.237067  0.118534  0.715632  1
  Ir  Ir31  1  0.828671  0.167220  0.197955  1
  Ir  Ir32  1  0.167958  0.830341  0.799990  1
  Ir  Ir33  1  0.828671  0.661449  0.197955  1
  Ir  Ir34  1  0.167958  0.337618  0.799990  1
  Ir  Ir35  1  0.336781  0.168389  0.198803  1
