# generated using pymatgen
data_Dy2Er2AlCo4
_symmetry_space_group_name_H-M   'P 1'
_cell_length_a   5.46402455
_cell_length_b   5.46402478
_cell_length_c   8.88643211
_cell_angle_alpha   71.05889899
_cell_angle_beta   71.05889691
_cell_angle_gamma   43.08536530
_symmetry_Int_Tables_number   1
_chemical_formula_structural   Dy2Er2AlCo4
_chemical_formula_sum   'Dy2 Er2 Al1 Co4'
_cell_volume   169.83605464
_cell_formula_units_Z   1
loop_
 _symmetry_equiv_pos_site_id
 _symmetry_equiv_pos_as_xyz
  1  'x, y, z'
loop_
 _atom_site_type_symbol
 _atom_site_label
 _atom_site_symmetry_multiplicity
 _atom_site_fract_x
 _atom_site_fract_y
 _atom_site_fract_z
 _atom_site_occupancy
  Dy  Dy0  1  0.745504  0.745504  0.663281  1
  Dy  Dy1  1  0.254496  0.254496  0.336719  1
  Er  Er2  1  0.391562  0.391562  0.886503  1
  Er  Er3  1  0.608438  0.608438  0.113497  1
  Al  Al4  1  0.500000  0.500000  0.500000  1
  Co  Co5  1  0.036414  0.036414  0.645607  1
  Co  Co6  1  0.963586  0.963586  0.354393  1
  Co  Co7  1  0.092489  0.092489  0.880895  1
  Co  Co8  1  0.907511  0.907511  0.119105  1
