# generated using pymatgen
data_Er6Zn23S
_symmetry_space_group_name_H-M   'P 1'
_cell_length_a   9.00494824
_cell_length_b   9.00494792
_cell_length_c   9.00494900
_cell_angle_alpha   59.99999969
_cell_angle_beta   60.00000087
_cell_angle_gamma   59.99999728
_symmetry_Int_Tables_number   1
_chemical_formula_structural   Er6Zn23S
_chemical_formula_sum   'Er6 Zn23 S1'
_cell_volume   516.33156830
_cell_formula_units_Z   1
loop_
 _symmetry_equiv_pos_site_id
 _symmetry_equiv_pos_as_xyz
  1  'x, y, z'
loop_
 _atom_site_type_symbol
 _atom_site_label
 _atom_site_symmetry_multiplicity
 _atom_site_fract_x
 _atom_site_fract_y
 _atom_site_fract_z
 _atom_site_occupancy
  Er  Er0  1  0.711516  0.288484  0.288484  1
  Er  Er1  1  0.711516  0.288484  0.711516  1
  Er  Er2  1  0.711516  0.711516  0.288484  1
  Er  Er3  1  0.288484  0.711516  0.711516  1
  Er  Er4  1  0.288484  0.711516  0.288484  1
  Er  Er5  1  0.288484  0.288484  0.711516  1
  Zn  Zn6  1  0.623759  0.125414  0.125414  1
  Zn  Zn7  1  0.125414  0.623759  0.125414  1
  Zn  Zn8  1  0.125414  0.125414  0.623759  1
  Zn  Zn9  1  0.125414  0.125414  0.125414  1
  Zn  Zn10  1  0.376241  0.874586  0.874586  1
  Zn  Zn11  1  0.874586  0.376241  0.874586  1
  Zn  Zn12  1  0.874586  0.874586  0.376241  1
  Zn  Zn13  1  0.874586  0.874586  0.874586  1
  Zn  Zn14  1  0.500000  0.000000  0.000000  1
  Zn  Zn15  1  0.500000  0.000000  0.500000  1
  Zn  Zn16  1  0.500000  0.500000  0.000000  1
  Zn  Zn17  1  0.000000  0.500000  0.500000  1
  Zn  Zn18  1  0.000000  0.500000  0.000000  1
  Zn  Zn19  1  0.000000  0.000000  0.500000  1
  Zn  Zn20  1  0.000000  0.000000  0.000000  1
  Zn  Zn21  1  0.011530  0.329490  0.329490  1
  Zn  Zn22  1  0.329490  0.011530  0.329490  1
  Zn  Zn23  1  0.329490  0.329490  0.011530  1
  Zn  Zn24  1  0.329490  0.329490  0.329490  1
  Zn  Zn25  1  0.988470  0.670510  0.670510  1
  Zn  Zn26  1  0.670510  0.988470  0.670510  1
  Zn  Zn27  1  0.670510  0.670510  0.988470  1
  Zn  Zn28  1  0.670510  0.670510  0.670510  1
  S  S29  1  0.500000  0.500000  0.500000  1
