# generated using pymatgen
data_Ta3Nb9Al8Fe3CoC4
_symmetry_space_group_name_H-M   'P 1'
_cell_length_a   8.20360258
_cell_length_b   8.20360230
_cell_length_c   8.20360300
_cell_angle_alpha   60.12656843
_cell_angle_beta   60.12656954
_cell_angle_gamma   60.12656602
_symmetry_Int_Tables_number   1
_chemical_formula_structural   Ta3Nb9Al8Fe3CoC4
_chemical_formula_sum   'Ta3 Nb9 Al8 Fe3 Co1 C4'
_cell_volume   391.50951912
_cell_formula_units_Z   1
loop_
 _symmetry_equiv_pos_site_id
 _symmetry_equiv_pos_as_xyz
  1  'x, y, z'
loop_
 _atom_site_type_symbol
 _atom_site_label
 _atom_site_symmetry_multiplicity
 _atom_site_fract_x
 _atom_site_fract_y
 _atom_site_fract_z
 _atom_site_occupancy
  Ta  Ta0  1  0.070913  0.068558  0.680628  1
  Ta  Ta1  1  0.063501  0.683293  0.683146  1
  Ta  Ta2  1  0.681865  0.682082  0.063855  1
  Nb  Nb3  1  0.320321  0.929338  0.929267  1
  Nb  Nb4  1  0.936601  0.316697  0.316832  1
  Nb  Nb5  1  0.928940  0.319522  0.930553  1
  Nb  Nb6  1  0.930331  0.931884  0.318171  1
  Nb  Nb7  1  0.318739  0.935929  0.318037  1
  Nb  Nb8  1  0.317551  0.316770  0.936948  1
  Nb  Nb9  1  0.069265  0.682011  0.067616  1
  Nb  Nb10  1  0.682730  0.063005  0.682939  1
  Nb  Nb11  1  0.680736  0.069453  0.069819  1
  Al  Al12  1  0.293874  0.294966  0.293242  1
  Al  Al13  1  0.294047  0.293583  0.622411  1
  Al  Al14  1  0.621291  0.293145  0.294472  1
  Al  Al15  1  0.292712  0.622250  0.293541  1
  Al  Al16  1  0.706000  0.706790  0.705238  1
  Al  Al17  1  0.707324  0.706368  0.377970  1
  Al  Al18  1  0.705778  0.377813  0.706575  1
  Al  Al19  1  0.378810  0.705183  0.707111  1
  Fe  Fe20  1  0.501435  0.501298  0.000094  1
  Fe  Fe21  1  0.000235  0.498526  0.502902  1
  Fe  Fe22  1  0.497230  0.000005  0.501429  1
  Co  Co23  1  0.498599  0.502651  0.498556  1
  C  C24  1  0.000617  0.000636  0.997825  1
  C  C25  1  0.000803  0.998517  0.501883  1
  C  C26  1  0.501043  0.997888  0.000454  1
  C  C27  1  0.998709  0.501838  0.998487  1
