# generated using pymatgen
data_LiLu3In3Ag2
_symmetry_space_group_name_H-M   'P 1'
_cell_length_a   7.84480600
_cell_length_b   7.84480612
_cell_length_c   3.75419900
_cell_angle_alpha   90.00000000
_cell_angle_beta   90.00000000
_cell_angle_gamma   119.99999106
_symmetry_Int_Tables_number   1
_chemical_formula_structural   LiLu3In3Ag2
_chemical_formula_sum   'Li1 Lu3 In3 Ag2'
_cell_volume   200.08401025
_cell_formula_units_Z   1
loop_
 _symmetry_equiv_pos_site_id
 _symmetry_equiv_pos_as_xyz
  1  'x, y, z'
loop_
 _atom_site_type_symbol
 _atom_site_label
 _atom_site_symmetry_multiplicity
 _atom_site_fract_x
 _atom_site_fract_y
 _atom_site_fract_z
 _atom_site_occupancy
  Li  Li0  1  0.000000  0.000000  0.500000  1
  Lu  Lu1  1  0.406696  0.000000  0.500000  1
  Lu  Lu2  1  0.000000  0.406696  0.500000  1
  Lu  Lu3  1  0.593304  0.593304  0.500000  1
  In  In4  1  0.744414  0.000000  0.000000  1
  In  In5  1  0.000000  0.744414  0.000000  1
  In  In6  1  0.255586  0.255586  0.000000  1
  Ag  Ag7  1  0.333333  0.666667  0.000000  1
  Ag  Ag8  1  0.666667  0.333333  0.000000  1
