# generated using pymatgen
data_SrIr2PbO7
_symmetry_space_group_name_H-M   'P 1'
_cell_length_a   7.38903754
_cell_length_b   7.38903676
_cell_length_c   7.36786700
_cell_angle_alpha   60.09472455
_cell_angle_beta   60.09472805
_cell_angle_gamma   60.14879611
_symmetry_Int_Tables_number   1
_chemical_formula_structural   SrIr2PbO7
_chemical_formula_sum   'Sr2 Ir4 Pb2 O14'
_cell_volume   285.17418572
_cell_formula_units_Z   2
loop_
 _symmetry_equiv_pos_site_id
 _symmetry_equiv_pos_as_xyz
  1  'x, y, z'
loop_
 _atom_site_type_symbol
 _atom_site_label
 _atom_site_symmetry_multiplicity
 _atom_site_fract_x
 _atom_site_fract_y
 _atom_site_fract_z
 _atom_site_occupancy
  Sr  Sr0  1  0.625000  0.125000  0.125000  1
  Sr  Sr1  1  0.125000  0.625000  0.125000  1
  Ir  Ir2  1  0.125000  0.625000  0.625000  1
  Ir  Ir3  1  0.625000  0.125000  0.625000  1
  Ir  Ir4  1  0.625000  0.625000  0.125000  1
  Ir  Ir5  1  0.625000  0.625000  0.625000  1
  Pb  Pb6  1  0.125000  0.125000  0.625000  1
  Pb  Pb7  1  0.125000  0.125000  0.125000  1
  O  O8  1  0.698510  0.698510  0.301490  1
  O  O9  1  0.297453  0.297453  0.702547  1
  O  O10  1  0.710588  0.299389  0.688314  1
  O  O11  1  0.299389  0.710588  0.301709  1
  O  O12  1  0.299389  0.710588  0.688314  1
  O  O13  1  0.710588  0.299389  0.301709  1
  O  O14  1  0.551490  0.551490  0.948510  1
  O  O15  1  0.952547  0.952547  0.547453  1
  O  O16  1  0.539412  0.950611  0.561686  1
  O  O17  1  0.950611  0.539412  0.948291  1
  O  O18  1  0.950611  0.539412  0.561686  1
  O  O19  1  0.539412  0.950611  0.948291  1
  O  O20  1  0.237181  0.237181  0.262819  1
  O  O21  1  0.012819  0.012819  0.987181  1
