# generated using pymatgen
data_Mn20Be(MoC3)2
_symmetry_space_group_name_H-M   'P 1'
_cell_length_a   7.37809054
_cell_length_b   7.37809057
_cell_length_c   7.37809100
_cell_angle_alpha   60.00000255
_cell_angle_beta   60.00000244
_cell_angle_gamma   60.00000433
_symmetry_Int_Tables_number   1
_chemical_formula_structural   Mn20Be(MoC3)2
_chemical_formula_sum   'Mn20 Be1 Mo2 C6'
_cell_volume   283.99912559
_cell_formula_units_Z   1
loop_
 _symmetry_equiv_pos_site_id
 _symmetry_equiv_pos_as_xyz
  1  'x, y, z'
loop_
 _atom_site_type_symbol
 _atom_site_label
 _atom_site_symmetry_multiplicity
 _atom_site_fract_x
 _atom_site_fract_y
 _atom_site_fract_z
 _atom_site_occupancy
  Mn  Mn0  1  0.848241  0.383920  0.383920  1
  Mn  Mn1  1  0.383920  0.848241  0.383920  1
  Mn  Mn2  1  0.383920  0.383920  0.848241  1
  Mn  Mn3  1  0.383920  0.383920  0.383920  1
  Mn  Mn4  1  0.151759  0.616080  0.616080  1
  Mn  Mn5  1  0.616080  0.151759  0.616080  1
  Mn  Mn6  1  0.616080  0.616080  0.151759  1
  Mn  Mn7  1  0.616080  0.616080  0.616080  1
  Mn  Mn8  1  0.664287  0.000000  0.000000  1
  Mn  Mn9  1  0.664287  0.000000  0.335713  1
  Mn  Mn10  1  0.664287  0.335713  0.000000  1
  Mn  Mn11  1  0.000000  0.664287  0.335713  1
  Mn  Mn12  1  0.000000  0.664287  0.000000  1
  Mn  Mn13  1  0.335713  0.664287  0.000000  1
  Mn  Mn14  1  0.000000  0.335713  0.664287  1
  Mn  Mn15  1  0.335713  0.000000  0.664287  1
  Mn  Mn16  1  0.000000  0.000000  0.664287  1
  Mn  Mn17  1  0.335713  0.000000  0.000000  1
  Mn  Mn18  1  0.000000  0.335713  0.000000  1
  Mn  Mn19  1  0.000000  0.000000  0.335713  1
  Be  Be20  1  0.000000  0.000000  0.000000  1
  Mo  Mo21  1  0.250000  0.250000  0.250000  1
  Mo  Mo22  1  0.750000  0.750000  0.750000  1
  C  C23  1  0.724479  0.275521  0.275521  1
  C  C24  1  0.724479  0.275521  0.724479  1
  C  C25  1  0.724479  0.724479  0.275521  1
  C  C26  1  0.275521  0.724479  0.724479  1
  C  C27  1  0.275521  0.724479  0.275521  1
  C  C28  1  0.275521  0.275521  0.724479  1
