# generated using pymatgen
data_YbNbB6Ru
_symmetry_space_group_name_H-M   'P 1'
_cell_length_a   3.49009800
_cell_length_b   8.94969700
_cell_length_c   11.28934800
_cell_angle_alpha   90.00000000
_cell_angle_beta   90.00000000
_cell_angle_gamma   90.00000000
_symmetry_Int_Tables_number   1
_chemical_formula_structural   YbNbB6Ru
_chemical_formula_sum   'Yb4 Nb4 B24 Ru4'
_cell_volume   352.62639286
_cell_formula_units_Z   4
loop_
 _symmetry_equiv_pos_site_id
 _symmetry_equiv_pos_as_xyz
  1  'x, y, z'
loop_
 _atom_site_type_symbol
 _atom_site_label
 _atom_site_symmetry_multiplicity
 _atom_site_fract_x
 _atom_site_fract_y
 _atom_site_fract_z
 _atom_site_occupancy
  Yb  Yb0  1  0.000000  0.323602  0.413855  1
  Yb  Yb1  1  0.000000  0.676398  0.586145  1
  Yb  Yb2  1  0.000000  0.823602  0.086145  1
  Yb  Yb3  1  0.000000  0.176398  0.913855  1
  Nb  Nb4  1  0.000000  0.946175  0.375592  1
  Nb  Nb5  1  0.000000  0.053825  0.624408  1
  Nb  Nb6  1  0.000000  0.446175  0.124408  1
  Nb  Nb7  1  0.000000  0.553825  0.875592  1
  B  B8  1  0.500000  0.554289  0.433162  1
  B  B9  1  0.500000  0.445711  0.566838  1
  B  B10  1  0.500000  0.054289  0.066838  1
  B  B11  1  0.500000  0.945711  0.933162  1
  B  B12  1  0.500000  0.753578  0.418022  1
  B  B13  1  0.500000  0.246422  0.581978  1
  B  B14  1  0.500000  0.253578  0.081978  1
  B  B15  1  0.500000  0.746422  0.918022  1
  B  B16  1  0.500000  0.798039  0.262588  1
  B  B17  1  0.500000  0.201961  0.737412  1
  B  B18  1  0.500000  0.298039  0.237412  1
  B  B19  1  0.500000  0.701961  0.762588  1
  B  B20  1  0.500000  0.630726  0.181207  1
  B  B21  1  0.500000  0.369274  0.818793  1
  B  B22  1  0.500000  0.130726  0.318793  1
  B  B23  1  0.500000  0.869274  0.681207  1
  B  B24  1  0.500000  0.982573  0.212869  1
  B  B25  1  0.500000  0.017427  0.787131  1
  B  B26  1  0.500000  0.482573  0.287131  1
  B  B27  1  0.500000  0.517427  0.712869  1
  B  B28  1  0.500000  0.599853  0.026479  1
  B  B29  1  0.500000  0.400147  0.973521  1
  B  B30  1  0.500000  0.099853  0.473521  1
  B  B31  1  0.500000  0.900147  0.526479  1
  Ru  Ru32  1  0.000000  0.644805  0.318073  1
  Ru  Ru33  1  0.000000  0.355195  0.681927  1
  Ru  Ru34  1  0.000000  0.144805  0.181927  1
  Ru  Ru35  1  0.000000  0.855195  0.818073  1
