# generated using pymatgen
data_Tm16MgNiAg3IrRh2
_symmetry_space_group_name_H-M   'P 1'
_cell_length_a   9.45990016
_cell_length_b   9.47170937
_cell_length_c   9.47170800
_cell_angle_alpha   59.64473345
_cell_angle_beta   59.66938151
_cell_angle_gamma   59.66938100
_symmetry_Int_Tables_number   1
_chemical_formula_structural   Tm16MgNiAg3IrRh2
_chemical_formula_sum   'Tm16 Mg1 Ni1 Ag3 Ir1 Rh2'
_cell_volume   595.48639423
_cell_formula_units_Z   1
loop_
 _symmetry_equiv_pos_site_id
 _symmetry_equiv_pos_as_xyz
  1  'x, y, z'
loop_
 _atom_site_type_symbol
 _atom_site_label
 _atom_site_symmetry_multiplicity
 _atom_site_fract_x
 _atom_site_fract_y
 _atom_site_fract_z
 _atom_site_occupancy
  Tm  Tm0  1  0.595977  0.594185  0.603456  1
  Tm  Tm1  1  0.600177  0.598582  0.202744  1
  Tm  Tm2  1  0.595509  0.209180  0.604236  1
  Tm  Tm3  1  0.192244  0.600039  0.609104  1
  Tm  Tm4  1  0.058967  0.438973  0.439244  1
  Tm  Tm5  1  0.436290  0.065191  0.058701  1
  Tm  Tm6  1  0.435879  0.062762  0.436665  1
  Tm  Tm7  1  0.062229  0.438142  0.056986  1
  Tm  Tm8  1  0.435911  0.436747  0.060709  1
  Tm  Tm9  1  0.059047  0.060130  0.436767  1
  Tm  Tm10  1  0.184166  0.815764  0.813053  1
  Tm  Tm11  1  0.813638  0.185881  0.186764  1
  Tm  Tm12  1  0.817027  0.185592  0.814698  1
  Tm  Tm13  1  0.185977  0.811208  0.188945  1
  Tm  Tm14  1  0.813719  0.815096  0.186860  1
  Tm  Tm15  1  0.184612  0.186055  0.811378  1
  Mg  Mg16  1  0.537619  0.821386  0.819226  1
  Ni  Ni17  1  0.389482  0.397188  0.822579  1
  Ag  Ag18  1  0.833164  0.835633  0.834218  1
  Ag  Ag19  1  0.834325  0.835858  0.496348  1
  Ag  Ag20  1  0.834452  0.496565  0.835435  1
  Ir  Ir21  1  0.387205  0.395251  0.395191  1
  Rh  Rh22  1  0.389325  0.821802  0.394844  1
  Rh  Rh23  1  0.823050  0.392792  0.391848  1
