# generated using pymatgen
data_Ca2MnTeO6
_symmetry_space_group_name_H-M   'P 1'
_cell_length_a   5.73326800
_cell_length_b   5.54818553
_cell_length_c   9.67206341
_cell_angle_alpha   55.15719154
_cell_angle_beta   90.00007553
_cell_angle_gamma   89.99997972
_symmetry_Int_Tables_number   1
_chemical_formula_structural   Ca2MnTeO6
_chemical_formula_sum   'Ca4 Mn2 Te2 O12'
_cell_volume   252.50427274
_cell_formula_units_Z   2
loop_
 _symmetry_equiv_pos_site_id
 _symmetry_equiv_pos_as_xyz
  1  'x, y, z'
loop_
 _atom_site_type_symbol
 _atom_site_label
 _atom_site_symmetry_multiplicity
 _atom_site_fract_x
 _atom_site_fract_y
 _atom_site_fract_z
 _atom_site_occupancy
  Ca  Ca0  1  0.445254  0.267843  0.747915  1
  Ca  Ca1  1  0.945256  0.732154  0.752087  1
  Ca  Ca2  1  0.554746  0.732157  0.252085  1
  Ca  Ca3  1  0.054744  0.267846  0.247913  1
  Mn  Mn4  1  0.500000  0.500000  0.000000  1
  Mn  Mn5  1  0.000000  0.500000  0.500000  1
  Te  Te6  1  0.500000  0.000000  0.500000  1
  Te  Te7  1  0.000000  0.000000  0.000000  1
  O  O8  1  0.189100  0.334564  0.950169  1
  O  O9  1  0.689100  0.665436  0.549830  1
  O  O10  1  0.810900  0.665436  0.049831  1
  O  O11  1  0.310900  0.334564  0.450170  1
  O  O12  1  0.280772  0.757326  0.059122  1
  O  O13  1  0.780770  0.242676  0.440878  1
  O  O14  1  0.719228  0.242674  0.940878  1
  O  O15  1  0.219230  0.757324  0.559122  1
  O  O16  1  0.040511  0.130654  0.765433  1
  O  O17  1  0.540513  0.869343  0.734568  1
  O  O18  1  0.459487  0.130657  0.265432  1
  O  O19  1  0.959489  0.869346  0.234567  1
