# generated using pymatgen
data_Rb8Na4Nd3LuSb8
_symmetry_space_group_name_H-M   'P 1'
_cell_length_a   11.43762000
_cell_length_b   11.43761878
_cell_length_c   7.54643225
_cell_angle_alpha   90.02376224
_cell_angle_beta   89.97623919
_cell_angle_gamma   98.10333707
_symmetry_Int_Tables_number   1
_chemical_formula_structural   Rb8Na4Nd3LuSb8
_chemical_formula_sum   'Rb8 Na4 Nd3 Lu1 Sb8'
_cell_volume   977.36068406
_cell_formula_units_Z   1
loop_
 _symmetry_equiv_pos_site_id
 _symmetry_equiv_pos_as_xyz
  1  'x, y, z'
loop_
 _atom_site_type_symbol
 _atom_site_label
 _atom_site_symmetry_multiplicity
 _atom_site_fract_x
 _atom_site_fract_y
 _atom_site_fract_z
 _atom_site_occupancy
  Rb  Rb0  1  0.067902  0.432277  0.251098  1
  Rb  Rb1  1  0.432277  0.067902  0.748902  1
  Rb  Rb2  1  0.928209  0.569006  0.747981  1
  Rb  Rb3  1  0.569006  0.928209  0.252019  1
  Rb  Rb4  1  0.678088  0.324441  0.215292  1
  Rb  Rb5  1  0.821434  0.178290  0.713356  1
  Rb  Rb6  1  0.324441  0.678088  0.784708  1
  Rb  Rb7  1  0.178290  0.821434  0.286644  1
  Na  Na8  1  0.382886  0.382886  0.000000  1
  Na  Na9  1  0.118055  0.118055  0.500000  1
  Na  Na10  1  0.617825  0.617825  0.000000  1
  Na  Na11  1  0.881572  0.881572  0.500000  1
  Nd  Nd12  1  0.132420  0.132420  0.000000  1
  Nd  Nd13  1  0.369935  0.369935  0.500000  1
  Nd  Nd14  1  0.866031  0.866031  0.000000  1
  Lu  Lu15  1  0.630740  0.630740  0.500000  1
  Sb  Sb16  1  0.843266  0.649243  0.258079  1
  Sb  Sb17  1  0.649243  0.843266  0.741921  1
  Sb  Sb18  1  0.149665  0.351755  0.750099  1
  Sb  Sb19  1  0.351755  0.149665  0.249901  1
  Sb  Sb20  1  0.897145  0.100848  0.216962  1
  Sb  Sb21  1  0.604547  0.404417  0.714059  1
  Sb  Sb22  1  0.100848  0.897145  0.783038  1
  Sb  Sb23  1  0.404417  0.604547  0.285941  1
