# generated using pymatgen
data_Tb7Dy9(TmSn4)4
_symmetry_space_group_name_H-M   'P 1'
_cell_length_a   8.01056105
_cell_length_b   8.16193801
_cell_length_c   15.44172108
_cell_angle_alpha   90.00354990
_cell_angle_beta   90.01146562
_cell_angle_gamma   89.99443060
_symmetry_Int_Tables_number   1
_chemical_formula_structural   Tb7Dy9(TmSn4)4
_chemical_formula_sum   'Tb7 Dy9 Tm4 Sn16'
_cell_volume   1009.60599084
_cell_formula_units_Z   1
loop_
 _symmetry_equiv_pos_site_id
 _symmetry_equiv_pos_as_xyz
  1  'x, y, z'
loop_
 _atom_site_type_symbol
 _atom_site_label
 _atom_site_symmetry_multiplicity
 _atom_site_fract_x
 _atom_site_fract_y
 _atom_site_fract_z
 _atom_site_occupancy
  Tb  Tb0  1  0.019903  0.179553  0.597312  1
  Tb  Tb1  1  0.480096  0.679540  0.402700  1
  Tb  Tb2  1  0.980088  0.820473  0.097302  1
  Tb  Tb3  1  0.480082  0.679521  0.097287  1
  Tb  Tb4  1  0.980094  0.820459  0.402699  1
  Tb  Tb5  1  0.519899  0.320470  0.597277  1
  Tb  Tb6  1  0.019903  0.179563  0.902703  1
  Dy  Dy7  1  0.366850  0.837181  0.877859  1
  Dy  Dy8  1  0.866833  0.662831  0.622152  1
  Dy  Dy9  1  0.633166  0.162842  0.377856  1
  Dy  Dy10  1  0.133156  0.337140  0.122141  1
  Dy  Dy11  1  0.633142  0.162863  0.122111  1
  Dy  Dy12  1  0.133167  0.337155  0.377851  1
  Dy  Dy13  1  0.366835  0.837164  0.622155  1
  Dy  Dy14  1  0.866820  0.662798  0.877853  1
  Dy  Dy15  1  0.519928  0.320477  0.902666  1
  Tm  Tm16  1  0.198228  0.502864  0.750032  1
  Tm  Tm17  1  0.698148  0.997137  0.750022  1
  Tm  Tm18  1  0.801819  0.497096  0.250002  1
  Tm  Tm19  1  0.301816  0.002900  0.249993  1
  Sn  Sn20  1  0.293287  0.036109  0.042515  1
  Sn  Sn21  1  0.793284  0.463904  0.457485  1
  Sn  Sn22  1  0.706717  0.963904  0.542516  1
  Sn  Sn23  1  0.206880  0.535980  0.957453  1
  Sn  Sn24  1  0.706664  0.963993  0.957475  1
  Sn  Sn25  1  0.206708  0.536104  0.542515  1
  Sn  Sn26  1  0.293291  0.036094  0.457485  1
  Sn  Sn27  1  0.793163  0.463841  0.042460  1
  Sn  Sn28  1  0.563797  0.618449  0.750017  1
  Sn  Sn29  1  0.063801  0.881474  0.750005  1
  Sn  Sn30  1  0.436198  0.381484  0.249993  1
  Sn  Sn31  1  0.936194  0.118527  0.249998  1
  Sn  Sn32  1  0.329059  0.148422  0.750088  1
  Sn  Sn33  1  0.828872  0.351676  0.750032  1
  Sn  Sn34  1  0.671061  0.851681  0.249993  1
  Sn  Sn35  1  0.171053  0.648330  0.249996  1
