# generated using pymatgen
data_NdTh2(CdAu)3
_symmetry_space_group_name_H-M   'P 1'
_cell_length_a   7.84178507
_cell_length_b   7.84178563
_cell_length_c   4.18094200
_cell_angle_alpha   90.00000000
_cell_angle_beta   90.00000000
_cell_angle_gamma   120.19254726
_symmetry_Int_Tables_number   1
_chemical_formula_structural   NdTh2(CdAu)3
_chemical_formula_sum   'Nd1 Th2 Cd3 Au3'
_cell_volume   222.22287834
_cell_formula_units_Z   1
loop_
 _symmetry_equiv_pos_site_id
 _symmetry_equiv_pos_as_xyz
  1  'x, y, z'
loop_
 _atom_site_type_symbol
 _atom_site_label
 _atom_site_symmetry_multiplicity
 _atom_site_fract_x
 _atom_site_fract_y
 _atom_site_fract_z
 _atom_site_occupancy
  Nd  Nd0  1  0.407116  0.407116  0.000000  1
  Th  Th1  1  0.591502  0.000450  0.000000  1
  Th  Th2  1  0.000450  0.591502  0.000000  1
  Cd  Cd3  1  0.253459  0.005815  0.500000  1
  Cd  Cd4  1  0.005815  0.253459  0.500000  1
  Cd  Cd5  1  0.742927  0.742927  0.500000  1
  Au  Au6  1  0.332640  0.671749  0.500000  1
  Au  Au7  1  0.671749  0.332640  0.500000  1
  Au  Au8  1  0.994342  0.994342  0.000000  1
