# generated using pymatgen
data_Dy4Ag3RhPb2
_symmetry_space_group_name_H-M   'P 1'
_cell_length_a   8.12209387
_cell_length_b   8.12209290
_cell_length_c   3.66430100
_cell_angle_alpha   90.00000000
_cell_angle_beta   90.00000000
_cell_angle_gamma   90.24874951
_symmetry_Int_Tables_number   1
_chemical_formula_structural   Dy4Ag3RhPb2
_chemical_formula_sum   'Dy4 Ag3 Rh1 Pb2'
_cell_volume   241.72579972
_cell_formula_units_Z   1
loop_
 _symmetry_equiv_pos_site_id
 _symmetry_equiv_pos_as_xyz
  1  'x, y, z'
loop_
 _atom_site_type_symbol
 _atom_site_label
 _atom_site_symmetry_multiplicity
 _atom_site_fract_x
 _atom_site_fract_y
 _atom_site_fract_z
 _atom_site_occupancy
  Dy  Dy0  1  0.644335  0.178531  0.500000  1
  Dy  Dy1  1  0.190375  0.309625  0.500000  1
  Dy  Dy2  1  0.832557  0.667443  0.500000  1
  Dy  Dy3  1  0.321469  0.855665  0.500000  1
  Ag  Ag4  1  0.129627  0.617866  0.000000  1
  Ag  Ag5  1  0.625367  0.874633  0.000000  1
  Ag  Ag6  1  0.882134  0.370373  0.000000  1
  Rh  Rh7  1  0.378460  0.121540  0.000000  1
  Pb  Pb8  1  0.997284  0.001607  0.000000  1
  Pb  Pb9  1  0.498393  0.502716  0.000000  1
