# generated using pymatgen
data_Y2Ho3Zr3(Co4P3)4
_symmetry_space_group_name_H-M   'P 1'
_cell_length_a   12.29232700
_cell_length_b   12.29232686
_cell_length_c   3.71139600
_cell_angle_alpha   90.00000000
_cell_angle_beta   90.00000000
_cell_angle_gamma   120.00000308
_symmetry_Int_Tables_number   1
_chemical_formula_structural   Y2Ho3Zr3(Co4P3)4
_chemical_formula_sum   'Y2 Ho3 Zr3 Co16 P12'
_cell_volume   485.66423007
_cell_formula_units_Z   1
loop_
 _symmetry_equiv_pos_site_id
 _symmetry_equiv_pos_as_xyz
  1  'x, y, z'
loop_
 _atom_site_type_symbol
 _atom_site_label
 _atom_site_symmetry_multiplicity
 _atom_site_fract_x
 _atom_site_fract_y
 _atom_site_fract_z
 _atom_site_occupancy
  Y  Y0  1  0.666667  0.333333  0.000000  1
  Y  Y1  1  0.333333  0.666667  0.000000  1
  Ho  Ho2  1  0.817890  0.817890  0.500000  1
  Ho  Ho3  1  0.182110  0.000000  0.500000  1
  Ho  Ho4  1  0.000000  0.182110  0.500000  1
  Zr  Zr5  1  0.441432  0.441432  0.000000  1
  Zr  Zr6  1  0.558568  0.000000  0.000000  1
  Zr  Zr7  1  0.000000  0.558568  0.000000  1
  Co  Co8  1  0.875763  0.354801  0.500000  1
  Co  Co9  1  0.645199  0.520962  0.500000  1
  Co  Co10  1  0.479038  0.124237  0.500000  1
  Co  Co11  1  0.354801  0.875763  0.500000  1
  Co  Co12  1  0.520962  0.645199  0.500000  1
  Co  Co13  1  0.124237  0.479038  0.500000  1
  Co  Co14  1  0.805800  0.178351  0.000000  1
  Co  Co15  1  0.821649  0.627448  0.000000  1
  Co  Co16  1  0.372552  0.194200  0.000000  1
  Co  Co17  1  0.178351  0.805800  0.000000  1
  Co  Co18  1  0.627448  0.821649  0.000000  1
  Co  Co19  1  0.194200  0.372552  0.000000  1
  Co  Co20  1  0.277026  0.277026  0.500000  1
  Co  Co21  1  0.722974  0.000000  0.500000  1
  Co  Co22  1  0.000000  0.722974  0.500000  1
  Co  Co23  1  0.000000  0.000000  0.000000  1
  P  P24  1  0.694053  0.171675  0.500000  1
  P  P25  1  0.828325  0.522379  0.500000  1
  P  P26  1  0.477621  0.305947  0.500000  1
  P  P27  1  0.171675  0.694053  0.500000  1
  P  P28  1  0.522379  0.828325  0.500000  1
  P  P29  1  0.305947  0.477621  0.500000  1
  P  P30  1  0.177922  0.177922  0.000000  1
  P  P31  1  0.822078  0.000000  0.000000  1
  P  P32  1  0.000000  0.822078  0.000000  1
  P  P33  1  0.649191  0.649191  0.000000  1
  P  P34  1  0.350809  0.000000  0.000000  1
  P  P35  1  0.000000  0.350809  0.000000  1
