# generated using pymatgen
data_Gd3Th(Si5Os3)2
_symmetry_space_group_name_H-M   'P 1'
_cell_length_a   8.19612426
_cell_length_b   8.18804558
_cell_length_c   5.87597600
_cell_angle_alpha   70.41844047
_cell_angle_beta   70.49906187
_cell_angle_gamma   93.79471070
_symmetry_Int_Tables_number   1
_chemical_formula_structural   Gd3Th(Si5Os3)2
_chemical_formula_sum   'Gd3 Th1 Si10 Os6'
_cell_volume   343.10804933
_cell_formula_units_Z   1
loop_
 _symmetry_equiv_pos_site_id
 _symmetry_equiv_pos_as_xyz
  1  'x, y, z'
loop_
 _atom_site_type_symbol
 _atom_site_label
 _atom_site_symmetry_multiplicity
 _atom_site_fract_x
 _atom_site_fract_y
 _atom_site_fract_z
 _atom_site_occupancy
  Gd  Gd0  1  0.868187  0.602291  0.754374  1
  Gd  Gd1  1  0.396018  0.133112  0.744900  1
  Gd  Gd2  1  0.132773  0.397922  0.244284  1
  Th  Th3  1  0.601945  0.867677  0.256953  1
  Si  Si4  1  0.064444  0.261181  0.833942  1
  Si  Si5  1  0.741240  0.936588  0.664049  1
  Si  Si6  1  0.939659  0.736257  0.164671  1
  Si  Si7  1  0.259668  0.065121  0.335583  1
  Si  Si8  1  0.206882  0.792166  0.750798  1
  Si  Si9  1  0.795808  0.211438  0.248402  1
  Si  Si10  1  0.512544  0.484974  0.753442  1
  Si  Si11  1  0.484878  0.508913  0.250849  1
  Si  Si12  1  0.772711  0.231716  0.745841  1
  Si  Si13  1  0.224230  0.772025  0.250915  1
  Os  Os14  1  0.256834  0.542829  0.631398  1
  Os  Os15  1  0.457833  0.744850  0.867591  1
  Os  Os16  1  0.742211  0.458187  0.366024  1
  Os  Os17  1  0.544250  0.254341  0.133005  1
  Os  Os18  1  0.002450  0.995909  0.751622  1
  Os  Os19  1  0.995434  0.002505  0.251358  1
