# generated using pymatgen
data_LiY3Al7Pd
_symmetry_space_group_name_H-M   'P 1'
_cell_length_a   9.23436446
_cell_length_b   9.23436511
_cell_length_c   9.23436524
_cell_angle_alpha   34.81276448
_cell_angle_beta   34.81275772
_cell_angle_gamma   34.81276066
_symmetry_Int_Tables_number   1
_chemical_formula_structural   LiY3Al7Pd
_chemical_formula_sum   'Li1 Y3 Al7 Pd1'
_cell_volume   229.08180460
_cell_formula_units_Z   1
loop_
 _symmetry_equiv_pos_site_id
 _symmetry_equiv_pos_as_xyz
  1  'x, y, z'
loop_
 _atom_site_type_symbol
 _atom_site_label
 _atom_site_symmetry_multiplicity
 _atom_site_fract_x
 _atom_site_fract_y
 _atom_site_fract_z
 _atom_site_occupancy
  Li  Li0  1  0.334922  0.334922  0.334922  1
  Y  Y1  1  0.000080  0.000080  0.000080  1
  Y  Y2  1  0.857581  0.857581  0.857581  1
  Y  Y3  1  0.141861  0.141861  0.141861  1
  Al  Al4  1  0.417278  0.417278  0.924734  1
  Al  Al5  1  0.924734  0.417278  0.417278  1
  Al  Al6  1  0.417278  0.924734  0.417278  1
  Al  Al7  1  0.500608  0.500608  0.500608  1
  Al  Al8  1  0.583095  0.074657  0.583095  1
  Al  Al9  1  0.074657  0.583095  0.583095  1
  Al  Al10  1  0.583095  0.583095  0.074657  1
  Pd  Pd11  1  0.664811  0.664811  0.664811  1
