# generated using pymatgen
data_TbHo3Ga4(IrPt)2
_symmetry_space_group_name_H-M   'P 1'
_cell_length_a   4.41413500
_cell_length_b   6.84045933
_cell_length_c   7.71141737
_cell_angle_alpha   90.03570545
_cell_angle_beta   90.00000000
_cell_angle_gamma   90.00000000
_symmetry_Int_Tables_number   1
_chemical_formula_structural   TbHo3Ga4(IrPt)2
_chemical_formula_sum   'Tb1 Ho3 Ga4 Ir2 Pt2'
_cell_volume   232.84397345
_cell_formula_units_Z   1
loop_
 _symmetry_equiv_pos_site_id
 _symmetry_equiv_pos_as_xyz
  1  'x, y, z'
loop_
 _atom_site_type_symbol
 _atom_site_label
 _atom_site_symmetry_multiplicity
 _atom_site_fract_x
 _atom_site_fract_y
 _atom_site_fract_z
 _atom_site_occupancy
  Tb  Tb0  1  0.250000  0.479022  0.191124  1
  Ho  Ho1  1  0.750000  0.513608  0.801190  1
  Ho  Ho2  1  0.250000  0.978692  0.308973  1
  Ho  Ho3  1  0.750000  0.013545  0.698559  1
  Ga  Ga4  1  0.750000  0.670968  0.428749  1
  Ga  Ga5  1  0.250000  0.335202  0.576747  1
  Ga  Ga6  1  0.750000  0.170436  0.071400  1
  Ga  Ga7  1  0.250000  0.835443  0.923352  1
  Ir  Ir8  1  0.250000  0.726778  0.601122  1
  Ir  Ir9  1  0.250000  0.226259  0.898439  1
  Pt  Pt10  1  0.750000  0.775532  0.100923  1
  Pt  Pt11  1  0.750000  0.274516  0.399420  1
