# generated using pymatgen
data_Er9Th7(CdFe)4
_symmetry_space_group_name_H-M   'P 1'
_cell_length_a   9.52823161
_cell_length_b   9.52380118
_cell_length_c   9.62655367
_cell_angle_alpha   59.67302613
_cell_angle_beta   60.27202316
_cell_angle_gamma   60.69947155
_symmetry_Int_Tables_number   1
_chemical_formula_structural   Er9Th7(CdFe)4
_chemical_formula_sum   'Er9 Th7 Cd4 Fe4'
_cell_volume   620.60620856
_cell_formula_units_Z   1
loop_
 _symmetry_equiv_pos_site_id
 _symmetry_equiv_pos_as_xyz
  1  'x, y, z'
loop_
 _atom_site_type_symbol
 _atom_site_label
 _atom_site_symmetry_multiplicity
 _atom_site_fract_x
 _atom_site_fract_y
 _atom_site_fract_z
 _atom_site_occupancy
  Er  Er0  1  0.060502  0.439498  0.060502  1
  Er  Er1  1  0.439710  0.444607  0.055232  1
  Er  Er2  1  0.055232  0.060451  0.439710  1
  Er  Er3  1  0.183292  0.816619  0.816813  1
  Er  Er4  1  0.816813  0.183276  0.183292  1
  Er  Er5  1  0.813993  0.186007  0.813993  1
  Er  Er6  1  0.187131  0.812869  0.187131  1
  Er  Er7  1  0.811308  0.810291  0.189662  1
  Er  Er8  1  0.189662  0.188739  0.811308  1
  Th  Th9  1  0.591389  0.593978  0.601216  1
  Th  Th10  1  0.597287  0.592725  0.214479  1
  Th  Th11  1  0.601216  0.213417  0.591389  1
  Th  Th12  1  0.214479  0.595509  0.597287  1
  Th  Th13  1  0.063018  0.434438  0.431726  1
  Th  Th14  1  0.431726  0.070818  0.063018  1
  Th  Th15  1  0.434440  0.065560  0.434440  1
  Cd  Cd16  1  0.833976  0.831616  0.831029  1
  Cd  Cd17  1  0.834853  0.833257  0.501497  1
  Cd  Cd18  1  0.831029  0.503379  0.833976  1
  Cd  Cd19  1  0.501497  0.830393  0.834853  1
  Fe  Fe20  1  0.379746  0.382822  0.403452  1
  Fe  Fe21  1  0.398604  0.371085  0.825643  1
  Fe  Fe22  1  0.403452  0.833980  0.379746  1
  Fe  Fe23  1  0.825643  0.404667  0.398604  1
