# generated using pymatgen
data_AcSi3Pt
_symmetry_space_group_name_H-M   'P 1'
_cell_length_a   5.80564068
_cell_length_b   5.80564016
_cell_length_c   5.80564043
_cell_angle_alpha   134.81581956
_cell_angle_beta   134.81581346
_cell_angle_gamma   65.81651771
_symmetry_Int_Tables_number   1
_chemical_formula_structural   AcSi3Pt
_chemical_formula_sum   'Ac1 Si3 Pt1'
_cell_volume   96.98280129
_cell_formula_units_Z   1
loop_
 _symmetry_equiv_pos_site_id
 _symmetry_equiv_pos_as_xyz
  1  'x, y, z'
loop_
 _atom_site_type_symbol
 _atom_site_label
 _atom_site_symmetry_multiplicity
 _atom_site_fract_x
 _atom_site_fract_y
 _atom_site_fract_z
 _atom_site_occupancy
  Ac  Ac0  1  0.605133  0.605133  0.000000  1
  Si  Si1  1  0.862963  0.362963  0.500000  1
  Si  Si2  1  0.362963  0.862963  0.500000  1
  Si  Si3  1  0.995778  0.995778  0.000000  1
  Pt  Pt4  1  0.253263  0.253263  0.000000  1
