# generated using pymatgen
data_Pr16Sm3HoSn16
_symmetry_space_group_name_H-M   'P 1'
_cell_length_a   8.32119876
_cell_length_b   8.49269641
_cell_length_c   16.07590700
_cell_angle_alpha   90.00000000
_cell_angle_beta   90.00000000
_cell_angle_gamma   89.89491907
_symmetry_Int_Tables_number   1
_chemical_formula_structural   Pr16Sm3HoSn16
_chemical_formula_sum   'Pr16 Sm3 Ho1 Sn16'
_cell_volume   1136.07303053
_cell_formula_units_Z   1
loop_
 _symmetry_equiv_pos_site_id
 _symmetry_equiv_pos_as_xyz
  1  'x, y, z'
loop_
 _atom_site_type_symbol
 _atom_site_label
 _atom_site_symmetry_multiplicity
 _atom_site_fract_x
 _atom_site_fract_y
 _atom_site_fract_z
 _atom_site_occupancy
  Pr  Pr0  1  0.366622  0.836535  0.879056  1
  Pr  Pr1  1  0.867628  0.662711  0.620774  1
  Pr  Pr2  1  0.632977  0.163298  0.379295  1
  Pr  Pr3  1  0.132809  0.336707  0.120150  1
  Pr  Pr4  1  0.632977  0.163298  0.120705  1
  Pr  Pr5  1  0.132809  0.336707  0.379850  1
  Pr  Pr6  1  0.366622  0.836535  0.620944  1
  Pr  Pr7  1  0.867628  0.662711  0.879226  1
  Pr  Pr8  1  0.517612  0.319385  0.900814  1
  Pr  Pr9  1  0.018334  0.181501  0.599193  1
  Pr  Pr10  1  0.482023  0.681081  0.401088  1
  Pr  Pr11  1  0.981822  0.819009  0.099074  1
  Pr  Pr12  1  0.482023  0.681081  0.098912  1
  Pr  Pr13  1  0.981822  0.819009  0.400926  1
  Pr  Pr14  1  0.517612  0.319385  0.599186  1
  Pr  Pr15  1  0.018334  0.181501  0.900807  1
  Sm  Sm16  1  0.697732  0.998653  0.750000  1
  Sm  Sm17  1  0.802517  0.498365  0.250000  1
  Sm  Sm18  1  0.302605  0.001732  0.250000  1
  Ho  Ho19  1  0.199126  0.501518  0.750000  1
  Sn  Sn20  1  0.292613  0.034762  0.042986  1
  Sn  Sn21  1  0.792268  0.465033  0.456930  1
  Sn  Sn22  1  0.707384  0.965127  0.543446  1
  Sn  Sn23  1  0.207380  0.534290  0.955704  1
  Sn  Sn24  1  0.707384  0.965127  0.956554  1
  Sn  Sn25  1  0.207380  0.534290  0.544296  1
  Sn  Sn26  1  0.292613  0.034762  0.457014  1
  Sn  Sn27  1  0.792268  0.465033  0.043070  1
  Sn  Sn28  1  0.563489  0.615646  0.750000  1
  Sn  Sn29  1  0.065953  0.883027  0.750000  1
  Sn  Sn30  1  0.434359  0.384209  0.250000  1
  Sn  Sn31  1  0.934698  0.115716  0.250000  1
  Sn  Sn32  1  0.322713  0.146841  0.750000  1
  Sn  Sn33  1  0.823743  0.356024  0.750000  1
  Sn  Sn34  1  0.676841  0.855019  0.250000  1
  Sn  Sn35  1  0.177282  0.644367  0.250000  1
