# generated using pymatgen
data_Li(NbSe2)4
_symmetry_space_group_name_H-M   'P 1'
_cell_length_a   6.99137300
_cell_length_b   6.99121444
_cell_length_c   13.77512300
_cell_angle_alpha   90.00000000
_cell_angle_beta   90.00000000
_cell_angle_gamma   119.99789062
_symmetry_Int_Tables_number   1
_chemical_formula_structural   Li(NbSe2)4
_chemical_formula_sum   'Li2 Nb8 Se16'
_cell_volume   583.10993926
_cell_formula_units_Z   2
loop_
 _symmetry_equiv_pos_site_id
 _symmetry_equiv_pos_as_xyz
  1  'x, y, z'
loop_
 _atom_site_type_symbol
 _atom_site_label
 _atom_site_symmetry_multiplicity
 _atom_site_fract_x
 _atom_site_fract_y
 _atom_site_fract_z
 _atom_site_occupancy
  Li  Li0  1  0.000000  0.000000  0.500000  1
  Li  Li1  1  0.000000  0.000000  0.000000  1
  Nb  Nb2  1  0.000003  0.999990  0.250000  1
  Nb  Nb3  1  0.999997  0.000010  0.750000  1
  Nb  Nb4  1  0.509145  0.018312  0.250000  1
  Nb  Nb5  1  0.981701  0.490851  0.250000  1
  Nb  Nb6  1  0.509133  0.490842  0.250000  1
  Nb  Nb7  1  0.490855  0.981688  0.750000  1
  Nb  Nb8  1  0.018299  0.509149  0.750000  1
  Nb  Nb9  1  0.490867  0.509158  0.750000  1
  Se  Se10  1  0.333288  0.666673  0.877651  1
  Se  Se11  1  0.666712  0.333327  0.122349  1
  Se  Se12  1  0.666712  0.333327  0.377651  1
  Se  Se13  1  0.333288  0.666673  0.622349  1
  Se  Se14  1  0.831698  0.663323  0.869758  1
  Se  Se15  1  0.336658  0.168315  0.869758  1
  Se  Se16  1  0.831689  0.168359  0.869759  1
  Se  Se17  1  0.168302  0.336677  0.130242  1
  Se  Se18  1  0.663342  0.831685  0.130242  1
  Se  Se19  1  0.168311  0.831641  0.130241  1
  Se  Se20  1  0.168302  0.336677  0.369758  1
  Se  Se21  1  0.663342  0.831685  0.369758  1
  Se  Se22  1  0.168311  0.831641  0.369759  1
  Se  Se23  1  0.831698  0.663323  0.630242  1
  Se  Se24  1  0.336658  0.168315  0.630242  1
  Se  Se25  1  0.831689  0.168359  0.630241  1
