# generated using pymatgen
data_Ce3Nd3Y4(Al2Ru3)2
_symmetry_space_group_name_H-M   'P 1'
_cell_length_a   8.54736602
_cell_length_b   8.54736658
_cell_length_c   8.54736650
_cell_angle_alpha   110.34050224
_cell_angle_beta   110.34050645
_cell_angle_gamma   110.34050776
_symmetry_Int_Tables_number   1
_chemical_formula_structural   Ce3Nd3Y4(Al2Ru3)2
_chemical_formula_sum   'Ce3 Nd3 Y4 Al4 Ru6'
_cell_volume   464.58691732
_cell_formula_units_Z   1
loop_
 _symmetry_equiv_pos_site_id
 _symmetry_equiv_pos_as_xyz
  1  'x, y, z'
loop_
 _atom_site_type_symbol
 _atom_site_label
 _atom_site_symmetry_multiplicity
 _atom_site_fract_x
 _atom_site_fract_y
 _atom_site_fract_z
 _atom_site_occupancy
  Ce  Ce0  1  0.250801  0.199835  0.945402  1
  Ce  Ce1  1  0.945402  0.250801  0.199835  1
  Ce  Ce2  1  0.199835  0.945402  0.250801  1
  Nd  Nd3  1  0.723954  0.506869  0.993209  1
  Nd  Nd4  1  0.993209  0.723954  0.506869  1
  Nd  Nd5  1  0.506869  0.993209  0.723954  1
  Y  Y6  1  0.780249  0.780249  0.780249  1
  Y  Y7  1  0.313082  0.565018  0.753292  1
  Y  Y8  1  0.753292  0.313082  0.565018  1
  Y  Y9  1  0.565018  0.753292  0.313082  1
  Al  Al10  1  0.410394  0.410394  0.410394  1
  Al  Al11  1  0.098641  0.497205  0.003674  1
  Al  Al12  1  0.003674  0.098641  0.497205  1
  Al  Al13  1  0.497205  0.003674  0.098641  1
  Ru  Ru14  1  0.911849  0.121415  0.753758  1
  Ru  Ru15  1  0.753758  0.911849  0.121415  1
  Ru  Ru16  1  0.121415  0.753758  0.911849  1
  Ru  Ru17  1  0.221801  0.587146  0.362406  1
  Ru  Ru18  1  0.362406  0.221801  0.587146  1
  Ru  Ru19  1  0.587146  0.362406  0.221801  1
