# generated using pymatgen
data_Pr2Pa(AlIr)3
_symmetry_space_group_name_H-M   'P 1'
_cell_length_a   7.27527513
_cell_length_b   7.30810762
_cell_length_c   4.03569400
_cell_angle_alpha   90.00000000
_cell_angle_beta   90.00000000
_cell_angle_gamma   120.14940601
_symmetry_Int_Tables_number   1
_chemical_formula_structural   Pr2Pa(AlIr)3
_chemical_formula_sum   'Pr2 Pa1 Al3 Ir3'
_cell_volume   185.54421141
_cell_formula_units_Z   1
loop_
 _symmetry_equiv_pos_site_id
 _symmetry_equiv_pos_as_xyz
  1  'x, y, z'
loop_
 _atom_site_type_symbol
 _atom_site_label
 _atom_site_symmetry_multiplicity
 _atom_site_fract_x
 _atom_site_fract_y
 _atom_site_fract_z
 _atom_site_occupancy
  Pr  Pr0  1  0.416290  0.419645  0.500000  1
  Pr  Pr1  1  0.583710  0.003355  0.500000  1
  Pa  Pa2  1  0.000000  0.580926  0.500000  1
  Al  Al3  1  0.769313  0.763674  0.000000  1
  Al  Al4  1  0.230687  0.994360  0.000000  1
  Al  Al5  1  0.000000  0.226515  0.000000  1
  Ir  Ir6  1  0.708944  0.368877  0.000000  1
  Ir  Ir7  1  0.291056  0.659934  0.000000  1
  Ir  Ir8  1  0.000000  0.982714  0.500000  1
