# generated using pymatgen
data_Sm2ScSbO7
_symmetry_space_group_name_H-M   'P 1'
_cell_length_a   7.47146738
_cell_length_b   7.43529698
_cell_length_c   7.52940000
_cell_angle_alpha   89.99873935
_cell_angle_beta   59.74549132
_cell_angle_gamma   119.83959735
_symmetry_Int_Tables_number   1
_chemical_formula_structural   Sm2ScSbO7
_chemical_formula_sum   'Sm4 Sc2 Sb2 O14'
_cell_volume   295.33857679
_cell_formula_units_Z   2
loop_
 _symmetry_equiv_pos_site_id
 _symmetry_equiv_pos_as_xyz
  1  'x, y, z'
loop_
 _atom_site_type_symbol
 _atom_site_label
 _atom_site_symmetry_multiplicity
 _atom_site_fract_x
 _atom_site_fract_y
 _atom_site_fract_z
 _atom_site_occupancy
  Sm  Sm0  1  0.499991  0.499999  0.000006  1
  Sm  Sm1  1  0.499974  0.999981  0.000009  1
  Sm  Sm2  1  0.999990  0.999989  0.499995  1
  Sm  Sm3  1  0.999988  0.999982  0.000016  1
  Sc  Sc4  1  0.500004  0.999979  0.500061  1
  Sc  Sc5  1  0.500010  0.500048  0.499951  1
  Sb  Sb6  1  0.000047  0.500064  0.999980  1
  Sb  Sb7  1  0.000042  0.500035  0.499975  1
  O  O8  1  0.255389  0.127695  0.122304  1
  O  O9  1  0.744602  0.872300  0.877698  1
  O  O10  1  0.689502  0.844744  0.405248  1
  O  O11  1  0.854681  0.427343  0.822658  1
  O  O12  1  0.249862  0.823735  0.843022  1
  O  O13  1  0.249871  0.426120  0.407110  1
  O  O14  1  0.249882  0.426118  0.843012  1
  O  O15  1  0.249880  0.823753  0.407107  1
  O  O16  1  0.310490  0.155240  0.594755  1
  O  O17  1  0.145307  0.572654  0.177345  1
  O  O18  1  0.750113  0.176231  0.156982  1
  O  O19  1  0.750118  0.573875  0.592896  1
  O  O20  1  0.750130  0.573871  0.156975  1
  O  O21  1  0.750127  0.176246  0.592898  1
