# generated using pymatgen
data_SrSb12Os3W
_symmetry_space_group_name_H-M   'P 1'
_cell_length_a   8.20346278
_cell_length_b   8.26795023
_cell_length_c   8.26794977
_cell_angle_alpha   109.62867101
_cell_angle_beta   109.31328677
_cell_angle_gamma   109.31330682
_symmetry_Int_Tables_number   1
_chemical_formula_structural   SrSb12Os3W
_chemical_formula_sum   'Sr1 Sb12 Os3 W1'
_cell_volume   432.52756375
_cell_formula_units_Z   1
loop_
 _symmetry_equiv_pos_site_id
 _symmetry_equiv_pos_as_xyz
  1  'x, y, z'
loop_
 _atom_site_type_symbol
 _atom_site_label
 _atom_site_symmetry_multiplicity
 _atom_site_fract_x
 _atom_site_fract_y
 _atom_site_fract_z
 _atom_site_occupancy
  Sr  Sr0  1  0.000000  0.000000  0.000000  1
  Sb  Sb1  1  0.338279  0.158290  0.496015  1
  Sb  Sb2  1  0.337758  0.839637  0.186840  1
  Sb  Sb3  1  0.662242  0.160363  0.813160  1
  Sb  Sb4  1  0.820010  0.662275  0.158290  1
  Sb  Sb5  1  0.157735  0.496015  0.337725  1
  Sb  Sb6  1  0.501878  0.652798  0.839637  1
  Sb  Sb7  1  0.849080  0.186840  0.347202  1
  Sb  Sb8  1  0.661721  0.841710  0.503985  1
  Sb  Sb9  1  0.179990  0.337725  0.841710  1
  Sb  Sb10  1  0.150920  0.813160  0.652798  1
  Sb  Sb11  1  0.498122  0.347202  0.160363  1
  Sb  Sb12  1  0.842265  0.503985  0.662275  1
  Os  Os13  1  0.500000  0.500000  0.500000  1
  Os  Os14  1  0.000000  0.500000  0.000000  1
  Os  Os15  1  0.000000  0.000000  0.500000  1
  W  W16  1  0.500000  0.000000  0.000000  1
