# generated using pymatgen
data_TbPr(SeO3)3
_symmetry_space_group_name_H-M   'P 1'
_cell_length_a   7.08162711
_cell_length_b   8.04349310
_cell_length_c   9.27678600
_cell_angle_alpha   69.44847348
_cell_angle_beta   76.36795613
_cell_angle_gamma   64.57849054
_symmetry_Int_Tables_number   1
_chemical_formula_structural   TbPr(SeO3)3
_chemical_formula_sum   'Tb2 Pr2 Se6 O18'
_cell_volume   444.61486321
_cell_formula_units_Z   2
loop_
 _symmetry_equiv_pos_site_id
 _symmetry_equiv_pos_as_xyz
  1  'x, y, z'
loop_
 _atom_site_type_symbol
 _atom_site_label
 _atom_site_symmetry_multiplicity
 _atom_site_fract_x
 _atom_site_fract_y
 _atom_site_fract_z
 _atom_site_occupancy
  Tb  Tb0  1  0.233238  0.309114  0.125324  1
  Tb  Tb1  1  0.766762  0.690886  0.874676  1
  Pr  Pr2  1  0.630078  0.350477  0.322039  1
  Pr  Pr3  1  0.369922  0.649523  0.677961  1
  Se  Se4  1  0.451042  0.169760  0.752969  1
  Se  Se5  1  0.185962  0.759284  0.035658  1
  Se  Se6  1  0.858486  0.780142  0.500002  1
  Se  Se7  1  0.814038  0.240716  0.964342  1
  Se  Se8  1  0.548958  0.830240  0.247031  1
  Se  Se9  1  0.141514  0.219858  0.499998  1
  O  O10  1  0.676890  0.011474  0.838000  1
  O  O11  1  0.323110  0.988526  0.162000  1
  O  O12  1  0.628451  0.803269  0.626835  1
  O  O13  1  0.371549  0.196731  0.373165  1
  O  O14  1  0.392986  0.770273  0.896766  1
  O  O15  1  0.333481  0.329402  0.864155  1
  O  O16  1  0.908762  0.350971  0.050394  1
  O  O17  1  0.529921  0.330227  0.595449  1
  O  O18  1  0.712329  0.442869  0.816033  1
  O  O19  1  0.091238  0.649029  0.949606  1
  O  O20  1  0.162262  0.992388  0.586804  1
  O  O21  1  0.019450  0.684420  0.651885  1
  O  O22  1  0.607014  0.229727  0.103234  1
  O  O23  1  0.666519  0.670598  0.135845  1
  O  O24  1  0.470079  0.669773  0.404551  1
  O  O25  1  0.287671  0.557131  0.183967  1
  O  O26  1  0.837738  0.007612  0.413196  1
  O  O27  1  0.980550  0.315580  0.348115  1
