# generated using pymatgen
data_Ce4B8Os3Ru
_symmetry_space_group_name_H-M   'P 1'
_cell_length_a   5.37630000
_cell_length_b   5.90857060
_cell_length_c   6.51859928
_cell_angle_alpha   89.76604050
_cell_angle_beta   90.00000000
_cell_angle_gamma   90.00000000
_symmetry_Int_Tables_number   1
_chemical_formula_structural   Ce4B8Os3Ru
_chemical_formula_sum   'Ce4 B8 Os3 Ru1'
_cell_volume   207.06971561
_cell_formula_units_Z   1
loop_
 _symmetry_equiv_pos_site_id
 _symmetry_equiv_pos_as_xyz
  1  'x, y, z'
loop_
 _atom_site_type_symbol
 _atom_site_label
 _atom_site_symmetry_multiplicity
 _atom_site_fract_x
 _atom_site_fract_y
 _atom_site_fract_z
 _atom_site_occupancy
  Ce  Ce0  1  0.750000  0.496159  0.159632  1
  Ce  Ce1  1  0.750000  0.997104  0.339244  1
  Ce  Ce2  1  0.250000  0.501939  0.843625  1
  Ce  Ce3  1  0.250000  0.001847  0.658208  1
  B  B4  1  0.911826  0.125697  0.960978  1
  B  B5  1  0.587377  0.628011  0.537535  1
  B  B6  1  0.412339  0.873421  0.037479  1
  B  B7  1  0.088067  0.373929  0.464197  1
  B  B8  1  0.087661  0.873421  0.037479  1
  B  B9  1  0.411933  0.373929  0.464197  1
  B  B10  1  0.588174  0.125697  0.960978  1
  B  B11  1  0.912623  0.628011  0.537535  1
  Os  Os12  1  0.750000  0.313029  0.686790  1
  Os  Os13  1  0.750000  0.812856  0.811749  1
  Os  Os14  1  0.250000  0.687159  0.313541  1
  Ru  Ru15  1  0.250000  0.187793  0.186831  1
