# generated using pymatgen
data_Li3Ca2Co2(NiAs)7
_symmetry_space_group_name_H-M   'P 1'
_cell_length_a   3.85564000
_cell_length_b   9.43096270
_cell_length_c   9.48387267
_cell_angle_alpha   120.09999555
_cell_angle_beta   90.00000000
_cell_angle_gamma   90.00000000
_symmetry_Int_Tables_number   1
_chemical_formula_structural   Li3Ca2Co2(NiAs)7
_chemical_formula_sum   'Li3 Ca2 Co2 Ni7 As7'
_cell_volume   298.35296849
_cell_formula_units_Z   1
loop_
 _symmetry_equiv_pos_site_id
 _symmetry_equiv_pos_as_xyz
  1  'x, y, z'
loop_
 _atom_site_type_symbol
 _atom_site_label
 _atom_site_symmetry_multiplicity
 _atom_site_fract_x
 _atom_site_fract_y
 _atom_site_fract_z
 _atom_site_occupancy
  Li  Li0  1  0.500000  0.788623  0.892775  1
  Li  Li1  1  0.500000  0.102586  0.209697  1
  Li  Li2  1  0.500000  0.106651  0.897125  1
  Ca  Ca3  1  0.000000  0.667055  0.333377  1
  Ca  Ca4  1  0.500000  0.333577  0.667531  1
  Co  Co5  1  0.500000  0.952413  0.386820  1
  Co  Co6  1  0.500000  0.433798  0.047482  1
  Ni  Ni7  1  0.000000  0.572519  0.947948  1
  Ni  Ni8  1  0.000000  0.375444  0.428269  1
  Ni  Ni9  1  0.000000  0.053173  0.624631  1
  Ni  Ni10  1  0.000000  0.875578  0.161705  1
  Ni  Ni11  1  0.000000  0.286580  0.124308  1
  Ni  Ni12  1  0.000000  0.838320  0.713301  1
  Ni  Ni13  1  0.500000  0.612509  0.565331  1
  As  As14  1  0.500000  0.710035  0.118237  1
  As  As15  1  0.500000  0.405596  0.286202  1
  As  As16  1  0.500000  0.885833  0.592298  1
  As  As17  1  0.000000  0.998849  0.999394  1
  As  As18  1  0.000000  0.587536  0.702531  1
  As  As19  1  0.000000  0.112133  0.412625  1
  As  As20  1  0.000000  0.301194  0.888412  1
