# generated using pymatgen
data_Ce8TiSi16Mo11
_symmetry_space_group_name_H-M   'P 1'
_cell_length_a   6.89204165
_cell_length_b   6.99828923
_cell_length_c   13.03132500
_cell_angle_alpha   90.00000000
_cell_angle_beta   90.00000000
_cell_angle_gamma   90.05159406
_symmetry_Int_Tables_number   1
_chemical_formula_structural   Ce8TiSi16Mo11
_chemical_formula_sum   'Ce8 Ti1 Si16 Mo11'
_cell_volume   628.53313968
_cell_formula_units_Z   1
loop_
 _symmetry_equiv_pos_site_id
 _symmetry_equiv_pos_as_xyz
  1  'x, y, z'
loop_
 _atom_site_type_symbol
 _atom_site_label
 _atom_site_symmetry_multiplicity
 _atom_site_fract_x
 _atom_site_fract_y
 _atom_site_fract_z
 _atom_site_occupancy
  Ce  Ce0  1  0.004645  0.161379  0.093268  1
  Ce  Ce1  1  0.504874  0.338904  0.407037  1
  Ce  Ce2  1  0.495934  0.663399  0.906653  1
  Ce  Ce3  1  0.997239  0.836572  0.592949  1
  Ce  Ce4  1  0.997239  0.836572  0.907051  1
  Ce  Ce5  1  0.495934  0.663399  0.593347  1
  Ce  Ce6  1  0.504874  0.338904  0.092963  1
  Ce  Ce7  1  0.004645  0.161379  0.406732  1
  Ti  Ti8  1  0.333931  0.003656  0.750000  1
  Si  Si9  1  0.808412  0.375799  0.250000  1
  Si  Si10  1  0.309175  0.125186  0.250000  1
  Si  Si11  1  0.694955  0.876495  0.750000  1
  Si  Si12  1  0.192662  0.619603  0.750000  1
  Si  Si13  1  0.037885  0.860446  0.250000  1
  Si  Si14  1  0.540075  0.640929  0.250000  1
  Si  Si15  1  0.461798  0.365553  0.750000  1
  Si  Si16  1  0.958121  0.138184  0.750000  1
  Si  Si17  1  0.843203  0.454539  0.953325  1
  Si  Si18  1  0.344106  0.043962  0.545470  1
  Si  Si19  1  0.654559  0.955027  0.047617  1
  Si  Si20  1  0.155513  0.544379  0.452603  1
  Si  Si21  1  0.155513  0.544379  0.047397  1
  Si  Si22  1  0.654559  0.955027  0.452383  1
  Si  Si23  1  0.344106  0.043962  0.954530  1
  Si  Si24  1  0.843203  0.454539  0.546675  1
  Mo  Mo25  1  0.669342  0.002930  0.250000  1
  Mo  Mo26  1  0.168717  0.497838  0.250000  1
  Mo  Mo27  1  0.831740  0.499370  0.750000  1
  Mo  Mo28  1  0.832850  0.664089  0.125461  1
  Mo  Mo29  1  0.330692  0.835233  0.373069  1
  Mo  Mo30  1  0.666042  0.167472  0.875158  1
  Mo  Mo31  1  0.166935  0.332051  0.625018  1
  Mo  Mo32  1  0.166935  0.332051  0.874982  1
  Mo  Mo33  1  0.666042  0.167472  0.624842  1
  Mo  Mo34  1  0.330692  0.835233  0.126931  1
  Mo  Mo35  1  0.832850  0.664089  0.374539  1
