# generated using pymatgen
data_Dy4NbOs6W
_symmetry_space_group_name_H-M   'P 1'
_cell_length_a   5.26441944
_cell_length_b   5.26442157
_cell_length_c   9.03635600
_cell_angle_alpha   90.00000000
_cell_angle_beta   90.00000000
_cell_angle_gamma   115.87333617
_symmetry_Int_Tables_number   1
_chemical_formula_structural   Dy4NbOs6W
_chemical_formula_sum   'Dy4 Nb1 Os6 W1'
_cell_volume   225.33135097
_cell_formula_units_Z   1
loop_
 _symmetry_equiv_pos_site_id
 _symmetry_equiv_pos_as_xyz
  1  'x, y, z'
loop_
 _atom_site_type_symbol
 _atom_site_label
 _atom_site_symmetry_multiplicity
 _atom_site_fract_x
 _atom_site_fract_y
 _atom_site_fract_z
 _atom_site_occupancy
  Dy  Dy0  1  0.330158  0.669842  0.433566  1
  Dy  Dy1  1  0.670296  0.329704  0.562685  1
  Dy  Dy2  1  0.670296  0.329704  0.937315  1
  Dy  Dy3  1  0.330158  0.669842  0.066434  1
  Nb  Nb4  1  0.159860  0.840140  0.750000  1
  Os  Os5  1  0.996355  0.003645  0.496934  1
  Os  Os6  1  0.996355  0.003645  0.003066  1
  Os  Os7  1  0.825608  0.646669  0.250000  1
  Os  Os8  1  0.353331  0.174392  0.250000  1
  Os  Os9  1  0.177264  0.349908  0.750000  1
  Os  Os10  1  0.650092  0.822736  0.750000  1
  W  W11  1  0.840227  0.159773  0.250000  1
