# generated using pymatgen
data_Sc2Mn2Fe5Co5P7
_symmetry_space_group_name_H-M   'P 1'
_cell_length_a   8.91180432
_cell_length_b   8.97246108
_cell_length_c   3.54692500
_cell_angle_alpha   90.00000000
_cell_angle_beta   90.00000000
_cell_angle_gamma   120.00798640
_symmetry_Int_Tables_number   1
_chemical_formula_structural   Sc2Mn2Fe5Co5P7
_chemical_formula_sum   'Sc2 Mn2 Fe5 Co5 P7'
_cell_volume   245.59804549
_cell_formula_units_Z   1
loop_
 _symmetry_equiv_pos_site_id
 _symmetry_equiv_pos_as_xyz
  1  'x, y, z'
loop_
 _atom_site_type_symbol
 _atom_site_label
 _atom_site_symmetry_multiplicity
 _atom_site_fract_x
 _atom_site_fract_y
 _atom_site_fract_z
 _atom_site_occupancy
  Sc  Sc0  1  0.005008  0.003538  0.000000  1
  Sc  Sc1  1  0.664254  0.332956  0.500000  1
  Mn  Mn2  1  0.100792  0.560503  0.500000  1
  Mn  Mn3  1  0.459120  0.894086  0.500000  1
  Fe  Fe4  1  0.613175  0.788157  0.000000  1
  Fe  Fe5  1  0.174777  0.389741  0.000000  1
  Fe  Fe6  1  0.214544  0.821098  0.000000  1
  Fe  Fe7  1  0.282530  0.055583  0.500000  1
  Fe  Fe8  1  0.434771  0.537517  0.500000  1
  Co  Co9  1  0.395762  0.298852  0.000000  1
  Co  Co10  1  0.898291  0.602401  0.000000  1
  Co  Co11  1  0.701499  0.099790  0.000000  1
  Co  Co12  1  0.773735  0.718190  0.500000  1
  Co  Co13  1  0.944807  0.226331  0.500000  1
  P  P14  1  0.628577  0.551601  0.000000  1
  P  P15  1  0.916569  0.366412  0.000000  1
  P  P16  1  0.446113  0.081798  0.000000  1
  P  P17  1  0.746630  0.954126  0.500000  1
  P  P18  1  0.215150  0.260986  0.500000  1
  P  P19  1  0.048534  0.792577  0.500000  1
  P  P20  1  0.335363  0.663756  0.000000  1
