# generated using pymatgen
data_Tb3Y3Ho4(In2Pd)4
_symmetry_space_group_name_H-M   'P 1'
_cell_length_a   3.63826100
_cell_length_b   8.16323805
_cell_length_c   18.27346811
_cell_angle_alpha   90.01242922
_cell_angle_beta   90.00000000
_cell_angle_gamma   90.00000000
_symmetry_Int_Tables_number   1
_chemical_formula_structural   Tb3Y3Ho4(In2Pd)4
_chemical_formula_sum   'Tb3 Y3 Ho4 In8 Pd4'
_cell_volume   542.72181869
_cell_formula_units_Z   1
loop_
 _symmetry_equiv_pos_site_id
 _symmetry_equiv_pos_as_xyz
  1  'x, y, z'
loop_
 _atom_site_type_symbol
 _atom_site_label
 _atom_site_symmetry_multiplicity
 _atom_site_fract_x
 _atom_site_fract_y
 _atom_site_fract_z
 _atom_site_occupancy
  Tb  Tb0  1  0.000000  0.739019  0.281181  1
  Tb  Tb1  1  0.000000  0.261012  0.718819  1
  Tb  Tb2  1  0.000000  0.761038  0.781174  1
  Y  Y3  1  0.000000  0.499997  0.499995  1
  Y  Y4  1  0.000000  0.999992  0.999999  1
  Y  Y5  1  0.000000  0.238851  0.218744  1
  Ho  Ho6  1  0.000000  0.617059  0.083420  1
  Ho  Ho7  1  0.000000  0.382909  0.916613  1
  Ho  Ho8  1  0.000000  0.882897  0.583395  1
  Ho  Ho9  1  0.000000  0.117073  0.416575  1
  In  In10  1  0.500000  0.707737  0.932773  1
  In  In11  1  0.500000  0.292259  0.067277  1
  In  In12  1  0.500000  0.792297  0.432778  1
  In  In13  1  0.500000  0.207726  0.567216  1
  In  In14  1  0.500000  0.581344  0.650237  1
  In  In15  1  0.500000  0.418597  0.349693  1
  In  In16  1  0.500000  0.918740  0.150285  1
  In  In17  1  0.500000  0.081333  0.849746  1
  Pd  Pd18  1  0.500000  0.524102  0.194984  1
  Pd  Pd19  1  0.500000  0.476134  0.805016  1
  Pd  Pd20  1  0.500000  0.976124  0.695006  1
  Pd  Pd21  1  0.500000  0.023757  0.305075  1
