# generated using pymatgen
data_ScZn4Ru
_symmetry_space_group_name_H-M   'P 1'
_cell_length_a   5.04310100
_cell_length_b   5.04310025
_cell_length_c   8.08410700
_cell_angle_alpha   90.00000000
_cell_angle_beta   90.00000000
_cell_angle_gamma   119.99999837
_symmetry_Int_Tables_number   1
_chemical_formula_structural   ScZn4Ru
_chemical_formula_sum   'Sc2 Zn8 Ru2'
_cell_volume   178.05655202
_cell_formula_units_Z   2
loop_
 _symmetry_equiv_pos_site_id
 _symmetry_equiv_pos_as_xyz
  1  'x, y, z'
loop_
 _atom_site_type_symbol
 _atom_site_label
 _atom_site_symmetry_multiplicity
 _atom_site_fract_x
 _atom_site_fract_y
 _atom_site_fract_z
 _atom_site_occupancy
  Sc  Sc0  1  0.666667  0.333333  0.432026  1
  Sc  Sc1  1  0.333333  0.666667  0.932026  1
  Zn  Zn2  1  0.000000  0.000000  0.002907  1
  Zn  Zn3  1  0.000000  0.000000  0.502907  1
  Zn  Zn4  1  0.171501  0.343000  0.249903  1
  Zn  Zn5  1  0.828499  0.171501  0.749903  1
  Zn  Zn6  1  0.343000  0.171501  0.749903  1
  Zn  Zn7  1  0.657000  0.828499  0.249903  1
  Zn  Zn8  1  0.171501  0.828499  0.249903  1
  Zn  Zn9  1  0.828499  0.657000  0.749903  1
  Ru  Ru10  1  0.333333  0.666667  0.565358  1
  Ru  Ru11  1  0.666667  0.333333  0.065358  1
