# generated using pymatgen
data_Nd2PaSn3IrRh2
_symmetry_space_group_name_H-M   'P 1'
_cell_length_a   7.74555197
_cell_length_b   7.65982643
_cell_length_c   3.92958600
_cell_angle_alpha   90.00000000
_cell_angle_beta   90.00000000
_cell_angle_gamma   120.42834648
_symmetry_Int_Tables_number   1
_chemical_formula_structural   Nd2PaSn3IrRh2
_chemical_formula_sum   'Nd2 Pa1 Sn3 Ir1 Rh2'
_cell_volume   201.02864924
_cell_formula_units_Z   1
loop_
 _symmetry_equiv_pos_site_id
 _symmetry_equiv_pos_as_xyz
  1  'x, y, z'
loop_
 _atom_site_type_symbol
 _atom_site_label
 _atom_site_symmetry_multiplicity
 _atom_site_fract_x
 _atom_site_fract_y
 _atom_site_fract_z
 _atom_site_occupancy
  Nd  Nd0  1  0.998095  0.591118  0.000000  1
  Nd  Nd1  1  0.409513  0.406470  0.000000  1
  Pa  Pa2  1  0.585603  0.001067  0.000000  1
  Sn  Sn3  1  0.240702  0.997685  0.500000  1
  Sn  Sn4  1  0.010425  0.264662  0.500000  1
  Sn  Sn5  1  0.743950  0.737975  0.500000  1
  Ir  Ir6  1  0.660719  0.291611  0.500000  1
  Rh  Rh7  1  0.369146  0.708582  0.500000  1
  Rh  Rh8  1  0.981847  0.000830  0.000000  1
