# generated using pymatgen
data_CsIrRh3Se8
_symmetry_space_group_name_H-M   'P 1'
_cell_length_a   3.82648984
_cell_length_b   8.46331131
_cell_length_c   9.53407888
_cell_angle_alpha   80.90769182
_cell_angle_beta   78.42360667
_cell_angle_gamma   76.93458168
_symmetry_Int_Tables_number   1
_chemical_formula_structural   CsIrRh3Se8
_chemical_formula_sum   'Cs1 Ir1 Rh3 Se8'
_cell_volume   292.58736167
_cell_formula_units_Z   1
loop_
 _symmetry_equiv_pos_site_id
 _symmetry_equiv_pos_as_xyz
  1  'x, y, z'
loop_
 _atom_site_type_symbol
 _atom_site_label
 _atom_site_symmetry_multiplicity
 _atom_site_fract_x
 _atom_site_fract_y
 _atom_site_fract_z
 _atom_site_occupancy
  Cs  Cs0  1  0.499712  0.999854  0.000721  1
  Ir  Ir1  1  0.633926  0.197933  0.534215  1
  Rh  Rh2  1  0.840120  0.500067  0.819692  1
  Rh  Rh3  1  0.160229  0.499572  0.179970  1
  Rh  Rh4  1  0.365786  0.803505  0.464922  1
  Se  Se5  1  0.456548  0.329063  0.757842  1
  Se  Se6  1  0.544004  0.669879  0.242111  1
  Se  Se7  1  0.896971  0.635914  0.570145  1
  Se  Se8  1  0.103345  0.363076  0.430234  1
  Se  Se9  1  0.215537  0.647569  0.921356  1
  Se  Se10  1  0.784959  0.350990  0.079093  1
  Se  Se11  1  0.826816  0.988314  0.358055  1
  Se  Se12  1  0.172047  0.014263  0.641643  1
