# generated using pymatgen
data_AgRu2PbO7
_symmetry_space_group_name_H-M   'P 1'
_cell_length_a   7.28547853
_cell_length_b   7.28547886
_cell_length_c   7.36885300
_cell_angle_alpha   59.62070738
_cell_angle_beta   59.62070585
_cell_angle_gamma   59.63517839
_symmetry_Int_Tables_number   1
_chemical_formula_structural   AgRu2PbO7
_chemical_formula_sum   'Ag2 Ru4 Pb2 O14'
_cell_volume   274.21387880
_cell_formula_units_Z   2
loop_
 _symmetry_equiv_pos_site_id
 _symmetry_equiv_pos_as_xyz
  1  'x, y, z'
loop_
 _atom_site_type_symbol
 _atom_site_label
 _atom_site_symmetry_multiplicity
 _atom_site_fract_x
 _atom_site_fract_y
 _atom_site_fract_z
 _atom_site_occupancy
  Ag  Ag0  1  0.625000  0.125000  0.125000  1
  Ag  Ag1  1  0.125000  0.625000  0.125000  1
  Ru  Ru2  1  0.625000  0.625000  0.625000  1
  Ru  Ru3  1  0.125000  0.625000  0.625000  1
  Ru  Ru4  1  0.625000  0.625000  0.125000  1
  Ru  Ru5  1  0.625000  0.125000  0.625000  1
  Pb  Pb6  1  0.125000  0.125000  0.125000  1
  Pb  Pb7  1  0.125000  0.125000  0.625000  1
  O  O8  1  0.981999  0.981999  0.018001  1
  O  O9  1  0.268001  0.268001  0.231999  1
  O  O10  1  0.296980  0.296980  0.703020  1
  O  O11  1  0.560194  0.560194  0.939806  1
  O  O12  1  0.699335  0.304744  0.688452  1
  O  O13  1  0.699335  0.304744  0.307469  1
  O  O14  1  0.304744  0.699335  0.688452  1
  O  O15  1  0.304744  0.699335  0.307469  1
  O  O16  1  0.689806  0.689806  0.310194  1
  O  O17  1  0.945256  0.550665  0.561548  1
  O  O18  1  0.550665  0.945256  0.942531  1
  O  O19  1  0.953020  0.953020  0.546980  1
  O  O20  1  0.945256  0.550665  0.942531  1
  O  O21  1  0.550665  0.945256  0.561548  1
