# generated using pymatgen
data_Dy4TcRh3F28
_symmetry_space_group_name_H-M   'P 1'
_cell_length_a   5.56036883
_cell_length_b   8.88425406
_cell_length_c   11.93222291
_cell_angle_alpha   62.68957201
_cell_angle_beta   90.13603619
_cell_angle_gamma   89.87301913
_symmetry_Int_Tables_number   1
_chemical_formula_structural   Dy4TcRh3F28
_chemical_formula_sum   'Dy4 Tc1 Rh3 F28'
_cell_volume   523.73985437
_cell_formula_units_Z   1
loop_
 _symmetry_equiv_pos_site_id
 _symmetry_equiv_pos_as_xyz
  1  'x, y, z'
loop_
 _atom_site_type_symbol
 _atom_site_label
 _atom_site_symmetry_multiplicity
 _atom_site_fract_x
 _atom_site_fract_y
 _atom_site_fract_z
 _atom_site_occupancy
  Dy  Dy0  1  0.759644  0.816828  0.763485  1
  Dy  Dy1  1  0.258820  0.188035  0.729033  1
  Dy  Dy2  1  0.238080  0.184586  0.240973  1
  Dy  Dy3  1  0.739253  0.807935  0.269105  1
  Tc  Tc4  1  0.757347  0.273594  0.956069  1
  Rh  Rh5  1  0.256697  0.725740  0.545020  1
  Rh  Rh6  1  0.242322  0.727504  0.043059  1
  Rh  Rh7  1  0.742217  0.272652  0.456484  1
  F  F8  1  0.443294  0.706432  0.916541  1
  F  F9  1  0.938061  0.293962  0.585099  1
  F  F10  1  0.558699  0.294406  0.080253  1
  F  F11  1  0.057750  0.704930  0.417840  1
  F  F12  1  0.443208  0.279171  0.542332  1
  F  F13  1  0.947095  0.721326  0.953618  1
  F  F14  1  0.552179  0.719333  0.457024  1
  F  F15  1  0.051875  0.277897  0.044123  1
  F  F16  1  0.771213  0.516620  0.860712  1
  F  F17  1  0.270896  0.479894  0.642846  1
  F  F18  1  0.229403  0.481198  0.139301  1
  F  F19  1  0.728689  0.517312  0.359946  1
  F  F20  1  0.755934  0.031512  0.048776  1
  F  F21  1  0.254647  0.971333  0.451239  1
  F  F22  1  0.242919  0.972890  0.948342  1
  F  F23  1  0.743114  0.027951  0.550055  1
  F  F24  1  0.969041  0.726704  0.639273  1
  F  F25  1  0.472041  0.270844  0.863034  1
  F  F26  1  0.032560  0.271682  0.364185  1
  F  F27  1  0.529978  0.730008  0.137488  1
  F  F28  1  0.045864  0.748137  0.172016  1
  F  F29  1  0.551725  0.252843  0.325115  1
  F  F30  1  0.953174  0.253678  0.828341  1
  F  F31  1  0.452891  0.745015  0.674616  1
  F  F32  1  0.421463  0.974505  0.230881  1
  F  F33  1  0.916596  0.029172  0.266210  1
  F  F34  1  0.586101  0.033304  0.768076  1
  F  F35  1  0.085209  0.971068  0.729488  1
