# generated using pymatgen
data_Dy3HoReB12Ir
_symmetry_space_group_name_H-M   'P 1'
_cell_length_a   3.66995300
_cell_length_b   9.15903251
_cell_length_c   11.54647003
_cell_angle_alpha   90.34458314
_cell_angle_beta   90.00000000
_cell_angle_gamma   90.00000000
_symmetry_Int_Tables_number   1
_chemical_formula_structural   Dy3HoReB12Ir
_chemical_formula_sum   'Dy6 Ho2 Re2 B24 Ir2'
_cell_volume   388.10700525
_cell_formula_units_Z   2
loop_
 _symmetry_equiv_pos_site_id
 _symmetry_equiv_pos_as_xyz
  1  'x, y, z'
loop_
 _atom_site_type_symbol
 _atom_site_label
 _atom_site_symmetry_multiplicity
 _atom_site_fract_x
 _atom_site_fract_y
 _atom_site_fract_z
 _atom_site_occupancy
  Dy  Dy0  1  0.000000  0.317349  0.409920  1
  Dy  Dy1  1  0.000000  0.682651  0.590080  1
  Dy  Dy2  1  0.000000  0.826435  0.082262  1
  Dy  Dy3  1  0.000000  0.173565  0.917738  1
  Dy  Dy4  1  0.000000  0.946054  0.372075  1
  Dy  Dy5  1  0.000000  0.053946  0.627925  1
  Ho  Ho6  1  0.000000  0.441764  0.125903  1
  Ho  Ho7  1  0.000000  0.558236  0.874097  1
  Re  Re8  1  0.000000  0.138700  0.179816  1
  Re  Re9  1  0.000000  0.861300  0.820184  1
  B  B10  1  0.500000  0.554242  0.433800  1
  B  B11  1  0.500000  0.445758  0.566200  1
  B  B12  1  0.500000  0.053453  0.067288  1
  B  B13  1  0.500000  0.946547  0.932712  1
  B  B14  1  0.500000  0.749157  0.421013  1
  B  B15  1  0.500000  0.250843  0.578987  1
  B  B16  1  0.500000  0.247859  0.080807  1
  B  B17  1  0.500000  0.752141  0.919193  1
  B  B18  1  0.500000  0.790567  0.266021  1
  B  B19  1  0.500000  0.209433  0.733979  1
  B  B20  1  0.500000  0.292197  0.234141  1
  B  B21  1  0.500000  0.707803  0.765859  1
  B  B22  1  0.500000  0.631654  0.184034  1
  B  B23  1  0.500000  0.368346  0.815966  1
  B  B24  1  0.500000  0.131840  0.314458  1
  B  B25  1  0.500000  0.868160  0.685542  1
  B  B26  1  0.500000  0.983320  0.212795  1
  B  B27  1  0.500000  0.016680  0.787205  1
  B  B28  1  0.500000  0.482734  0.287239  1
  B  B29  1  0.500000  0.517266  0.712761  1
  B  B30  1  0.500000  0.606948  0.029952  1
  B  B31  1  0.500000  0.393052  0.970048  1
  B  B32  1  0.500000  0.108070  0.470654  1
  B  B33  1  0.500000  0.891930  0.529346  1
  Ir  Ir34  1  0.000000  0.636535  0.322131  1
  Ir  Ir35  1  0.000000  0.363465  0.677869  1
