# generated using pymatgen
data_Pr8Eu11HoSi16
_symmetry_space_group_name_H-M   'P 1'
_cell_length_a   7.71341102
_cell_length_b   8.17835595
_cell_length_c   15.60075400
_cell_angle_alpha   89.97250230
_cell_angle_beta   90.00400373
_cell_angle_gamma   90.00206162
_symmetry_Int_Tables_number   1
_chemical_formula_structural   Pr8Eu11HoSi16
_chemical_formula_sum   'Pr8 Eu11 Ho1 Si16'
_cell_volume   984.14257393
_cell_formula_units_Z   1
loop_
 _symmetry_equiv_pos_site_id
 _symmetry_equiv_pos_as_xyz
  1  'x, y, z'
loop_
 _atom_site_type_symbol
 _atom_site_label
 _atom_site_symmetry_multiplicity
 _atom_site_fract_x
 _atom_site_fract_y
 _atom_site_fract_z
 _atom_site_occupancy
  Pr  Pr0  1  0.966975  0.810010  0.100217  1
  Pr  Pr1  1  0.467628  0.689243  0.400667  1
  Pr  Pr2  1  0.531785  0.311692  0.899879  1
  Pr  Pr3  1  0.030963  0.189569  0.597984  1
  Pr  Pr4  1  0.031155  0.188349  0.899828  1
  Pr  Pr5  1  0.534266  0.310668  0.600944  1
  Pr  Pr6  1  0.466655  0.690268  0.100677  1
  Pr  Pr7  1  0.965517  0.809477  0.399721  1
  Eu  Eu8  1  0.643658  0.001128  0.250231  1
  Eu  Eu9  1  0.142950  0.498453  0.250140  1
  Eu  Eu10  1  0.859412  0.496749  0.750800  1
  Eu  Eu11  1  0.351010  0.002269  0.751009  1
  Eu  Eu12  1  0.682758  0.818336  0.876420  1
  Eu  Eu13  1  0.182172  0.683665  0.621834  1
  Eu  Eu14  1  0.817502  0.317747  0.122269  1
  Eu  Eu15  1  0.318129  0.180455  0.380745  1
  Eu  Eu16  1  0.317615  0.182110  0.122562  1
  Eu  Eu17  1  0.816782  0.317676  0.378560  1
  Eu  Eu18  1  0.183742  0.681566  0.877076  1
  Ho  Ho19  1  0.682347  0.818271  0.622383  1
  Si  Si20  1  0.750842  0.629105  0.250623  1
  Si  Si21  1  0.252168  0.871236  0.250889  1
  Si  Si22  1  0.744245  0.123069  0.745186  1
  Si  Si23  1  0.252804  0.375269  0.748134  1
  Si  Si24  1  0.029378  0.082644  0.251063  1
  Si  Si25  1  0.528074  0.416871  0.251134  1
  Si  Si26  1  0.477016  0.590974  0.747068  1
  Si  Si27  1  0.964950  0.911096  0.743155  1
  Si  Si28  1  0.861455  0.523674  0.960706  1
  Si  Si29  1  0.371720  0.971528  0.542574  1
  Si  Si30  1  0.639220  0.024694  0.037843  1
  Si  Si31  1  0.134310  0.477044  0.462456  1
  Si  Si32  1  0.139289  0.474706  0.037792  1
  Si  Si33  1  0.647806  0.021479  0.467090  1
  Si  Si34  1  0.360567  0.976391  0.961035  1
  Si  Si35  1  0.853133  0.532518  0.539309  1
