# generated using pymatgen
data_Y3TmMg2Rh3
_symmetry_space_group_name_H-M   'P 1'
_cell_length_a   7.48613661
_cell_length_b   7.52454813
_cell_length_c   4.06928900
_cell_angle_alpha   90.00000000
_cell_angle_beta   90.00000000
_cell_angle_gamma   120.16988288
_symmetry_Int_Tables_number   1
_chemical_formula_structural   Y3TmMg2Rh3
_chemical_formula_sum   'Y3 Tm1 Mg2 Rh3'
_cell_volume   198.17156639
_cell_formula_units_Z   1
loop_
 _symmetry_equiv_pos_site_id
 _symmetry_equiv_pos_as_xyz
  1  'x, y, z'
loop_
 _atom_site_type_symbol
 _atom_site_label
 _atom_site_symmetry_multiplicity
 _atom_site_fract_x
 _atom_site_fract_y
 _atom_site_fract_z
 _atom_site_occupancy
  Y  Y0  1  0.000000  0.611040  0.500000  1
  Y  Y1  1  0.433955  0.412720  0.500000  1
  Y  Y2  1  0.566045  0.978766  0.500000  1
  Tm  Tm3  1  0.000000  0.247594  0.000000  1
  Mg  Mg4  1  0.250461  0.004167  0.000000  1
  Mg  Mg5  1  0.749539  0.753706  0.000000  1
  Rh  Rh6  1  0.324278  0.657189  0.000000  1
  Rh  Rh7  1  0.000000  0.001906  0.500000  1
  Rh  Rh8  1  0.675722  0.332909  0.000000  1
