# generated using pymatgen
data_SrAc4InSn2
_symmetry_space_group_name_H-M   'P 1'
_cell_length_a   10.14993393
_cell_length_b   10.14993417
_cell_length_c   10.11161000
_cell_angle_alpha   128.42091277
_cell_angle_beta   128.42091385
_cell_angle_gamma   76.22116341
_symmetry_Int_Tables_number   1
_chemical_formula_structural   SrAc4InSn2
_chemical_formula_sum   'Sr2 Ac8 In2 Sn4'
_cell_volume   620.55615436
_cell_formula_units_Z   2
loop_
 _symmetry_equiv_pos_site_id
 _symmetry_equiv_pos_as_xyz
  1  'x, y, z'
loop_
 _atom_site_type_symbol
 _atom_site_label
 _atom_site_symmetry_multiplicity
 _atom_site_fract_x
 _atom_site_fract_y
 _atom_site_fract_z
 _atom_site_occupancy
  Sr  Sr0  1  0.000000  0.000000  0.000000  1
  Sr  Sr1  1  0.500000  0.500000  0.000000  1
  Ac  Ac2  1  0.815392  0.315392  0.837735  1
  Ac  Ac3  1  0.184608  0.684608  0.162265  1
  Ac  Ac4  1  0.477657  0.977657  0.162265  1
  Ac  Ac5  1  0.315192  0.482183  0.500000  1
  Ac  Ac6  1  0.017817  0.184808  0.500000  1
  Ac  Ac7  1  0.522343  0.022343  0.837735  1
  Ac  Ac8  1  0.684808  0.517817  0.500000  1
  Ac  Ac9  1  0.982183  0.815192  0.500000  1
  In  In10  1  0.123888  0.623888  0.747776  1
  In  In11  1  0.876112  0.376112  0.252224  1
  Sn  Sn12  1  0.626616  0.873384  0.500000  1
  Sn  Sn13  1  0.373384  0.126616  0.500000  1
  Sn  Sn14  1  0.250000  0.250000  0.000000  1
  Sn  Sn15  1  0.750000  0.750000  0.000000  1
