# generated using pymatgen
data_TlBiPd2F14
_symmetry_space_group_name_H-M   'P 1'
_cell_length_a   5.52320007
_cell_length_b   9.01789176
_cell_length_c   12.13328200
_cell_angle_alpha   62.17767599
_cell_angle_beta   89.73952697
_cell_angle_gamma   89.88900167
_symmetry_Int_Tables_number   1
_chemical_formula_structural   TlBiPd2F14
_chemical_formula_sum   'Tl2 Bi2 Pd4 F28'
_cell_volume   534.46334384
_cell_formula_units_Z   2
loop_
 _symmetry_equiv_pos_site_id
 _symmetry_equiv_pos_as_xyz
  1  'x, y, z'
loop_
 _atom_site_type_symbol
 _atom_site_label
 _atom_site_symmetry_multiplicity
 _atom_site_fract_x
 _atom_site_fract_y
 _atom_site_fract_z
 _atom_site_occupancy
  Tl  Tl0  1  0.235166  0.810153  0.762060  1
  Tl  Tl1  1  0.764786  0.190070  0.237953  1
  Bi  Bi2  1  0.262568  0.817186  0.262892  1
  Bi  Bi3  1  0.737478  0.183053  0.736959  1
  Pd  Pd4  1  0.759398  0.723150  0.040772  1
  Pd  Pd5  1  0.240514  0.276959  0.959216  1
  Pd  Pd6  1  0.261171  0.268321  0.455111  1
  Pd  Pd7  1  0.738935  0.731537  0.544950  1
  F  F8  1  0.922331  0.711350  0.414848  1
  F  F9  1  0.078997  0.288789  0.585418  1
  F  F10  1  0.424974  0.307827  0.083482  1
  F  F11  1  0.574922  0.692314  0.916500  1
  F  F12  1  0.461607  0.724111  0.127878  1
  F  F13  1  0.538321  0.275916  0.872132  1
  F  F14  1  0.955410  0.277751  0.369540  1
  F  F15  1  0.044027  0.722049  0.630972  1
  F  F16  1  0.938100  0.745845  0.172440  1
  F  F17  1  0.061864  0.254287  0.827538  1
  F  F18  1  0.433772  0.258690  0.315437  1
  F  F19  1  0.565186  0.740509  0.684565  1
  F  F20  1  0.783868  0.478810  0.146382  1
  F  F21  1  0.216506  0.521281  0.853766  1
  F  F22  1  0.276978  0.513378  0.361910  1
  F  F23  1  0.723489  0.486448  0.637891  1
  F  F24  1  0.932085  0.283352  0.039400  1
  F  F25  1  0.067778  0.716845  0.960531  1
  F  F26  1  0.435266  0.729954  0.462494  1
  F  F27  1  0.565469  0.269650  0.537174  1
  F  F28  1  0.743932  0.976424  0.455746  1
  F  F29  1  0.255833  0.023414  0.544431  1
  F  F30  1  0.245971  0.031932  0.051867  1
  F  F31  1  0.753552  0.968152  0.948050  1
  F  F32  1  0.602383  0.973853  0.227198  1
  F  F33  1  0.397580  0.026446  0.772613  1
  F  F34  1  0.100816  0.038803  0.271029  1
  F  F35  1  0.898970  0.961389  0.728855  1
