# generated using pymatgen
data_YTh2(InIr)3
_symmetry_space_group_name_H-M   'P 1'
_cell_length_a   7.71727488
_cell_length_b   7.71701411
_cell_length_c   3.98960000
_cell_angle_alpha   90.00000000
_cell_angle_beta   90.00000000
_cell_angle_gamma   121.09769682
_symmetry_Int_Tables_number   1
_chemical_formula_structural   YTh2(InIr)3
_chemical_formula_sum   'Y1 Th2 In3 Ir3'
_cell_volume   203.45220429
_cell_formula_units_Z   1
loop_
 _symmetry_equiv_pos_site_id
 _symmetry_equiv_pos_as_xyz
  1  'x, y, z'
loop_
 _atom_site_type_symbol
 _atom_site_label
 _atom_site_symmetry_multiplicity
 _atom_site_fract_x
 _atom_site_fract_y
 _atom_site_fract_z
 _atom_site_occupancy
  Y  Y0  1  0.406549  0.406596  0.000000  1
  Th  Th1  1  0.588743  0.000371  0.000000  1
  Th  Th2  1  0.000360  0.588743  0.000000  1
  In  In3  1  0.012755  0.253173  0.500000  1
  In  In4  1  0.734938  0.734930  0.500000  1
  In  In5  1  0.253252  0.012829  0.500000  1
  Ir  Ir6  1  0.990623  0.990606  0.000000  1
  Ir  Ir7  1  0.330022  0.682749  0.500000  1
  Ir  Ir8  1  0.682758  0.330005  0.500000  1
