# generated using pymatgen
data_BaMnIO6
_symmetry_space_group_name_H-M   'P 1'
_cell_length_a   5.26222404
_cell_length_b   5.43226845
_cell_length_c   23.21374370
_cell_angle_alpha   91.62152050
_cell_angle_beta   89.14160790
_cell_angle_gamma   121.06065980
_symmetry_Int_Tables_number   1
_chemical_formula_structural   BaMnIO6
_chemical_formula_sum   'Ba4 Mn4 I4 O24'
_cell_volume   568.21245192
_cell_formula_units_Z   4
loop_
 _symmetry_equiv_pos_site_id
 _symmetry_equiv_pos_as_xyz
  1  'x, y, z'
loop_
 _atom_site_type_symbol
 _atom_site_label
 _atom_site_symmetry_multiplicity
 _atom_site_fract_x
 _atom_site_fract_y
 _atom_site_fract_z
 _atom_site_occupancy
  Ba  Ba0  1  0.684960  0.342199  0.124995  1
  Ba  Ba1  1  0.684942  0.342208  0.375021  1
  Ba  Ba2  1  0.685053  0.342522  0.624987  1
  Ba  Ba3  1  0.685051  0.342435  0.874958  1
  Mn  Mn4  1  0.338525  0.669658  0.499923  1
  Mn  Mn5  1  0.337990  0.669145  0.749832  1
  Mn  Mn6  1  0.338409  0.668858  0.999934  1
  Mn  Mn7  1  0.337706  0.668404  0.250135  1
  I  I8  1  0.008597  0.004169  0.999972  1
  I  I9  1  0.008238  0.003860  0.250049  1
  I  I10  1  0.008712  0.004528  0.500018  1
  I  I11  1  0.008335  0.004399  0.749995  1
  O  O12  1  0.038696  0.315178  0.206197  1
  O  O13  1  0.039216  0.315622  0.456105  1
  O  O14  1  0.038816  0.315512  0.706098  1
  O  O15  1  0.039229  0.315570  0.956089  1
  O  O16  1  0.269131  0.969999  0.199161  1
  O  O17  1  0.269471  0.970436  0.449098  1
  O  O18  1  0.269071  0.970294  0.699062  1
  O  O19  1  0.269578  0.970415  0.949075  1
  O  O20  1  0.268497  0.298836  0.050995  1
  O  O21  1  0.268160  0.298435  0.301078  1
  O  O22  1  0.268722  0.299114  0.551013  1
  O  O23  1  0.268456  0.298944  0.800986  1
  O  O24  1  0.676477  0.725389  0.202965  1
  O  O25  1  0.677060  0.726037  0.452889  1
  O  O26  1  0.676625  0.725893  0.702880  1
  O  O27  1  0.677056  0.725927  0.952823  1
  O  O28  1  0.676240  0.950733  0.046985  1
  O  O29  1  0.675968  0.950354  0.297128  1
  O  O30  1  0.676450  0.950964  0.547049  1
  O  O31  1  0.676123  0.950807  0.797042  1
  O  O32  1  0.038666  0.723291  0.043839  1
  O  O33  1  0.038370  0.723015  0.293940  1
  O  O34  1  0.038877  0.723489  0.543852  1
  O  O35  1  0.038527  0.723364  0.793831  1
