# generated using pymatgen
data_Dy9Y(InSb)3
_symmetry_space_group_name_H-M   'P 1'
_cell_length_a   6.53296603
_cell_length_b   8.98835904
_cell_length_c   8.98937503
_cell_angle_alpha   119.99480796
_cell_angle_beta   89.99871919
_cell_angle_gamma   90.00292402
_symmetry_Int_Tables_number   1
_chemical_formula_structural   Dy9Y(InSb)3
_chemical_formula_sum   'Dy9 Y1 In3 Sb3'
_cell_volume   457.16572335
_cell_formula_units_Z   1
loop_
 _symmetry_equiv_pos_site_id
 _symmetry_equiv_pos_as_xyz
  1  'x, y, z'
loop_
 _atom_site_type_symbol
 _atom_site_label
 _atom_site_symmetry_multiplicity
 _atom_site_fract_x
 _atom_site_fract_y
 _atom_site_fract_z
 _atom_site_occupancy
  Dy  Dy0  1  0.501070  0.333414  0.666805  1
  Dy  Dy1  1  0.501080  0.666598  0.333188  1
  Dy  Dy2  1  0.998817  0.666705  0.333476  1
  Dy  Dy3  1  0.998824  0.333233  0.666515  1
  Dy  Dy4  1  0.750068  0.238760  0.000022  1
  Dy  Dy5  1  0.750062  0.761056  0.760920  1
  Dy  Dy6  1  0.750061  0.000152  0.239089  1
  Dy  Dy7  1  0.250026  0.239212  0.239130  1
  Dy  Dy8  1  0.250026  0.000080  0.760853  1
  Y  Y9  1  0.250057  0.760850  0.999988  1
  In  In10  1  0.750111  0.606047  0.999994  1
  In  In11  1  0.749940  0.393849  0.393884  1
  In  In12  1  0.749940  0.999953  0.606103  1
  Sb  Sb13  1  0.249781  0.393872  0.000022  1
  Sb  Sb14  1  0.250069  0.606087  0.605976  1
  Sb  Sb15  1  0.250070  0.000130  0.394036  1
