# generated using pymatgen
data_TbEr9In4(HgPd)4
_symmetry_space_group_name_H-M   'P 1'
_cell_length_a   3.60189000
_cell_length_b   7.98790001
_cell_length_c   18.25988903
_cell_angle_alpha   90.00671386
_cell_angle_beta   90.00000000
_cell_angle_gamma   90.00000000
_symmetry_Int_Tables_number   1
_chemical_formula_structural   TbEr9In4(HgPd)4
_chemical_formula_sum   'Tb1 Er9 In4 Hg4 Pd4'
_cell_volume   525.36507257
_cell_formula_units_Z   1
loop_
 _symmetry_equiv_pos_site_id
 _symmetry_equiv_pos_as_xyz
  1  'x, y, z'
loop_
 _atom_site_type_symbol
 _atom_site_label
 _atom_site_symmetry_multiplicity
 _atom_site_fract_x
 _atom_site_fract_y
 _atom_site_fract_z
 _atom_site_occupancy
  Tb  Tb0  1  0.000000  0.500000  0.500000  1
  Er  Er1  1  0.000000  0.000000  0.000000  1
  Er  Er2  1  0.000000  0.742533  0.283661  1
  Er  Er3  1  0.000000  0.257467  0.716339  1
  Er  Er4  1  0.000000  0.757499  0.783924  1
  Er  Er5  1  0.000000  0.242501  0.216076  1
  Er  Er6  1  0.000000  0.608237  0.083516  1
  Er  Er7  1  0.000000  0.391763  0.916484  1
  Er  Er8  1  0.000000  0.891530  0.583722  1
  Er  Er9  1  0.000000  0.108470  0.416278  1
  In  In10  1  0.500000  0.580848  0.649307  1
  In  In11  1  0.500000  0.419152  0.350693  1
  In  In12  1  0.500000  0.919381  0.148673  1
  In  In13  1  0.500000  0.080619  0.851327  1
  Hg  Hg14  1  0.500000  0.714029  0.933087  1
  Hg  Hg15  1  0.500000  0.285971  0.066913  1
  Hg  Hg16  1  0.500000  0.787135  0.432516  1
  Hg  Hg17  1  0.500000  0.212865  0.567484  1
  Pd  Pd18  1  0.500000  0.528966  0.197356  1
  Pd  Pd19  1  0.500000  0.471034  0.802644  1
  Pd  Pd20  1  0.500000  0.971014  0.697413  1
  Pd  Pd21  1  0.500000  0.028986  0.302587  1
