# generated using pymatgen
data_Pr3Cd3PdRh2
_symmetry_space_group_name_H-M   'P 1'
_cell_length_a   7.69007600
_cell_length_b   7.69335535
_cell_length_c   4.07658100
_cell_angle_alpha   90.00000000
_cell_angle_beta   90.00000000
_cell_angle_gamma   119.98590910
_symmetry_Int_Tables_number   1
_chemical_formula_structural   Pr3Cd3PdRh2
_chemical_formula_sum   'Pr3 Cd3 Pd1 Rh2'
_cell_volume   208.89823959
_cell_formula_units_Z   1
loop_
 _symmetry_equiv_pos_site_id
 _symmetry_equiv_pos_as_xyz
  1  'x, y, z'
loop_
 _atom_site_type_symbol
 _atom_site_label
 _atom_site_symmetry_multiplicity
 _atom_site_fract_x
 _atom_site_fract_y
 _atom_site_fract_z
 _atom_site_occupancy
  Pr  Pr0  1  0.412510  0.412483  0.500000  1
  Pr  Pr1  1  0.000028  0.587517  0.500000  1
  Pr  Pr2  1  0.587390  0.000000  0.500000  1
  Cd  Cd3  1  0.748065  0.748075  0.000000  1
  Cd  Cd4  1  0.251902  0.000000  0.000000  1
  Cd  Cd5  1  0.999990  0.251925  0.000000  1
  Pd  Pd6  1  0.000010  0.000000  0.500000  1
  Rh  Rh7  1  0.666792  0.333477  0.000000  1
  Rh  Rh8  1  0.333313  0.666523  0.000000  1
