# generated using pymatgen
data_Dy2MnGa3Co13
_symmetry_space_group_name_H-M   'P 1'
_cell_length_a   6.35801250
_cell_length_b   6.35801301
_cell_length_c   6.35801177
_cell_angle_alpha   82.81970125
_cell_angle_beta   82.81969265
_cell_angle_gamma   82.81971576
_symmetry_Int_Tables_number   1
_chemical_formula_structural   Dy2MnGa3Co13
_chemical_formula_sum   'Dy2 Mn1 Ga3 Co13'
_cell_volume   251.43652187
_cell_formula_units_Z   1
loop_
 _symmetry_equiv_pos_site_id
 _symmetry_equiv_pos_as_xyz
  1  'x, y, z'
loop_
 _atom_site_type_symbol
 _atom_site_label
 _atom_site_symmetry_multiplicity
 _atom_site_fract_x
 _atom_site_fract_y
 _atom_site_fract_z
 _atom_site_occupancy
  Dy  Dy0  1  0.657554  0.657554  0.657554  1
  Dy  Dy1  1  0.331893  0.331893  0.331893  1
  Mn  Mn2  1  0.908076  0.908076  0.908076  1
  Ga  Ga3  1  0.157943  0.650899  0.650899  1
  Ga  Ga4  1  0.650899  0.650899  0.157943  1
  Ga  Ga5  1  0.650899  0.157943  0.650899  1
  Co  Co6  1  0.097109  0.097109  0.097109  1
  Co  Co7  1  0.005050  0.005050  0.495205  1
  Co  Co8  1  0.005050  0.495205  0.005050  1
  Co  Co9  1  0.495205  0.005050  0.005050  1
  Co  Co10  1  0.289271  0.711283  0.002784  1
  Co  Co11  1  0.711283  0.002784  0.289271  1
  Co  Co12  1  0.002784  0.289271  0.711283  1
  Co  Co13  1  0.289271  0.002784  0.711283  1
  Co  Co14  1  0.002784  0.711283  0.289271  1
  Co  Co15  1  0.711283  0.289271  0.002784  1
  Co  Co16  1  0.854931  0.339357  0.339357  1
  Co  Co17  1  0.339357  0.339357  0.854931  1
  Co  Co18  1  0.339357  0.854931  0.339357  1
