# generated using pymatgen
data_Dy12Tc3Pb2
_symmetry_space_group_name_H-M   'P 1'
_cell_length_a   8.52890247
_cell_length_b   8.52890209
_cell_length_c   8.52890254
_cell_angle_alpha   109.03410830
_cell_angle_beta   109.03411368
_cell_angle_gamma   110.34902401
_symmetry_Int_Tables_number   1
_chemical_formula_structural   Dy12Tc3Pb2
_chemical_formula_sum   'Dy12 Tc3 Pb2'
_cell_volume   477.50830888
_cell_formula_units_Z   1
loop_
 _symmetry_equiv_pos_site_id
 _symmetry_equiv_pos_as_xyz
  1  'x, y, z'
loop_
 _atom_site_type_symbol
 _atom_site_label
 _atom_site_symmetry_multiplicity
 _atom_site_fract_x
 _atom_site_fract_y
 _atom_site_fract_z
 _atom_site_occupancy
  Dy  Dy0  1  0.190880  0.428948  0.238068  1
  Dy  Dy1  1  0.809120  0.571052  0.761932  1
  Dy  Dy2  1  0.190880  0.952814  0.761932  1
  Dy  Dy3  1  0.952814  0.190880  0.761932  1
  Dy  Dy4  1  0.809120  0.047186  0.238068  1
  Dy  Dy5  1  0.047186  0.809120  0.238068  1
  Dy  Dy6  1  0.428948  0.190880  0.238068  1
  Dy  Dy7  1  0.571052  0.809120  0.761932  1
  Dy  Dy8  1  0.307055  0.307055  0.614109  1
  Dy  Dy9  1  0.692945  0.692945  0.385891  1
  Dy  Dy10  1  0.692945  0.307055  0.000000  1
  Dy  Dy11  1  0.307055  0.692945  0.000000  1
  Tc  Tc12  1  0.373090  0.373090  0.000000  1
  Tc  Tc13  1  0.626910  0.626910  0.000000  1
  Tc  Tc14  1  0.000000  0.000000  0.000000  1
  Pb  Pb15  1  0.000000  0.500000  0.500000  1
  Pb  Pb16  1  0.500000  0.000000  0.500000  1
