# generated using pymatgen
data_Hf20Si15Sn
_symmetry_space_group_name_H-M   'P 1'
_cell_length_a   7.13483322
_cell_length_b   7.10683493
_cell_length_c   12.92803504
_cell_angle_alpha   89.91350354
_cell_angle_beta   89.76102060
_cell_angle_gamma   90.19058255
_symmetry_Int_Tables_number   1
_chemical_formula_structural   Hf20Si15Sn
_chemical_formula_sum   'Hf20 Si15 Sn1'
_cell_volume   655.51991565
_cell_formula_units_Z   1
loop_
 _symmetry_equiv_pos_site_id
 _symmetry_equiv_pos_as_xyz
  1  'x, y, z'
loop_
 _atom_site_type_symbol
 _atom_site_label
 _atom_site_symmetry_multiplicity
 _atom_site_fract_x
 _atom_site_fract_y
 _atom_site_fract_z
 _atom_site_occupancy
  Hf  Hf0  1  0.676326  0.325013  0.749211  1
  Hf  Hf1  1  0.324807  0.675412  0.251294  1
  Hf  Hf2  1  0.824065  0.824992  0.500425  1
  Hf  Hf3  1  0.181463  0.173358  0.998112  1
  Hf  Hf4  1  0.497041  0.150342  0.533878  1
  Hf  Hf5  1  0.495528  0.841336  0.031109  1
  Hf  Hf6  1  0.646096  0.000022  0.289585  1
  Hf  Hf7  1  0.346832  0.994814  0.781637  1
  Hf  Hf8  1  0.851497  0.513966  0.962277  1
  Hf  Hf9  1  0.150889  0.497132  0.466797  1
  Hf  Hf10  1  0.003232  0.649724  0.715179  1
  Hf  Hf11  1  0.009502  0.358698  0.223854  1
  Hf  Hf12  1  0.488975  0.362796  0.125738  1
  Hf  Hf13  1  0.500023  0.645217  0.626356  1
  Hf  Hf14  1  0.855049  0.998951  0.872054  1
  Hf  Hf15  1  0.147569  0.000077  0.377604  1
  Hf  Hf16  1  0.646544  0.501178  0.374311  1
  Hf  Hf17  1  0.353460  0.500072  0.871361  1
  Hf  Hf18  1  0.011802  0.841735  0.125401  1
  Hf  Hf19  1  0.999791  0.146397  0.623200  1
  Si  Si20  1  0.204347  0.853666  0.573451  1
  Si  Si21  1  0.645087  0.704720  0.821147  1
  Si  Si22  1  0.355974  0.296216  0.324226  1
  Si  Si23  1  0.854280  0.204366  0.427601  1
  Si  Si24  1  0.145342  0.795790  0.926066  1
  Si  Si25  1  0.703622  0.648554  0.177628  1
  Si  Si26  1  0.296000  0.352297  0.676165  1
  Si  Si27  1  0.542466  0.196386  0.931156  1
  Si  Si28  1  0.448965  0.799358  0.437462  1
  Si  Si29  1  0.697216  0.952002  0.684502  1
  Si  Si30  1  0.303308  0.049633  0.186115  1
  Si  Si31  1  0.801214  0.450786  0.563754  1
  Si  Si32  1  0.196797  0.546329  0.061725  1
  Si  Si33  1  0.949927  0.701221  0.315994  1
  Si  Si34  1  0.048109  0.302048  0.813923  1
  Sn  Sn35  1  0.796856  0.145396  0.079702  1
