# generated using pymatgen
data_Tb2YAg3SnGe2
_symmetry_space_group_name_H-M   'P 1'
_cell_length_a   7.29274400
_cell_length_b   7.29274336
_cell_length_c   4.32134200
_cell_angle_alpha   90.00000000
_cell_angle_beta   90.00000000
_cell_angle_gamma   119.99599337
_symmetry_Int_Tables_number   1
_chemical_formula_structural   Tb2YAg3SnGe2
_chemical_formula_sum   'Tb2 Y1 Ag3 Sn1 Ge2'
_cell_volume   199.04382211
_cell_formula_units_Z   1
loop_
 _symmetry_equiv_pos_site_id
 _symmetry_equiv_pos_as_xyz
  1  'x, y, z'
loop_
 _atom_site_type_symbol
 _atom_site_label
 _atom_site_symmetry_multiplicity
 _atom_site_fract_x
 _atom_site_fract_y
 _atom_site_fract_z
 _atom_site_occupancy
  Tb  Tb0  1  0.569255  0.999760  0.000000  1
  Tb  Tb1  1  0.999760  0.569255  0.000000  1
  Y  Y2  1  0.430488  0.430488  0.000000  1
  Ag  Ag3  1  0.258771  0.000300  0.500000  1
  Ag  Ag4  1  0.000300  0.258771  0.500000  1
  Ag  Ag5  1  0.741593  0.741593  0.500000  1
  Sn  Sn6  1  0.999865  0.999865  0.000000  1
  Ge  Ge7  1  0.333537  0.666431  0.500000  1
  Ge  Ge8  1  0.666431  0.333537  0.500000  1
