# generated using pymatgen
data_LuSc9(GaBi)3
_symmetry_space_group_name_H-M   'P 1'
_cell_length_a   8.35666700
_cell_length_b   8.39490188
_cell_length_c   6.09867000
_cell_angle_alpha   90.00000000
_cell_angle_beta   90.00000000
_cell_angle_gamma   119.84945513
_symmetry_Int_Tables_number   1
_chemical_formula_structural   LuSc9(GaBi)3
_chemical_formula_sum   'Lu1 Sc9 Ga3 Bi3'
_cell_volume   371.08321494
_cell_formula_units_Z   1
loop_
 _symmetry_equiv_pos_site_id
 _symmetry_equiv_pos_as_xyz
  1  'x, y, z'
loop_
 _atom_site_type_symbol
 _atom_site_label
 _atom_site_symmetry_multiplicity
 _atom_site_fract_x
 _atom_site_fract_y
 _atom_site_fract_z
 _atom_site_occupancy
  Lu  Lu0  1  0.229584  0.000000  0.250000  1
  Sc  Sc1  1  0.324528  0.666825  0.005637  1
  Sc  Sc2  1  0.657703  0.333175  0.494363  1
  Sc  Sc3  1  0.657703  0.333175  0.005637  1
  Sc  Sc4  1  0.324528  0.666825  0.494363  1
  Sc  Sc5  1  0.241092  0.224311  0.750000  1
  Sc  Sc6  1  0.016781  0.775689  0.750000  1
  Sc  Sc7  1  0.018107  0.251345  0.250000  1
  Sc  Sc8  1  0.766762  0.748655  0.250000  1
  Sc  Sc9  1  0.756366  0.000000  0.750000  1
  Ga  Ga10  1  0.995553  0.598719  0.250000  1
  Ga  Ga11  1  0.396833  0.401281  0.250000  1
  Ga  Ga12  1  0.398562  0.000000  0.750000  1
  Bi  Bi13  1  0.614888  0.000000  0.250000  1
  Bi  Bi14  1  0.604602  0.608195  0.750000  1
  Bi  Bi15  1  0.996407  0.391805  0.750000  1
