# generated using pymatgen
data_Ce5Pr3(Si3Rh4)2
_symmetry_space_group_name_H-M   'P 1'
_cell_length_a   10.68860604
_cell_length_b   10.70843287
_cell_length_c   7.97066289
_cell_angle_alpha   69.76499279
_cell_angle_beta   69.77151138
_cell_angle_gamma   30.96081742
_symmetry_Int_Tables_number   1
_chemical_formula_structural   Ce5Pr3(Si3Rh4)2
_chemical_formula_sum   'Ce5 Pr3 Si6 Rh8'
_cell_volume   438.08073140
_cell_formula_units_Z   1
loop_
 _symmetry_equiv_pos_site_id
 _symmetry_equiv_pos_as_xyz
  1  'x, y, z'
loop_
 _atom_site_type_symbol
 _atom_site_label
 _atom_site_symmetry_multiplicity
 _atom_site_fract_x
 _atom_site_fract_y
 _atom_site_fract_z
 _atom_site_occupancy
  Ce  Ce0  1  0.555829  0.780183  0.103473  1
  Ce  Ce1  1  0.786664  0.082742  0.167083  1
  Ce  Ce2  1  0.924524  0.205341  0.329640  1
  Ce  Ce3  1  0.215684  0.916482  0.834125  1
  Ce  Ce4  1  0.079980  0.791010  0.667781  1
  Pr  Pr5  1  0.795494  0.541158  0.602866  1
  Pr  Pr6  1  0.449392  0.209628  0.898421  1
  Pr  Pr7  1  0.206813  0.454924  0.397832  1
  Si  Si8  1  0.946653  0.708615  0.061008  1
  Si  Si9  1  0.299256  0.049536  0.434148  1
  Si  Si10  1  0.057590  0.289501  0.937997  1
  Si  Si11  1  0.708062  0.949359  0.559636  1
  Si  Si12  1  0.645030  0.355293  0.749556  1
  Si  Si13  1  0.351531  0.648015  0.249951  1
  Rh  Rh14  1  0.581914  0.299000  0.513939  1
  Rh  Rh15  1  0.701780  0.421145  0.988422  1
  Rh  Rh16  1  0.420708  0.703929  0.478734  1
  Rh  Rh17  1  0.295429  0.585075  0.012066  1
  Rh  Rh18  1  0.639148  0.926890  0.316889  1
  Rh  Rh19  1  0.062270  0.369678  0.185813  1
  Rh  Rh20  1  0.372276  0.059887  0.685241  1
  Rh  Rh21  1  0.903973  0.652608  0.825381  1
