# generated using pymatgen
data_Sc3In3HgPd2
_symmetry_space_group_name_H-M   'P 1'
_cell_length_a   7.73211200
_cell_length_b   7.73211164
_cell_length_c   3.59828400
_cell_angle_alpha   90.00000000
_cell_angle_beta   90.00000000
_cell_angle_gamma   120.00000154
_symmetry_Int_Tables_number   1
_chemical_formula_structural   Sc3In3HgPd2
_chemical_formula_sum   'Sc3 In3 Hg1 Pd2'
_cell_volume   186.30405804
_cell_formula_units_Z   1
loop_
 _symmetry_equiv_pos_site_id
 _symmetry_equiv_pos_as_xyz
  1  'x, y, z'
loop_
 _atom_site_type_symbol
 _atom_site_label
 _atom_site_symmetry_multiplicity
 _atom_site_fract_x
 _atom_site_fract_y
 _atom_site_fract_z
 _atom_site_occupancy
  Sc  Sc0  1  0.592886  0.973275  0.000000  1
  Sc  Sc1  1  0.380389  0.407114  0.000000  1
  Sc  Sc2  1  0.026725  0.619611  0.000000  1
  In  In3  1  0.731705  0.731422  0.500000  1
  In  In4  1  0.999717  0.268295  0.500000  1
  In  In5  1  0.268578  0.000283  0.500000  1
  Hg  Hg6  1  0.666667  0.333333  0.500000  1
  Pd  Pd7  1  0.000000  0.000000  0.000000  1
  Pd  Pd8  1  0.333333  0.666667  0.500000  1
