# generated using pymatgen
data_Ho2Lu2B12MoOs
_symmetry_space_group_name_H-M   'P 1'
_cell_length_a   3.61721600
_cell_length_b   9.13633252
_cell_length_c   11.52672525
_cell_angle_alpha   89.81953784
_cell_angle_beta   90.00000000
_cell_angle_gamma   90.00000000
_symmetry_Int_Tables_number   1
_chemical_formula_structural   Ho2Lu2B12MoOs
_chemical_formula_sum   'Ho4 Lu4 B24 Mo2 Os2'
_cell_volume   380.93434307
_cell_formula_units_Z   2
loop_
 _symmetry_equiv_pos_site_id
 _symmetry_equiv_pos_as_xyz
  1  'x, y, z'
loop_
 _atom_site_type_symbol
 _atom_site_label
 _atom_site_symmetry_multiplicity
 _atom_site_fract_x
 _atom_site_fract_y
 _atom_site_fract_z
 _atom_site_occupancy
  Ho  Ho0  1  0.000000  0.321384  0.414130  1
  Ho  Ho1  1  0.000000  0.678616  0.585870  1
  Ho  Ho2  1  0.000000  0.821340  0.085977  1
  Ho  Ho3  1  0.000000  0.178660  0.914023  1
  Lu  Lu4  1  0.000000  0.944507  0.371568  1
  Lu  Lu5  1  0.000000  0.055493  0.628432  1
  Lu  Lu6  1  0.000000  0.442614  0.128067  1
  Lu  Lu7  1  0.000000  0.557386  0.871933  1
  B  B8  1  0.500000  0.551935  0.433957  1
  B  B9  1  0.500000  0.448065  0.566043  1
  B  B10  1  0.500000  0.054160  0.066946  1
  B  B11  1  0.500000  0.945840  0.933054  1
  B  B12  1  0.500000  0.751855  0.420718  1
  B  B13  1  0.500000  0.248145  0.579282  1
  B  B14  1  0.500000  0.250019  0.081159  1
  B  B15  1  0.500000  0.749981  0.918841  1
  B  B16  1  0.500000  0.795747  0.264166  1
  B  B17  1  0.500000  0.204253  0.735833  1
  B  B18  1  0.500000  0.291284  0.233719  1
  B  B19  1  0.500000  0.708716  0.766282  1
  B  B20  1  0.500000  0.630863  0.182090  1
  B  B21  1  0.500000  0.369137  0.817910  1
  B  B22  1  0.500000  0.129848  0.313914  1
  B  B23  1  0.500000  0.870152  0.686086  1
  B  B24  1  0.500000  0.982798  0.212166  1
  B  B25  1  0.500000  0.017202  0.787834  1
  B  B26  1  0.500000  0.478246  0.286340  1
  B  B27  1  0.500000  0.521754  0.713660  1
  B  B28  1  0.500000  0.600881  0.027339  1
  B  B29  1  0.500000  0.399119  0.972661  1
  B  B30  1  0.500000  0.100923  0.471182  1
  B  B31  1  0.500000  0.899077  0.528818  1
  Mo  Mo32  1  0.000000  0.639794  0.318434  1
  Mo  Mo33  1  0.000000  0.360206  0.681566  1
  Os  Os34  1  0.000000  0.138398  0.178348  1
  Os  Os35  1  0.000000  0.861602  0.821652  1
