# generated using pymatgen
data_Li2CeErAs4
_symmetry_space_group_name_H-M   'P 1'
_cell_length_a   3.94645200
_cell_length_b   3.94645200
_cell_length_c   10.26488200
_cell_angle_alpha   90.00000000
_cell_angle_beta   90.00000000
_cell_angle_gamma   90.00000000
_symmetry_Int_Tables_number   1
_chemical_formula_structural   Li2CeErAs4
_chemical_formula_sum   'Li2 Ce1 Er1 As4'
_cell_volume   159.87023419
_cell_formula_units_Z   1
loop_
 _symmetry_equiv_pos_site_id
 _symmetry_equiv_pos_as_xyz
  1  'x, y, z'
loop_
 _atom_site_type_symbol
 _atom_site_label
 _atom_site_symmetry_multiplicity
 _atom_site_fract_x
 _atom_site_fract_y
 _atom_site_fract_z
 _atom_site_occupancy
  Li  Li0  1  0.500000  0.500000  0.495639  1
  Li  Li1  1  0.000000  0.000000  0.495639  1
  Ce  Ce2  1  0.000000  0.500000  0.774489  1
  Er  Er3  1  0.500000  0.000000  0.227587  1
  As  As4  1  0.000000  0.000000  0.003406  1
  As  As5  1  0.500000  0.500000  0.003406  1
  As  As6  1  0.000000  0.500000  0.334543  1
  As  As7  1  0.500000  0.000000  0.665288  1
