# generated using pymatgen
data_YTh3(Zn3Cd)3
_symmetry_space_group_name_H-M   'P 1'
_cell_length_a   4.54968200
_cell_length_b   7.34909503
_cell_length_c   9.97143172
_cell_angle_alpha   90.00141323
_cell_angle_beta   90.00000000
_cell_angle_gamma   90.00000000
_symmetry_Int_Tables_number   1
_chemical_formula_structural   YTh3(Zn3Cd)3
_chemical_formula_sum   'Y1 Th3 Zn9 Cd3'
_cell_volume   333.40524330
_cell_formula_units_Z   1
loop_
 _symmetry_equiv_pos_site_id
 _symmetry_equiv_pos_as_xyz
  1  'x, y, z'
loop_
 _atom_site_type_symbol
 _atom_site_label
 _atom_site_symmetry_multiplicity
 _atom_site_fract_x
 _atom_site_fract_y
 _atom_site_fract_z
 _atom_site_occupancy
  Y  Y0  1  0.750000  0.187890  0.170997  1
  Th  Th1  1  0.250000  0.311423  0.671267  1
  Th  Th2  1  0.750000  0.684107  0.329190  1
  Th  Th3  1  0.250000  0.815967  0.822451  1
  Zn  Zn4  1  0.750000  0.981482  0.599093  1
  Zn  Zn5  1  0.750000  0.296113  0.461161  1
  Zn  Zn6  1  0.250000  0.680810  0.533080  1
  Zn  Zn7  1  0.750000  0.825086  0.035700  1
  Zn  Zn8  1  0.250000  0.186315  0.967448  1
  Zn  Zn9  1  0.750000  0.605467  0.647283  1
  Zn  Zn10  1  0.250000  0.393236  0.349698  1
  Zn  Zn11  1  0.750000  0.100068  0.847721  1
  Zn  Zn12  1  0.250000  0.908607  0.149882  1
  Cd  Cd13  1  0.250000  0.526760  0.095455  1
  Cd  Cd14  1  0.750000  0.477181  0.907298  1
  Cd  Cd15  1  0.250000  0.019486  0.412277  1
