# generated using pymatgen
data_MgNiPd3O8
_symmetry_space_group_name_H-M   'P 1'
_cell_length_a   6.11920200
_cell_length_b   6.11920039
_cell_length_c   6.07055030
_cell_angle_alpha   59.73453926
_cell_angle_beta   90.00000000
_cell_angle_gamma   119.99999790
_symmetry_Int_Tables_number   1
_chemical_formula_structural   MgNiPd3O8
_chemical_formula_sum   'Mg1 Ni1 Pd3 O8'
_cell_volume   160.08412278
_cell_formula_units_Z   1
loop_
 _symmetry_equiv_pos_site_id
 _symmetry_equiv_pos_as_xyz
  1  'x, y, z'
loop_
 _atom_site_type_symbol
 _atom_site_label
 _atom_site_symmetry_multiplicity
 _atom_site_fract_x
 _atom_site_fract_y
 _atom_site_fract_z
 _atom_site_occupancy
  Mg  Mg0  1  0.500000  0.000000  0.500000  1
  Ni  Ni1  1  0.000000  0.000000  0.000000  1
  Pd  Pd2  1  0.000000  0.500000  0.000000  1
  Pd  Pd3  1  0.500000  0.000000  0.000000  1
  Pd  Pd4  1  0.500000  0.500000  0.000000  1
  O  O5  1  0.278923  0.029375  0.220173  1
  O  O6  1  0.265375  0.530749  0.203876  1
  O  O7  1  0.750452  0.029375  0.220173  1
  O  O8  1  0.750452  0.500903  0.220173  1
  O  O9  1  0.249548  0.499097  0.779827  1
  O  O10  1  0.249548  0.970625  0.779827  1
  O  O11  1  0.734625  0.469251  0.796124  1
  O  O12  1  0.721077  0.970625  0.779827  1
