# generated using pymatgen
data_Hf4Zr12Ir5Pd3N4
_symmetry_space_group_name_H-M   'P 1'
_cell_length_a   8.81116177
_cell_length_b   8.81116174
_cell_length_c   8.81116234
_cell_angle_alpha   60.14172474
_cell_angle_beta   60.14172923
_cell_angle_gamma   60.14173022
_symmetry_Int_Tables_number   1
_chemical_formula_structural   Hf4Zr12Ir5Pd3N4
_chemical_formula_sum   'Hf4 Zr12 Ir5 Pd3 N4'
_cell_volume   485.26235188
_cell_formula_units_Z   1
loop_
 _symmetry_equiv_pos_site_id
 _symmetry_equiv_pos_as_xyz
  1  'x, y, z'
loop_
 _atom_site_type_symbol
 _atom_site_label
 _atom_site_symmetry_multiplicity
 _atom_site_fract_x
 _atom_site_fract_y
 _atom_site_fract_z
 _atom_site_occupancy
  Hf  Hf0  1  0.124504  0.624194  0.624194  1
  Hf  Hf1  1  0.624194  0.124504  0.624194  1
  Hf  Hf2  1  0.624194  0.624194  0.124504  1
  Hf  Hf3  1  0.628438  0.628438  0.628438  1
  Zr  Zr4  1  0.818364  0.818364  0.181535  1
  Zr  Zr5  1  0.182870  0.182870  0.816634  1
  Zr  Zr6  1  0.818364  0.181535  0.818364  1
  Zr  Zr7  1  0.182870  0.816634  0.182870  1
  Zr  Zr8  1  0.181535  0.818364  0.818364  1
  Zr  Zr9  1  0.816634  0.182870  0.182870  1
  Zr  Zr10  1  0.433703  0.433703  0.068516  1
  Zr  Zr11  1  0.065614  0.065614  0.434001  1
  Zr  Zr12  1  0.433703  0.068516  0.433703  1
  Zr  Zr13  1  0.065614  0.434001  0.065614  1
  Zr  Zr14  1  0.068516  0.433703  0.433703  1
  Zr  Zr15  1  0.434001  0.065614  0.065614  1
  Ir  Ir16  1  0.406177  0.406177  0.406177  1
  Ir  Ir17  1  0.481177  0.841429  0.841429  1
  Ir  Ir18  1  0.841429  0.481177  0.841429  1
  Ir  Ir19  1  0.841429  0.841429  0.481177  1
  Ir  Ir20  1  0.838303  0.838303  0.838303  1
  Pd  Pd21  1  0.764152  0.413030  0.413030  1
  Pd  Pd22  1  0.413030  0.764152  0.413030  1
  Pd  Pd23  1  0.413030  0.413030  0.764152  1
  N  N24  1  0.624629  0.124314  0.124314  1
  N  N25  1  0.124314  0.624629  0.124314  1
  N  N26  1  0.124314  0.124314  0.624629  1
  N  N27  1  0.124900  0.124900  0.124900  1
