# generated using pymatgen
data_Tm8Re3B24Ru
_symmetry_space_group_name_H-M   'P 1'
_cell_length_a   3.63647200
_cell_length_b   9.09401943
_cell_length_c   11.46214531
_cell_angle_alpha   89.90055885
_cell_angle_beta   90.00000000
_cell_angle_gamma   90.00000000
_symmetry_Int_Tables_number   1
_chemical_formula_structural   Tm8Re3B24Ru
_chemical_formula_sum   'Tm8 Re3 B24 Ru1'
_cell_volume   379.05425967
_cell_formula_units_Z   1
loop_
 _symmetry_equiv_pos_site_id
 _symmetry_equiv_pos_as_xyz
  1  'x, y, z'
loop_
 _atom_site_type_symbol
 _atom_site_label
 _atom_site_symmetry_multiplicity
 _atom_site_fract_x
 _atom_site_fract_y
 _atom_site_fract_z
 _atom_site_occupancy
  Tm  Tm0  1  0.000000  0.322895  0.413658  1
  Tm  Tm1  1  0.000000  0.675449  0.584323  1
  Tm  Tm2  1  0.000000  0.822360  0.087811  1
  Tm  Tm3  1  0.000000  0.178456  0.913999  1
  Tm  Tm4  1  0.000000  0.943290  0.371379  1
  Tm  Tm5  1  0.000000  0.056653  0.630022  1
  Tm  Tm6  1  0.000000  0.443800  0.128928  1
  Tm  Tm7  1  0.000000  0.558090  0.870154  1
  Re  Re8  1  0.000000  0.638538  0.320641  1
  Re  Re9  1  0.000000  0.361543  0.679767  1
  Re  Re10  1  0.000000  0.138074  0.178298  1
  B  B11  1  0.500000  0.552612  0.433270  1
  B  B12  1  0.500000  0.447022  0.566432  1
  B  B13  1  0.500000  0.052504  0.066239  1
  B  B14  1  0.500000  0.946330  0.933065  1
  B  B15  1  0.500000  0.749268  0.419623  1
  B  B16  1  0.500000  0.249956  0.580618  1
  B  B17  1  0.500000  0.249959  0.080245  1
  B  B18  1  0.500000  0.751065  0.919202  1
  B  B19  1  0.500000  0.792804  0.265665  1
  B  B20  1  0.500000  0.207310  0.735235  1
  B  B21  1  0.500000  0.292730  0.234400  1
  B  B22  1  0.500000  0.708476  0.765250  1
  B  B23  1  0.500000  0.631186  0.184874  1
  B  B24  1  0.500000  0.369100  0.815639  1
  B  B25  1  0.500000  0.130515  0.314753  1
  B  B26  1  0.500000  0.868597  0.685135  1
  B  B27  1  0.500000  0.980913  0.212156  1
  B  B28  1  0.500000  0.017245  0.788039  1
  B  B29  1  0.500000  0.481396  0.287511  1
  B  B30  1  0.500000  0.518649  0.712072  1
  B  B31  1  0.500000  0.602579  0.028078  1
  B  B32  1  0.500000  0.399663  0.971534  1
  B  B33  1  0.500000  0.101335  0.472160  1
  B  B34  1  0.500000  0.898112  0.528908  1
  Ru  Ru35  1  0.000000  0.861524  0.820916  1
