# generated using pymatgen
data_Dy2Lu3Rh2
_symmetry_space_group_name_H-M   'P 1'
_cell_length_a   6.37025052
_cell_length_b   7.06590066
_cell_length_c   8.48726251
_cell_angle_alpha   96.89834398
_cell_angle_beta   112.04181151
_cell_angle_gamma   90.00000400
_symmetry_Int_Tables_number   1
_chemical_formula_structural   Dy2Lu3Rh2
_chemical_formula_sum   'Dy4 Lu6 Rh4'
_cell_volume   351.11738628
_cell_formula_units_Z   2
loop_
 _symmetry_equiv_pos_site_id
 _symmetry_equiv_pos_as_xyz
  1  'x, y, z'
loop_
 _atom_site_type_symbol
 _atom_site_label
 _atom_site_symmetry_multiplicity
 _atom_site_fract_x
 _atom_site_fract_y
 _atom_site_fract_z
 _atom_site_occupancy
  Dy  Dy0  1  0.523577  0.080645  0.810471  1
  Dy  Dy1  1  0.476423  0.919355  0.189529  1
  Dy  Dy2  1  0.713105  0.419355  0.189529  1
  Dy  Dy3  1  0.286895  0.580645  0.810471  1
  Lu  Lu4  1  0.290585  0.313341  0.438217  1
  Lu  Lu5  1  0.709415  0.686659  0.561783  1
  Lu  Lu6  1  0.852369  0.186659  0.561783  1
  Lu  Lu7  1  0.147631  0.813341  0.438217  1
  Lu  Lu8  1  0.075086  0.250000  0.000000  1
  Lu  Lu9  1  0.924914  0.750000  0.000000  1
  Rh  Rh10  1  0.317542  0.571393  0.222910  1
  Rh  Rh11  1  0.682458  0.428607  0.777090  1
  Rh  Rh12  1  0.094633  0.928607  0.777090  1
  Rh  Rh13  1  0.905367  0.071393  0.222910  1
