# generated using pymatgen
data_Tb5Tm11(Ga3Fe)2
_symmetry_space_group_name_H-M   'P 1'
_cell_length_a   9.87499700
_cell_length_b   9.87499652
_cell_length_c   6.94387600
_cell_angle_alpha   90.00000000
_cell_angle_beta   90.00000000
_cell_angle_gamma   119.99999825
_symmetry_Int_Tables_number   1
_chemical_formula_structural   Tb5Tm11(Ga3Fe)2
_chemical_formula_sum   'Tb5 Tm11 Ga6 Fe2'
_cell_volume   586.41695678
_cell_formula_units_Z   1
loop_
 _symmetry_equiv_pos_site_id
 _symmetry_equiv_pos_as_xyz
  1  'x, y, z'
loop_
 _atom_site_type_symbol
 _atom_site_label
 _atom_site_symmetry_multiplicity
 _atom_site_fract_x
 _atom_site_fract_y
 _atom_site_fract_z
 _atom_site_occupancy
  Tb  Tb0  1  0.464363  0.928725  0.291704  1
  Tb  Tb1  1  0.071275  0.535637  0.291704  1
  Tb  Tb2  1  0.464363  0.535637  0.291704  1
  Tb  Tb3  1  0.000000  0.000000  0.769148  1
  Tb  Tb4  1  0.000000  0.000000  0.268409  1
  Tm  Tm5  1  0.825793  0.651586  0.490002  1
  Tm  Tm6  1  0.348414  0.174207  0.490002  1
  Tm  Tm7  1  0.825793  0.174207  0.490002  1
  Tm  Tm8  1  0.173693  0.347385  0.985858  1
  Tm  Tm9  1  0.652615  0.826307  0.985858  1
  Tm  Tm10  1  0.173693  0.826307  0.985858  1
  Tm  Tm11  1  0.666667  0.333333  0.170703  1
  Tm  Tm12  1  0.333333  0.666667  0.673149  1
  Tm  Tm13  1  0.537390  0.074780  0.792824  1
  Tm  Tm14  1  0.925220  0.462610  0.792824  1
  Tm  Tm15  1  0.537390  0.462610  0.792824  1
  Ga  Ga16  1  0.835423  0.670847  0.041648  1
  Ga  Ga17  1  0.329153  0.164577  0.041648  1
  Ga  Ga18  1  0.835423  0.164577  0.041648  1
  Ga  Ga19  1  0.163863  0.327725  0.543579  1
  Ga  Ga20  1  0.672275  0.836137  0.543579  1
  Ga  Ga21  1  0.163863  0.836137  0.543579  1
  Fe  Fe22  1  0.666667  0.333333  0.555215  1
  Fe  Fe23  1  0.333333  0.666667  0.052604  1
