# generated using pymatgen
data_Dy5Ta3(P3Rh4)4
_symmetry_space_group_name_H-M   'P 1'
_cell_length_a   12.78367600
_cell_length_b   12.78367572
_cell_length_c   3.92807400
_cell_angle_alpha   90.00000000
_cell_angle_beta   90.00000000
_cell_angle_gamma   119.99999038
_symmetry_Int_Tables_number   1
_chemical_formula_structural   Dy5Ta3(P3Rh4)4
_chemical_formula_sum   'Dy5 Ta3 P12 Rh16'
_cell_volume   555.93220715
_cell_formula_units_Z   1
loop_
 _symmetry_equiv_pos_site_id
 _symmetry_equiv_pos_as_xyz
  1  'x, y, z'
loop_
 _atom_site_type_symbol
 _atom_site_label
 _atom_site_symmetry_multiplicity
 _atom_site_fract_x
 _atom_site_fract_y
 _atom_site_fract_z
 _atom_site_occupancy
  Dy  Dy0  1  0.666667  0.333333  0.000000  1
  Dy  Dy1  1  0.333333  0.666667  0.000000  1
  Dy  Dy2  1  0.186885  0.186885  0.500000  1
  Dy  Dy3  1  0.813115  0.000000  0.500000  1
  Dy  Dy4  1  0.000000  0.813115  0.500000  1
  Ta  Ta5  1  0.550142  0.550142  0.000000  1
  Ta  Ta6  1  0.449858  0.000000  0.000000  1
  Ta  Ta7  1  0.000000  0.449858  0.000000  1
  P  P8  1  0.358696  0.358696  0.000000  1
  P  P9  1  0.641304  0.000000  0.000000  1
  P  P10  1  0.000000  0.641304  0.000000  1
  P  P11  1  0.834902  0.317377  0.500000  1
  P  P12  1  0.682623  0.517525  0.500000  1
  P  P13  1  0.482475  0.165098  0.500000  1
  P  P14  1  0.317377  0.834902  0.500000  1
  P  P15  1  0.517525  0.682623  0.500000  1
  P  P16  1  0.165098  0.482475  0.500000  1
  P  P17  1  0.824431  0.824431  0.000000  1
  P  P18  1  0.175569  0.000000  0.000000  1
  P  P19  1  0.000000  0.175569  0.000000  1
  Rh  Rh20  1  0.823181  0.197472  0.000000  1
  Rh  Rh21  1  0.802528  0.625709  0.000000  1
  Rh  Rh22  1  0.374291  0.176819  0.000000  1
  Rh  Rh23  1  0.197472  0.823181  0.000000  1
  Rh  Rh24  1  0.625709  0.802528  0.000000  1
  Rh  Rh25  1  0.176819  0.374291  0.000000  1
  Rh  Rh26  1  0.644995  0.133284  0.500000  1
  Rh  Rh27  1  0.866716  0.511710  0.500000  1
  Rh  Rh28  1  0.488290  0.355005  0.500000  1
  Rh  Rh29  1  0.133284  0.644995  0.500000  1
  Rh  Rh30  1  0.511710  0.866716  0.500000  1
  Rh  Rh31  1  0.355005  0.488290  0.500000  1
  Rh  Rh32  1  0.719283  0.719283  0.500000  1
  Rh  Rh33  1  0.280717  0.000000  0.500000  1
  Rh  Rh34  1  0.000000  0.280717  0.500000  1
  Rh  Rh35  1  0.000000  0.000000  0.000000  1
