# generated using pymatgen
data_Li2Hf3AlIr6
_symmetry_space_group_name_H-M   'P 1'
_cell_length_a   4.45454700
_cell_length_b   6.26665200
_cell_length_c   13.31125900
_cell_angle_alpha   89.99997794
_cell_angle_beta   89.99902485
_cell_angle_gamma   90.00003115
_symmetry_Int_Tables_number   1
_chemical_formula_structural   Li2Hf3AlIr6
_chemical_formula_sum   'Li4 Hf6 Al2 Ir12'
_cell_volume   371.58507106
_cell_formula_units_Z   2
loop_
 _symmetry_equiv_pos_site_id
 _symmetry_equiv_pos_as_xyz
  1  'x, y, z'
loop_
 _atom_site_type_symbol
 _atom_site_label
 _atom_site_symmetry_multiplicity
 _atom_site_fract_x
 _atom_site_fract_y
 _atom_site_fract_z
 _atom_site_occupancy
  Li  Li0  1  0.999853  0.499998  0.333962  1
  Li  Li1  1  0.499998  0.000000  0.499869  1
  Li  Li2  1  0.000122  0.500002  0.666764  1
  Li  Li3  1  0.500130  0.999998  0.832704  1
  Hf  Hf4  1  0.999997  0.000001  0.996442  1
  Hf  Hf5  1  0.499890  0.500000  0.170214  1
  Hf  Hf6  1  0.999889  0.000001  0.338212  1
  Hf  Hf7  1  0.499999  0.500000  0.501503  1
  Hf  Hf8  1  0.000113  0.999999  0.665163  1
  Hf  Hf9  1  0.500108  0.500001  0.828456  1
  Al  Al10  1  0.999997  0.500000  0.998313  1
  Al  Al11  1  0.499904  0.000001  0.168431  1
  Ir  Ir12  1  0.499994  0.251562  0.001189  1
  Ir  Ir13  1  0.499995  0.748439  0.001189  1
  Ir  Ir14  1  0.999892  0.248446  0.165486  1
  Ir  Ir15  1  0.999893  0.751554  0.165486  1
  Ir  Ir16  1  0.499876  0.248342  0.332704  1
  Ir  Ir17  1  0.499877  0.751659  0.332704  1
  Ir  Ir18  1  0.000003  0.251903  0.500386  1
  Ir  Ir19  1  0.000001  0.748098  0.500385  1
  Ir  Ir20  1  0.500123  0.248105  0.666272  1
  Ir  Ir21  1  0.500122  0.751895  0.666272  1
  Ir  Ir22  1  0.000110  0.251664  0.833946  1
  Ir  Ir23  1  0.000110  0.748338  0.833947  1
