# generated using pymatgen
data_Y3TmAl17GaRh6
_symmetry_space_group_name_H-M   'P 1'
_cell_length_a   7.54041374
_cell_length_b   7.54277371
_cell_length_c   9.51173600
_cell_angle_alpha   90.00000000
_cell_angle_beta   90.00000000
_cell_angle_gamma   119.30765191
_symmetry_Int_Tables_number   1
_chemical_formula_structural   Y3TmAl17GaRh6
_chemical_formula_sum   'Y3 Tm1 Al17 Ga1 Rh6'
_cell_volume   471.74192309
_cell_formula_units_Z   1
loop_
 _symmetry_equiv_pos_site_id
 _symmetry_equiv_pos_as_xyz
  1  'x, y, z'
loop_
 _atom_site_type_symbol
 _atom_site_label
 _atom_site_symmetry_multiplicity
 _atom_site_fract_x
 _atom_site_fract_y
 _atom_site_fract_z
 _atom_site_occupancy
  Y  Y0  1  0.993700  0.675241  0.250000  1
  Y  Y1  1  0.005136  0.327239  0.750000  1
  Y  Y2  1  0.675373  0.993703  0.250000  1
  Tm  Tm3  1  0.326805  0.004930  0.750000  1
  Al  Al4  1  0.870539  0.869953  0.750000  1
  Al  Al5  1  0.001780  0.336466  0.074408  1
  Al  Al6  1  0.999275  0.664606  0.924447  1
  Al  Al7  1  0.999275  0.664606  0.575553  1
  Al  Al8  1  0.336413  0.001673  0.426446  1
  Al  Al9  1  0.001780  0.336466  0.425592  1
  Al  Al10  1  0.663286  0.998687  0.575612  1
  Al  Al11  1  0.663286  0.998687  0.924388  1
  Al  Al12  1  0.336413  0.001673  0.073554  1
  Al  Al13  1  0.332964  0.332371  0.553914  1
  Al  Al14  1  0.665541  0.665534  0.451448  1
  Al  Al15  1  0.665541  0.665534  0.048552  1
  Al  Al16  1  0.332964  0.332371  0.946086  1
  Al  Al17  1  0.339194  0.550898  0.250000  1
  Al  Al18  1  0.659647  0.448860  0.750000  1
  Al  Al19  1  0.550582  0.338888  0.250000  1
  Al  Al20  1  0.449740  0.661351  0.750000  1
  Ga  Ga21  1  0.134117  0.133963  0.250000  1
  Rh  Rh22  1  0.671006  0.327312  0.999839  1
  Rh  Rh23  1  0.327482  0.671355  0.999793  1
  Rh  Rh24  1  0.327482  0.671355  0.500207  1
  Rh  Rh25  1  0.671006  0.327312  0.500161  1
  Rh  Rh26  1  0.999837  0.999482  0.997270  1
  Rh  Rh27  1  0.999837  0.999482  0.502730  1
