# generated using pymatgen
data_K6YScF12
_symmetry_space_group_name_H-M   'P 1'
_cell_length_a   6.59927060
_cell_length_b   6.33395307
_cell_length_c   10.98310691
_cell_angle_alpha   55.52537423
_cell_angle_beta   90.12617880
_cell_angle_gamma   89.94789459
_symmetry_Int_Tables_number   1
_chemical_formula_structural   K6YScF12
_chemical_formula_sum   'K6 Y1 Sc1 F12'
_cell_volume   378.45939441
_cell_formula_units_Z   1
loop_
 _symmetry_equiv_pos_site_id
 _symmetry_equiv_pos_as_xyz
  1  'x, y, z'
loop_
 _atom_site_type_symbol
 _atom_site_label
 _atom_site_symmetry_multiplicity
 _atom_site_fract_x
 _atom_site_fract_y
 _atom_site_fract_z
 _atom_site_occupancy
  K  K0  1  0.946405  0.733160  0.750450  1
  K  K1  1  0.449501  0.278591  0.737754  1
  K  K2  1  0.053595  0.266840  0.249550  1
  K  K3  1  0.550499  0.721409  0.262246  1
  K  K4  1  0.000000  0.500000  0.500000  1
  K  K5  1  0.500000  0.500000  0.000000  1
  Y  Y6  1  0.000000  0.000000  0.000000  1
  Sc  Sc7  1  0.500000  0.000000  0.500000  1
  F  F8  1  0.938442  0.890377  0.225596  1
  F  F9  1  0.442930  0.100941  0.289655  1
  F  F10  1  0.061558  0.109623  0.774404  1
  F  F11  1  0.557070  0.899059  0.710345  1
  F  F12  1  0.728800  0.245979  0.923994  1
  F  F13  1  0.246163  0.770417  0.569529  1
  F  F14  1  0.271200  0.754021  0.076006  1
  F  F15  1  0.753837  0.229583  0.430471  1
  F  F16  1  0.329502  0.307684  0.455123  1
  F  F17  1  0.822571  0.668549  0.049721  1
  F  F18  1  0.670498  0.692316  0.544877  1
  F  F19  1  0.177429  0.331451  0.950279  1
