# generated using pymatgen
data_KLi2Nd3(WN4)2
_symmetry_space_group_name_H-M   'P 1'
_cell_length_a   5.85623900
_cell_length_b   6.08200864
_cell_length_c   6.83316285
_cell_angle_alpha   72.64864282
_cell_angle_beta   90.00000000
_cell_angle_gamma   90.00000000
_symmetry_Int_Tables_number   1
_chemical_formula_structural   KLi2Nd3(WN4)2
_chemical_formula_sum   'K1 Li2 Nd3 W2 N8'
_cell_volume   232.30616588
_cell_formula_units_Z   1
loop_
 _symmetry_equiv_pos_site_id
 _symmetry_equiv_pos_as_xyz
  1  'x, y, z'
loop_
 _atom_site_type_symbol
 _atom_site_label
 _atom_site_symmetry_multiplicity
 _atom_site_fract_x
 _atom_site_fract_y
 _atom_site_fract_z
 _atom_site_occupancy
  K  K0  1  0.250000  0.285962  0.059538  1
  Li  Li1  1  0.750000  0.295167  0.310351  1
  Li  Li2  1  0.250000  0.694330  0.694982  1
  Nd  Nd3  1  0.750000  0.721096  0.952631  1
  Nd  Nd4  1  0.750000  0.767519  0.438084  1
  Nd  Nd5  1  0.250000  0.218220  0.575980  1
  W  W6  1  0.250000  0.744294  0.196418  1
  W  W7  1  0.750000  0.264770  0.799551  1
  N  N8  1  0.509853  0.475666  0.730596  1
  N  N9  1  0.994119  0.548028  0.255472  1
  N  N10  1  0.505881  0.548028  0.255472  1
  N  N11  1  0.990147  0.475666  0.730596  1
  N  N12  1  0.750000  0.069590  0.625887  1
  N  N13  1  0.250000  0.916609  0.388143  1
  N  N14  1  0.750000  0.078202  0.076590  1
  N  N15  1  0.250000  0.896851  0.909709  1
