# generated using pymatgen
data_Ta6Nb8Ga3As5
_symmetry_space_group_name_H-M   'P 1'
_cell_length_a   3.53111100
_cell_length_b   7.97882737
_cell_length_c   14.32483237
_cell_angle_alpha   104.05869074
_cell_angle_beta   90.00000000
_cell_angle_gamma   102.78422527
_symmetry_Int_Tables_number   1
_chemical_formula_structural   Ta6Nb8Ga3As5
_chemical_formula_sum   'Ta6 Nb8 Ga3 As5'
_cell_volume   381.17904478
_cell_formula_units_Z   1
loop_
 _symmetry_equiv_pos_site_id
 _symmetry_equiv_pos_as_xyz
  1  'x, y, z'
loop_
 _atom_site_type_symbol
 _atom_site_label
 _atom_site_symmetry_multiplicity
 _atom_site_fract_x
 _atom_site_fract_y
 _atom_site_fract_z
 _atom_site_occupancy
  Ta  Ta0  1  0.000256  0.000511  0.000133  1
  Ta  Ta1  1  0.499396  0.998793  0.500058  1
  Ta  Ta2  1  0.428983  0.857965  0.825193  1
  Ta  Ta3  1  0.569243  0.138487  0.171407  1
  Ta  Ta4  1  0.196590  0.393181  0.308320  1
  Ta  Ta5  1  0.802516  0.605032  0.693468  1
  Nb  Nb6  1  0.210362  0.420724  0.795017  1
  Nb  Nb7  1  0.790053  0.580107  0.206091  1
  Nb  Nb8  1  0.334559  0.669119  0.032808  1
  Nb  Nb9  1  0.665724  0.331449  0.967016  1
  Nb  Nb10  1  0.000835  0.001671  0.661511  1
  Nb  Nb11  1  0.001322  0.002646  0.337809  1
  Nb  Nb12  1  0.178938  0.357875  0.548510  1
  Nb  Nb13  1  0.821156  0.642314  0.450996  1
  Ga  Ga14  1  0.175384  0.350766  0.107821  1
  Ga  Ga15  1  0.825661  0.651325  0.892606  1
  Ga  Ga16  1  0.369837  0.739677  0.597453  1
  As  As17  1  0.630497  0.260995  0.403812  1
  As  As18  1  0.372887  0.745773  0.334090  1
  As  As19  1  0.626523  0.253048  0.666287  1
  As  As20  1  0.063217  0.126434  0.847444  1
  As  As21  1  0.936057  0.872112  0.152149  1
