# generated using pymatgen
data_La3Lu4Th(ReB6)4
_symmetry_space_group_name_H-M   'P 1'
_cell_length_a   3.73570200
_cell_length_b   9.22191838
_cell_length_c   11.71674647
_cell_angle_alpha   89.96731770
_cell_angle_beta   90.00000000
_cell_angle_gamma   90.00000000
_symmetry_Int_Tables_number   1
_chemical_formula_structural   La3Lu4Th(ReB6)4
_chemical_formula_sum   'La3 Lu4 Th1 Re4 B24'
_cell_volume   403.64582146
_cell_formula_units_Z   1
loop_
 _symmetry_equiv_pos_site_id
 _symmetry_equiv_pos_as_xyz
  1  'x, y, z'
loop_
 _atom_site_type_symbol
 _atom_site_label
 _atom_site_symmetry_multiplicity
 _atom_site_fract_x
 _atom_site_fract_y
 _atom_site_fract_z
 _atom_site_occupancy
  La  La0  1  0.000000  0.323024  0.414720  1
  La  La1  1  0.000000  0.677246  0.584937  1
  La  La2  1  0.000000  0.821912  0.085607  1
  Lu  Lu3  1  0.000000  0.943155  0.368331  1
  Lu  Lu4  1  0.000000  0.056455  0.630502  1
  Lu  Lu5  1  0.000000  0.443972  0.131064  1
  Lu  Lu6  1  0.000000  0.556994  0.869231  1
  Th  Th7  1  0.000000  0.176887  0.914914  1
  Re  Re8  1  0.000000  0.640683  0.317920  1
  Re  Re9  1  0.000000  0.357703  0.683766  1
  Re  Re10  1  0.000000  0.140514  0.180365  1
  Re  Re11  1  0.000000  0.861550  0.818616  1
  B  B12  1  0.500000  0.556805  0.428413  1
  B  B13  1  0.500000  0.442566  0.572321  1
  B  B14  1  0.500000  0.057457  0.070621  1
  B  B15  1  0.500000  0.943937  0.928628  1
  B  B16  1  0.500000  0.751763  0.414380  1
  B  B17  1  0.500000  0.248247  0.585920  1
  B  B18  1  0.500000  0.251900  0.084530  1
  B  B19  1  0.500000  0.748510  0.914346  1
  B  B20  1  0.500000  0.792414  0.265731  1
  B  B21  1  0.500000  0.207191  0.734944  1
  B  B22  1  0.500000  0.292227  0.233609  1
  B  B23  1  0.500000  0.708178  0.766121  1
  B  B24  1  0.500000  0.629223  0.185926  1
  B  B25  1  0.500000  0.369956  0.815084  1
  B  B26  1  0.500000  0.129358  0.313476  1
  B  B27  1  0.500000  0.870961  0.685961  1
  B  B28  1  0.500000  0.985100  0.214197  1
  B  B29  1  0.500000  0.015621  0.785938  1
  B  B30  1  0.500000  0.484953  0.285637  1
  B  B31  1  0.500000  0.514457  0.714864  1
  B  B32  1  0.500000  0.594791  0.025760  1
  B  B33  1  0.500000  0.404158  0.974065  1
  B  B34  1  0.500000  0.093985  0.474207  1
  B  B35  1  0.500000  0.906147  0.525349  1
