# generated using pymatgen
data_YbEr(Si2Ni9)2
_symmetry_space_group_name_H-M   'P 1'
_cell_length_a   7.53007433
_cell_length_b   7.53007420
_cell_length_c   7.53007448
_cell_angle_alpha   99.57731716
_cell_angle_beta   99.57732177
_cell_angle_gamma   131.85465245
_symmetry_Int_Tables_number   1
_chemical_formula_structural   YbEr(Si2Ni9)2
_chemical_formula_sum   'Yb1 Er1 Si4 Ni18'
_cell_volume   290.36560443
_cell_formula_units_Z   1
loop_
 _symmetry_equiv_pos_site_id
 _symmetry_equiv_pos_as_xyz
  1  'x, y, z'
loop_
 _atom_site_type_symbol
 _atom_site_label
 _atom_site_symmetry_multiplicity
 _atom_site_fract_x
 _atom_site_fract_y
 _atom_site_fract_z
 _atom_site_occupancy
  Yb  Yb0  1  0.500000  0.500000  0.000000  1
  Er  Er1  1  0.750000  0.250000  0.500000  1
  Si  Si2  1  0.624671  0.874792  0.749879  1
  Si  Si3  1  0.125208  0.375329  0.250121  1
  Si  Si4  1  0.125208  0.875087  0.749879  1
  Si  Si5  1  0.124913  0.874792  0.250121  1
  Ni  Ni6  1  0.250000  0.750000  0.500000  1
  Ni  Ni7  1  0.000000  0.000000  0.000000  1
  Ni  Ni8  1  0.686168  0.012228  0.079317  1
  Ni  Ni9  1  0.686168  0.606852  0.673940  1
  Ni  Ni10  1  0.261881  0.435730  0.579060  1
  Ni  Ni11  1  0.261881  0.682820  0.826151  1
  Ni  Ni12  1  0.932912  0.012228  0.326060  1
  Ni  Ni13  1  0.932912  0.606852  0.920683  1
  Ni  Ni14  1  0.856671  0.435730  0.173849  1
  Ni  Ni15  1  0.856671  0.682820  0.420940  1
  Ni  Ni16  1  0.564270  0.738119  0.420940  1
  Ni  Ni17  1  0.564270  0.143329  0.826151  1
  Ni  Ni18  1  0.987772  0.313832  0.920683  1
  Ni  Ni19  1  0.987772  0.067088  0.673940  1
  Ni  Ni20  1  0.317180  0.738119  0.173849  1
  Ni  Ni21  1  0.317180  0.143329  0.579060  1
  Ni  Ni22  1  0.393148  0.313832  0.326060  1
  Ni  Ni23  1  0.393148  0.067088  0.079317  1
