# generated using pymatgen
data_Sr4Lu2MnRuO12
_symmetry_space_group_name_H-M   'P 1'
_cell_length_a   5.74234982
_cell_length_b   5.75417540
_cell_length_c   8.12296096
_cell_angle_alpha   90.01369133
_cell_angle_beta   90.26960576
_cell_angle_gamma   89.95944317
_symmetry_Int_Tables_number   1
_chemical_formula_structural   Sr4Lu2MnRuO12
_chemical_formula_sum   'Sr4 Lu2 Mn1 Ru1 O12'
_cell_volume   268.39979448
_cell_formula_units_Z   1
loop_
 _symmetry_equiv_pos_site_id
 _symmetry_equiv_pos_as_xyz
  1  'x, y, z'
loop_
 _atom_site_type_symbol
 _atom_site_label
 _atom_site_symmetry_multiplicity
 _atom_site_fract_x
 _atom_site_fract_y
 _atom_site_fract_z
 _atom_site_occupancy
  Sr  Sr0  1  0.005798  0.029043  0.234381  1
  Sr  Sr1  1  0.495748  0.523653  0.235791  1
  Sr  Sr2  1  0.504253  0.476347  0.764209  1
  Sr  Sr3  1  0.994202  0.970957  0.765619  1
  Lu  Lu4  1  0.499999  0.000000  0.999999  1
  Lu  Lu5  1  0.999999  0.500001  0.500000  1
  Mn  Mn6  1  0.000000  0.500001  0.000000  1
  Ru  Ru7  1  0.500000  0.000000  0.499999  1
  O  O8  1  0.261348  0.286950  0.028815  1
  O  O9  1  0.211695  0.762713  0.029938  1
  O  O10  1  0.941119  0.487916  0.237789  1
  O  O11  1  0.562437  0.988669  0.265325  1
  O  O12  1  0.300011  0.269116  0.465219  1
  O  O13  1  0.233691  0.797360  0.466174  1
  O  O14  1  0.766309  0.202640  0.533826  1
  O  O15  1  0.699989  0.730886  0.534781  1
  O  O16  1  0.437564  0.011331  0.734675  1
  O  O17  1  0.058881  0.512084  0.762211  1
  O  O18  1  0.788305  0.237287  0.970062  1
  O  O19  1  0.738652  0.713050  0.971185  1
