# generated using pymatgen
data_FeI35
_symmetry_space_group_name_H-M   'P 1'
_cell_length_a   17.58017498
_cell_length_b   12.54030950
_cell_length_c   11.87107100
_cell_angle_alpha   88.81408644
_cell_angle_beta   66.02770740
_cell_angle_gamma   92.31545562
_symmetry_Int_Tables_number   1
_chemical_formula_structural   FeI35
_chemical_formula_sum   'Fe1 I35'
_cell_volume   2387.43274716
_cell_formula_units_Z   1
loop_
 _symmetry_equiv_pos_site_id
 _symmetry_equiv_pos_as_xyz
  1  'x, y, z'
loop_
 _atom_site_type_symbol
 _atom_site_label
 _atom_site_symmetry_multiplicity
 _atom_site_fract_x
 _atom_site_fract_y
 _atom_site_fract_z
 _atom_site_occupancy
  Fe  Fe0  1  0.208285  0.413987  0.513217  1
  I  I1  1  0.518452  0.262532  0.538809  1
  I  I2  1  0.756445  0.590697  0.579205  1
  I  I3  1  0.466406  0.680883  0.733600  1
  I  I4  1  0.068461  0.879125  0.831315  1
  I  I5  1  0.900129  0.150182  0.013160  1
  I  I6  1  0.660467  0.312155  0.294048  1
  I  I7  1  0.606316  0.343115  0.836276  1
  I  I8  1  0.326644  0.754119  0.683646  1
  I  I9  1  0.344360  0.602453  0.190575  1
  I  I10  1  0.647435  0.130877  0.807363  1
  I  I11  1  0.915905  0.558503  0.380386  1
  I  I12  1  0.074785  0.934328  0.589936  1
  I  I13  1  0.903426  0.108692  0.260290  1
  I  I14  1  0.890456  0.197843  0.782688  1
  I  I15  1  0.655808  0.050554  0.251066  1
  I  I16  1  0.039727  0.818027  0.089465  1
  I  I17  1  0.350812  0.977803  0.727868  1
  I  I18  1  0.908854  0.330101  0.324263  1
  I  I19  1  0.884915  0.917440  0.685955  1
  I  I20  1  0.892867  0.658179  0.817988  1
  I  I21  1  0.333102  0.085292  0.224350  1
  I  I22  1  0.321714  0.359341  0.252562  1
  I  I23  1  0.600799  0.615426  0.801133  1
  I  I24  1  0.094001  0.404273  0.434498  1
  I  I25  1  0.708946  0.895214  0.792878  1
  I  I26  1  0.873752  0.437586  0.808682  1
  I  I27  1  0.496394  0.065433  0.238774  1
  I  I28  1  0.168213  0.241850  0.639218  1
  I  I29  1  0.674923  0.783663  0.274198  1
  I  I30  1  0.859351  0.804120  0.183025  1
  I  I31  1  0.382347  0.204507  0.770467  1
  I  I32  1  0.340567  0.461093  0.542871  1
  I  I33  1  0.658036  0.545537  0.265752  1
  I  I34  1  0.152339  0.594550  0.606857  1
  I  I35  1  0.314559  0.830520  0.233618  1
