# generated using pymatgen
data_Mn2CoNi(MoP)4
_symmetry_space_group_name_H-M   'P 1'
_cell_length_a   3.72039200
_cell_length_b   5.89280601
_cell_length_c   6.77655884
_cell_angle_alpha   89.22302962
_cell_angle_beta   90.00000000
_cell_angle_gamma   90.00000000
_symmetry_Int_Tables_number   1
_chemical_formula_structural   Mn2CoNi(MoP)4
_chemical_formula_sum   'Mn2 Co1 Ni1 Mo4 P4'
_cell_volume   148.55255556
_cell_formula_units_Z   1
loop_
 _symmetry_equiv_pos_site_id
 _symmetry_equiv_pos_as_xyz
  1  'x, y, z'
loop_
 _atom_site_type_symbol
 _atom_site_label
 _atom_site_symmetry_multiplicity
 _atom_site_fract_x
 _atom_site_fract_y
 _atom_site_fract_z
 _atom_site_occupancy
  Mn  Mn0  1  0.250000  0.858602  0.941086  1
  Mn  Mn1  1  0.750000  0.144525  0.060296  1
  Co  Co2  1  0.250000  0.362218  0.564148  1
  Ni  Ni3  1  0.750000  0.638738  0.433428  1
  Mo  Mo4  1  0.250000  0.463413  0.165890  1
  Mo  Mo5  1  0.250000  0.976468  0.322700  1
  Mo  Mo6  1  0.750000  0.022479  0.678975  1
  Mo  Mo7  1  0.750000  0.534576  0.833922  1
  P  P8  1  0.250000  0.737841  0.622474  1
  P  P9  1  0.250000  0.229965  0.874332  1
  P  P10  1  0.750000  0.258734  0.382434  1
  P  P11  1  0.750000  0.772440  0.120316  1
