# generated using pymatgen
data_YTm2Ir4Rh5
_symmetry_space_group_name_H-M   'P 1'
_cell_length_a   5.27850500
_cell_length_b   5.27850475
_cell_length_c   17.45224000
_cell_angle_alpha   90.00000000
_cell_angle_beta   90.00000000
_cell_angle_gamma   119.99998277
_symmetry_Int_Tables_number   1
_chemical_formula_structural   YTm2Ir4Rh5
_chemical_formula_sum   'Y2 Tm4 Ir8 Rh10'
_cell_volume   421.11793467
_cell_formula_units_Z   2
loop_
 _symmetry_equiv_pos_site_id
 _symmetry_equiv_pos_as_xyz
  1  'x, y, z'
loop_
 _atom_site_type_symbol
 _atom_site_label
 _atom_site_symmetry_multiplicity
 _atom_site_fract_x
 _atom_site_fract_y
 _atom_site_fract_z
 _atom_site_occupancy
  Y  Y0  1  0.333333  0.666667  0.748004  1
  Y  Y1  1  0.666667  0.333333  0.251996  1
  Tm  Tm2  1  0.333333  0.666667  0.958236  1
  Tm  Tm3  1  0.666667  0.333333  0.041764  1
  Tm  Tm4  1  0.666667  0.333333  0.459508  1
  Tm  Tm5  1  0.333333  0.666667  0.540492  1
  Ir  Ir6  1  0.167620  0.832380  0.373982  1
  Ir  Ir7  1  0.167620  0.335241  0.373982  1
  Ir  Ir8  1  0.664759  0.832380  0.373982  1
  Ir  Ir9  1  0.832380  0.167620  0.626018  1
  Ir  Ir10  1  0.832380  0.664759  0.626018  1
  Ir  Ir11  1  0.335241  0.167620  0.626018  1
  Ir  Ir12  1  0.000000  0.000000  0.500000  1
  Ir  Ir13  1  0.000000  0.000000  0.000000  1
  Rh  Rh14  1  0.832518  0.167482  0.875418  1
  Rh  Rh15  1  0.832518  0.665037  0.875418  1
  Rh  Rh16  1  0.334963  0.167482  0.875418  1
  Rh  Rh17  1  0.167482  0.832518  0.124582  1
  Rh  Rh18  1  0.167482  0.334963  0.124582  1
  Rh  Rh19  1  0.665037  0.832518  0.124582  1
  Rh  Rh20  1  0.333333  0.666667  0.248946  1
  Rh  Rh21  1  0.666667  0.333333  0.751054  1
  Rh  Rh22  1  0.000000  0.000000  0.249728  1
  Rh  Rh23  1  0.000000  0.000000  0.750272  1
