# generated using pymatgen
data_Er2PaTc2
_symmetry_space_group_name_H-M   'P 1'
_cell_length_a   5.87533715
_cell_length_b   5.87533680
_cell_length_c   5.87533545
_cell_angle_alpha   137.63210123
_cell_angle_beta   121.24207178
_cell_angle_gamma   75.07893623
_symmetry_Int_Tables_number   1
_chemical_formula_structural   Er2PaTc2
_chemical_formula_sum   'Er2 Pa1 Tc2'
_cell_volume   114.03877572
_cell_formula_units_Z   1
loop_
 _symmetry_equiv_pos_site_id
 _symmetry_equiv_pos_as_xyz
  1  'x, y, z'
loop_
 _atom_site_type_symbol
 _atom_site_label
 _atom_site_symmetry_multiplicity
 _atom_site_fract_x
 _atom_site_fract_y
 _atom_site_fract_z
 _atom_site_occupancy
  Er  Er0  1  0.696110  0.196111  0.500000  1
  Er  Er1  1  0.303889  0.803889  0.500000  1
  Pa  Pa2  1  0.000000  0.000000  0.000000  1
  Tc  Tc3  1  0.741893  0.500000  0.241893  1
  Tc  Tc4  1  0.258106  0.500000  0.758106  1
