# generated using pymatgen
data_Sr2IOF
_symmetry_space_group_name_H-M   'P 1'
_cell_length_a   7.52215716
_cell_length_b   7.52215660
_cell_length_c   6.14103800
_cell_angle_alpha   90.00000000
_cell_angle_beta   90.00000000
_cell_angle_gamma   131.91310842
_symmetry_Int_Tables_number   1
_chemical_formula_structural   Sr2IOF
_chemical_formula_sum   'Sr4 I2 O2 F2'
_cell_volume   258.57834017
_cell_formula_units_Z   2
loop_
 _symmetry_equiv_pos_site_id
 _symmetry_equiv_pos_as_xyz
  1  'x, y, z'
loop_
 _atom_site_type_symbol
 _atom_site_label
 _atom_site_symmetry_multiplicity
 _atom_site_fract_x
 _atom_site_fract_y
 _atom_site_fract_z
 _atom_site_occupancy
  Sr  Sr0  1  0.418668  0.581332  0.226477  1
  Sr  Sr1  1  0.581332  0.418668  0.773523  1
  Sr  Sr2  1  0.081332  0.918668  0.226477  1
  Sr  Sr3  1  0.918668  0.081332  0.773523  1
  I  I4  1  0.750000  0.250000  0.249629  1
  I  I5  1  0.250000  0.750000  0.750371  1
  O  O6  1  0.250000  0.250000  0.000000  1
  O  O7  1  0.750000  0.750000  0.000000  1
  F  F8  1  0.250000  0.250000  0.500000  1
  F  F9  1  0.750000  0.750000  0.500000  1
