# generated using pymatgen
data_La2SmCo(P3Ru4)2
_symmetry_space_group_name_H-M   'P 1'
_cell_length_a   3.96890100
_cell_length_b   11.25603200
_cell_length_c   12.75118200
_cell_angle_alpha   90.00000000
_cell_angle_beta   90.00000000
_cell_angle_gamma   90.00000000
_symmetry_Int_Tables_number   1
_chemical_formula_structural   La2SmCo(P3Ru4)2
_chemical_formula_sum   'La4 Sm2 Co2 P12 Ru16'
_cell_volume   569.64728218
_cell_formula_units_Z   2
loop_
 _symmetry_equiv_pos_site_id
 _symmetry_equiv_pos_as_xyz
  1  'x, y, z'
loop_
 _atom_site_type_symbol
 _atom_site_label
 _atom_site_symmetry_multiplicity
 _atom_site_fract_x
 _atom_site_fract_y
 _atom_site_fract_z
 _atom_site_occupancy
  La  La0  1  0.000000  0.500000  0.528865  1
  La  La1  1  0.500000  0.000000  0.472130  1
  La  La2  1  0.500000  0.820247  0.204775  1
  La  La3  1  0.500000  0.179753  0.204775  1
  Sm  Sm4  1  0.000000  0.680209  0.796013  1
  Sm  Sm5  1  0.000000  0.319791  0.796013  1
  Co  Co6  1  0.000000  0.500000  0.986522  1
  Co  Co7  1  0.500000  0.000000  0.009249  1
  P  P8  1  0.500000  0.500000  0.884237  1
  P  P9  1  0.000000  0.000000  0.109976  1
  P  P10  1  0.500000  0.500000  0.333160  1
  P  P11  1  0.000000  0.000000  0.666467  1
  P  P12  1  0.500000  0.297898  0.619395  1
  P  P13  1  0.500000  0.702102  0.619395  1
  P  P14  1  0.000000  0.204196  0.385650  1
  P  P15  1  0.000000  0.795804  0.385650  1
  P  P16  1  0.500000  0.848729  0.899170  1
  P  P17  1  0.500000  0.151271  0.899170  1
  P  P18  1  0.000000  0.648651  0.098556  1
  P  P19  1  0.000000  0.351349  0.098556  1
  Ru  Ru20  1  0.500000  0.500000  0.152082  1
  Ru  Ru21  1  0.000000  0.000000  0.846885  1
  Ru  Ru22  1  0.500000  0.500000  0.696996  1
  Ru  Ru23  1  0.000000  0.000000  0.304944  1
  Ru  Ru24  1  0.500000  0.335318  0.989608  1
  Ru  Ru25  1  0.500000  0.664682  0.989608  1
  Ru  Ru26  1  0.000000  0.166763  0.006160  1
  Ru  Ru27  1  0.000000  0.833237  0.006160  1
  Ru  Ru28  1  0.500000  0.303900  0.431540  1
  Ru  Ru29  1  0.500000  0.696100  0.431540  1
  Ru  Ru30  1  0.000000  0.198429  0.572215  1
  Ru  Ru31  1  0.000000  0.801571  0.572215  1
  Ru  Ru32  1  0.500000  0.879642  0.717992  1
  Ru  Ru33  1  0.500000  0.120358  0.717992  1
  Ru  Ru34  1  0.000000  0.619644  0.283168  1
  Ru  Ru35  1  0.000000  0.380356  0.283168  1
