# generated using pymatgen
data_La3TaCrC6
_symmetry_space_group_name_H-M   'P 1'
_cell_length_a   8.54937400
_cell_length_b   8.54937344
_cell_length_c   5.37195900
_cell_angle_alpha   90.00000000
_cell_angle_beta   90.00000000
_cell_angle_gamma   119.99999443
_symmetry_Int_Tables_number   1
_chemical_formula_structural   La3TaCrC6
_chemical_formula_sum   'La6 Ta2 Cr2 C12'
_cell_volume   340.04152024
_cell_formula_units_Z   2
loop_
 _symmetry_equiv_pos_site_id
 _symmetry_equiv_pos_as_xyz
  1  'x, y, z'
loop_
 _atom_site_type_symbol
 _atom_site_label
 _atom_site_symmetry_multiplicity
 _atom_site_fract_x
 _atom_site_fract_y
 _atom_site_fract_z
 _atom_site_occupancy
  La  La0  1  0.608243  0.683488  0.750000  1
  La  La1  1  0.924755  0.608243  0.250000  1
  La  La2  1  0.683488  0.075245  0.250000  1
  La  La3  1  0.316512  0.924755  0.750000  1
  La  La4  1  0.075245  0.391757  0.750000  1
  La  La5  1  0.391757  0.316512  0.250000  1
  Ta  Ta6  1  0.000000  0.000000  0.500000  1
  Ta  Ta7  1  0.000000  0.000000  0.000000  1
  Cr  Cr8  1  0.666667  0.333333  0.750000  1
  Cr  Cr9  1  0.333333  0.666667  0.250000  1
  C  C10  1  0.948998  0.760436  0.750000  1
  C  C11  1  0.188560  0.948998  0.250000  1
  C  C12  1  0.760436  0.811440  0.250000  1
  C  C13  1  0.239564  0.188560  0.750000  1
  C  C14  1  0.811440  0.051002  0.750000  1
  C  C15  1  0.051002  0.239564  0.250000  1
  C  C16  1  0.850148  0.572983  0.750000  1
  C  C17  1  0.277164  0.850148  0.250000  1
  C  C18  1  0.572983  0.722836  0.250000  1
  C  C19  1  0.427017  0.277164  0.750000  1
  C  C20  1  0.149852  0.427017  0.250000  1
  C  C21  1  0.722836  0.149852  0.750000  1
