# generated using pymatgen
data_Hf4Tc2IrOs
_symmetry_space_group_name_H-M   'P 1'
_cell_length_a   6.49217200
_cell_length_b   4.61831200
_cell_length_c   9.23127500
_cell_angle_alpha   90.00000000
_cell_angle_beta   90.00019018
_cell_angle_gamma   90.00000000
_symmetry_Int_Tables_number   1
_chemical_formula_structural   Hf4Tc2IrOs
_chemical_formula_sum   'Hf8 Tc4 Ir2 Os2'
_cell_volume   276.78017230
_cell_formula_units_Z   2
loop_
 _symmetry_equiv_pos_site_id
 _symmetry_equiv_pos_as_xyz
  1  'x, y, z'
loop_
 _atom_site_type_symbol
 _atom_site_label
 _atom_site_symmetry_multiplicity
 _atom_site_fract_x
 _atom_site_fract_y
 _atom_site_fract_z
 _atom_site_occupancy
  Hf  Hf0  1  0.999052  0.750001  0.123327  1
  Hf  Hf1  1  0.501109  0.750001  0.123329  1
  Hf  Hf2  1  0.001081  0.250001  0.376674  1
  Hf  Hf3  1  0.499022  0.250001  0.376677  1
  Hf  Hf4  1  0.498634  0.750001  0.626582  1
  Hf  Hf5  1  0.001198  0.750001  0.626585  1
  Hf  Hf6  1  0.501194  0.250001  0.873413  1
  Hf  Hf7  1  0.998643  0.250001  0.873414  1
  Tc  Tc8  1  0.750051  0.250001  0.126281  1
  Tc  Tc9  1  0.250044  0.750001  0.373717  1
  Tc  Tc10  1  0.749945  0.250001  0.623730  1
  Tc  Tc11  1  0.249942  0.750001  0.876272  1
  Ir  Ir12  1  0.250063  0.250001  0.125448  1
  Ir  Ir13  1  0.750055  0.750001  0.374554  1
  Os  Os14  1  0.249934  0.250001  0.624404  1
  Os  Os15  1  0.749932  0.750001  0.875592  1
