# generated using pymatgen
data_HoTm5Mn10(Co2P3)4
_symmetry_space_group_name_H-M   'P 1'
_cell_length_a   3.63653000
_cell_length_b   10.77225900
_cell_length_c   12.31921000
_cell_angle_alpha   90.00000000
_cell_angle_beta   90.00000000
_cell_angle_gamma   90.00000000
_symmetry_Int_Tables_number   1
_chemical_formula_structural   HoTm5Mn10(Co2P3)4
_chemical_formula_sum   'Ho1 Tm5 Mn10 Co8 P12'
_cell_volume   482.58833484
_cell_formula_units_Z   1
loop_
 _symmetry_equiv_pos_site_id
 _symmetry_equiv_pos_as_xyz
  1  'x, y, z'
loop_
 _atom_site_type_symbol
 _atom_site_label
 _atom_site_symmetry_multiplicity
 _atom_site_fract_x
 _atom_site_fract_y
 _atom_site_fract_z
 _atom_site_occupancy
  Ho  Ho0  1  0.500000  0.000000  0.467798  1
  Tm  Tm1  1  0.000000  0.500000  0.532221  1
  Tm  Tm2  1  0.500000  0.822621  0.200585  1
  Tm  Tm3  1  0.500000  0.177379  0.200585  1
  Tm  Tm4  1  0.000000  0.677194  0.799327  1
  Tm  Tm5  1  0.000000  0.322806  0.799327  1
  Mn  Mn6  1  0.500000  0.297907  0.431259  1
  Mn  Mn7  1  0.500000  0.702093  0.431259  1
  Mn  Mn8  1  0.000000  0.202944  0.568940  1
  Mn  Mn9  1  0.000000  0.797056  0.568940  1
  Mn  Mn10  1  0.500000  0.881558  0.706966  1
  Mn  Mn11  1  0.500000  0.118442  0.706966  1
  Mn  Mn12  1  0.000000  0.617938  0.293200  1
  Mn  Mn13  1  0.000000  0.382062  0.293200  1
  Mn  Mn14  1  0.500000  0.500000  0.159843  1
  Mn  Mn15  1  0.000000  0.000000  0.840036  1
  Co  Co16  1  0.000000  0.500000  0.990228  1
  Co  Co17  1  0.500000  0.000000  0.009685  1
  Co  Co18  1  0.500000  0.333174  0.995746  1
  Co  Co19  1  0.500000  0.666826  0.995746  1
  Co  Co20  1  0.000000  0.166869  0.004251  1
  Co  Co21  1  0.000000  0.833131  0.004251  1
  Co  Co22  1  0.500000  0.500000  0.710439  1
  Co  Co23  1  0.000000  0.000000  0.289017  1
  P  P24  1  0.500000  0.318556  0.621631  1
  P  P25  1  0.500000  0.681444  0.621631  1
  P  P26  1  0.000000  0.182256  0.378060  1
  P  P27  1  0.000000  0.817744  0.378060  1
  P  P28  1  0.500000  0.500000  0.887226  1
  P  P29  1  0.000000  0.000000  0.112567  1
  P  P30  1  0.500000  0.844087  0.892350  1
  P  P31  1  0.500000  0.155913  0.892350  1
  P  P32  1  0.000000  0.655802  0.107691  1
  P  P33  1  0.000000  0.344198  0.107691  1
  P  P34  1  0.500000  0.500000  0.357774  1
  P  P35  1  0.000000  0.000000  0.643153  1
