# generated using pymatgen
data_NaTb2Nd4PtI12
_symmetry_space_group_name_H-M   'P 1'
_cell_length_a   10.01798004
_cell_length_b   10.02299961
_cell_length_c   9.92436687
_cell_angle_alpha   106.75386777
_cell_angle_beta   107.16923811
_cell_angle_gamma   106.71314288
_symmetry_Int_Tables_number   1
_chemical_formula_structural   NaTb2Nd4PtI12
_chemical_formula_sum   'Na1 Tb2 Nd4 Pt1 I12'
_cell_volume   832.61837478
_cell_formula_units_Z   1
loop_
 _symmetry_equiv_pos_site_id
 _symmetry_equiv_pos_as_xyz
  1  'x, y, z'
loop_
 _atom_site_type_symbol
 _atom_site_label
 _atom_site_symmetry_multiplicity
 _atom_site_fract_x
 _atom_site_fract_y
 _atom_site_fract_z
 _atom_site_occupancy
  Na  Na0  1  0.499808  0.499797  0.499915  1
  Tb  Tb1  1  0.690429  0.895841  0.970428  1
  Tb  Tb2  1  0.969786  0.690811  0.897397  1
  Nd  Nd3  1  0.099010  0.027039  0.302978  1
  Nd  Nd4  1  0.314467  0.102443  0.028525  1
  Nd  Nd5  1  0.029066  0.314324  0.103934  1
  Nd  Nd6  1  0.898100  0.971539  0.695617  1
  Pt  Pt7  1  0.997823  0.997807  0.998508  1
  I  I8  1  0.074952  0.680788  0.220567  1
  I  I9  1  0.224811  0.075985  0.679209  1
  I  I10  1  0.680077  0.218278  0.074132  1
  I  I11  1  0.923327  0.323840  0.773159  1
  I  I12  1  0.770544  0.922389  0.313703  1
  I  I13  1  0.317984  0.771606  0.923138  1
  I  I14  1  0.454521  0.145537  0.376671  1
  I  I15  1  0.375190  0.454382  0.145370  1
  I  I16  1  0.146094  0.374902  0.456141  1
  I  I17  1  0.545523  0.854714  0.630871  1
  I  I18  1  0.631257  0.552978  0.858024  1
  I  I19  1  0.857230  0.625000  0.551712  1
