# generated using pymatgen
data_Tb4Al19Rh5
_symmetry_space_group_name_H-M   'P 1'
_cell_length_a   7.59928808
_cell_length_b   7.59927884
_cell_length_c   9.48863203
_cell_angle_alpha   89.83265018
_cell_angle_beta   89.83255259
_cell_angle_gamma   119.16030644
_symmetry_Int_Tables_number   1
_chemical_formula_structural   Tb4Al19Rh5
_chemical_formula_sum   'Tb4 Al19 Rh5'
_cell_volume   478.50354106
_cell_formula_units_Z   1
loop_
 _symmetry_equiv_pos_site_id
 _symmetry_equiv_pos_as_xyz
  1  'x, y, z'
loop_
 _atom_site_type_symbol
 _atom_site_label
 _atom_site_symmetry_multiplicity
 _atom_site_fract_x
 _atom_site_fract_y
 _atom_site_fract_z
 _atom_site_occupancy
  Tb  Tb0  1  0.994947  0.680130  0.247182  1
  Tb  Tb1  1  0.005053  0.319870  0.752818  1
  Tb  Tb2  1  0.680130  0.994948  0.247182  1
  Tb  Tb3  1  0.319870  0.005052  0.752818  1
  Al  Al4  1  0.139020  0.139020  0.260927  1
  Al  Al5  1  0.860980  0.860980  0.739073  1
  Al  Al6  1  0.004121  0.349284  0.081607  1
  Al  Al7  1  0.995879  0.650716  0.918393  1
  Al  Al8  1  0.001264  0.663327  0.570343  1
  Al  Al9  1  0.336673  0.998736  0.429657  1
  Al  Al10  1  0.998736  0.336673  0.429657  1
  Al  Al11  1  0.663327  0.001264  0.570343  1
  Al  Al12  1  0.650716  0.995879  0.918393  1
  Al  Al13  1  0.349284  0.004121  0.081607  1
  Al  Al14  1  0.332288  0.332288  0.548090  1
  Al  Al15  1  0.667712  0.667712  0.451910  1
  Al  Al16  1  0.654197  0.654197  0.059331  1
  Al  Al17  1  0.345803  0.345803  0.940669  1
  Al  Al18  1  0.338770  0.553102  0.252663  1
  Al  Al19  1  0.661230  0.446898  0.747337  1
  Al  Al20  1  0.553102  0.338770  0.252663  1
  Al  Al21  1  0.446898  0.661230  0.747337  1
  Al  Al22  1  0.000000  0.000000  0.000000  1
  Rh  Rh23  1  0.672292  0.327710  0.000000  1
  Rh  Rh24  1  0.327708  0.672290  0.000000  1
  Rh  Rh25  1  0.328988  0.671012  0.500002  1
  Rh  Rh26  1  0.671012  0.328988  0.499998  1
  Rh  Rh27  1  0.000000  0.000000  0.500000  1
