# generated using pymatgen
data_Sr6EuSc(BO3)6
_symmetry_space_group_name_H-M   'P 1'
_cell_length_a   7.84354430
_cell_length_b   7.84354434
_cell_length_c   7.84354460
_cell_angle_alpha   105.21103346
_cell_angle_beta   105.21104150
_cell_angle_gamma   105.21102570
_symmetry_Int_Tables_number   1
_chemical_formula_structural   Sr6EuSc(BO3)6
_chemical_formula_sum   'Sr6 Eu1 Sc1 B6 O18'
_cell_volume   419.93930312
_cell_formula_units_Z   1
loop_
 _symmetry_equiv_pos_site_id
 _symmetry_equiv_pos_as_xyz
  1  'x, y, z'
loop_
 _atom_site_type_symbol
 _atom_site_label
 _atom_site_symmetry_multiplicity
 _atom_site_fract_x
 _atom_site_fract_y
 _atom_site_fract_z
 _atom_site_occupancy
  Sr  Sr0  1  0.647142  0.265361  0.158292  1
  Sr  Sr1  1  0.158292  0.647142  0.265360  1
  Sr  Sr2  1  0.734639  0.841708  0.352858  1
  Sr  Sr3  1  0.265361  0.158292  0.647142  1
  Sr  Sr4  1  0.841708  0.352858  0.734639  1
  Sr  Sr5  1  0.352858  0.734639  0.841708  1
  Eu  Eu6  1  0.000000  0.000000  0.000000  1
  Sc  Sc7  1  0.500000  0.500000  0.500000  1
  B  B8  1  0.297437  0.381305  0.042614  1
  B  B9  1  0.381305  0.042615  0.297437  1
  B  B10  1  0.042615  0.297437  0.381305  1
  B  B11  1  0.957385  0.702563  0.618695  1
  B  B12  1  0.618695  0.957385  0.702563  1
  B  B13  1  0.702563  0.618695  0.957385  1
  O  O14  1  0.721103  0.808848  0.018940  1
  O  O15  1  0.807610  0.547147  0.069068  1
  O  O16  1  0.981060  0.278897  0.191152  1
  O  O17  1  0.452852  0.930931  0.192390  1
  O  O18  1  0.431556  0.498655  0.220991  1
  O  O19  1  0.191152  0.981060  0.278897  1
  O  O20  1  0.498655  0.220991  0.431555  1
  O  O21  1  0.930931  0.192391  0.452852  1
  O  O22  1  0.220991  0.431556  0.498655  1
  O  O23  1  0.779009  0.568444  0.501345  1
  O  O24  1  0.069069  0.807609  0.547148  1
  O  O25  1  0.501345  0.779009  0.568445  1
  O  O26  1  0.808848  0.018940  0.721103  1
  O  O27  1  0.568444  0.501345  0.779009  1
  O  O28  1  0.547148  0.069069  0.807610  1
  O  O29  1  0.018940  0.721103  0.808848  1
  O  O30  1  0.192390  0.452853  0.930932  1
  O  O31  1  0.278897  0.191152  0.981060  1
