# generated using pymatgen
data_Er6Fe6Co11P12Ru
_symmetry_space_group_name_H-M   'P 1'
_cell_length_a   3.70790200
_cell_length_b   10.55125400
_cell_length_c   12.11039200
_cell_angle_alpha   90.00000000
_cell_angle_beta   90.00000000
_cell_angle_gamma   90.00000000
_symmetry_Int_Tables_number   1
_chemical_formula_structural   Er6Fe6Co11P12Ru
_chemical_formula_sum   'Er6 Fe6 Co11 P12 Ru1'
_cell_volume   473.79505767
_cell_formula_units_Z   1
loop_
 _symmetry_equiv_pos_site_id
 _symmetry_equiv_pos_as_xyz
  1  'x, y, z'
loop_
 _atom_site_type_symbol
 _atom_site_label
 _atom_site_symmetry_multiplicity
 _atom_site_fract_x
 _atom_site_fract_y
 _atom_site_fract_z
 _atom_site_occupancy
  Er  Er0  1  0.750000  0.250000  0.473378  1
  Er  Er1  1  0.250000  0.750000  0.523072  1
  Er  Er2  1  0.250000  0.931600  0.795176  1
  Er  Er3  1  0.250000  0.568400  0.795176  1
  Er  Er4  1  0.750000  0.069241  0.204857  1
  Er  Er5  1  0.750000  0.430759  0.204857  1
  Fe  Fe6  1  0.750000  0.750000  0.159083  1
  Fe  Fe7  1  0.750000  0.250000  0.012097  1
  Fe  Fe8  1  0.750000  0.583286  0.995542  1
  Fe  Fe9  1  0.750000  0.916714  0.995542  1
  Fe  Fe10  1  0.750000  0.546802  0.430205  1
  Fe  Fe11  1  0.750000  0.953198  0.430205  1
  Co  Co12  1  0.250000  0.250000  0.299262  1
  Co  Co13  1  0.750000  0.750000  0.702105  1
  Co  Co14  1  0.250000  0.750000  0.985955  1
  Co  Co15  1  0.250000  0.417820  0.008711  1
  Co  Co16  1  0.250000  0.082180  0.008711  1
  Co  Co17  1  0.250000  0.452516  0.570321  1
  Co  Co18  1  0.250000  0.047484  0.570321  1
  Co  Co19  1  0.250000  0.870235  0.289749  1
  Co  Co20  1  0.250000  0.629765  0.289749  1
  Co  Co21  1  0.750000  0.129188  0.707754  1
  Co  Co22  1  0.750000  0.370812  0.707754  1
  P  P23  1  0.250000  0.250000  0.117235  1
  P  P24  1  0.750000  0.750000  0.884634  1
  P  P25  1  0.250000  0.250000  0.650180  1
  P  P26  1  0.750000  0.750000  0.345742  1
  P  P27  1  0.250000  0.441626  0.383600  1
  P  P28  1  0.250000  0.058374  0.383600  1
  P  P29  1  0.750000  0.561197  0.615345  1
  P  P30  1  0.750000  0.938803  0.615345  1
  P  P31  1  0.250000  0.902596  0.105723  1
  P  P32  1  0.250000  0.597404  0.105723  1
  P  P33  1  0.750000  0.093731  0.895658  1
  P  P34  1  0.750000  0.406269  0.895658  1
  Ru  Ru35  1  0.250000  0.250000  0.841978  1
