# generated using pymatgen
data_Dy6Al10Re6Os7
_symmetry_space_group_name_H-M   'P 1'
_cell_length_a   8.97910160
_cell_length_b   8.97910171
_cell_length_c   8.96189800
_cell_angle_alpha   60.06335966
_cell_angle_beta   60.06335923
_cell_angle_gamma   59.71528072
_symmetry_Int_Tables_number   1
_chemical_formula_structural   Dy6Al10Re6Os7
_chemical_formula_sum   'Dy6 Al10 Re6 Os7'
_cell_volume   510.29466793
_cell_formula_units_Z   1
loop_
 _symmetry_equiv_pos_site_id
 _symmetry_equiv_pos_as_xyz
  1  'x, y, z'
loop_
 _atom_site_type_symbol
 _atom_site_label
 _atom_site_symmetry_multiplicity
 _atom_site_fract_x
 _atom_site_fract_y
 _atom_site_fract_z
 _atom_site_occupancy
  Dy  Dy0  1  0.197015  0.802490  0.795874  1
  Dy  Dy1  1  0.802490  0.197015  0.204621  1
  Dy  Dy2  1  0.802490  0.197015  0.795874  1
  Dy  Dy3  1  0.795281  0.795281  0.204719  1
  Dy  Dy4  1  0.197015  0.802490  0.204621  1
  Dy  Dy5  1  0.202359  0.202359  0.797641  1
  Al  Al6  1  0.176248  0.486226  0.168763  1
  Al  Al7  1  0.486226  0.176248  0.168763  1
  Al  Al8  1  0.616670  0.616670  0.616147  1
  Al  Al9  1  0.616670  0.616670  0.150513  1
  Al  Al10  1  0.148928  0.617217  0.616927  1
  Al  Al11  1  0.617217  0.148928  0.616927  1
  Al  Al12  1  0.382749  0.382749  0.378783  1
  Al  Al13  1  0.382749  0.382749  0.855718  1
  Al  Al14  1  0.380378  0.855266  0.382179  1
  Al  Al15  1  0.855266  0.380378  0.382179  1
  Re  Re16  1  0.824912  0.824912  0.826289  1
  Re  Re17  1  0.824912  0.824912  0.523888  1
  Re  Re18  1  0.525631  0.823862  0.825253  1
  Re  Re19  1  0.823862  0.525631  0.825253  1
  Re  Re20  1  0.178911  0.178911  0.174360  1
  Re  Re21  1  0.178911  0.178911  0.467817  1
  Os  Os22  1  0.500039  0.500039  0.499961  1
  Os  Os23  1  0.999645  0.490945  0.508835  1
  Os  Os24  1  0.490945  0.999645  0.000575  1
  Os  Os25  1  0.490945  0.999645  0.508835  1
  Os  Os26  1  0.503458  0.503458  0.996542  1
  Os  Os27  1  0.999645  0.490945  0.000575  1
  Os  Os28  1  0.998430  0.998430  0.501570  1
