# generated using pymatgen
data_Sm4Mg(Ga2Pt)10
_symmetry_space_group_name_H-M   'P 1'
_cell_length_a   4.19872809
_cell_length_b   11.16896133
_cell_length_c   13.66396255
_cell_angle_alpha   81.59202963
_cell_angle_beta   81.16192939
_cell_angle_gamma   79.16600594
_symmetry_Int_Tables_number   1
_chemical_formula_structural   Sm4Mg(Ga2Pt)10
_chemical_formula_sum   'Sm4 Mg1 Ga20 Pt10'
_cell_volume   617.32129610
_cell_formula_units_Z   1
loop_
 _symmetry_equiv_pos_site_id
 _symmetry_equiv_pos_as_xyz
  1  'x, y, z'
loop_
 _atom_site_type_symbol
 _atom_site_label
 _atom_site_symmetry_multiplicity
 _atom_site_fract_x
 _atom_site_fract_y
 _atom_site_fract_z
 _atom_site_occupancy
  Sm  Sm0  1  0.124802  0.087619  0.662779  1
  Sm  Sm1  1  0.875198  0.912381  0.337221  1
  Sm  Sm2  1  0.774153  0.632194  0.819498  1
  Sm  Sm3  1  0.225847  0.367806  0.180502  1
  Mg  Mg4  1  0.500000  0.500000  0.500000  1
  Ga  Ga5  1  0.008606  0.071586  0.911204  1
  Ga  Ga6  1  0.991394  0.928414  0.088796  1
  Ga  Ga7  1  0.065329  0.671720  0.197622  1
  Ga  Ga8  1  0.934671  0.328280  0.802378  1
  Ga  Ga9  1  0.109703  0.329623  0.450970  1
  Ga  Ga10  1  0.890297  0.670377  0.549030  1
  Ga  Ga11  1  0.202256  0.604434  0.991052  1
  Ga  Ga12  1  0.797744  0.395566  0.008948  1
  Ga  Ga13  1  0.257373  0.783251  0.702005  1
  Ga  Ga14  1  0.742627  0.216749  0.297995  1
  Ga  Ga15  1  0.302471  0.898655  0.496402  1
  Ga  Ga16  1  0.697529  0.101345  0.503598  1
  Ga  Ga17  1  0.385401  0.523479  0.705719  1
  Ga  Ga18  1  0.614599  0.476521  0.294281  1
  Ga  Ga19  1  0.397465  0.203025  0.002044  1
  Ga  Ga20  1  0.602535  0.796975  0.997956  1
  Ga  Ga21  1  0.542668  0.280733  0.633930  1
  Ga  Ga22  1  0.457332  0.719267  0.366070  1
  Ga  Ga23  1  0.634175  0.937490  0.794161  1
  Ga  Ga24  1  0.365825  0.062510  0.205839  1
  Pt  Pt25  1  0.025557  0.568802  0.380083  1
  Pt  Pt26  1  0.974443  0.431198  0.619917  1
  Pt  Pt27  1  0.136158  0.837949  0.889735  1
  Pt  Pt28  1  0.863842  0.162051  0.110265  1
  Pt  Pt29  1  0.242716  0.124606  0.389961  1
  Pt  Pt30  1  0.757284  0.875394  0.610039  1
  Pt  Pt31  1  0.345199  0.416067  0.893537  1
  Pt  Pt32  1  0.654801  0.583933  0.106463  1
  Pt  Pt33  1  0.504641  0.171445  0.819275  1
  Pt  Pt34  1  0.495359  0.828555  0.180725  1
