# generated using pymatgen
data_Ca3Zn8Ir
_symmetry_space_group_name_H-M   'P 1'
_cell_length_a   9.43559295
_cell_length_b   9.43559282
_cell_length_c   9.43559300
_cell_angle_alpha   33.32668920
_cell_angle_beta   33.32669037
_cell_angle_gamma   33.32668867
_symmetry_Int_Tables_number   1
_chemical_formula_structural   Ca3Zn8Ir
_chemical_formula_sum   'Ca3 Zn8 Ir1'
_cell_volume   225.77859072
_cell_formula_units_Z   1
loop_
 _symmetry_equiv_pos_site_id
 _symmetry_equiv_pos_as_xyz
  1  'x, y, z'
loop_
 _atom_site_type_symbol
 _atom_site_label
 _atom_site_symmetry_multiplicity
 _atom_site_fract_x
 _atom_site_fract_y
 _atom_site_fract_z
 _atom_site_occupancy
  Ca  Ca0  1  0.854102  0.854102  0.854102  1
  Ca  Ca1  1  0.145898  0.145898  0.145898  1
  Ca  Ca2  1  0.000000  0.000000  0.000000  1
  Zn  Zn3  1  0.418040  0.418040  0.910965  1
  Zn  Zn4  1  0.910965  0.418040  0.418040  1
  Zn  Zn5  1  0.418040  0.910965  0.418040  1
  Zn  Zn6  1  0.330502  0.330502  0.330502  1
  Zn  Zn7  1  0.669498  0.669498  0.669498  1
  Zn  Zn8  1  0.089035  0.581960  0.581960  1
  Zn  Zn9  1  0.581960  0.581960  0.089035  1
  Zn  Zn10  1  0.581960  0.089035  0.581960  1
  Ir  Ir11  1  0.500000  0.500000  0.500000  1
