# generated using pymatgen
data_Ho15Pa5Rh16
_symmetry_space_group_name_H-M   'P 1'
_cell_length_a   7.40812046
_cell_length_b   7.46432753
_cell_length_c   14.41948874
_cell_angle_alpha   90.15127375
_cell_angle_beta   90.20630816
_cell_angle_gamma   90.25974238
_symmetry_Int_Tables_number   1
_chemical_formula_structural   Ho15Pa5Rh16
_chemical_formula_sum   'Ho15 Pa5 Rh16'
_cell_volume   797.33306591
_cell_formula_units_Z   1
loop_
 _symmetry_equiv_pos_site_id
 _symmetry_equiv_pos_as_xyz
  1  'x, y, z'
loop_
 _atom_site_type_symbol
 _atom_site_label
 _atom_site_symmetry_multiplicity
 _atom_site_fract_x
 _atom_site_fract_y
 _atom_site_fract_z
 _atom_site_occupancy
  Ho  Ho0  1  0.835362  0.659766  0.121612  1
  Ho  Ho1  1  0.664016  0.161365  0.879618  1
  Ho  Ho2  1  0.160576  0.337666  0.619018  1
  Ho  Ho3  1  0.506793  0.677525  0.592590  1
  Ho  Ho4  1  0.010528  0.816570  0.905638  1
  Ho  Ho5  1  0.489494  0.315458  0.093409  1
  Ho  Ho6  1  0.993193  0.182351  0.408349  1
  Ho  Ho7  1  0.488630  0.319252  0.407266  1
  Ho  Ho8  1  0.983076  0.181228  0.087970  1
  Ho  Ho9  1  0.517076  0.681330  0.910143  1
  Ho  Ho10  1  0.007973  0.818532  0.593300  1
  Ho  Ho11  1  0.822251  0.514889  0.748461  1
  Ho  Ho12  1  0.320014  0.982269  0.749777  1
  Ho  Ho13  1  0.175589  0.480128  0.248046  1
  Ho  Ho14  1  0.687801  0.018632  0.250078  1
  Pa  Pa15  1  0.660632  0.153063  0.621255  1
  Pa  Pa16  1  0.163941  0.344473  0.876336  1
  Pa  Pa17  1  0.334675  0.845942  0.122685  1
  Pa  Pa18  1  0.839768  0.655021  0.379605  1
  Pa  Pa19  1  0.339600  0.845014  0.378703  1
  Rh  Rh20  1  0.691298  0.952277  0.463897  1
  Rh  Rh21  1  0.207582  0.556285  0.036784  1
  Rh  Rh22  1  0.293332  0.055403  0.964673  1
  Rh  Rh23  1  0.801649  0.450952  0.535577  1
  Rh  Rh24  1  0.321030  0.027880  0.533379  1
  Rh  Rh25  1  0.847836  0.464833  0.953316  1
  Rh  Rh26  1  0.651734  0.961855  0.047570  1
  Rh  Rh27  1  0.170532  0.552721  0.454358  1
  Rh  Rh28  1  0.468539  0.356792  0.741025  1
  Rh  Rh29  1  0.965067  0.131837  0.752171  1
  Rh  Rh30  1  0.530960  0.641200  0.259470  1
  Rh  Rh31  1  0.044082  0.861840  0.258072  1
  Rh  Rh32  1  0.691619  0.873161  0.740941  1
  Rh  Rh33  1  0.204853  0.619461  0.758183  1
  Rh  Rh34  1  0.311382  0.122854  0.247930  1
  Rh  Rh35  1  0.797518  0.380169  0.258798  1
