# generated using pymatgen
data_Cs12Na8Zr(SnSb4)3
_symmetry_space_group_name_H-M   'P 1'
_cell_length_a   11.80505911
_cell_length_b   11.80505950
_cell_length_c   17.71749530
_cell_angle_alpha   89.98650592
_cell_angle_beta   89.98650413
_cell_angle_gamma   143.05164724
_symmetry_Int_Tables_number   1
_chemical_formula_structural   Cs12Na8Zr(SnSb4)3
_chemical_formula_sum   'Cs12 Na8 Zr1 Sn3 Sb12'
_cell_volume   1484.16292706
_cell_formula_units_Z   1
loop_
 _symmetry_equiv_pos_site_id
 _symmetry_equiv_pos_as_xyz
  1  'x, y, z'
loop_
 _atom_site_type_symbol
 _atom_site_label
 _atom_site_symmetry_multiplicity
 _atom_site_fract_x
 _atom_site_fract_y
 _atom_site_fract_z
 _atom_site_occupancy
  Cs  Cs0  1  0.946502  0.607884  0.828393  1
  Cs  Cs1  1  0.563485  0.896224  0.330076  1
  Cs  Cs2  1  0.392116  0.053498  0.171607  1
  Cs  Cs3  1  0.065583  0.399099  0.169852  1
  Cs  Cs4  1  0.897197  0.563936  0.328308  1
  Cs  Cs5  1  0.436064  0.102803  0.671692  1
  Cs  Cs6  1  0.600901  0.934417  0.830148  1
  Cs  Cs7  1  0.268442  0.268638  0.324441  1
  Cs  Cs8  1  0.773282  0.776493  0.178185  1
  Cs  Cs9  1  0.223507  0.226718  0.821815  1
  Cs  Cs10  1  0.731362  0.731558  0.675559  1
  Cs  Cs11  1  0.103776  0.436515  0.669924  1
  Na  Na12  1  0.917989  0.082011  0.000000  1
  Na  Na13  1  0.581780  0.418220  0.500000  1
  Na  Na14  1  0.081758  0.918242  0.000000  1
  Na  Na15  1  0.418316  0.581684  0.500000  1
  Na  Na16  1  0.753774  0.246226  0.000000  1
  Na  Na17  1  0.745657  0.254343  0.500000  1
  Na  Na18  1  0.246253  0.753747  0.000000  1
  Na  Na19  1  0.254208  0.745792  0.500000  1
  Zr  Zr20  1  0.583088  0.416912  0.000000  1
  Sn  Sn21  1  0.910645  0.089355  0.500000  1
  Sn  Sn22  1  0.415655  0.584345  0.000000  1
  Sn  Sn23  1  0.089320  0.910680  0.500000  1
  Sb  Sb24  1  0.873071  0.559764  0.094120  1
  Sb  Sb25  1  0.440236  0.126929  0.905880  1
  Sb  Sb26  1  0.615743  0.936184  0.598247  1
  Sb  Sb27  1  0.936107  0.615777  0.598234  1
  Sb  Sb28  1  0.119713  0.435635  0.903296  1
  Sb  Sb29  1  0.564365  0.880287  0.096704  1
  Sb  Sb30  1  0.384223  0.063893  0.401766  1
  Sb  Sb31  1  0.204950  0.204876  0.587797  1
  Sb  Sb32  1  0.712091  0.710100  0.908616  1
  Sb  Sb33  1  0.289900  0.287909  0.091384  1
  Sb  Sb34  1  0.063816  0.384257  0.401753  1
  Sb  Sb35  1  0.795124  0.795050  0.412203  1
