# generated using pymatgen
data_Rb4NbSbBr12
_symmetry_space_group_name_H-M   'P 1'
_cell_length_a   13.53524425
_cell_length_b   13.53524403
_cell_length_c   13.53524421
_cell_angle_alpha   132.03529753
_cell_angle_beta   132.03529963
_cell_angle_gamma   70.17328497
_symmetry_Int_Tables_number   1
_chemical_formula_structural   Rb4NbSbBr12
_chemical_formula_sum   'Rb8 Nb2 Sb2 Br24'
_cell_volume   1340.87287186
_cell_formula_units_Z   2
loop_
 _symmetry_equiv_pos_site_id
 _symmetry_equiv_pos_as_xyz
  1  'x, y, z'
loop_
 _atom_site_type_symbol
 _atom_site_label
 _atom_site_symmetry_multiplicity
 _atom_site_fract_x
 _atom_site_fract_y
 _atom_site_fract_z
 _atom_site_occupancy
  Rb  Rb0  1  0.375503  0.348445  0.470658  1
  Rb  Rb1  1  0.095155  0.624497  0.972941  1
  Rb  Rb2  1  0.877787  0.904845  0.529342  1
  Rb  Rb3  1  0.098445  0.127787  0.472941  1
  Rb  Rb4  1  0.374497  0.901555  0.029342  1
  Rb  Rb5  1  0.654845  0.625503  0.527059  1
  Rb  Rb6  1  0.651555  0.122213  0.027059  1
  Rb  Rb7  1  0.872213  0.345155  0.970658  1
  Nb  Nb8  1  0.250000  0.750000  0.500000  1
  Nb  Nb9  1  0.500000  0.500000  0.000000  1
  Sb  Sb10  1  0.750000  0.250000  0.500000  1
  Sb  Sb11  1  0.000000  0.000000  0.000000  1
  Br  Br12  1  0.017286  0.771625  0.292058  1
  Br  Br13  1  0.019905  0.259854  0.271319  1
  Br  Br14  1  0.274771  0.982714  0.754339  1
  Br  Br15  1  0.009854  0.238535  0.739949  1
  Br  Br16  1  0.134733  0.634733  0.500000  1
  Br  Br17  1  0.270433  0.524771  0.792058  1
  Br  Br18  1  0.479567  0.725229  0.707942  1
  Br  Br19  1  0.498586  0.269905  0.260051  1
  Br  Br20  1  0.475229  0.267286  0.745661  1
  Br  Br21  1  0.615267  0.615267  0.000000  1
  Br  Br22  1  0.521625  0.729567  0.254339  1
  Br  Br23  1  0.127195  0.127195  0.000000  1
  Br  Br24  1  0.872805  0.872805  0.000000  1
  Br  Br25  1  0.988535  0.748586  0.728681  1
  Br  Br26  1  0.740146  0.011465  0.760051  1
  Br  Br27  1  0.251414  0.980095  0.239949  1
  Br  Br28  1  0.732714  0.478375  0.207942  1
  Br  Br29  1  0.228375  0.520433  0.245661  1
  Br  Br30  1  0.365267  0.865267  0.500000  1
  Br  Br31  1  0.877195  0.377195  0.500000  1
  Br  Br32  1  0.384733  0.384733  0.000000  1
  Br  Br33  1  0.622805  0.122805  0.500000  1
  Br  Br34  1  0.761465  0.501414  0.771319  1
  Br  Br35  1  0.730095  0.990146  0.228681  1
