# generated using pymatgen
data_Te13OsBr6
_symmetry_space_group_name_H-M   'P 1'
_cell_length_a   9.42779378
_cell_length_b   9.42779136
_cell_length_c   9.42779294
_cell_angle_alpha   107.32072125
_cell_angle_beta   107.32071052
_cell_angle_gamma   107.32072028
_symmetry_Int_Tables_number   1
_chemical_formula_structural   Te13OsBr6
_chemical_formula_sum   'Te13 Os1 Br6'
_cell_volume   691.67563915
_cell_formula_units_Z   1
loop_
 _symmetry_equiv_pos_site_id
 _symmetry_equiv_pos_as_xyz
  1  'x, y, z'
loop_
 _atom_site_type_symbol
 _atom_site_label
 _atom_site_symmetry_multiplicity
 _atom_site_fract_x
 _atom_site_fract_y
 _atom_site_fract_z
 _atom_site_occupancy
  Te  Te0  1  0.934983  0.177324  0.190046  1
  Te  Te1  1  0.190046  0.934983  0.177324  1
  Te  Te2  1  0.177324  0.190046  0.934983  1
  Te  Te3  1  0.678398  0.650627  0.386662  1
  Te  Te4  1  0.386662  0.678398  0.650627  1
  Te  Te5  1  0.650627  0.386662  0.678398  1
  Te  Te6  1  0.113338  0.849373  0.821602  1
  Te  Te7  1  0.821602  0.113338  0.849373  1
  Te  Te8  1  0.849373  0.821602  0.113338  1
  Te  Te9  1  0.309954  0.322676  0.565017  1
  Te  Te10  1  0.565017  0.309954  0.322676  1
  Te  Te11  1  0.322676  0.565017  0.309954  1
  Te  Te12  1  0.750000  0.750000  0.750000  1
  Os  Os13  1  0.250000  0.250000  0.250000  1
  Br  Br14  1  0.980986  0.519014  0.250000  1
  Br  Br15  1  0.250000  0.980986  0.519014  1
  Br  Br16  1  0.519014  0.250000  0.980986  1
  Br  Br17  1  0.750000  0.010203  0.489797  1
  Br  Br18  1  0.489797  0.750000  0.010203  1
  Br  Br19  1  0.010203  0.489797  0.750000  1
