# generated using pymatgen
data_Tm3Lu5(B6W)4
_symmetry_space_group_name_H-M   'P 1'
_cell_length_a   3.54234800
_cell_length_b   9.24347900
_cell_length_c   11.61466100
_cell_angle_alpha   89.99969962
_cell_angle_beta   90.00000000
_cell_angle_gamma   90.00000000
_symmetry_Int_Tables_number   1
_chemical_formula_structural   Tm3Lu5(B6W)4
_chemical_formula_sum   'Tm3 Lu5 B24 W4'
_cell_volume   380.30603867
_cell_formula_units_Z   1
loop_
 _symmetry_equiv_pos_site_id
 _symmetry_equiv_pos_as_xyz
  1  'x, y, z'
loop_
 _atom_site_type_symbol
 _atom_site_label
 _atom_site_symmetry_multiplicity
 _atom_site_fract_x
 _atom_site_fract_y
 _atom_site_fract_z
 _atom_site_occupancy
  Tm  Tm0  1  0.000000  0.320745  0.413931  1
  Tm  Tm1  1  0.000000  0.679257  0.586118  1
  Tm  Tm2  1  0.000000  0.820704  0.086051  1
  Lu  Lu3  1  0.000000  0.179055  0.913934  1
  Lu  Lu4  1  0.000000  0.944287  0.372126  1
  Lu  Lu5  1  0.000000  0.055880  0.627916  1
  Lu  Lu6  1  0.000000  0.444100  0.127668  1
  Lu  Lu7  1  0.000000  0.555821  0.872247  1
  B  B8  1  0.500000  0.551776  0.435176  1
  B  B9  1  0.500000  0.448050  0.564977  1
  B  B10  1  0.500000  0.052064  0.064437  1
  B  B11  1  0.500000  0.948499  0.935170  1
  B  B12  1  0.500000  0.753178  0.421953  1
  B  B13  1  0.500000  0.246840  0.578200  1
  B  B14  1  0.500000  0.252985  0.077403  1
  B  B15  1  0.500000  0.746960  0.921976  1
  B  B16  1  0.500000  0.795765  0.263086  1
  B  B17  1  0.500000  0.204153  0.737348  1
  B  B18  1  0.500000  0.295691  0.236647  1
  B  B19  1  0.500000  0.704346  0.763220  1
  B  B20  1  0.500000  0.631071  0.181891  1
  B  B21  1  0.500000  0.368507  0.818394  1
  B  B22  1  0.500000  0.131104  0.317912  1
  B  B23  1  0.500000  0.869008  0.682041  1
  B  B24  1  0.500000  0.978347  0.212667  1
  B  B25  1  0.500000  0.022096  0.787562  1
  B  B26  1  0.500000  0.478216  0.287087  1
  B  B27  1  0.500000  0.521673  0.712924  1
  B  B28  1  0.500000  0.599371  0.027578  1
  B  B29  1  0.500000  0.400208  0.972242  1
  B  B30  1  0.500000  0.099318  0.472430  1
  B  B31  1  0.500000  0.900782  0.527637  1
  W  W32  1  0.000000  0.640033  0.320142  1
  W  W33  1  0.000000  0.359874  0.680122  1
  W  W34  1  0.000000  0.140095  0.179521  1
  W  W35  1  0.000000  0.860142  0.820267  1
