# generated using pymatgen
data_AgP2AuO8
_symmetry_space_group_name_H-M   'P 1'
_cell_length_a   4.90281330
_cell_length_b   4.93068047
_cell_length_c   7.81312269
_cell_angle_alpha   84.63898928
_cell_angle_beta   83.67305999
_cell_angle_gamma   72.43984071
_symmetry_Int_Tables_number   1
_chemical_formula_structural   AgP2AuO8
_chemical_formula_sum   'Ag1 P2 Au1 O8'
_cell_volume   178.61642742
_cell_formula_units_Z   1
loop_
 _symmetry_equiv_pos_site_id
 _symmetry_equiv_pos_as_xyz
  1  'x, y, z'
loop_
 _atom_site_type_symbol
 _atom_site_label
 _atom_site_symmetry_multiplicity
 _atom_site_fract_x
 _atom_site_fract_y
 _atom_site_fract_z
 _atom_site_occupancy
  Ag  Ag0  1  0.000000  0.500000  0.500000  1
  P  P1  1  0.076630  0.926058  0.748703  1
  P  P2  1  0.923370  0.073942  0.251297  1
  Au  Au3  1  0.500000  0.000000  0.000000  1
  O  O4  1  0.247460  0.798784  0.910227  1
  O  O5  1  0.209933  0.751795  0.587975  1
  O  O6  1  0.752540  0.201216  0.089773  1
  O  O7  1  0.790067  0.248205  0.412025  1
  O  O8  1  0.766545  0.897496  0.784151  1
  O  O9  1  0.096255  0.235630  0.716197  1
  O  O10  1  0.233455  0.102504  0.215849  1
  O  O11  1  0.903745  0.764370  0.283803  1
