# generated using pymatgen
data_Er2PaSn3Ir2Pt
_symmetry_space_group_name_H-M   'P 1'
_cell_length_a   7.46960624
_cell_length_b   7.44565515
_cell_length_c   3.99570600
_cell_angle_alpha   90.00000000
_cell_angle_beta   90.00000000
_cell_angle_gamma   119.65527144
_symmetry_Int_Tables_number   1
_chemical_formula_structural   Er2PaSn3Ir2Pt
_chemical_formula_sum   'Er2 Pa1 Sn3 Ir2 Pt1'
_cell_volume   193.11808296
_cell_formula_units_Z   1
loop_
 _symmetry_equiv_pos_site_id
 _symmetry_equiv_pos_as_xyz
  1  'x, y, z'
loop_
 _atom_site_type_symbol
 _atom_site_label
 _atom_site_symmetry_multiplicity
 _atom_site_fract_x
 _atom_site_fract_y
 _atom_site_fract_z
 _atom_site_occupancy
  Er  Er0  1  0.594788  0.997012  0.500000  1
  Er  Er1  1  0.002846  0.597227  0.500000  1
  Pa  Pa2  1  0.405664  0.415097  0.500000  1
  Sn  Sn3  1  0.754280  0.756407  0.000000  1
  Sn  Sn4  1  0.254967  0.985827  0.000000  1
  Sn  Sn5  1  0.987880  0.255732  0.000000  1
  Ir  Ir6  1  0.335542  0.644996  0.000000  1
  Ir  Ir7  1  0.014102  0.013646  0.500000  1
  Pt  Pt8  1  0.649929  0.334054  0.000000  1
