# generated using pymatgen
data_Dy5ReRuC7
_symmetry_space_group_name_H-M   'P 1'
_cell_length_a   8.26483126
_cell_length_b   8.26483090
_cell_length_c   3.47525300
_cell_angle_alpha   90.00000000
_cell_angle_beta   90.00000000
_cell_angle_gamma   122.45523421
_symmetry_Int_Tables_number   1
_chemical_formula_structural   Dy5ReRuC7
_chemical_formula_sum   'Dy5 Re1 Ru1 C7'
_cell_volume   200.30858638
_cell_formula_units_Z   1
loop_
 _symmetry_equiv_pos_site_id
 _symmetry_equiv_pos_as_xyz
  1  'x, y, z'
loop_
 _atom_site_type_symbol
 _atom_site_label
 _atom_site_symmetry_multiplicity
 _atom_site_fract_x
 _atom_site_fract_y
 _atom_site_fract_z
 _atom_site_occupancy
  Dy  Dy0  1  0.500845  0.499155  0.000000  1
  Dy  Dy1  1  0.074149  0.334957  0.500000  1
  Dy  Dy2  1  0.922726  0.661877  0.500000  1
  Dy  Dy3  1  0.665043  0.925851  0.500000  1
  Dy  Dy4  1  0.338123  0.077274  0.500000  1
  Re  Re5  1  0.285799  0.714201  0.000000  1
  Ru  Ru6  1  0.712553  0.287447  0.000000  1
  C  C7  1  0.629531  0.370469  0.500000  1
  C  C8  1  0.373417  0.626583  0.500000  1
  C  C9  1  0.999205  0.000795  0.000000  1
  C  C10  1  0.170437  0.170795  0.000000  1
  C  C11  1  0.829205  0.829563  0.000000  1
  C  C12  1  0.002018  0.503048  0.000000  1
  C  C13  1  0.496952  0.997982  0.000000  1
