# generated using pymatgen
data_Y3HoGa4Ir3Pd
_symmetry_space_group_name_H-M   'P 1'
_cell_length_a   4.37092200
_cell_length_b   6.84661345
_cell_length_c   7.78029645
_cell_angle_alpha   90.21776476
_cell_angle_beta   90.00000000
_cell_angle_gamma   90.00000000
_symmetry_Int_Tables_number   1
_chemical_formula_structural   Y3HoGa4Ir3Pd
_chemical_formula_sum   'Y3 Ho1 Ga4 Ir3 Pd1'
_cell_volume   232.83157371
_cell_formula_units_Z   1
loop_
 _symmetry_equiv_pos_site_id
 _symmetry_equiv_pos_as_xyz
  1  'x, y, z'
loop_
 _atom_site_type_symbol
 _atom_site_label
 _atom_site_symmetry_multiplicity
 _atom_site_fract_x
 _atom_site_fract_y
 _atom_site_fract_z
 _atom_site_occupancy
  Y  Y0  1  0.250000  0.030253  0.809813  1
  Y  Y1  1  0.250000  0.520695  0.684946  1
  Y  Y2  1  0.750000  0.980595  0.195329  1
  Ho  Ho3  1  0.750000  0.477693  0.311076  1
  Ga  Ga4  1  0.250000  0.156550  0.429840  1
  Ga  Ga5  1  0.250000  0.654499  0.070407  1
  Ga  Ga6  1  0.750000  0.845168  0.567617  1
  Ga  Ga7  1  0.750000  0.338690  0.930563  1
  Ir  Ir8  1  0.250000  0.766679  0.389635  1
  Ir  Ir9  1  0.250000  0.270109  0.110345  1
  Ir  Ir10  1  0.750000  0.231243  0.609074  1
  Pd  Pd11  1  0.750000  0.727824  0.891355  1
