# generated using pymatgen
data_YPd2F12
_symmetry_space_group_name_H-M   'P 1'
_cell_length_a   9.77470412
_cell_length_b   9.77470477
_cell_length_c   9.77470400
_cell_angle_alpha   131.28650759
_cell_angle_beta   131.28649532
_cell_angle_gamma   71.35828286
_symmetry_Int_Tables_number   1
_chemical_formula_structural   YPd2F12
_chemical_formula_sum   'Y2 Pd4 F24'
_cell_volume   516.12866447
_cell_formula_units_Z   2
loop_
 _symmetry_equiv_pos_site_id
 _symmetry_equiv_pos_as_xyz
  1  'x, y, z'
loop_
 _atom_site_type_symbol
 _atom_site_label
 _atom_site_symmetry_multiplicity
 _atom_site_fract_x
 _atom_site_fract_y
 _atom_site_fract_z
 _atom_site_occupancy
  Y  Y0  1  0.750000  0.250000  0.500000  1
  Y  Y1  1  0.000000  0.000000  0.000000  1
  Pd  Pd2  1  0.781410  0.781410  0.000000  1
  Pd  Pd3  1  0.218590  0.218590  0.000000  1
  Pd  Pd4  1  0.968590  0.468590  0.500000  1
  Pd  Pd5  1  0.531410  0.031410  0.500000  1
  F  F6  1  0.865317  0.739506  0.205379  1
  F  F7  1  0.534126  0.659938  0.794621  1
  F  F8  1  0.409938  0.784126  0.294621  1
  F  F9  1  0.340062  0.134683  0.874190  1
  F  F10  1  0.260494  0.465874  0.125810  1
  F  F11  1  0.215874  0.510494  0.625810  1
  F  F12  1  0.662026  0.279729  0.689124  1
  F  F13  1  0.720271  0.409396  0.382296  1
  F  F14  1  0.027100  0.337974  0.617704  1
  F  F15  1  0.087974  0.277100  0.117704  1
  F  F16  1  0.159396  0.970271  0.882296  1
  F  F17  1  0.590604  0.972900  0.310876  1
  F  F18  1  0.722900  0.840604  0.810876  1
  F  F19  1  0.029729  0.912026  0.189124  1
  F  F20  1  0.298393  0.091830  0.323670  1
  F  F21  1  0.908170  0.231840  0.206562  1
  F  F22  1  0.025278  0.701607  0.793438  1
  F  F23  1  0.451607  0.275278  0.293438  1
  F  F24  1  0.981840  0.158170  0.706562  1
  F  F25  1  0.768160  0.974722  0.676330  1
  F  F26  1  0.724722  0.018160  0.176330  1
  F  F27  1  0.841830  0.548393  0.823670  1
  F  F28  1  0.489506  0.115317  0.705379  1
  F  F29  1  0.884683  0.590062  0.374190  1
