# generated using pymatgen
data_LaNi5GeP2
_symmetry_space_group_name_H-M   'P 1'
_cell_length_a   6.19067136
_cell_length_b   6.19067208
_cell_length_c   11.56442000
_cell_angle_alpha   90.00000000
_cell_angle_beta   90.00000000
_cell_angle_gamma   145.01511212
_symmetry_Int_Tables_number   1
_chemical_formula_structural   LaNi5GeP2
_chemical_formula_sum   'La2 Ni10 Ge2 P4'
_cell_volume   254.11310903
_cell_formula_units_Z   2
loop_
 _symmetry_equiv_pos_site_id
 _symmetry_equiv_pos_as_xyz
  1  'x, y, z'
loop_
 _atom_site_type_symbol
 _atom_site_label
 _atom_site_symmetry_multiplicity
 _atom_site_fract_x
 _atom_site_fract_y
 _atom_site_fract_z
 _atom_site_occupancy
  La  La0  1  0.340994  0.659006  0.250000  1
  La  La1  1  0.659006  0.340994  0.750000  1
  Ni  Ni2  1  0.044959  0.955041  0.142211  1
  Ni  Ni3  1  0.044959  0.955041  0.357789  1
  Ni  Ni4  1  0.699439  0.300561  0.441190  1
  Ni  Ni5  1  0.300561  0.699439  0.558810  1
  Ni  Ni6  1  0.300561  0.699439  0.941190  1
  Ni  Ni7  1  0.699439  0.300561  0.058810  1
  Ni  Ni8  1  0.500000  0.500000  0.500000  1
  Ni  Ni9  1  0.500000  0.500000  0.000000  1
  Ni  Ni10  1  0.955041  0.044959  0.642211  1
  Ni  Ni11  1  0.955041  0.044959  0.857789  1
  Ge  Ge12  1  0.617972  0.382028  0.250000  1
  Ge  Ge13  1  0.382028  0.617972  0.750000  1
  P  P14  1  0.118275  0.881725  0.536624  1
  P  P15  1  0.881725  0.118275  0.463376  1
  P  P16  1  0.881725  0.118275  0.036624  1
  P  P17  1  0.118275  0.881725  0.963376  1
