# generated using pymatgen
data_NiRhCl6
_symmetry_space_group_name_H-M   'P 1'
_cell_length_a   6.01967549
_cell_length_b   6.01967500
_cell_length_c   6.40604972
_cell_angle_alpha   81.30655527
_cell_angle_beta   81.30655220
_cell_angle_gamma   120.38350927
_symmetry_Int_Tables_number   1
_chemical_formula_structural   NiRhCl6
_chemical_formula_sum   'Ni1 Rh1 Cl6'
_cell_volume   190.77016235
_cell_formula_units_Z   1
loop_
 _symmetry_equiv_pos_site_id
 _symmetry_equiv_pos_as_xyz
  1  'x, y, z'
loop_
 _atom_site_type_symbol
 _atom_site_label
 _atom_site_symmetry_multiplicity
 _atom_site_fract_x
 _atom_site_fract_y
 _atom_site_fract_z
 _atom_site_occupancy
  Ni  Ni0  1  0.168786  0.831214  0.000000  1
  Rh  Rh1  1  0.834270  0.165730  0.000000  1
  Cl  Cl2  1  0.421445  0.068496  0.207015  1
  Cl  Cl3  1  0.931504  0.578555  0.792985  1
  Cl  Cl4  1  0.214157  0.216452  0.785435  1
  Cl  Cl5  1  0.783548  0.785843  0.214565  1
  Cl  Cl6  1  0.074755  0.428465  0.220855  1
  Cl  Cl7  1  0.571535  0.925245  0.779145  1
