# generated using pymatgen
data_PrCoCuO5
_symmetry_space_group_name_H-M   'P 1'
_cell_length_a   5.64810000
_cell_length_b   7.87749300
_cell_length_c   8.52144200
_cell_angle_alpha   90.00000000
_cell_angle_beta   90.00000000
_cell_angle_gamma   90.00000000
_symmetry_Int_Tables_number   1
_chemical_formula_structural   PrCoCuO5
_chemical_formula_sum   'Pr4 Co4 Cu4 O20'
_cell_volume   379.14339589
_cell_formula_units_Z   4
loop_
 _symmetry_equiv_pos_site_id
 _symmetry_equiv_pos_as_xyz
  1  'x, y, z'
loop_
 _atom_site_type_symbol
 _atom_site_label
 _atom_site_symmetry_multiplicity
 _atom_site_fract_x
 _atom_site_fract_y
 _atom_site_fract_z
 _atom_site_occupancy
  Pr  Pr0  1  0.000000  0.345175  0.674193  1
  Pr  Pr1  1  0.000000  0.654825  0.325807  1
  Pr  Pr2  1  0.000000  0.845175  0.825807  1
  Pr  Pr3  1  0.000000  0.154825  0.174193  1
  Co  Co4  1  0.260518  0.500000  0.000000  1
  Co  Co5  1  0.739482  0.000000  0.500000  1
  Co  Co6  1  0.739482  0.500000  0.000000  1
  Co  Co7  1  0.260518  0.000000  0.500000  1
  Cu  Cu8  1  0.500000  0.064630  0.844820  1
  Cu  Cu9  1  0.500000  0.935370  0.155180  1
  Cu  Cu10  1  0.500000  0.564630  0.655180  1
  Cu  Cu11  1  0.500000  0.435370  0.344820  1
  O  O12  1  0.248369  0.914435  0.292529  1
  O  O13  1  0.248369  0.085565  0.707471  1
  O  O14  1  0.751631  0.414435  0.207471  1
  O  O15  1  0.751631  0.585565  0.792529  1
  O  O16  1  0.751631  0.085565  0.707471  1
  O  O17  1  0.751631  0.914435  0.292529  1
  O  O18  1  0.248369  0.585565  0.792529  1
  O  O19  1  0.248369  0.414435  0.207471  1
  O  O20  1  0.500000  0.355606  0.943382  1
  O  O21  1  0.500000  0.644394  0.056618  1
  O  O22  1  0.500000  0.855606  0.556618  1
  O  O23  1  0.500000  0.144394  0.443382  1
  O  O24  1  0.279033  0.000000  0.000000  1
  O  O25  1  0.720967  0.500000  0.500000  1
  O  O26  1  0.720967  0.000000  0.000000  1
  O  O27  1  0.279033  0.500000  0.500000  1
  O  O28  1  0.000000  0.153374  0.452217  1
  O  O29  1  0.000000  0.846626  0.547783  1
  O  O30  1  0.000000  0.653374  0.047783  1
  O  O31  1  0.000000  0.346626  0.952217  1
