# generated using pymatgen
data_Sc12Si12Tc3Os
_symmetry_space_group_name_H-M   'P 1'
_cell_length_a   3.91288400
_cell_length_b   10.50693813
_cell_length_c   11.83458807
_cell_angle_alpha   90.07340245
_cell_angle_beta   90.00000000
_cell_angle_gamma   90.00000000
_symmetry_Int_Tables_number   1
_chemical_formula_structural   Sc12Si12Tc3Os
_chemical_formula_sum   'Sc12 Si12 Tc3 Os1'
_cell_volume   486.54827535
_cell_formula_units_Z   1
loop_
 _symmetry_equiv_pos_site_id
 _symmetry_equiv_pos_as_xyz
  1  'x, y, z'
loop_
 _atom_site_type_symbol
 _atom_site_label
 _atom_site_symmetry_multiplicity
 _atom_site_fract_x
 _atom_site_fract_y
 _atom_site_fract_z
 _atom_site_occupancy
  Sc  Sc0  1  0.250000  0.876045  0.016979  1
  Sc  Sc1  1  0.250000  0.624577  0.517451  1
  Sc  Sc2  1  0.750000  0.122997  0.982998  1
  Sc  Sc3  1  0.750000  0.376423  0.483663  1
  Sc  Sc4  1  0.250000  0.924355  0.606518  1
  Sc  Sc5  1  0.250000  0.576119  0.105881  1
  Sc  Sc6  1  0.750000  0.075758  0.393354  1
  Sc  Sc7  1  0.750000  0.423995  0.892484  1
  Sc  Sc8  1  0.250000  0.662787  0.797617  1
  Sc  Sc9  1  0.250000  0.837764  0.298085  1
  Sc  Sc10  1  0.750000  0.338440  0.201875  1
  Sc  Sc11  1  0.750000  0.158836  0.702181  1
  Si  Si12  1  0.250000  0.017107  0.822520  1
  Si  Si13  1  0.250000  0.478842  0.322527  1
  Si  Si14  1  0.750000  0.978468  0.177848  1
  Si  Si15  1  0.750000  0.522436  0.678006  1
  Si  Si16  1  0.250000  0.250264  0.844966  1
  Si  Si17  1  0.250000  0.247771  0.345731  1
  Si  Si18  1  0.750000  0.747939  0.153916  1
  Si  Si19  1  0.750000  0.753668  0.656245  1
  Si  Si20  1  0.250000  0.191425  0.543564  1
  Si  Si21  1  0.250000  0.308590  0.042582  1
  Si  Si22  1  0.750000  0.809520  0.457354  1
  Si  Si23  1  0.750000  0.693906  0.955034  1
  Tc  Tc24  1  0.250000  0.386815  0.677524  1
  Tc  Tc25  1  0.250000  0.113622  0.176471  1
  Tc  Tc26  1  0.750000  0.614353  0.323116  1
  Os  Os27  1  0.750000  0.887174  0.823511  1
