# generated using pymatgen
data_Ce5Al2Tc3
_symmetry_space_group_name_H-M   'P 1'
_cell_length_a   8.37331397
_cell_length_b   8.37331434
_cell_length_c   8.37331500
_cell_angle_alpha   109.47122223
_cell_angle_beta   109.47122312
_cell_angle_gamma   109.47122410
_symmetry_Int_Tables_number   1
_chemical_formula_structural   Ce5Al2Tc3
_chemical_formula_sum   'Ce10 Al4 Tc6'
_cell_volume   451.92906156
_cell_formula_units_Z   2
loop_
 _symmetry_equiv_pos_site_id
 _symmetry_equiv_pos_as_xyz
  1  'x, y, z'
loop_
 _atom_site_type_symbol
 _atom_site_label
 _atom_site_symmetry_multiplicity
 _atom_site_fract_x
 _atom_site_fract_y
 _atom_site_fract_z
 _atom_site_occupancy
  Ce  Ce0  1  0.786756  0.786756  0.786756  1
  Ce  Ce1  1  0.306069  0.556069  0.750000  1
  Ce  Ce2  1  0.750000  0.306069  0.556069  1
  Ce  Ce3  1  0.556069  0.750000  0.306069  1
  Ce  Ce4  1  0.713244  0.500000  0.000000  1
  Ce  Ce5  1  0.000000  0.713244  0.500000  1
  Ce  Ce6  1  0.500000  0.000000  0.713244  1
  Ce  Ce7  1  0.250000  0.193931  0.943931  1
  Ce  Ce8  1  0.943931  0.250000  0.193931  1
  Ce  Ce9  1  0.193931  0.943931  0.250000  1
  Al  Al10  1  0.409212  0.409212  0.409212  1
  Al  Al11  1  0.090788  0.500000  0.000000  1
  Al  Al12  1  0.000000  0.090788  0.500000  1
  Al  Al13  1  0.500000  0.000000  0.090788  1
  Tc  Tc14  1  0.872069  0.122069  0.750000  1
  Tc  Tc15  1  0.750000  0.872069  0.122069  1
  Tc  Tc16  1  0.122069  0.750000  0.872069  1
  Tc  Tc17  1  0.250000  0.627931  0.377931  1
  Tc  Tc18  1  0.377931  0.250000  0.627931  1
  Tc  Tc19  1  0.627931  0.377931  0.250000  1
