# generated using pymatgen
data_Ce2P4Pd3Ru
_symmetry_space_group_name_H-M   'P 1'
_cell_length_a   4.24119300
_cell_length_b   4.24119300
_cell_length_c   9.53545900
_cell_angle_alpha   90.00000000
_cell_angle_beta   90.00000000
_cell_angle_gamma   90.00000000
_symmetry_Int_Tables_number   1
_chemical_formula_structural   Ce2P4Pd3Ru
_chemical_formula_sum   'Ce2 P4 Pd3 Ru1'
_cell_volume   171.52114810
_cell_formula_units_Z   1
loop_
 _symmetry_equiv_pos_site_id
 _symmetry_equiv_pos_as_xyz
  1  'x, y, z'
loop_
 _atom_site_type_symbol
 _atom_site_label
 _atom_site_symmetry_multiplicity
 _atom_site_fract_x
 _atom_site_fract_y
 _atom_site_fract_z
 _atom_site_occupancy
  Ce  Ce0  1  0.500000  0.000000  0.745806  1
  Ce  Ce1  1  0.000000  0.500000  0.261339  1
  P  P2  1  0.500000  0.500000  0.504231  1
  P  P3  1  0.500000  0.000000  0.135609  1
  P  P4  1  0.000000  0.000000  0.504231  1
  P  P5  1  0.000000  0.500000  0.853717  1
  Pd  Pd6  1  0.500000  0.000000  0.383437  1
  Pd  Pd7  1  0.000000  0.000000  0.000847  1
  Pd  Pd8  1  0.500000  0.500000  0.000847  1
  Ru  Ru9  1  0.000000  0.500000  0.609937  1
