# generated using pymatgen
data_Ho4Ga2MoOs5
_symmetry_space_group_name_H-M   'P 1'
_cell_length_a   5.31080552
_cell_length_b   5.32903721
_cell_length_c   8.86015300
_cell_angle_alpha   90.00000000
_cell_angle_beta   90.00000000
_cell_angle_gamma   118.32305926
_symmetry_Int_Tables_number   1
_chemical_formula_structural   Ho4Ga2MoOs5
_chemical_formula_sum   'Ho4 Ga2 Mo1 Os5'
_cell_volume   220.73662806
_cell_formula_units_Z   1
loop_
 _symmetry_equiv_pos_site_id
 _symmetry_equiv_pos_as_xyz
  1  'x, y, z'
loop_
 _atom_site_type_symbol
 _atom_site_label
 _atom_site_symmetry_multiplicity
 _atom_site_fract_x
 _atom_site_fract_y
 _atom_site_fract_z
 _atom_site_occupancy
  Ho  Ho0  1  0.325519  0.669080  0.434037  1
  Ho  Ho1  1  0.657957  0.326798  0.559184  1
  Ho  Ho2  1  0.657957  0.326798  0.940816  1
  Ho  Ho3  1  0.325519  0.669080  0.065963  1
  Ga  Ga4  1  0.188355  0.838862  0.750000  1
  Ga  Ga5  1  0.183845  0.346407  0.750000  1
  Mo  Mo6  1  0.839227  0.161575  0.250000  1
  Os  Os7  1  0.981054  0.000619  0.503529  1
  Os  Os8  1  0.981054  0.000619  0.996471  1
  Os  Os9  1  0.827247  0.654890  0.250000  1
  Os  Os10  1  0.354439  0.175509  0.250000  1
  Os  Os11  1  0.677826  0.829764  0.750000  1
