# generated using pymatgen
data_Nd4ZnRu7
_symmetry_space_group_name_H-M   'P 1'
_cell_length_a   5.39863100
_cell_length_b   5.39863210
_cell_length_c   8.99922100
_cell_angle_alpha   90.00000000
_cell_angle_beta   90.00000000
_cell_angle_gamma   120.00001162
_symmetry_Int_Tables_number   1
_chemical_formula_structural   Nd4ZnRu7
_chemical_formula_sum   'Nd4 Zn1 Ru7'
_cell_volume   227.14483984
_cell_formula_units_Z   1
loop_
 _symmetry_equiv_pos_site_id
 _symmetry_equiv_pos_as_xyz
  1  'x, y, z'
loop_
 _atom_site_type_symbol
 _atom_site_label
 _atom_site_symmetry_multiplicity
 _atom_site_fract_x
 _atom_site_fract_y
 _atom_site_fract_z
 _atom_site_occupancy
  Nd  Nd0  1  0.333333  0.666667  0.427849  1
  Nd  Nd1  1  0.666667  0.333333  0.572151  1
  Nd  Nd2  1  0.666667  0.333333  0.936122  1
  Nd  Nd3  1  0.333333  0.666667  0.063878  1
  Zn  Zn4  1  0.000000  0.000000  0.500000  1
  Ru  Ru5  1  0.000000  0.000000  0.000000  1
  Ru  Ru6  1  0.829141  0.170859  0.249074  1
  Ru  Ru7  1  0.829141  0.658282  0.249074  1
  Ru  Ru8  1  0.341718  0.170859  0.249074  1
  Ru  Ru9  1  0.170859  0.829141  0.750926  1
  Ru  Ru10  1  0.170859  0.341718  0.750926  1
  Ru  Ru11  1  0.658282  0.829141  0.750926  1
