# generated using pymatgen
data_Tb16MgCd3Co3Os
_symmetry_space_group_name_H-M   'P 1'
_cell_length_a   9.61961828
_cell_length_b   9.61961949
_cell_length_c   9.63495997
_cell_angle_alpha   59.55116354
_cell_angle_beta   59.55115643
_cell_angle_gamma   59.41216166
_symmetry_Int_Tables_number   1
_chemical_formula_structural   Tb16MgCd3Co3Os
_chemical_formula_sum   'Tb16 Mg1 Cd3 Co3 Os1'
_cell_volume   623.34787927
_cell_formula_units_Z   1
loop_
 _symmetry_equiv_pos_site_id
 _symmetry_equiv_pos_as_xyz
  1  'x, y, z'
loop_
 _atom_site_type_symbol
 _atom_site_label
 _atom_site_symmetry_multiplicity
 _atom_site_fract_x
 _atom_site_fract_y
 _atom_site_fract_z
 _atom_site_occupancy
  Tb  Tb0  1  0.438138  0.438138  0.056557  1
  Tb  Tb1  1  0.595268  0.595268  0.595261  1
  Tb  Tb2  1  0.188298  0.812992  0.812170  1
  Tb  Tb3  1  0.062033  0.062033  0.434336  1
  Tb  Tb4  1  0.436596  0.060578  0.059824  1
  Tb  Tb5  1  0.812992  0.188298  0.812170  1
  Tb  Tb6  1  0.436926  0.058265  0.436267  1
  Tb  Tb7  1  0.598966  0.214111  0.599780  1
  Tb  Tb8  1  0.812423  0.812423  0.186712  1
  Tb  Tb9  1  0.214111  0.598966  0.599780  1
  Tb  Tb10  1  0.804513  0.191426  0.190325  1
  Tb  Tb11  1  0.058265  0.436926  0.436267  1
  Tb  Tb12  1  0.191426  0.804513  0.190325  1
  Tb  Tb13  1  0.600351  0.600351  0.210029  1
  Tb  Tb14  1  0.190447  0.190447  0.805180  1
  Tb  Tb15  1  0.060578  0.436596  0.059824  1
  Mg  Mg16  1  0.824490  0.824490  0.522343  1
  Cd  Cd17  1  0.830575  0.830575  0.829911  1
  Cd  Cd18  1  0.505885  0.829980  0.830388  1
  Cd  Cd19  1  0.829980  0.505885  0.830388  1
  Co  Co20  1  0.829784  0.393103  0.391661  1
  Co  Co21  1  0.393103  0.829784  0.391661  1
  Co  Co22  1  0.392889  0.392889  0.829441  1
  Os  Os23  1  0.391965  0.391965  0.389404  1
