# generated using pymatgen
data_TbTm2Mn(Co4P3)2
_symmetry_space_group_name_H-M   'P 1'
_cell_length_a   3.67499700
_cell_length_b   10.49963800
_cell_length_c   12.16534600
_cell_angle_alpha   90.00000000
_cell_angle_beta   90.00000000
_cell_angle_gamma   90.00000000
_symmetry_Int_Tables_number   1
_chemical_formula_structural   TbTm2Mn(Co4P3)2
_chemical_formula_sum   'Tb2 Tm4 Mn2 Co16 P12'
_cell_volume   469.41372141
_cell_formula_units_Z   2
loop_
 _symmetry_equiv_pos_site_id
 _symmetry_equiv_pos_as_xyz
  1  'x, y, z'
loop_
 _atom_site_type_symbol
 _atom_site_label
 _atom_site_symmetry_multiplicity
 _atom_site_fract_x
 _atom_site_fract_y
 _atom_site_fract_z
 _atom_site_occupancy
  Tb  Tb0  1  0.000000  0.500000  0.522972  1
  Tb  Tb1  1  0.500000  0.000000  0.477028  1
  Tm  Tm2  1  0.500000  0.818664  0.204775  1
  Tm  Tm3  1  0.500000  0.181336  0.204775  1
  Tm  Tm4  1  0.000000  0.681336  0.795225  1
  Tm  Tm5  1  0.000000  0.318664  0.795225  1
  Mn  Mn6  1  0.500000  0.500000  0.158424  1
  Mn  Mn7  1  0.000000  0.000000  0.841576  1
  Co  Co8  1  0.500000  0.500000  0.704286  1
  Co  Co9  1  0.000000  0.000000  0.295714  1
  Co  Co10  1  0.000000  0.500000  0.986359  1
  Co  Co11  1  0.500000  0.000000  0.013641  1
  Co  Co12  1  0.500000  0.332912  0.993433  1
  Co  Co13  1  0.500000  0.667088  0.993433  1
  Co  Co14  1  0.000000  0.167088  0.006567  1
  Co  Co15  1  0.000000  0.832912  0.006567  1
  Co  Co16  1  0.500000  0.296523  0.429953  1
  Co  Co17  1  0.500000  0.703477  0.429953  1
  Co  Co18  1  0.000000  0.203477  0.570047  1
  Co  Co19  1  0.000000  0.796523  0.570047  1
  Co  Co20  1  0.500000  0.878866  0.710193  1
  Co  Co21  1  0.500000  0.121134  0.710193  1
  Co  Co22  1  0.000000  0.621134  0.289807  1
  Co  Co23  1  0.000000  0.378866  0.289807  1
  P  P24  1  0.500000  0.500000  0.882698  1
  P  P25  1  0.000000  0.000000  0.117302  1
  P  P26  1  0.500000  0.500000  0.344293  1
  P  P27  1  0.000000  0.000000  0.655707  1
  P  P28  1  0.500000  0.311015  0.617403  1
  P  P29  1  0.500000  0.688985  0.617403  1
  P  P30  1  0.000000  0.188985  0.382597  1
  P  P31  1  0.000000  0.811015  0.382597  1
  P  P32  1  0.500000  0.846845  0.892420  1
  P  P33  1  0.500000  0.153155  0.892420  1
  P  P34  1  0.000000  0.653155  0.107580  1
  P  P35  1  0.000000  0.346845  0.107580  1
