# generated using pymatgen
data_Mn4Be2B4Ir3Rh7
_symmetry_space_group_name_H-M   'P 1'
_cell_length_a   9.13790274
_cell_length_b   9.16896773
_cell_length_c   2.87366300
_cell_angle_alpha   90.00000000
_cell_angle_beta   90.00000000
_cell_angle_gamma   89.88342935
_symmetry_Int_Tables_number   1
_chemical_formula_structural   Mn4Be2B4Ir3Rh7
_chemical_formula_sum   'Mn4 Be2 B4 Ir3 Rh7'
_cell_volume   240.76974513
_cell_formula_units_Z   1
loop_
 _symmetry_equiv_pos_site_id
 _symmetry_equiv_pos_as_xyz
  1  'x, y, z'
loop_
 _atom_site_type_symbol
 _atom_site_label
 _atom_site_symmetry_multiplicity
 _atom_site_fract_x
 _atom_site_fract_y
 _atom_site_fract_z
 _atom_site_occupancy
  Mn  Mn0  1  0.676405  0.177257  0.000000  1
  Mn  Mn1  1  0.323595  0.822743  0.000000  1
  Mn  Mn2  1  0.177646  0.323527  0.000000  1
  Mn  Mn3  1  0.822354  0.676473  0.000000  1
  Be  Be4  1  0.000000  0.000000  0.000000  1
  Be  Be5  1  0.500000  0.500000  0.000000  1
  B  B6  1  0.130652  0.632303  0.000000  1
  B  B7  1  0.869348  0.367697  0.000000  1
  B  B8  1  0.631674  0.869615  0.000000  1
  B  B9  1  0.368326  0.130385  0.000000  1
  Ir  Ir10  1  0.568380  0.705886  0.500000  1
  Ir  Ir11  1  0.431620  0.294114  0.500000  1
  Ir  Ir12  1  0.000000  0.500000  0.500000  1
  Rh  Rh13  1  0.205454  0.067605  0.500000  1
  Rh  Rh14  1  0.794546  0.932395  0.500000  1
  Rh  Rh15  1  0.068594  0.794346  0.500000  1
  Rh  Rh16  1  0.705308  0.431901  0.500000  1
  Rh  Rh17  1  0.931406  0.205654  0.500000  1
  Rh  Rh18  1  0.294692  0.568099  0.500000  1
  Rh  Rh19  1  0.500000  0.000000  0.500000  1
