# generated using pymatgen
data_Hf8Co2MoRh
_symmetry_space_group_name_H-M   'P 1'
_cell_length_a   8.63503101
_cell_length_b   8.63503038
_cell_length_c   8.61084400
_cell_angle_alpha   60.09261952
_cell_angle_beta   60.09262191
_cell_angle_gamma   60.02157240
_symmetry_Int_Tables_number   1
_chemical_formula_structural   Hf8Co2MoRh
_chemical_formula_sum   'Hf16 Co4 Mo2 Rh2'
_cell_volume   454.71159208
_cell_formula_units_Z   2
loop_
 _symmetry_equiv_pos_site_id
 _symmetry_equiv_pos_as_xyz
  1  'x, y, z'
loop_
 _atom_site_type_symbol
 _atom_site_label
 _atom_site_symmetry_multiplicity
 _atom_site_fract_x
 _atom_site_fract_y
 _atom_site_fract_z
 _atom_site_occupancy
  Hf  Hf0  1  0.696497  0.100471  0.101515  1
  Hf  Hf1  1  0.100471  0.696497  0.101515  1
  Hf  Hf2  1  0.099787  0.099787  0.699279  1
  Hf  Hf3  1  0.099787  0.099787  0.101145  1
  Hf  Hf4  1  0.314008  0.314008  0.685992  1
  Hf  Hf5  1  0.685181  0.685181  0.314819  1
  Hf  Hf6  1  0.315506  0.688470  0.314426  1
  Hf  Hf7  1  0.688470  0.315506  0.681597  1
  Hf  Hf8  1  0.688470  0.315506  0.314426  1
  Hf  Hf9  1  0.315506  0.688470  0.681597  1
  Hf  Hf10  1  0.952829  0.952829  0.547171  1
  Hf  Hf11  1  0.549212  0.549212  0.950788  1
  Hf  Hf12  1  0.946518  0.551171  0.950330  1
  Hf  Hf13  1  0.551171  0.946518  0.551983  1
  Hf  Hf14  1  0.551171  0.946518  0.950330  1
  Hf  Hf15  1  0.946518  0.551171  0.551983  1
  Co  Co16  1  0.327086  0.888669  0.892122  1
  Co  Co17  1  0.888669  0.327086  0.892122  1
  Co  Co18  1  0.890028  0.890028  0.327599  1
  Co  Co19  1  0.890028  0.890028  0.892345  1
  Mo  Mo20  1  0.002813  0.331831  0.332677  1
  Mo  Mo21  1  0.331831  0.002813  0.332677  1
  Rh  Rh22  1  0.334218  0.334218  0.994277  1
  Rh  Rh23  1  0.334218  0.334218  0.337284  1
