# generated using pymatgen
data_Lu8Re3B24Ir
_symmetry_space_group_name_H-M   'P 1'
_cell_length_a   3.61444900
_cell_length_b   9.05636922
_cell_length_c   11.41806335
_cell_angle_alpha   90.12113507
_cell_angle_beta   90.00000000
_cell_angle_gamma   90.00000000
_symmetry_Int_Tables_number   1
_chemical_formula_structural   Lu8Re3B24Ir
_chemical_formula_sum   'Lu8 Re3 B24 Ir1'
_cell_volume   373.75559179
_cell_formula_units_Z   1
loop_
 _symmetry_equiv_pos_site_id
 _symmetry_equiv_pos_as_xyz
  1  'x, y, z'
loop_
 _atom_site_type_symbol
 _atom_site_label
 _atom_site_symmetry_multiplicity
 _atom_site_fract_x
 _atom_site_fract_y
 _atom_site_fract_z
 _atom_site_occupancy
  Lu  Lu0  1  0.000000  0.316689  0.415583  1
  Lu  Lu1  1  0.000000  0.679433  0.592050  1
  Lu  Lu2  1  0.000000  0.827101  0.080869  1
  Lu  Lu3  1  0.000000  0.178110  0.912325  1
  Lu  Lu4  1  0.000000  0.944379  0.371071  1
  Lu  Lu5  1  0.000000  0.055670  0.628566  1
  Lu  Lu6  1  0.000000  0.441193  0.127674  1
  Lu  Lu7  1  0.000000  0.556594  0.871945  1
  Re  Re8  1  0.000000  0.362668  0.677553  1
  Re  Re9  1  0.000000  0.138252  0.180092  1
  Re  Re10  1  0.000000  0.861787  0.820924  1
  B  B11  1  0.500000  0.553367  0.434430  1
  B  B12  1  0.500000  0.447127  0.565814  1
  B  B13  1  0.500000  0.053084  0.065939  1
  B  B14  1  0.500000  0.947607  0.933348  1
  B  B15  1  0.500000  0.749966  0.421017  1
  B  B16  1  0.500000  0.249266  0.580064  1
  B  B17  1  0.500000  0.250184  0.080215  1
  B  B18  1  0.500000  0.750632  0.919907  1
  B  B19  1  0.500000  0.792233  0.264727  1
  B  B20  1  0.500000  0.207339  0.734549  1
  B  B21  1  0.500000  0.292908  0.235520  1
  B  B22  1  0.500000  0.707164  0.765525  1
  B  B23  1  0.500000  0.631411  0.183389  1
  B  B24  1  0.500000  0.369689  0.815214  1
  B  B25  1  0.500000  0.130413  0.315887  1
  B  B26  1  0.500000  0.868802  0.684400  1
  B  B27  1  0.500000  0.981245  0.212299  1
  B  B28  1  0.500000  0.018887  0.786767  1
  B  B29  1  0.500000  0.481513  0.287712  1
  B  B30  1  0.500000  0.519511  0.712612  1
  B  B31  1  0.500000  0.602817  0.029092  1
  B  B32  1  0.500000  0.398324  0.972081  1
  B  B33  1  0.500000  0.100648  0.471540  1
  B  B34  1  0.500000  0.896086  0.528016  1
  Ir  Ir35  1  0.000000  0.637901  0.321283  1
