# generated using pymatgen
data_HfNb9S16
_symmetry_space_group_name_H-M   'P 1'
_cell_length_a   6.70886200
_cell_length_b   6.70886070
_cell_length_c   12.78407500
_cell_angle_alpha   90.00000000
_cell_angle_beta   90.00000000
_cell_angle_gamma   119.99999654
_symmetry_Int_Tables_number   1
_chemical_formula_structural   HfNb9S16
_chemical_formula_sum   'Hf1 Nb9 S16'
_cell_volume   498.30769052
_cell_formula_units_Z   1
loop_
 _symmetry_equiv_pos_site_id
 _symmetry_equiv_pos_as_xyz
  1  'x, y, z'
loop_
 _atom_site_type_symbol
 _atom_site_label
 _atom_site_symmetry_multiplicity
 _atom_site_fract_x
 _atom_site_fract_y
 _atom_site_fract_z
 _atom_site_occupancy
  Hf  Hf0  1  0.000000  0.000000  0.500000  1
  Nb  Nb1  1  0.000000  0.000000  0.247949  1
  Nb  Nb2  1  0.000000  0.000000  0.752051  1
  Nb  Nb3  1  0.505254  0.010507  0.247275  1
  Nb  Nb4  1  0.989493  0.494746  0.247275  1
  Nb  Nb5  1  0.505254  0.494746  0.247275  1
  Nb  Nb6  1  0.494746  0.989493  0.752725  1
  Nb  Nb7  1  0.010507  0.505254  0.752725  1
  Nb  Nb8  1  0.494746  0.505254  0.752725  1
  Nb  Nb9  1  0.000000  0.000000  0.000000  1
  S  S10  1  0.333333  0.666667  0.877789  1
  S  S11  1  0.666667  0.333333  0.122211  1
  S  S12  1  0.666667  0.333333  0.371835  1
  S  S13  1  0.333333  0.666667  0.628165  1
  S  S14  1  0.167749  0.832251  0.372125  1
  S  S15  1  0.167749  0.335499  0.372125  1
  S  S16  1  0.664501  0.832251  0.372125  1
  S  S17  1  0.832251  0.167749  0.627875  1
  S  S18  1  0.832251  0.664501  0.627875  1
  S  S19  1  0.335499  0.167749  0.627875  1
  S  S20  1  0.832860  0.167140  0.875636  1
  S  S21  1  0.832860  0.665722  0.875636  1
  S  S22  1  0.334278  0.167140  0.875636  1
  S  S23  1  0.167140  0.832860  0.124364  1
  S  S24  1  0.167140  0.334278  0.124364  1
  S  S25  1  0.665722  0.832860  0.124364  1
