# generated using pymatgen
data_Ac2TbCu6Ni7B2
_symmetry_space_group_name_H-M   'P 1'
_cell_length_a   5.17574500
_cell_length_b   5.17768334
_cell_length_c   11.00487200
_cell_angle_alpha   90.00000000
_cell_angle_beta   90.00000000
_cell_angle_gamma   119.98761054
_symmetry_Int_Tables_number   1
_chemical_formula_structural   Ac2TbCu6Ni7B2
_chemical_formula_sum   'Ac2 Tb1 Cu6 Ni7 B2'
_cell_volume   255.43369746
_cell_formula_units_Z   1
loop_
 _symmetry_equiv_pos_site_id
 _symmetry_equiv_pos_as_xyz
  1  'x, y, z'
loop_
 _atom_site_type_symbol
 _atom_site_label
 _atom_site_symmetry_multiplicity
 _atom_site_fract_x
 _atom_site_fract_y
 _atom_site_fract_z
 _atom_site_occupancy
  Ac  Ac0  1  0.000000  0.000000  0.317468  1
  Ac  Ac1  1  0.000000  0.000000  0.682532  1
  Tb  Tb2  1  0.000000  0.000000  0.000000  1
  Cu  Cu3  1  0.500000  0.500000  0.500000  1
  Cu  Cu4  1  0.000000  0.500000  0.500000  1
  Cu  Cu5  1  0.335004  0.670010  0.312753  1
  Cu  Cu6  1  0.664996  0.329990  0.312753  1
  Cu  Cu7  1  0.664996  0.329990  0.687247  1
  Cu  Cu8  1  0.335004  0.670010  0.687247  1
  Ni  Ni9  1  0.500000  0.000000  0.500000  1
  Ni  Ni10  1  0.500000  0.000000  0.124818  1
  Ni  Ni11  1  0.500000  0.500000  0.124749  1
  Ni  Ni12  1  0.000000  0.500000  0.124749  1
  Ni  Ni13  1  0.500000  0.000000  0.875182  1
  Ni  Ni14  1  0.500000  0.500000  0.875251  1
  Ni  Ni15  1  0.000000  0.500000  0.875251  1
  B  B16  1  0.333572  0.667146  0.000000  1
  B  B17  1  0.666428  0.332854  0.000000  1
