# generated using pymatgen
data_LiEr3PdRhPb3
_symmetry_space_group_name_H-M   'P 1'
_cell_length_a   7.95911600
_cell_length_b   7.95911594
_cell_length_c   3.66431200
_cell_angle_alpha   90.00000000
_cell_angle_beta   90.00000000
_cell_angle_gamma   120.00000137
_symmetry_Int_Tables_number   1
_chemical_formula_structural   LiEr3PdRhPb3
_chemical_formula_sum   'Li1 Er3 Pd1 Rh1 Pb3'
_cell_volume   201.02623365
_cell_formula_units_Z   1
loop_
 _symmetry_equiv_pos_site_id
 _symmetry_equiv_pos_as_xyz
  1  'x, y, z'
loop_
 _atom_site_type_symbol
 _atom_site_label
 _atom_site_symmetry_multiplicity
 _atom_site_fract_x
 _atom_site_fract_y
 _atom_site_fract_z
 _atom_site_occupancy
  Li  Li0  1  0.000000  0.000000  0.500000  1
  Er  Er1  1  0.408599  0.393751  0.500000  1
  Er  Er2  1  0.606249  0.014848  0.500000  1
  Er  Er3  1  0.985152  0.591401  0.500000  1
  Pd  Pd4  1  0.333333  0.666667  0.000000  1
  Rh  Rh5  1  0.666667  0.333333  0.000000  1
  Pb  Pb6  1  0.728700  0.733392  0.000000  1
  Pb  Pb7  1  0.266608  0.995308  0.000000  1
  Pb  Pb8  1  0.004692  0.271300  0.000000  1
