# generated using pymatgen
data_Tb10Ce2Co5Sn
_symmetry_space_group_name_H-M   'P 1'
_cell_length_a   8.40952264
_cell_length_b   8.40952231
_cell_length_c   8.34732900
_cell_angle_alpha   107.97207541
_cell_angle_beta   109.71684659
_cell_angle_gamma   111.02967607
_symmetry_Int_Tables_number   1
_chemical_formula_structural   Tb10Ce2Co5Sn
_chemical_formula_sum   'Tb10 Ce2 Co5 Sn1'
_cell_volume   452.47051330
_cell_formula_units_Z   1
loop_
 _symmetry_equiv_pos_site_id
 _symmetry_equiv_pos_as_xyz
  1  'x, y, z'
loop_
 _atom_site_type_symbol
 _atom_site_label
 _atom_site_symmetry_multiplicity
 _atom_site_fract_x
 _atom_site_fract_y
 _atom_site_fract_z
 _atom_site_occupancy
  Tb  Tb0  1  0.483484  0.297867  0.184300  1
  Tb  Tb1  1  0.113566  0.299184  0.815700  1
  Tb  Tb2  1  0.886434  0.700816  0.184300  1
  Tb  Tb3  1  0.516516  0.702133  0.815700  1
  Tb  Tb4  1  0.314760  0.629590  0.323717  1
  Tb  Tb5  1  0.305872  0.991044  0.676283  1
  Tb  Tb6  1  0.685240  0.370410  0.676283  1
  Tb  Tb7  1  0.694128  0.008956  0.323717  1
  Tb  Tb8  1  0.189781  0.214222  0.404003  1
  Tb  Tb9  1  0.810219  0.785778  0.595997  1
  Ce  Ce10  1  0.195170  0.817412  0.012581  1
  Ce  Ce11  1  0.804830  0.182588  0.987419  1
  Co  Co12  1  0.508506  0.613466  0.121973  1
  Co  Co13  1  0.491494  0.386534  0.878027  1
  Co  Co14  1  0.352551  0.989729  0.342279  1
  Co  Co15  1  0.647449  0.010271  0.657721  1
  Co  Co16  1  0.000000  0.000000  0.000000  1
  Sn  Sn17  1  0.000000  0.500000  0.500000  1
