# generated using pymatgen
data_Ba2VAsF14
_symmetry_space_group_name_H-M   'P 1'
_cell_length_a   4.88049479
_cell_length_b   7.65288958
_cell_length_c   7.89863304
_cell_angle_alpha   106.45473957
_cell_angle_beta   101.12342502
_cell_angle_gamma   90.85851754
_symmetry_Int_Tables_number   1
_chemical_formula_structural   Ba2VAsF14
_chemical_formula_sum   'Ba2 V1 As1 F14'
_cell_volume   276.85424170
_cell_formula_units_Z   1
loop_
 _symmetry_equiv_pos_site_id
 _symmetry_equiv_pos_as_xyz
  1  'x, y, z'
loop_
 _atom_site_type_symbol
 _atom_site_label
 _atom_site_symmetry_multiplicity
 _atom_site_fract_x
 _atom_site_fract_y
 _atom_site_fract_z
 _atom_site_occupancy
  Ba  Ba0  1  0.174317  0.341552  0.785783  1
  Ba  Ba1  1  0.825264  0.659270  0.213454  1
  V  V2  1  0.353245  0.185616  0.290798  1
  As  As3  1  0.646661  0.813580  0.708041  1
  F  F4  1  0.141614  0.180287  0.075065  1
  F  F5  1  0.440127  0.795913  0.490365  1
  F  F6  1  0.566175  0.208252  0.514556  1
  F  F7  1  0.497057  0.017214  0.803886  1
  F  F8  1  0.506475  0.976780  0.196041  1
  F  F9  1  0.381177  0.682325  0.750749  1
  F  F10  1  0.857322  0.822662  0.919511  1
  F  F11  1  0.283365  0.581698  0.097934  1
  F  F12  1  0.084737  0.049762  0.340321  1
  F  F13  1  0.190843  0.390750  0.398024  1
  F  F14  1  0.716785  0.417488  0.903267  1
  F  F15  1  0.800716  0.611126  0.604471  1
  F  F16  1  0.623818  0.321444  0.248266  1
  F  F17  1  0.910303  0.944280  0.659469  1
