# generated using pymatgen
data_Ti3Re5TcMo3
_symmetry_space_group_name_H-M   'P 1'
_cell_length_a   4.41388200
_cell_length_b   6.26839800
_cell_length_c   13.31274900
_cell_angle_alpha   90.00000000
_cell_angle_beta   89.99968499
_cell_angle_gamma   90.00000000
_symmetry_Int_Tables_number   1
_chemical_formula_structural   Ti3Re5TcMo3
_chemical_formula_sum   'Ti6 Re10 Tc2 Mo6'
_cell_volume   368.33672798
_cell_formula_units_Z   2
loop_
 _symmetry_equiv_pos_site_id
 _symmetry_equiv_pos_as_xyz
  1  'x, y, z'
loop_
 _atom_site_type_symbol
 _atom_site_label
 _atom_site_symmetry_multiplicity
 _atom_site_fract_x
 _atom_site_fract_y
 _atom_site_fract_z
 _atom_site_occupancy
  Ti  Ti0  1  0.999991  0.500000  0.999497  1
  Ti  Ti1  1  0.499881  0.000000  0.166632  1
  Ti  Ti2  1  0.999863  0.500000  0.333332  1
  Ti  Ti3  1  0.499986  0.000000  0.500039  1
  Ti  Ti4  1  0.000124  0.500000  0.667162  1
  Ti  Ti5  1  0.500120  0.000000  0.833324  1
  Re  Re6  1  0.500005  0.249220  0.999808  1
  Re  Re7  1  0.500005  0.750780  0.999808  1
  Re  Re8  1  0.999864  0.250698  0.166510  1
  Re  Re9  1  0.999864  0.749302  0.166510  1
  Re  Re10  1  0.499867  0.248972  0.333349  1
  Re  Re11  1  0.499867  0.751027  0.333349  1
  Re  Re12  1  0.000007  0.250685  0.500165  1
  Re  Re13  1  0.000007  0.749315  0.500165  1
  Re  Re14  1  0.500141  0.249219  0.666852  1
  Re  Re15  1  0.500141  0.750780  0.666852  1
  Tc  Tc16  1  0.000120  0.250989  0.833330  1
  Tc  Tc17  1  0.000120  0.749011  0.833330  1
  Mo  Mo18  1  0.000008  0.000000  0.000289  1
  Mo  Mo19  1  0.499852  0.500000  0.166540  1
  Mo  Mo20  1  0.999824  0.000000  0.333332  1
  Mo  Mo21  1  0.500002  0.500000  0.500120  1
  Mo  Mo22  1  0.000165  0.000000  0.666376  1
  Mo  Mo23  1  0.500175  0.500000  0.833330  1
