# generated using pymatgen
data_KRb3Ba4V12Cd8O44
_symmetry_space_group_name_H-M   'P 1'
_cell_length_a   7.10960700
_cell_length_b   10.60699300
_cell_length_c   18.09184100
_cell_angle_alpha   59.01588711
_cell_angle_beta   90.00000000
_cell_angle_gamma   90.00000000
_symmetry_Int_Tables_number   1
_chemical_formula_structural   KRb3Ba4V12Cd8O44
_chemical_formula_sum   'K1 Rb3 Ba4 V12 Cd8 O44'
_cell_volume   1169.65711921
_cell_formula_units_Z   1
loop_
 _symmetry_equiv_pos_site_id
 _symmetry_equiv_pos_as_xyz
  1  'x, y, z'
loop_
 _atom_site_type_symbol
 _atom_site_label
 _atom_site_symmetry_multiplicity
 _atom_site_fract_x
 _atom_site_fract_y
 _atom_site_fract_z
 _atom_site_occupancy
  K  K0  1  0.061762  0.476007  0.151851  1
  Rb  Rb1  1  0.561321  0.521655  0.345472  1
  Rb  Rb2  1  0.938731  0.521534  0.845639  1
  Rb  Rb3  1  0.438844  0.478408  0.654375  1
  Ba  Ba4  1  0.541824  0.722051  0.963097  1
  Ba  Ba5  1  0.959162  0.722802  0.462238  1
  Ba  Ba6  1  0.458490  0.278195  0.037372  1
  Ba  Ba7  1  0.040956  0.277305  0.537349  1
  V  V8  1  0.343786  0.846058  0.135973  1
  V  V9  1  0.156110  0.846349  0.635814  1
  V  V10  1  0.656103  0.153388  0.864209  1
  V  V11  1  0.844069  0.155700  0.362671  1
  V  V12  1  0.031729  0.678426  0.278847  1
  V  V13  1  0.468570  0.679072  0.778879  1
  V  V14  1  0.968555  0.320703  0.721097  1
  V  V15  1  0.530652  0.322565  0.220111  1
  V  V16  1  0.462759  0.769137  0.436201  1
  V  V17  1  0.038102  0.765820  0.938630  1
  V  V18  1  0.537065  0.230872  0.563809  1
  V  V19  1  0.962578  0.232841  0.064013  1
  Cd  Cd20  1  0.831518  0.885319  0.078140  1
  Cd  Cd21  1  0.669181  0.886897  0.577104  1
  Cd  Cd22  1  0.168855  0.113928  0.922600  1
  Cd  Cd23  1  0.330619  0.115283  0.421429  1
  Cd  Cd24  1  0.226019  0.028417  0.256311  1
  Cd  Cd25  1  0.272454  0.026465  0.757660  1
  Cd  Cd26  1  0.773637  0.971336  0.743798  1
  Cd  Cd27  1  0.726596  0.973092  0.243115  1
  O  O28  1  0.308608  0.925340  0.394644  1
  O  O29  1  0.191617  0.922674  0.896372  1
  O  O30  1  0.691694  0.074795  0.605271  1
  O  O31  1  0.809798  0.075845  0.105397  1
  O  O32  1  0.849706  0.685996  0.214952  1
  O  O33  1  0.650292  0.687087  0.714658  1
  O  O34  1  0.150011  0.312918  0.785414  1
  O  O35  1  0.348178  0.315798  0.283764  1
  O  O36  1  0.253882  0.673364  0.227289  1
  O  O37  1  0.246367  0.674177  0.727551  1
  O  O38  1  0.746413  0.325514  0.772553  1
  O  O39  1  0.755875  0.327918  0.269868  1
  O  O40  1  0.158389  0.931048  0.067223  1
  O  O41  1  0.341334  0.931535  0.566973  1
  O  O42  1  0.841387  0.067572  0.933103  1
  O  O43  1  0.658204  0.071592  0.431366  1
  O  O44  1  0.998863  0.537492  0.381554  1
  O  O45  1  0.501407  0.537471  0.881326  1
  O  O46  1  0.001515  0.462214  0.618568  1
  O  O47  1  0.496302  0.462888  0.117528  1
  O  O48  1  0.420234  0.956412  0.174490  1
  O  O49  1  0.078826  0.955879  0.674728  1
  O  O50  1  0.578438  0.043650  0.825559  1
  O  O51  1  0.920908  0.043665  0.325429  1
  O  O52  1  0.026170  0.840306  0.281810  1
  O  O53  1  0.474777  0.840407  0.782393  1
  O  O54  1  0.974474  0.159032  0.718001  1
  O  O55  1  0.524747  0.160347  0.217512  1
  O  O56  1  0.318310  0.621670  0.470876  1
  O  O57  1  0.182721  0.618624  0.972434  1
  O  O58  1  0.681535  0.378237  0.529345  1
  O  O59  1  0.817217  0.379958  0.028558  1
  O  O60  1  0.520771  0.818530  0.081131  1
  O  O61  1  0.979552  0.818088  0.581101  1
  O  O62  1  0.479725  0.182056  0.918766  1
  O  O63  1  0.020250  0.183012  0.418013  1
  O  O64  1  0.602882  0.741418  0.521934  1
  O  O65  1  0.900285  0.734880  0.025743  1
  O  O66  1  0.397216  0.259164  0.477866  1
  O  O67  1  0.103211  0.259332  0.978671  1
  O  O68  1  0.623954  0.777368  0.360172  1
  O  O69  1  0.876038  0.776405  0.862107  1
  O  O70  1  0.375863  0.221991  0.640005  1
  O  O71  1  0.122009  0.226707  0.140176  1
