# generated using pymatgen
data_TbY4Er7Ru4
_symmetry_space_group_name_H-M   'P 1'
_cell_length_a   6.28881369
_cell_length_b   7.31502831
_cell_length_c   9.11239799
_cell_angle_alpha   89.98484380
_cell_angle_beta   90.13012876
_cell_angle_gamma   90.05401158
_symmetry_Int_Tables_number   1
_chemical_formula_structural   TbY4Er7Ru4
_chemical_formula_sum   'Tb1 Y4 Er7 Ru4'
_cell_volume   419.19499765
_cell_formula_units_Z   1
loop_
 _symmetry_equiv_pos_site_id
 _symmetry_equiv_pos_as_xyz
  1  'x, y, z'
loop_
 _atom_site_type_symbol
 _atom_site_label
 _atom_site_symmetry_multiplicity
 _atom_site_fract_x
 _atom_site_fract_y
 _atom_site_fract_z
 _atom_site_occupancy
  Tb  Tb0  1  0.331263  0.676810  0.064089  1
  Y  Y1  1  0.866940  0.539103  0.250537  1
  Y  Y2  1  0.632977  0.039698  0.250249  1
  Y  Y3  1  0.132467  0.460356  0.749496  1
  Y  Y4  1  0.367580  0.960686  0.749588  1
  Er  Er5  1  0.168414  0.176497  0.435598  1
  Er  Er6  1  0.668780  0.323619  0.564542  1
  Er  Er7  1  0.831516  0.823918  0.935162  1
  Er  Er8  1  0.669102  0.323210  0.935098  1
  Er  Er9  1  0.831601  0.823740  0.564434  1
  Er  Er10  1  0.331273  0.676162  0.436097  1
  Er  Er11  1  0.168171  0.176259  0.064464  1
  Ru  Ru12  1  0.042395  0.885436  0.250611  1
  Ru  Ru13  1  0.457025  0.384290  0.250735  1
  Ru  Ru14  1  0.956709  0.115276  0.750216  1
  Ru  Ru15  1  0.543788  0.614942  0.749085  1
