# generated using pymatgen
data_Eu2MgZn17Pt4
_symmetry_space_group_name_H-M   'P 1'
_cell_length_a   8.32000931
_cell_length_b   8.31996029
_cell_length_c   8.32000900
_cell_angle_alpha   100.18031762
_cell_angle_beta   100.18052288
_cell_angle_gamma   130.27885406
_symmetry_Int_Tables_number   1
_chemical_formula_structural   Eu2MgZn17Pt4
_chemical_formula_sum   'Eu2 Mg1 Zn17 Pt4'
_cell_volume   398.66313576
_cell_formula_units_Z   1
loop_
 _symmetry_equiv_pos_site_id
 _symmetry_equiv_pos_as_xyz
  1  'x, y, z'
loop_
 _atom_site_type_symbol
 _atom_site_label
 _atom_site_symmetry_multiplicity
 _atom_site_fract_x
 _atom_site_fract_y
 _atom_site_fract_z
 _atom_site_occupancy
  Eu  Eu0  1  0.000178  0.000167  0.999989  1
  Eu  Eu1  1  0.249332  0.749353  0.500021  1
  Mg  Mg2  1  0.749992  0.249989  0.499997  1
  Zn  Zn3  1  0.499953  0.499951  0.999999  1
  Zn  Zn4  1  0.182522  0.511486  0.086171  1
  Zn  Zn5  1  0.182526  0.096353  0.671016  1
  Zn  Zn6  1  0.764204  0.932672  0.587062  1
  Zn  Zn7  1  0.764192  0.177132  0.831531  1
  Zn  Zn8  1  0.425315  0.511486  0.328964  1
  Zn  Zn9  1  0.425337  0.096353  0.913826  1
  Zn  Zn10  1  0.345609  0.932672  0.168468  1
  Zn  Zn11  1  0.345601  0.177132  0.412940  1
  Zn  Zn12  1  0.067320  0.235877  0.412886  1
  Zn  Zn13  1  0.067320  0.654438  0.831468  1
  Zn  Zn14  1  0.488472  0.817569  0.913700  1
  Zn  Zn15  1  0.488460  0.574765  0.670894  1
  Zn  Zn16  1  0.822990  0.235877  0.168557  1
  Zn  Zn17  1  0.822969  0.654438  0.587117  1
  Zn  Zn18  1  0.903868  0.817569  0.329097  1
  Zn  Zn19  1  0.903872  0.574765  0.086307  1
  Pt  Pt20  1  0.127782  0.376910  0.750877  1
  Pt  Pt21  1  0.623077  0.872074  0.248997  1
  Pt  Pt22  1  0.623077  0.374066  0.750989  1
  Pt  Pt23  1  0.626033  0.376910  0.249127  1
