# generated using pymatgen
data_Yb2Th(SnIr)3
_symmetry_space_group_name_H-M   'P 1'
_cell_length_a   7.40828830
_cell_length_b   7.56356970
_cell_length_c   4.10415800
_cell_angle_alpha   90.00000000
_cell_angle_beta   90.00000000
_cell_angle_gamma   120.69581537
_symmetry_Int_Tables_number   1
_chemical_formula_structural   Yb2Th(SnIr)3
_chemical_formula_sum   'Yb2 Th1 Sn3 Ir3'
_cell_volume   197.74769742
_cell_formula_units_Z   1
loop_
 _symmetry_equiv_pos_site_id
 _symmetry_equiv_pos_as_xyz
  1  'x, y, z'
loop_
 _atom_site_type_symbol
 _atom_site_label
 _atom_site_symmetry_multiplicity
 _atom_site_fract_x
 _atom_site_fract_y
 _atom_site_fract_z
 _atom_site_occupancy
  Yb  Yb0  1  0.590379  0.590078  0.500000  1
  Yb  Yb1  1  0.409621  0.999699  0.500000  1
  Th  Th2  1  0.000000  0.412786  0.500000  1
  Sn  Sn3  1  0.000000  0.759718  0.000000  1
  Sn  Sn4  1  0.269741  0.254509  0.000000  1
  Sn  Sn5  1  0.730259  0.984768  0.000000  1
  Ir  Ir6  1  0.313020  0.649965  0.000000  1
  Ir  Ir7  1  0.686980  0.336944  0.000000  1
  Ir  Ir8  1  0.000000  0.011532  0.500000  1
