# generated using pymatgen
data_DyEr3Ga18Co5Ni
_symmetry_space_group_name_H-M   'P 1'
_cell_length_a   7.37033368
_cell_length_b   7.37094218
_cell_length_c   9.37107501
_cell_angle_alpha   89.94560997
_cell_angle_beta   89.94329141
_cell_angle_gamma   119.87734361
_symmetry_Int_Tables_number   1
_chemical_formula_structural   DyEr3Ga18Co5Ni
_chemical_formula_sum   'Dy1 Er3 Ga18 Co5 Ni1'
_cell_volume   441.43303922
_cell_formula_units_Z   1
loop_
 _symmetry_equiv_pos_site_id
 _symmetry_equiv_pos_as_xyz
  1  'x, y, z'
loop_
 _atom_site_type_symbol
 _atom_site_label
 _atom_site_symmetry_multiplicity
 _atom_site_fract_x
 _atom_site_fract_y
 _atom_site_fract_z
 _atom_site_occupancy
  Dy  Dy0  1  0.502808  0.831542  0.750395  1
  Er  Er1  1  0.497225  0.168452  0.249614  1
  Er  Er2  1  0.168441  0.497209  0.249610  1
  Er  Er3  1  0.831555  0.502763  0.750378  1
  Ga  Ga4  1  0.163480  0.948432  0.750071  1
  Ga  Ga5  1  0.836387  0.051666  0.249922  1
  Ga  Ga6  1  0.051656  0.836384  0.249927  1
  Ga  Ga7  1  0.948598  0.163791  0.750072  1
  Ga  Ga8  1  0.620730  0.620730  0.248886  1
  Ga  Ga9  1  0.379165  0.379019  0.751111  1
  Ga  Ga10  1  0.167044  0.167047  0.058838  1
  Ga  Ga11  1  0.834909  0.834748  0.559396  1
  Ga  Ga12  1  0.833115  0.832951  0.941254  1
  Ga  Ga13  1  0.165243  0.165244  0.440513  1
  Ga  Ga14  1  0.498976  0.834211  0.072993  1
  Ga  Ga15  1  0.501065  0.164583  0.573623  1
  Ga  Ga16  1  0.165589  0.500836  0.927241  1
  Ga  Ga17  1  0.835618  0.498935  0.426288  1
  Ga  Ga18  1  0.501051  0.165994  0.927243  1
  Ga  Ga19  1  0.498958  0.835624  0.426141  1
  Ga  Ga20  1  0.834205  0.498954  0.072843  1
  Ga  Ga21  1  0.164183  0.500866  0.573631  1
  Co  Co22  1  0.171154  0.828844  0.000056  1
  Co  Co23  1  0.499978  0.499958  0.000057  1
  Co  Co24  1  0.828896  0.171174  0.499936  1
  Co  Co25  1  0.828863  0.171202  0.000060  1
  Co  Co26  1  0.171123  0.828873  0.499940  1
  Ni  Ni27  1  0.499987  0.499969  0.499960  1
