# generated using pymatgen
data_DyCdCu3Ir
_symmetry_space_group_name_H-M   'P 1'
_cell_length_a   5.08798949
_cell_length_b   5.21509707
_cell_length_c   5.08799000
_cell_angle_alpha   60.80302659
_cell_angle_beta   59.99999665
_cell_angle_gamma   60.80302767
_symmetry_Int_Tables_number   1
_chemical_formula_structural   DyCdCu3Ir
_chemical_formula_sum   'Dy1 Cd1 Cu3 Ir1'
_cell_volume   96.60640364
_cell_formula_units_Z   1
loop_
 _symmetry_equiv_pos_site_id
 _symmetry_equiv_pos_as_xyz
  1  'x, y, z'
loop_
 _atom_site_type_symbol
 _atom_site_label
 _atom_site_symmetry_multiplicity
 _atom_site_fract_x
 _atom_site_fract_y
 _atom_site_fract_z
 _atom_site_occupancy
  Dy  Dy0  1  0.747766  0.756700  0.747766  1
  Cd  Cd1  1  0.998807  0.003579  0.998807  1
  Cu  Cu2  1  0.375851  0.371825  0.375851  1
  Cu  Cu3  1  0.876474  0.371825  0.375851  1
  Cu  Cu4  1  0.375851  0.371825  0.876474  1
  Ir  Ir5  1  0.375252  0.874244  0.375252  1
