# generated using pymatgen
data_Ca3(ZnPd)2
_symmetry_space_group_name_H-M   'P 1'
_cell_length_a   5.76865900
_cell_length_b   7.94707600
_cell_length_c   14.14273200
_cell_angle_alpha   90.00000000
_cell_angle_beta   90.00000000
_cell_angle_gamma   90.00000000
_symmetry_Int_Tables_number   1
_chemical_formula_structural   Ca3(ZnPd)2
_chemical_formula_sum   'Ca12 Zn8 Pd8'
_cell_volume   648.35900261
_cell_formula_units_Z   4
loop_
 _symmetry_equiv_pos_site_id
 _symmetry_equiv_pos_as_xyz
  1  'x, y, z'
loop_
 _atom_site_type_symbol
 _atom_site_label
 _atom_site_symmetry_multiplicity
 _atom_site_fract_x
 _atom_site_fract_y
 _atom_site_fract_z
 _atom_site_occupancy
  Ca  Ca0  1  0.858094  0.103855  0.097558  1
  Ca  Ca1  1  0.141905  0.603856  0.097558  1
  Ca  Ca2  1  0.376360  0.246269  0.250000  1
  Ca  Ca3  1  0.623640  0.746269  0.250000  1
  Ca  Ca4  1  0.858094  0.103855  0.402441  1
  Ca  Ca5  1  0.141905  0.603856  0.402441  1
  Ca  Ca6  1  0.858094  0.396145  0.597559  1
  Ca  Ca7  1  0.141905  0.896145  0.597559  1
  Ca  Ca8  1  0.376360  0.253731  0.750000  1
  Ca  Ca9  1  0.623640  0.753731  0.750000  1
  Ca  Ca10  1  0.858094  0.396145  0.902441  1
  Ca  Ca11  1  0.141905  0.896145  0.902441  1
  Zn  Zn12  1  0.369843  0.249999  0.000000  1
  Zn  Zn13  1  0.630158  0.749999  0.000000  1
  Zn  Zn14  1  0.862681  0.400724  0.250000  1
  Zn  Zn15  1  0.137320  0.900725  0.250000  1
  Zn  Zn16  1  0.369843  0.249999  0.500000  1
  Zn  Zn17  1  0.630158  0.749999  0.500000  1
  Zn  Zn18  1  0.862681  0.099276  0.750000  1
  Zn  Zn19  1  0.137320  0.599276  0.750000  1
  Pd  Pd20  1  0.635904  0.466691  0.093858  1
  Pd  Pd21  1  0.364095  0.966690  0.093858  1
  Pd  Pd22  1  0.635904  0.466691  0.406142  1
  Pd  Pd23  1  0.364095  0.966690  0.406142  1
  Pd  Pd24  1  0.635904  0.033311  0.593857  1
  Pd  Pd25  1  0.364095  0.533310  0.593857  1
  Pd  Pd26  1  0.635904  0.033311  0.906142  1
  Pd  Pd27  1  0.364095  0.533310  0.906142  1
