# generated using pymatgen
data_Dy4Ho8CuNi4Sn
_symmetry_space_group_name_H-M   'P 1'
_cell_length_a   8.30267588
_cell_length_b   8.30267549
_cell_length_c   8.30267711
_cell_angle_alpha   112.38093026
_cell_angle_beta   109.46204729
_cell_angle_gamma   106.62192655
_symmetry_Int_Tables_number   1
_chemical_formula_structural   Dy4Ho8CuNi4Sn
_chemical_formula_sum   'Dy4 Ho8 Cu1 Ni4 Sn1'
_cell_volume   439.47457562
_cell_formula_units_Z   1
loop_
 _symmetry_equiv_pos_site_id
 _symmetry_equiv_pos_as_xyz
  1  'x, y, z'
loop_
 _atom_site_type_symbol
 _atom_site_label
 _atom_site_symmetry_multiplicity
 _atom_site_fract_x
 _atom_site_fract_y
 _atom_site_fract_z
 _atom_site_occupancy
  Dy  Dy0  1  0.180384  0.207576  0.387960  1
  Dy  Dy1  1  0.819616  0.207576  0.027190  1
  Dy  Dy2  1  0.180384  0.792424  0.972810  1
  Dy  Dy3  1  0.819616  0.792424  0.612040  1
  Ho  Ho4  1  0.027251  0.720480  0.306769  1
  Ho  Ho5  1  0.972749  0.279520  0.693231  1
  Ho  Ho6  1  0.586289  0.279520  0.306769  1
  Ho  Ho7  1  0.413711  0.720480  0.693231  1
  Ho  Ho8  1  0.675773  0.866922  0.191148  1
  Ho  Ho9  1  0.324227  0.515374  0.191148  1
  Ho  Ho10  1  0.324227  0.133078  0.808852  1
  Ho  Ho11  1  0.675773  0.484626  0.808852  1
  Cu  Cu12  1  0.000000  0.500000  0.500000  1
  Ni  Ni13  1  0.643740  0.500000  0.143740  1
  Ni  Ni14  1  0.356260  0.500000  0.856260  1
  Ni  Ni15  1  0.874619  0.874619  0.000000  1
  Ni  Ni16  1  0.125381  0.125381  0.000000  1
  Sn  Sn17  1  0.500000  0.000000  0.500000  1
