# generated using pymatgen
data_Sc4Cr2(FeOs)3
_symmetry_space_group_name_H-M   'P 1'
_cell_length_a   5.03139733
_cell_length_b   5.03139751
_cell_length_c   8.44164900
_cell_angle_alpha   90.00000000
_cell_angle_beta   90.00000000
_cell_angle_gamma   120.84403578
_symmetry_Int_Tables_number   1
_chemical_formula_structural   Sc4Cr2(FeOs)3
_chemical_formula_sum   'Sc4 Cr2 Fe3 Os3'
_cell_volume   183.47558180
_cell_formula_units_Z   1
loop_
 _symmetry_equiv_pos_site_id
 _symmetry_equiv_pos_as_xyz
  1  'x, y, z'
loop_
 _atom_site_type_symbol
 _atom_site_label
 _atom_site_symmetry_multiplicity
 _atom_site_fract_x
 _atom_site_fract_y
 _atom_site_fract_z
 _atom_site_occupancy
  Sc  Sc0  1  0.333706  0.666294  0.439426  1
  Sc  Sc1  1  0.666285  0.333715  0.565759  1
  Sc  Sc2  1  0.666285  0.333715  0.934241  1
  Sc  Sc3  1  0.333706  0.666294  0.060574  1
  Cr  Cr4  1  0.827428  0.660107  0.250000  1
  Cr  Cr5  1  0.339893  0.172572  0.250000  1
  Fe  Fe6  1  0.173584  0.826416  0.750000  1
  Fe  Fe7  1  0.171989  0.342571  0.750000  1
  Fe  Fe8  1  0.657429  0.828011  0.750000  1
  Os  Os9  1  0.003258  0.996742  0.504676  1
  Os  Os10  1  0.003258  0.996742  0.995324  1
  Os  Os11  1  0.823178  0.176822  0.250000  1
