# generated using pymatgen
data_Tb12YLu7Bi12
_symmetry_space_group_name_H-M   'P 1'
_cell_length_a   8.22569341
_cell_length_b   9.50989760
_cell_length_c   12.06050897
_cell_angle_alpha   89.97789484
_cell_angle_beta   90.05886192
_cell_angle_gamma   89.99915758
_symmetry_Int_Tables_number   1
_chemical_formula_structural   Tb12YLu7Bi12
_chemical_formula_sum   'Tb12 Y1 Lu7 Bi12'
_cell_volume   943.43880090
_cell_formula_units_Z   1
loop_
 _symmetry_equiv_pos_site_id
 _symmetry_equiv_pos_as_xyz
  1  'x, y, z'
loop_
 _atom_site_type_symbol
 _atom_site_label
 _atom_site_symmetry_multiplicity
 _atom_site_fract_x
 _atom_site_fract_y
 _atom_site_fract_z
 _atom_site_occupancy
  Tb  Tb0  1  0.185859  0.750457  0.719313  1
  Tb  Tb1  1  0.686013  0.750767  0.781239  1
  Tb  Tb2  1  0.814647  0.249823  0.281038  1
  Tb  Tb3  1  0.313938  0.250458  0.218967  1
  Tb  Tb4  1  0.191523  0.564464  0.440969  1
  Tb  Tb5  1  0.693293  0.561875  0.059288  1
  Tb  Tb6  1  0.193460  0.937179  0.440010  1
  Tb  Tb7  1  0.306621  0.061801  0.940754  1
  Tb  Tb8  1  0.807172  0.437866  0.559493  1
  Tb  Tb9  1  0.356140  0.751823  0.215852  1
  Tb  Tb10  1  0.853089  0.750637  0.283007  1
  Tb  Tb11  1  0.645413  0.250890  0.783514  1
  Y  Y12  1  0.146530  0.250661  0.716509  1
  Lu  Lu13  1  0.024174  0.750196  0.989092  1
  Lu  Lu14  1  0.525003  0.750477  0.511072  1
  Lu  Lu15  1  0.976010  0.250458  0.010640  1
  Lu  Lu16  1  0.476231  0.250313  0.489151  1
  Lu  Lu17  1  0.308019  0.431549  0.941230  1
  Lu  Lu18  1  0.806451  0.067519  0.559542  1
  Lu  Lu19  1  0.692065  0.931753  0.058272  1
  Bi  Bi20  1  0.434692  0.004069  0.671663  1
  Bi  Bi21  1  0.934143  0.496484  0.828627  1
  Bi  Bi22  1  0.566277  0.503884  0.328170  1
  Bi  Bi23  1  0.065382  0.996730  0.171281  1
  Bi  Bi24  1  0.567140  0.996923  0.328890  1
  Bi  Bi25  1  0.066793  0.504399  0.170995  1
  Bi  Bi26  1  0.432893  0.496671  0.671533  1
  Bi  Bi27  1  0.933046  0.004633  0.828844  1
  Bi  Bi28  1  0.404575  0.744954  0.956908  1
  Bi  Bi29  1  0.904676  0.755439  0.542805  1
  Bi  Bi30  1  0.595290  0.245301  0.042708  1
  Bi  Bi31  1  0.093443  0.249549  0.458626  1
