# generated using pymatgen
data_SrNd(Si4Ni9)2
_symmetry_space_group_name_H-M   'P 1'
_cell_length_a   7.96816253
_cell_length_b   7.96816213
_cell_length_c   7.96816271
_cell_angle_alpha   121.12405514
_cell_angle_beta   121.12405110
_cell_angle_gamma   88.06386395
_symmetry_Int_Tables_number   1
_chemical_formula_structural   SrNd(Si4Ni9)2
_chemical_formula_sum   'Sr1 Nd1 Si8 Ni18'
_cell_volume   351.43767317
_cell_formula_units_Z   1
loop_
 _symmetry_equiv_pos_site_id
 _symmetry_equiv_pos_as_xyz
  1  'x, y, z'
loop_
 _atom_site_type_symbol
 _atom_site_label
 _atom_site_symmetry_multiplicity
 _atom_site_fract_x
 _atom_site_fract_y
 _atom_site_fract_z
 _atom_site_occupancy
  Sr  Sr0  1  0.750000  0.750000  0.000000  1
  Nd  Nd1  1  0.250000  0.250000  0.000000  1
  Si  Si2  1  0.788794  0.287365  0.840819  1
  Si  Si3  1  0.552024  0.053453  0.840819  1
  Si  Si4  1  0.053453  0.212635  0.501429  1
  Si  Si5  1  0.287365  0.446547  0.498571  1
  Si  Si6  1  0.947976  0.788794  0.501429  1
  Si  Si7  1  0.446547  0.947976  0.159181  1
  Si  Si8  1  0.212635  0.711206  0.159181  1
  Si  Si9  1  0.711206  0.552024  0.498571  1
  Ni  Ni10  1  0.931576  0.203965  0.134553  1
  Ni  Ni11  1  0.203965  0.069413  0.272389  1
  Ni  Ni12  1  0.797024  0.931576  0.727611  1
  Ni  Ni13  1  0.430587  0.296035  0.727611  1
  Ni  Ni14  1  0.069413  0.797024  0.865447  1
  Ni  Ni15  1  0.816329  0.054888  0.502014  1
  Ni  Ni16  1  0.552873  0.314315  0.497986  1
  Ni  Ni17  1  0.185685  0.947127  0.502014  1
  Ni  Ni18  1  0.445112  0.683671  0.497986  1
  Ni  Ni19  1  0.947127  0.445112  0.761440  1
  Ni  Ni20  1  0.683671  0.185685  0.238560  1
  Ni  Ni21  1  0.054888  0.552873  0.238560  1
  Ni  Ni22  1  0.702976  0.430587  0.134553  1
  Ni  Ni23  1  0.568424  0.702976  0.272389  1
  Ni  Ni24  1  0.500000  0.000000  0.500000  1
  Ni  Ni25  1  0.000000  0.500000  0.500000  1
  Ni  Ni26  1  0.314315  0.816329  0.761440  1
  Ni  Ni27  1  0.296035  0.568424  0.865447  1
