# generated using pymatgen
data_YErBe2(Os2C)2
_symmetry_space_group_name_H-M   'P 1'
_cell_length_a   5.62543345
_cell_length_b   5.62543185
_cell_length_c   7.03622600
_cell_angle_alpha   90.00000000
_cell_angle_beta   90.00000000
_cell_angle_gamma   140.18961582
_symmetry_Int_Tables_number   1
_chemical_formula_structural   YErBe2(Os2C)2
_chemical_formula_sum   'Y1 Er1 Be2 Os4 C2'
_cell_volume   142.56092399
_cell_formula_units_Z   1
loop_
 _symmetry_equiv_pos_site_id
 _symmetry_equiv_pos_as_xyz
  1  'x, y, z'
loop_
 _atom_site_type_symbol
 _atom_site_label
 _atom_site_symmetry_multiplicity
 _atom_site_fract_x
 _atom_site_fract_y
 _atom_site_fract_z
 _atom_site_occupancy
  Y  Y0  1  0.455570  0.544430  0.750000  1
  Er  Er1  1  0.544845  0.455155  0.250000  1
  Be  Be2  1  0.269498  0.730502  0.250000  1
  Be  Be3  1  0.730455  0.269545  0.750000  1
  Os  Os4  1  0.823580  0.176420  0.059722  1
  Os  Os5  1  0.176160  0.823840  0.941828  1
  Os  Os6  1  0.176160  0.823840  0.558172  1
  Os  Os7  1  0.823580  0.176420  0.440278  1
  C  C8  1  0.000075  0.999925  0.002020  1
  C  C9  1  0.000075  0.999925  0.497980  1
