# generated using pymatgen
data_U5(PaH10)3
_symmetry_space_group_name_H-M   'P 1'
_cell_length_a   7.56181784
_cell_length_b   7.55095774
_cell_length_c   7.55511376
_cell_angle_alpha   109.52326298
_cell_angle_beta   109.49061631
_cell_angle_gamma   109.43864448
_symmetry_Int_Tables_number   1
_chemical_formula_structural   U5(PaH10)3
_chemical_formula_sum   'U5 Pa3 H30'
_cell_volume   331.92405066
_cell_formula_units_Z   1
loop_
 _symmetry_equiv_pos_site_id
 _symmetry_equiv_pos_as_xyz
  1  'x, y, z'
loop_
 _atom_site_type_symbol
 _atom_site_label
 _atom_site_symmetry_multiplicity
 _atom_site_fract_x
 _atom_site_fract_y
 _atom_site_fract_z
 _atom_site_occupancy
  U  U0  1  0.084072  0.500057  0.001086  1
  U  U1  1  0.000146  0.583688  0.498902  1
  U  U2  1  0.584298  0.499462  0.000225  1
  U  U3  1  0.498925  0.999730  0.583261  1
  U  U4  1  0.416638  0.417860  0.416794  1
  Pa  Pa5  1  0.916252  0.916119  0.916683  1
  Pa  Pa6  1  0.498927  0.999929  0.081771  1
  Pa  Pa7  1  0.001524  0.083410  0.501279  1
  H  H8  1  0.651915  0.968240  0.370887  1
  H  H9  1  0.218694  0.315519  0.848092  1
  H  H10  1  0.183456  0.402309  0.531977  1
  H  H11  1  0.096988  0.280501  0.129264  1
  H  H12  1  0.280604  0.129014  0.097051  1
  H  H13  1  0.129166  0.097210  0.281154  1
  H  H14  1  0.466973  0.151161  0.870258  1
  H  H15  1  0.718714  0.347616  0.815719  1
  H  H16  1  0.624603  0.374498  0.249703  1
  H  H17  1  0.249969  0.625078  0.375209  1
  H  H18  1  0.750177  0.875320  0.125299  1
  H  H19  1  0.125250  0.750391  0.875123  1
  H  H20  1  0.374365  0.249557  0.624534  1
  H  H21  1  0.875039  0.124689  0.750027  1
  H  H22  1  0.781092  0.597389  0.629247  1
  H  H23  1  0.316026  0.849042  0.218598  1
  H  H24  1  0.371277  0.652471  0.968190  1
  H  H25  1  0.968091  0.370345  0.651445  1
  H  H26  1  0.531861  0.183584  0.402083  1
  H  H27  1  0.402967  0.532033  0.184130  1
  H  H28  1  0.848202  0.218250  0.315655  1
  H  H29  1  0.903346  0.684863  0.032686  1
  H  H30  1  0.816271  0.719418  0.348411  1
  H  H31  1  0.151726  0.871046  0.467863  1
  H  H32  1  0.683940  0.032099  0.903126  1
  H  H33  1  0.348127  0.816049  0.718827  1
  H  H34  1  0.870455  0.467138  0.151759  1
  H  H35  1  0.630070  0.781818  0.597414  1
  H  H36  1  0.597106  0.630005  0.781607  1
  H  H37  1  0.032748  0.903092  0.684659  1
