# generated using pymatgen
data_CaTb4Si3H
_symmetry_space_group_name_H-M   'P 1'
_cell_length_a   8.68746900
_cell_length_b   8.68746851
_cell_length_c   8.68746931
_cell_angle_alpha   128.32606108
_cell_angle_beta   128.32605998
_cell_angle_gamma   76.09742003
_symmetry_Int_Tables_number   1
_chemical_formula_structural   CaTb4Si3H
_chemical_formula_sum   'Ca2 Tb8 Si6 H2'
_cell_volume   392.26670775
_cell_formula_units_Z   2
loop_
 _symmetry_equiv_pos_site_id
 _symmetry_equiv_pos_as_xyz
  1  'x, y, z'
loop_
 _atom_site_type_symbol
 _atom_site_label
 _atom_site_symmetry_multiplicity
 _atom_site_fract_x
 _atom_site_fract_y
 _atom_site_fract_z
 _atom_site_occupancy
  Ca  Ca0  1  0.500000  0.500000  0.000000  1
  Ca  Ca1  1  0.000000  0.000000  0.000000  1
  Tb  Tb2  1  0.522583  0.022583  0.837814  1
  Tb  Tb3  1  0.184770  0.684770  0.162186  1
  Tb  Tb4  1  0.022583  0.184770  0.500000  1
  Tb  Tb5  1  0.684770  0.522583  0.500000  1
  Tb  Tb6  1  0.477417  0.977417  0.162186  1
  Tb  Tb7  1  0.815230  0.315230  0.837814  1
  Tb  Tb8  1  0.977417  0.815230  0.500000  1
  Tb  Tb9  1  0.315230  0.477417  0.500000  1
  Si  Si10  1  0.250000  0.250000  0.000000  1
  Si  Si11  1  0.750000  0.750000  0.000000  1
  Si  Si12  1  0.883321  0.383321  0.266644  1
  Si  Si13  1  0.116679  0.616679  0.733356  1
  Si  Si14  1  0.383321  0.116679  0.500000  1
  Si  Si15  1  0.616679  0.883321  0.500000  1
  H  H16  1  0.250000  0.750000  0.500000  1
  H  H17  1  0.750000  0.250000  0.500000  1
