# generated using pymatgen
data_Zr10Sn5Bi2Pd
_symmetry_space_group_name_H-M   'P 1'
_cell_length_a   8.86118141
_cell_length_b   8.84412773
_cell_length_c   5.94624000
_cell_angle_alpha   89.96511382
_cell_angle_beta   90.01741275
_cell_angle_gamma   119.93634969
_symmetry_Int_Tables_number   1
_chemical_formula_structural   Zr10Sn5Bi2Pd
_chemical_formula_sum   'Zr10 Sn5 Bi2 Pd1'
_cell_volume   403.82928593
_cell_formula_units_Z   1
loop_
 _symmetry_equiv_pos_site_id
 _symmetry_equiv_pos_as_xyz
  1  'x, y, z'
loop_
 _atom_site_type_symbol
 _atom_site_label
 _atom_site_symmetry_multiplicity
 _atom_site_fract_x
 _atom_site_fract_y
 _atom_site_fract_z
 _atom_site_occupancy
  Zr  Zr0  1  0.669957  0.335948  0.003400  1
  Zr  Zr1  1  0.330043  0.665992  0.003400  1
  Zr  Zr2  1  0.330569  0.666212  0.496891  1
  Zr  Zr3  1  0.669431  0.335642  0.496891  1
  Zr  Zr4  1  0.729397  0.723696  0.742222  1
  Zr  Zr5  1  0.270603  0.994299  0.742222  1
  Zr  Zr6  1  0.000000  0.276962  0.741510  1
  Zr  Zr7  1  0.277932  0.278101  0.256399  1
  Zr  Zr8  1  0.722068  0.000169  0.256399  1
  Zr  Zr9  1  0.000000  0.721303  0.259145  1
  Sn  Sn10  1  0.000000  0.000127  0.003329  1
  Sn  Sn11  1  0.000000  0.613231  0.752093  1
  Sn  Sn12  1  0.617547  0.618200  0.249480  1
  Sn  Sn13  1  0.382453  0.000652  0.249480  1
  Sn  Sn14  1  0.000000  0.383336  0.248955  1
  Bi  Bi15  1  0.385713  0.385267  0.751521  1
  Bi  Bi16  1  0.614287  0.999554  0.751521  1
  Pd  Pd17  1  0.000000  0.001308  0.495139  1
