# generated using pymatgen
data_Ho4ErIn4PdAu
_symmetry_space_group_name_H-M   'P 1'
_cell_length_a   3.63597300
_cell_length_b   8.15556605
_cell_length_c   18.29286800
_cell_angle_alpha   89.99469937
_cell_angle_beta   90.00000000
_cell_angle_gamma   90.00000000
_symmetry_Int_Tables_number   1
_chemical_formula_structural   Ho4ErIn4PdAu
_chemical_formula_sum   'Ho8 Er2 In8 Pd2 Au2'
_cell_volume   542.44605832
_cell_formula_units_Z   2
loop_
 _symmetry_equiv_pos_site_id
 _symmetry_equiv_pos_as_xyz
  1  'x, y, z'
loop_
 _atom_site_type_symbol
 _atom_site_label
 _atom_site_symmetry_multiplicity
 _atom_site_fract_x
 _atom_site_fract_y
 _atom_site_fract_z
 _atom_site_occupancy
  Ho  Ho0  1  0.000000  0.500000  0.500000  1
  Ho  Ho1  1  0.000000  0.000000  0.000000  1
  Ho  Ho2  1  0.000000  0.745544  0.282318  1
  Ho  Ho3  1  0.000000  0.254456  0.717682  1
  Ho  Ho4  1  0.000000  0.767457  0.779180  1
  Ho  Ho5  1  0.000000  0.232543  0.220820  1
  Ho  Ho6  1  0.000000  0.617728  0.079900  1
  Ho  Ho7  1  0.000000  0.382272  0.920100  1
  Er  Er8  1  0.000000  0.886544  0.582627  1
  Er  Er9  1  0.000000  0.113456  0.417373  1
  In  In10  1  0.500000  0.713181  0.932127  1
  In  In11  1  0.500000  0.286819  0.067873  1
  In  In12  1  0.500000  0.789354  0.432584  1
  In  In13  1  0.500000  0.210646  0.567416  1
  In  In14  1  0.500000  0.583871  0.647157  1
  In  In15  1  0.500000  0.416129  0.352843  1
  In  In16  1  0.500000  0.921048  0.148362  1
  In  In17  1  0.500000  0.078952  0.851638  1
  Pd  Pd18  1  0.500000  0.975174  0.695708  1
  Pd  Pd19  1  0.500000  0.024826  0.304292  1
  Au  Au20  1  0.500000  0.525999  0.197057  1
  Au  Au21  1  0.500000  0.474001  0.802943  1
