# generated using pymatgen
data_Ta8BeGaTe8
_symmetry_space_group_name_H-M   'P 1'
_cell_length_a   4.85631800
_cell_length_b   10.90460600
_cell_length_c   18.90318600
_cell_angle_alpha   90.00000000
_cell_angle_beta   90.00000000
_cell_angle_gamma   90.00000000
_symmetry_Int_Tables_number   1
_chemical_formula_structural   Ta8BeGaTe8
_chemical_formula_sum   'Ta16 Be2 Ga2 Te16'
_cell_volume   1001.04154874
_cell_formula_units_Z   2
loop_
 _symmetry_equiv_pos_site_id
 _symmetry_equiv_pos_as_xyz
  1  'x, y, z'
loop_
 _atom_site_type_symbol
 _atom_site_label
 _atom_site_symmetry_multiplicity
 _atom_site_fract_x
 _atom_site_fract_y
 _atom_site_fract_z
 _atom_site_occupancy
  Ta  Ta0  1  0.491986  0.563805  0.383017  1
  Ta  Ta1  1  0.491986  0.436195  0.616983  1
  Ta  Ta2  1  0.508014  0.063805  0.116983  1
  Ta  Ta3  1  0.508014  0.936195  0.883017  1
  Ta  Ta4  1  0.490199  0.703527  0.536475  1
  Ta  Ta5  1  0.490199  0.296473  0.463525  1
  Ta  Ta6  1  0.509801  0.203527  0.963525  1
  Ta  Ta7  1  0.509801  0.796473  0.036475  1
  Ta  Ta8  1  0.008597  0.689038  0.443039  1
  Ta  Ta9  1  0.008597  0.310962  0.556961  1
  Ta  Ta10  1  0.991403  0.189038  0.056961  1
  Ta  Ta11  1  0.991403  0.810962  0.943039  1
  Ta  Ta12  1  0.008915  0.401124  0.391555  1
  Ta  Ta13  1  0.008915  0.598876  0.608445  1
  Ta  Ta14  1  0.991085  0.901124  0.108445  1
  Ta  Ta15  1  0.991085  0.098876  0.891555  1
  Be  Be16  1  0.249911  0.500000  0.500000  1
  Be  Be17  1  0.750089  0.000000  0.000000  1
  Ga  Ga18  1  0.750044  0.500000  0.500000  1
  Ga  Ga19  1  0.249956  0.000000  0.000000  1
  Te  Te20  1  0.996199  0.848418  0.562856  1
  Te  Te21  1  0.996199  0.151582  0.437144  1
  Te  Te22  1  0.003801  0.348418  0.937144  1
  Te  Te23  1  0.003801  0.651582  0.062856  1
  Te  Te24  1  0.502869  0.331763  0.314260  1
  Te  Te25  1  0.502869  0.668237  0.685740  1
  Te  Te26  1  0.497131  0.831763  0.185740  1
  Te  Te27  1  0.497131  0.168237  0.814260  1
  Te  Te28  1  0.503240  0.823531  0.402286  1
  Te  Te29  1  0.503240  0.176469  0.597714  1
  Te  Te30  1  0.496760  0.323531  0.097714  1
  Te  Te31  1  0.496760  0.676469  0.902286  1
  Te  Te32  1  0.998038  0.608175  0.299718  1
  Te  Te33  1  0.998038  0.391825  0.700282  1
  Te  Te34  1  0.001962  0.108175  0.200282  1
  Te  Te35  1  0.001962  0.891825  0.799718  1
