# generated using pymatgen
data_ErTeClO3
_symmetry_space_group_name_H-M   'P 1'
_cell_length_a   7.19190200
_cell_length_b   7.46419951
_cell_length_c   8.61739182
_cell_angle_alpha   76.13366223
_cell_angle_beta   90.00000000
_cell_angle_gamma   90.00000000
_symmetry_Int_Tables_number   1
_chemical_formula_structural   ErTeClO3
_chemical_formula_sum   'Er4 Te4 Cl4 O12'
_cell_volume   449.11577376
_cell_formula_units_Z   4
loop_
 _symmetry_equiv_pos_site_id
 _symmetry_equiv_pos_as_xyz
  1  'x, y, z'
loop_
 _atom_site_type_symbol
 _atom_site_label
 _atom_site_symmetry_multiplicity
 _atom_site_fract_x
 _atom_site_fract_y
 _atom_site_fract_z
 _atom_site_occupancy
  Er  Er0  1  0.749902  0.297310  0.329628  1
  Er  Er1  1  0.249902  0.202690  0.670372  1
  Er  Er2  1  0.250098  0.702690  0.670372  1
  Er  Er3  1  0.750098  0.797310  0.329628  1
  Te  Te4  1  0.222999  0.556206  0.298153  1
  Te  Te5  1  0.722999  0.943794  0.701847  1
  Te  Te6  1  0.777001  0.443794  0.701847  1
  Te  Te7  1  0.277001  0.056206  0.298153  1
  Cl  Cl8  1  0.705352  0.611586  0.097992  1
  Cl  Cl9  1  0.205352  0.888414  0.902008  1
  Cl  Cl10  1  0.294648  0.388414  0.902008  1
  Cl  Cl11  1  0.794648  0.111586  0.097992  1
  O  O12  1  0.283804  0.492714  0.524951  1
  O  O13  1  0.783804  0.007286  0.475049  1
  O  O14  1  0.716196  0.507286  0.475049  1
  O  O15  1  0.216196  0.992714  0.524951  1
  O  O16  1  0.054022  0.744805  0.320424  1
  O  O17  1  0.554022  0.755195  0.679576  1
  O  O18  1  0.945978  0.255195  0.679576  1
  O  O19  1  0.445978  0.244805  0.320424  1
  O  O20  1  0.053910  0.355800  0.316931  1
  O  O21  1  0.553910  0.144200  0.683069  1
  O  O22  1  0.946090  0.644200  0.683069  1
  O  O23  1  0.446090  0.855800  0.316931  1
