# generated using pymatgen
data_Pr5Zr3(P3Ir4)4
_symmetry_space_group_name_H-M   'P 1'
_cell_length_a   12.98687900
_cell_length_b   12.98688000
_cell_length_c   4.05266500
_cell_angle_alpha   90.00000000
_cell_angle_beta   90.00000000
_cell_angle_gamma   119.99999999
_symmetry_Int_Tables_number   1
_chemical_formula_structural   Pr5Zr3(P3Ir4)4
_chemical_formula_sum   'Pr5 Zr3 P12 Ir16'
_cell_volume   591.94445869
_cell_formula_units_Z   1
loop_
 _symmetry_equiv_pos_site_id
 _symmetry_equiv_pos_as_xyz
  1  'x, y, z'
loop_
 _atom_site_type_symbol
 _atom_site_label
 _atom_site_symmetry_multiplicity
 _atom_site_fract_x
 _atom_site_fract_y
 _atom_site_fract_z
 _atom_site_occupancy
  Pr  Pr0  1  0.333333  0.666667  0.500000  1
  Pr  Pr1  1  0.666667  0.333333  0.500000  1
  Pr  Pr2  1  0.000000  0.814642  0.000000  1
  Pr  Pr3  1  0.185358  0.185358  0.000000  1
  Pr  Pr4  1  0.814642  0.000000  0.000000  1
  Zr  Zr5  1  0.000000  0.448100  0.500000  1
  Zr  Zr6  1  0.551900  0.551900  0.500000  1
  Zr  Zr7  1  0.448100  0.000000  0.500000  1
  P  P8  1  0.000000  0.646055  0.500000  1
  P  P9  1  0.353945  0.353945  0.500000  1
  P  P10  1  0.646055  0.000000  0.500000  1
  P  P11  1  0.519001  0.686868  0.000000  1
  P  P12  1  0.313132  0.832133  0.000000  1
  P  P13  1  0.167867  0.480999  0.000000  1
  P  P14  1  0.480999  0.167867  0.000000  1
  P  P15  1  0.686868  0.519001  0.000000  1
  P  P16  1  0.832133  0.313132  0.000000  1
  P  P17  1  0.000000  0.177879  0.500000  1
  P  P18  1  0.822121  0.822121  0.500000  1
  P  P19  1  0.177879  0.000000  0.500000  1
  Ir  Ir20  1  0.510200  0.866673  0.000000  1
  Ir  Ir21  1  0.133327  0.643528  0.000000  1
  Ir  Ir22  1  0.356472  0.489800  0.000000  1
  Ir  Ir23  1  0.489800  0.356472  0.000000  1
  Ir  Ir24  1  0.866673  0.510200  0.000000  1
  Ir  Ir25  1  0.643528  0.133327  0.000000  1
  Ir  Ir26  1  0.000000  0.281874  0.000000  1
  Ir  Ir27  1  0.718126  0.718126  0.000000  1
  Ir  Ir28  1  0.281874  0.000000  0.000000  1
  Ir  Ir29  1  0.626940  0.804682  0.500000  1
  Ir  Ir30  1  0.195318  0.822259  0.500000  1
  Ir  Ir31  1  0.177741  0.373060  0.500000  1
  Ir  Ir32  1  0.373060  0.177741  0.500000  1
  Ir  Ir33  1  0.804682  0.626940  0.500000  1
  Ir  Ir34  1  0.822259  0.195318  0.500000  1
  Ir  Ir35  1  0.000000  0.000000  0.500000  1
