# generated using pymatgen
data_Er3Ti2ZnIr3
_symmetry_space_group_name_H-M   'P 1'
_cell_length_a   6.96083900
_cell_length_b   6.87849624
_cell_length_c   4.24136600
_cell_angle_alpha   90.00000000
_cell_angle_beta   90.00000000
_cell_angle_gamma   120.39679047
_symmetry_Int_Tables_number   1
_chemical_formula_structural   Er3Ti2ZnIr3
_chemical_formula_sum   'Er3 Ti2 Zn1 Ir3'
_cell_volume   175.16248680
_cell_formula_units_Z   1
loop_
 _symmetry_equiv_pos_site_id
 _symmetry_equiv_pos_as_xyz
  1  'x, y, z'
loop_
 _atom_site_type_symbol
 _atom_site_label
 _atom_site_symmetry_multiplicity
 _atom_site_fract_x
 _atom_site_fract_y
 _atom_site_fract_z
 _atom_site_occupancy
  Er  Er0  1  0.587249  0.598278  0.000000  1
  Er  Er1  1  0.431322  0.000000  0.000000  1
  Er  Er2  1  0.988971  0.401722  0.000000  1
  Ti  Ti3  1  0.994976  0.755276  0.500000  1
  Ti  Ti4  1  0.239699  0.244724  0.500000  1
  Zn  Zn5  1  0.759736  0.000000  0.500000  1
  Ir  Ir6  1  0.029665  0.000000  0.000000  1
  Ir  Ir7  1  0.656685  0.344989  0.500000  1
  Ir  Ir8  1  0.311696  0.655011  0.500000  1
