# generated using pymatgen
data_TbYbPaIr3
_symmetry_space_group_name_H-M   'P 1'
_cell_length_a   5.35980466
_cell_length_b   5.35980400
_cell_length_c   5.35980446
_cell_angle_alpha   65.77203378
_cell_angle_beta   65.77203865
_cell_angle_gamma   65.77204487
_symmetry_Int_Tables_number   1
_chemical_formula_structural   TbYbPaIr3
_chemical_formula_sum   'Tb1 Yb1 Pa1 Ir3'
_cell_volume   122.50428985
_cell_formula_units_Z   1
loop_
 _symmetry_equiv_pos_site_id
 _symmetry_equiv_pos_as_xyz
  1  'x, y, z'
loop_
 _atom_site_type_symbol
 _atom_site_label
 _atom_site_symmetry_multiplicity
 _atom_site_fract_x
 _atom_site_fract_y
 _atom_site_fract_z
 _atom_site_occupancy
  Tb  Tb0  1  0.503423  0.503423  0.503423  1
  Yb  Yb1  1  0.749192  0.749192  0.749192  1
  Pa  Pa2  1  0.124085  0.124085  0.124085  1
  Ir  Ir3  1  0.624411  0.124445  0.124445  1
  Ir  Ir4  1  0.124445  0.124445  0.624411  1
  Ir  Ir5  1  0.124445  0.624411  0.124445  1
