# generated using pymatgen
data_Hf6Fe3B4Ir7
_symmetry_space_group_name_H-M   'P 1'
_cell_length_a   9.23568040
_cell_length_b   9.27233330
_cell_length_c   3.21320800
_cell_angle_alpha   90.00000000
_cell_angle_beta   90.00000000
_cell_angle_gamma   89.87679481
_symmetry_Int_Tables_number   1
_chemical_formula_structural   Hf6Fe3B4Ir7
_chemical_formula_sum   'Hf6 Fe3 B4 Ir7'
_cell_volume   275.16663024
_cell_formula_units_Z   1
loop_
 _symmetry_equiv_pos_site_id
 _symmetry_equiv_pos_as_xyz
  1  'x, y, z'
loop_
 _atom_site_type_symbol
 _atom_site_label
 _atom_site_symmetry_multiplicity
 _atom_site_fract_x
 _atom_site_fract_y
 _atom_site_fract_z
 _atom_site_occupancy
  Hf  Hf0  1  0.173837  0.677193  0.000000  1
  Hf  Hf1  1  0.326576  0.166599  0.000000  1
  Hf  Hf2  1  0.829012  0.326671  0.000000  1
  Hf  Hf3  1  0.499057  0.500649  0.000000  1
  Hf  Hf4  1  0.670372  0.829124  0.000000  1
  Hf  Hf5  1  0.011707  0.996561  0.000000  1
  Fe  Fe6  1  0.229298  0.932549  0.500000  1
  Fe  Fe7  1  0.999731  0.499752  0.500000  1
  Fe  Fe8  1  0.498658  0.999552  0.500000  1
  B  B9  1  0.372127  0.893728  0.000000  1
  B  B10  1  0.109542  0.391307  0.000000  1
  B  B11  1  0.891293  0.609720  0.000000  1
  B  B12  1  0.611577  0.108028  0.000000  1
  Ir  Ir13  1  0.933400  0.774133  0.500000  1
  Ir  Ir14  1  0.429377  0.729644  0.500000  1
  Ir  Ir15  1  0.568444  0.273133  0.500000  1
  Ir  Ir16  1  0.725450  0.568639  0.500000  1
  Ir  Ir17  1  0.273858  0.432221  0.500000  1
  Ir  Ir18  1  0.069317  0.225128  0.500000  1
  Ir  Ir19  1  0.777364  0.065669  0.500000  1
