# generated using pymatgen
data_KTl3(GaI3)4
_symmetry_space_group_name_H-M   'P 1'
_cell_length_a   13.35964565
_cell_length_b   7.80572996
_cell_length_c   9.59270000
_cell_angle_alpha   90.51269923
_cell_angle_beta   90.82997354
_cell_angle_gamma   88.40673129
_symmetry_Int_Tables_number   1
_chemical_formula_structural   KTl3(GaI3)4
_chemical_formula_sum   'K1 Tl3 Ga4 I12'
_cell_volume   999.81569204
_cell_formula_units_Z   1
loop_
 _symmetry_equiv_pos_site_id
 _symmetry_equiv_pos_as_xyz
  1  'x, y, z'
loop_
 _atom_site_type_symbol
 _atom_site_label
 _atom_site_symmetry_multiplicity
 _atom_site_fract_x
 _atom_site_fract_y
 _atom_site_fract_z
 _atom_site_occupancy
  K  K0  1  0.000000  0.500000  0.000000  1
  Tl  Tl1  1  0.500000  0.000000  0.500000  1
  Tl  Tl2  1  0.500000  0.500000  0.000000  1
  Tl  Tl3  1  0.000000  0.000000  0.500000  1
  Ga  Ga4  1  0.248399  0.041144  0.974275  1
  Ga  Ga5  1  0.752174  0.857366  0.776186  1
  Ga  Ga6  1  0.751601  0.958856  0.025725  1
  Ga  Ga7  1  0.247826  0.142634  0.223814  1
  I  I8  1  0.749893  0.294835  0.061046  1
  I  I9  1  0.601865  0.660775  0.695439  1
  I  I10  1  0.093240  0.336924  0.309373  1
  I  I11  1  0.398135  0.339225  0.304561  1
  I  I12  1  0.091709  0.151095  0.822687  1
  I  I13  1  0.596121  0.853698  0.169390  1
  I  I14  1  0.908291  0.848905  0.177313  1
  I  I15  1  0.403879  0.146302  0.830610  1
  I  I16  1  0.250107  0.705165  0.938954  1
  I  I17  1  0.747018  0.121922  0.604920  1
  I  I18  1  0.252982  0.878078  0.395080  1
  I  I19  1  0.906760  0.663076  0.690627  1
