# generated using pymatgen
data_Tm14Lu6AlBi11
_symmetry_space_group_name_H-M   'P 1'
_cell_length_a   8.12183982
_cell_length_b   9.40192613
_cell_length_c   11.86397423
_cell_angle_alpha   89.97788686
_cell_angle_beta   89.70245316
_cell_angle_gamma   89.98879690
_symmetry_Int_Tables_number   1
_chemical_formula_structural   Tm14Lu6AlBi11
_chemical_formula_sum   'Tm14 Lu6 Al1 Bi11'
_cell_volume   905.93190006
_cell_formula_units_Z   1
loop_
 _symmetry_equiv_pos_site_id
 _symmetry_equiv_pos_as_xyz
  1  'x, y, z'
loop_
 _atom_site_type_symbol
 _atom_site_label
 _atom_site_symmetry_multiplicity
 _atom_site_fract_x
 _atom_site_fract_y
 _atom_site_fract_z
 _atom_site_occupancy
  Tm  Tm0  1  0.524993  0.250101  0.989381  1
  Tm  Tm1  1  0.355407  0.249793  0.292160  1
  Tm  Tm2  1  0.646346  0.750463  0.717281  1
  Tm  Tm3  1  0.147718  0.750170  0.782886  1
  Tm  Tm4  1  0.855150  0.250351  0.216039  1
  Tm  Tm5  1  0.191381  0.249902  0.777403  1
  Tm  Tm6  1  0.810621  0.750071  0.217518  1
  Tm  Tm7  1  0.312103  0.750287  0.281419  1
  Tm  Tm8  1  0.679007  0.250065  0.712538  1
  Tm  Tm9  1  0.807119  0.565303  0.940769  1
  Tm  Tm10  1  0.686211  0.071365  0.444070  1
  Tm  Tm11  1  0.192591  0.434349  0.059980  1
  Tm  Tm12  1  0.685574  0.428465  0.444109  1
  Tm  Tm13  1  0.307348  0.553366  0.559082  1
  Lu  Lu14  1  0.036332  0.250000  0.510288  1
  Lu  Lu15  1  0.978386  0.749962  0.489358  1
  Lu  Lu16  1  0.476087  0.750106  0.010373  1
  Lu  Lu17  1  0.193937  0.066916  0.060625  1
  Lu  Lu18  1  0.805847  0.933517  0.940331  1
  Lu  Lu19  1  0.306910  0.945707  0.559183  1
  Al  Al20  1  0.407292  0.248772  0.541493  1
  Bi  Bi21  1  0.594850  0.750252  0.457374  1
  Bi  Bi22  1  0.095396  0.751822  0.042985  1
  Bi  Bi23  1  0.907017  0.248103  0.955223  1
  Bi  Bi24  1  0.063983  0.002864  0.325150  1
  Bi  Bi25  1  0.934804  0.996656  0.674628  1
  Bi  Bi26  1  0.434628  0.996459  0.825386  1
  Bi  Bi27  1  0.934256  0.503598  0.674596  1
  Bi  Bi28  1  0.564710  0.003622  0.173763  1
  Bi  Bi29  1  0.064544  0.497373  0.325371  1
  Bi  Bi30  1  0.565166  0.496393  0.173690  1
  Bi  Bi31  1  0.434289  0.503825  0.825545  1
