# generated using pymatgen
data_Pr4Nd2In7Sn3
_symmetry_space_group_name_H-M   'P 1'
_cell_length_a   6.65461708
_cell_length_b   6.67731150
_cell_length_c   10.44638900
_cell_angle_alpha   90.00000000
_cell_angle_beta   90.00000000
_cell_angle_gamma   102.42306732
_symmetry_Int_Tables_number   1
_chemical_formula_structural   Pr4Nd2In7Sn3
_chemical_formula_sum   'Pr4 Nd2 In7 Sn3'
_cell_volume   453.31624488
_cell_formula_units_Z   1
loop_
 _symmetry_equiv_pos_site_id
 _symmetry_equiv_pos_as_xyz
  1  'x, y, z'
loop_
 _atom_site_type_symbol
 _atom_site_label
 _atom_site_symmetry_multiplicity
 _atom_site_fract_x
 _atom_site_fract_y
 _atom_site_fract_z
 _atom_site_occupancy
  Pr  Pr0  1  0.203625  0.791775  0.502514  1
  Pr  Pr1  1  0.203625  0.791775  0.997486  1
  Pr  Pr2  1  0.797152  0.209802  0.501500  1
  Pr  Pr3  1  0.797152  0.209802  0.998500  1
  Nd  Nd4  1  0.633142  0.625837  0.250000  1
  Nd  Nd5  1  0.366687  0.371233  0.750000  1
  In  In6  1  0.009373  0.015253  0.250000  1
  In  In7  1  0.982864  0.986027  0.750000  1
  In  In8  1  0.311472  0.302987  0.050711  1
  In  In9  1  0.690288  0.697519  0.954243  1
  In  In10  1  0.311472  0.302987  0.449289  1
  In  In11  1  0.690288  0.697519  0.545757  1
  In  In12  1  0.498597  0.063812  0.250000  1
  Sn  Sn13  1  0.925924  0.507478  0.750000  1
  Sn  Sn14  1  0.504005  0.930170  0.750000  1
  Sn  Sn15  1  0.074335  0.496024  0.250000  1
