# generated using pymatgen
data_K6Si2Se7
_symmetry_space_group_name_H-M   'P 1'
_cell_length_a   11.23409200
_cell_length_b   8.27184382
_cell_length_c   13.33266727
_cell_angle_alpha   55.56770627
_cell_angle_beta   90.00000000
_cell_angle_gamma   90.00000000
_symmetry_Int_Tables_number   1
_chemical_formula_structural   K6Si2Se7
_chemical_formula_sum   'K12 Si4 Se14'
_cell_volume   1021.88806694
_cell_formula_units_Z   2
loop_
 _symmetry_equiv_pos_site_id
 _symmetry_equiv_pos_as_xyz
  1  'x, y, z'
loop_
 _atom_site_type_symbol
 _atom_site_label
 _atom_site_symmetry_multiplicity
 _atom_site_fract_x
 _atom_site_fract_y
 _atom_site_fract_z
 _atom_site_occupancy
  K  K0  1  0.540414  0.420167  0.202681  1
  K  K1  1  0.039346  0.542645  0.317578  1
  K  K2  1  0.927278  0.007981  0.898139  1
  K  K3  1  0.072722  0.007981  0.398139  1
  K  K4  1  0.720641  0.812594  0.403567  1
  K  K5  1  0.279359  0.812594  0.903567  1
  K  K6  1  0.765446  0.156548  0.586623  1
  K  K7  1  0.234554  0.156548  0.086623  1
  K  K8  1  0.574690  0.013324  0.064649  1
  K  K9  1  0.425310  0.013324  0.564649  1
  K  K10  1  0.960654  0.542645  0.817578  1
  K  K11  1  0.459586  0.420167  0.702681  1
  Si  Si12  1  0.389034  0.681287  0.357069  1
  Si  Si13  1  0.878095  0.333965  0.134433  1
  Si  Si14  1  0.121905  0.333965  0.634433  1
  Si  Si15  1  0.610966  0.681287  0.857069  1
  Se  Se16  1  0.688021  0.700686  0.693717  1
  Se  Se17  1  0.541323  0.465065  0.439848  1
  Se  Se18  1  0.761374  0.621936  0.001039  1
  Se  Se19  1  0.238626  0.621936  0.501039  1
  Se  Se20  1  0.064521  0.467562  0.092981  1
  Se  Se21  1  0.935479  0.467562  0.592981  1
  Se  Se22  1  0.862743  0.079821  0.113186  1
  Se  Se23  1  0.137257  0.079821  0.613186  1
  Se  Se24  1  0.819342  0.244911  0.322639  1
  Se  Se25  1  0.180658  0.244911  0.822639  1
  Se  Se26  1  0.458677  0.465065  0.939848  1
  Se  Se27  1  0.438298  0.981308  0.315447  1
  Se  Se28  1  0.311979  0.700686  0.193717  1
  Se  Se29  1  0.561702  0.981308  0.815447  1
