# generated using pymatgen
data_Cs4U2Si8O23
_symmetry_space_group_name_H-M   'P 1'
_cell_length_a   7.10616411
_cell_length_b   8.14454500
_cell_length_c   11.67849319
_cell_angle_alpha   103.54210827
_cell_angle_beta   90.09788912
_cell_angle_gamma   106.23992129
_symmetry_Int_Tables_number   1
_chemical_formula_structural   Cs4U2Si8O23
_chemical_formula_sum   'Cs4 U2 Si8 O23'
_cell_volume   629.26192332
_cell_formula_units_Z   1
loop_
 _symmetry_equiv_pos_site_id
 _symmetry_equiv_pos_as_xyz
  1  'x, y, z'
loop_
 _atom_site_type_symbol
 _atom_site_label
 _atom_site_symmetry_multiplicity
 _atom_site_fract_x
 _atom_site_fract_y
 _atom_site_fract_z
 _atom_site_occupancy
  Cs  Cs0  1  0.798300  0.221048  0.990785  1
  Cs  Cs1  1  0.171887  0.718372  0.364109  1
  Cs  Cs2  1  0.828113  0.281628  0.635891  1
  Cs  Cs3  1  0.201700  0.778952  0.009215  1
  U  U4  1  0.702423  0.750574  0.187950  1
  U  U5  1  0.297577  0.249426  0.812050  1
  Si  Si6  1  0.334792  0.325252  0.134854  1
  Si  Si7  1  0.568080  0.148469  0.288698  1
  Si  Si8  1  0.646000  0.697062  0.505456  1
  Si  Si9  1  0.987198  0.807990  0.702674  1
  Si  Si10  1  0.431920  0.851531  0.711302  1
  Si  Si11  1  0.012802  0.192010  0.297326  1
  Si  Si12  1  0.354000  0.302938  0.494544  1
  Si  Si13  1  0.665208  0.674748  0.865146  1
  O  O14  1  0.460272  0.162790  0.413848  1
  O  O15  1  0.516862  0.750947  0.795527  1
  O  O16  1  0.865762  0.598556  0.151821  1
  O  O17  1  0.294411  0.211718  0.998648  1
  O  O18  1  0.873889  0.701523  0.797757  1
  O  O19  1  0.470663  0.059228  0.775564  1
  O  O20  1  0.424149  0.536066  0.148802  1
  O  O21  1  0.680754  0.735013  0.377699  1
  O  O22  1  0.575851  0.463934  0.851198  1
  O  O23  1  0.140804  0.278669  0.426069  1
  O  O24  1  0.529337  0.940772  0.224436  1
  O  O25  1  0.705589  0.788282  0.001352  1
  O  O26  1  0.126111  0.298477  0.202243  1
  O  O27  1  0.194472  0.754135  0.680755  1
  O  O28  1  0.974915  0.982211  0.249947  1
  O  O29  1  0.859196  0.721331  0.573931  1
  O  O30  1  0.500000  0.500000  0.500000  1
  O  O31  1  0.483138  0.249053  0.204473  1
  O  O32  1  0.134238  0.401444  0.848179  1
  O  O33  1  0.025085  0.017789  0.750053  1
  O  O34  1  0.805528  0.245865  0.319245  1
  O  O35  1  0.319246  0.264987  0.622301  1
  O  O36  1  0.539728  0.837210  0.586152  1
