# generated using pymatgen
data_PrDyZn5Sn
_symmetry_space_group_name_H-M   'P 1'
_cell_length_a   8.48422071
_cell_length_b   8.48422132
_cell_length_c   9.03599700
_cell_angle_alpha   90.00000000
_cell_angle_beta   90.00000000
_cell_angle_gamma   149.72449154
_symmetry_Int_Tables_number   1
_chemical_formula_structural   PrDyZn5Sn
_chemical_formula_sum   'Pr2 Dy2 Zn10 Sn2'
_cell_volume   327.91941372
_cell_formula_units_Z   2
loop_
 _symmetry_equiv_pos_site_id
 _symmetry_equiv_pos_as_xyz
  1  'x, y, z'
loop_
 _atom_site_type_symbol
 _atom_site_label
 _atom_site_symmetry_multiplicity
 _atom_site_fract_x
 _atom_site_fract_y
 _atom_site_fract_z
 _atom_site_occupancy
  Pr  Pr0  1  0.000000  0.000000  0.500000  1
  Pr  Pr1  1  0.000000  0.000000  0.000000  1
  Dy  Dy2  1  0.205378  0.794622  0.250000  1
  Dy  Dy3  1  0.794622  0.205378  0.750000  1
  Zn  Zn4  1  0.812489  0.187511  0.390561  1
  Zn  Zn5  1  0.187511  0.812489  0.609439  1
  Zn  Zn6  1  0.812489  0.187511  0.109439  1
  Zn  Zn7  1  0.187511  0.812489  0.890561  1
  Zn  Zn8  1  0.657939  0.342061  0.482472  1
  Zn  Zn9  1  0.342061  0.657939  0.517528  1
  Zn  Zn10  1  0.657939  0.342061  0.017528  1
  Zn  Zn11  1  0.342061  0.657939  0.982472  1
  Zn  Zn12  1  0.394196  0.605804  0.250000  1
  Zn  Zn13  1  0.605804  0.394196  0.750000  1
  Sn  Sn14  1  0.557064  0.442936  0.250000  1
  Sn  Sn15  1  0.442936  0.557064  0.750000  1
