# generated using pymatgen
data_Cs4Mn3FeS8
_symmetry_space_group_name_H-M   'P 1'
_cell_length_a   5.39829887
_cell_length_b   7.32189383
_cell_length_c   12.43587441
_cell_angle_alpha   88.03984014
_cell_angle_beta   83.50812113
_cell_angle_gamma   79.60624892
_symmetry_Int_Tables_number   1
_chemical_formula_structural   Cs4Mn3FeS8
_chemical_formula_sum   'Cs4 Mn3 Fe1 S8'
_cell_volume   480.32394661
_cell_formula_units_Z   1
loop_
 _symmetry_equiv_pos_site_id
 _symmetry_equiv_pos_as_xyz
  1  'x, y, z'
loop_
 _atom_site_type_symbol
 _atom_site_label
 _atom_site_symmetry_multiplicity
 _atom_site_fract_x
 _atom_site_fract_y
 _atom_site_fract_z
 _atom_site_occupancy
  Cs  Cs0  1  0.071046  0.028055  0.676825  1
  Cs  Cs1  1  0.576483  0.527739  0.174711  1
  Cs  Cs2  1  0.427798  0.471232  0.824876  1
  Cs  Cs3  1  0.924785  0.972194  0.323260  1
  Mn  Mn4  1  0.250164  0.499288  0.499662  1
  Mn  Mn5  1  0.749379  0.501286  0.500395  1
  Mn  Mn6  1  0.249688  0.001592  0.000627  1
  Fe  Fe7  1  0.750835  0.997917  0.999325  1
  S  S8  1  0.951886  0.558348  0.635502  1
  S  S9  1  0.446125  0.059391  0.133704  1
  S  S10  1  0.958486  0.229864  0.962127  1
  S  S11  1  0.451095  0.732862  0.461790  1
  S  S12  1  0.540492  0.940548  0.866332  1
  S  S13  1  0.047835  0.442094  0.364533  1
  S  S14  1  0.548171  0.267686  0.538262  1
  S  S15  1  0.055729  0.769901  0.038069  1
