# generated using pymatgen
data_Ho10Ga5PbO2
_symmetry_space_group_name_H-M   'P 1'
_cell_length_a   8.89011527
_cell_length_b   8.89011549
_cell_length_c   8.89011491
_cell_angle_alpha   127.91540154
_cell_angle_beta   127.91539631
_cell_angle_gamma   76.76211792
_symmetry_Int_Tables_number   1
_chemical_formula_structural   Ho10Ga5PbO2
_chemical_formula_sum   'Ho10 Ga5 Pb1 O2'
_cell_volume   424.65829958
_cell_formula_units_Z   1
loop_
 _symmetry_equiv_pos_site_id
 _symmetry_equiv_pos_as_xyz
  1  'x, y, z'
loop_
 _atom_site_type_symbol
 _atom_site_label
 _atom_site_symmetry_multiplicity
 _atom_site_fract_x
 _atom_site_fract_y
 _atom_site_fract_z
 _atom_site_occupancy
  Ho  Ho0  1  0.002231  0.192536  0.490826  1
  Ho  Ho1  1  0.798290  0.307464  0.809696  1
  Ho  Ho2  1  0.511406  0.002231  0.809696  1
  Ho  Ho3  1  0.497769  0.988594  0.190304  1
  Ho  Ho4  1  0.988594  0.798290  0.490826  1
  Ho  Ho5  1  0.504379  0.504379  0.000000  1
  Ho  Ho6  1  0.192536  0.701710  0.190304  1
  Ho  Ho7  1  0.701710  0.511406  0.509174  1
  Ho  Ho8  1  0.307464  0.497769  0.509174  1
  Ho  Ho9  1  0.995621  0.995621  0.000000  1
  Ga  Ga10  1  0.870430  0.370430  0.240861  1
  Ga  Ga11  1  0.129570  0.629570  0.759139  1
  Ga  Ga12  1  0.370430  0.129570  0.500000  1
  Ga  Ga13  1  0.750000  0.750000  0.000000  1
  Ga  Ga14  1  0.629570  0.870430  0.500000  1
  Pb  Pb15  1  0.250000  0.250000  0.000000  1
  O  O16  1  0.750000  0.250000  0.500000  1
  O  O17  1  0.250000  0.750000  0.500000  1
