# generated using pymatgen
data_LiPuThZn21
_symmetry_space_group_name_H-M   'P 1'
_cell_length_a   8.33889214
_cell_length_b   8.33889248
_cell_length_c   8.33889200
_cell_angle_alpha   99.81896119
_cell_angle_beta   99.81896161
_cell_angle_gamma   131.21822107
_symmetry_Int_Tables_number   1
_chemical_formula_structural   LiPuThZn21
_chemical_formula_sum   'Li1 Pu1 Th1 Zn21'
_cell_volume   397.24680436
_cell_formula_units_Z   1
loop_
 _symmetry_equiv_pos_site_id
 _symmetry_equiv_pos_as_xyz
  1  'x, y, z'
loop_
 _atom_site_type_symbol
 _atom_site_label
 _atom_site_symmetry_multiplicity
 _atom_site_fract_x
 _atom_site_fract_y
 _atom_site_fract_z
 _atom_site_occupancy
  Li  Li0  1  0.750000  0.250000  0.500000  1
  Pu  Pu1  1  0.250000  0.750000  0.500000  1
  Th  Th2  1  0.000000  0.000000  0.000000  1
  Zn  Zn3  1  0.500000  0.500000  0.000000  1
  Zn  Zn4  1  0.120210  0.372328  0.747882  1
  Zn  Zn5  1  0.627672  0.879790  0.252118  1
  Zn  Zn6  1  0.627672  0.375554  0.747882  1
  Zn  Zn7  1  0.624446  0.372328  0.252118  1
  Zn  Zn8  1  0.181176  0.507848  0.085280  1
  Zn  Zn9  1  0.181176  0.095897  0.673328  1
  Zn  Zn10  1  0.757016  0.930157  0.584715  1
  Zn  Zn11  1  0.757016  0.172302  0.826859  1
  Zn  Zn12  1  0.422569  0.507848  0.326672  1
  Zn  Zn13  1  0.422569  0.095897  0.914720  1
  Zn  Zn14  1  0.345443  0.930157  0.173141  1
  Zn  Zn15  1  0.345443  0.172302  0.415285  1
  Zn  Zn16  1  0.069843  0.242984  0.415285  1
  Zn  Zn17  1  0.069843  0.654557  0.826859  1
  Zn  Zn18  1  0.492152  0.818824  0.914720  1
  Zn  Zn19  1  0.492152  0.577431  0.673328  1
  Zn  Zn20  1  0.827698  0.242984  0.173141  1
  Zn  Zn21  1  0.827698  0.654557  0.584715  1
  Zn  Zn22  1  0.904103  0.818824  0.326672  1
  Zn  Zn23  1  0.904103  0.577431  0.085280  1
