# generated using pymatgen
data_Re2Tc3Pt2W
_symmetry_space_group_name_H-M   'P 1'
_cell_length_a   5.60947906
_cell_length_b   5.59636425
_cell_length_c   4.43159700
_cell_angle_alpha   90.00000000
_cell_angle_beta   90.00000000
_cell_angle_gamma   120.06096790
_symmetry_Int_Tables_number   1
_chemical_formula_structural   Re2Tc3Pt2W
_chemical_formula_sum   'Re2 Tc3 Pt2 W1'
_cell_volume   120.40714479
_cell_formula_units_Z   1
loop_
 _symmetry_equiv_pos_site_id
 _symmetry_equiv_pos_as_xyz
  1  'x, y, z'
loop_
 _atom_site_type_symbol
 _atom_site_label
 _atom_site_symmetry_multiplicity
 _atom_site_fract_x
 _atom_site_fract_y
 _atom_site_fract_z
 _atom_site_occupancy
  Re  Re0  1  0.683589  0.842244  0.250000  1
  Re  Re1  1  0.843727  0.684677  0.750000  1
  Tc  Tc2  1  0.158585  0.842281  0.250000  1
  Tc  Tc3  1  0.314575  0.153682  0.750000  1
  Tc  Tc4  1  0.839475  0.155134  0.750000  1
  Pt  Pt5  1  0.333255  0.667625  0.750000  1
  Pt  Pt6  1  0.666041  0.333977  0.250000  1
  W  W7  1  0.160752  0.320383  0.250000  1
