# generated using pymatgen
data_HoU(FeB4)2
_symmetry_space_group_name_H-M   'P 1'
_cell_length_a   3.37266200
_cell_length_b   5.87504452
_cell_length_c   11.36357701
_cell_angle_alpha   89.95181055
_cell_angle_beta   90.00000000
_cell_angle_gamma   90.00000000
_symmetry_Int_Tables_number   1
_chemical_formula_structural   HoU(FeB4)2
_chemical_formula_sum   'Ho2 U2 Fe4 B16'
_cell_volume   225.16396464
_cell_formula_units_Z   2
loop_
 _symmetry_equiv_pos_site_id
 _symmetry_equiv_pos_as_xyz
  1  'x, y, z'
loop_
 _atom_site_type_symbol
 _atom_site_label
 _atom_site_symmetry_multiplicity
 _atom_site_fract_x
 _atom_site_fract_y
 _atom_site_fract_z
 _atom_site_occupancy
  Ho  Ho0  1  0.500000  0.126643  0.648672  1
  Ho  Ho1  1  0.500000  0.873357  0.351328  1
  U  U2  1  0.500000  0.373640  0.151031  1
  U  U3  1  0.500000  0.626360  0.848969  1
  Fe  Fe4  1  0.500000  0.367086  0.408853  1
  Fe  Fe5  1  0.500000  0.632914  0.591147  1
  Fe  Fe6  1  0.500000  0.134193  0.910668  1
  Fe  Fe7  1  0.500000  0.865807  0.089332  1
  B  B8  1  0.000000  0.112732  0.046225  1
  B  B9  1  0.000000  0.887268  0.953775  1
  B  B10  1  0.000000  0.387532  0.545392  1
  B  B11  1  0.000000  0.612468  0.454608  1
  B  B12  1  0.000000  0.139249  0.467779  1
  B  B13  1  0.000000  0.860751  0.532221  1
  B  B14  1  0.000000  0.363950  0.966166  1
  B  B15  1  0.000000  0.636050  0.033834  1
  B  B16  1  0.000000  0.024447  0.190719  1
  B  B17  1  0.000000  0.975553  0.809281  1
  B  B18  1  0.000000  0.475168  0.690282  1
  B  B19  1  0.000000  0.524832  0.309718  1
  B  B20  1  0.000000  0.218041  0.315091  1
  B  B21  1  0.000000  0.781959  0.684909  1
  B  B22  1  0.000000  0.283124  0.815056  1
  B  B23  1  0.000000  0.716876  0.184944  1
