# generated using pymatgen
data_GdPaS6
_symmetry_space_group_name_H-M   'P 1'
_cell_length_a   9.90399207
_cell_length_b   9.90399103
_cell_length_c   4.02507600
_cell_angle_alpha   90.00000000
_cell_angle_beta   90.00000000
_cell_angle_gamma   148.25502960
_symmetry_Int_Tables_number   1
_chemical_formula_structural   GdPaS6
_chemical_formula_sum   'Gd1 Pa1 S6'
_cell_volume   207.72813861
_cell_formula_units_Z   1
loop_
 _symmetry_equiv_pos_site_id
 _symmetry_equiv_pos_as_xyz
  1  'x, y, z'
loop_
 _atom_site_type_symbol
 _atom_site_label
 _atom_site_symmetry_multiplicity
 _atom_site_fract_x
 _atom_site_fract_y
 _atom_site_fract_z
 _atom_site_occupancy
  Gd  Gd0  1  0.675751  0.324249  0.749999  1
  Pa  Pa1  1  0.317926  0.682074  0.249999  1
  S  S2  1  0.786743  0.213257  0.249999  1
  S  S3  1  0.400593  0.212562  0.249999  1
  S  S4  1  0.787437  0.599407  0.249999  1
  S  S5  1  0.212186  0.406216  0.749999  1
  S  S6  1  0.593784  0.787813  0.749999  1
  S  S7  1  0.225580  0.774420  0.749999  1
