# generated using pymatgen
data_ErTm3Ga4(CuIr)2
_symmetry_space_group_name_H-M   'P 1'
_cell_length_a   4.33767800
_cell_length_b   6.83316601
_cell_length_c   7.54062501
_cell_angle_alpha   89.99464510
_cell_angle_beta   90.00000000
_cell_angle_gamma   90.00000000
_symmetry_Int_Tables_number   1
_chemical_formula_structural   ErTm3Ga4(CuIr)2
_chemical_formula_sum   'Er1 Tm3 Ga4 Cu2 Ir2'
_cell_volume   223.50468123
_cell_formula_units_Z   1
loop_
 _symmetry_equiv_pos_site_id
 _symmetry_equiv_pos_as_xyz
  1  'x, y, z'
loop_
 _atom_site_type_symbol
 _atom_site_label
 _atom_site_symmetry_multiplicity
 _atom_site_fract_x
 _atom_site_fract_y
 _atom_site_fract_z
 _atom_site_occupancy
  Er  Er0  1  0.750000  0.521950  0.810224  1
  Tm  Tm1  1  0.250000  0.991975  0.295656  1
  Tm  Tm2  1  0.250000  0.492185  0.204576  1
  Tm  Tm3  1  0.750000  0.022025  0.689331  1
  Ga  Ga4  1  0.250000  0.323362  0.582027  1
  Ga  Ga5  1  0.250000  0.824499  0.917249  1
  Ga  Ga6  1  0.750000  0.676829  0.431091  1
  Ga  Ga7  1  0.750000  0.176346  0.068458  1
  Cu  Cu8  1  0.250000  0.209004  0.903179  1
  Cu  Cu9  1  0.250000  0.710895  0.597757  1
  Ir  Ir10  1  0.750000  0.775931  0.100672  1
  Ir  Ir11  1  0.750000  0.274997  0.399781  1
