# generated using pymatgen
data_CePr3F12
_symmetry_space_group_name_H-M   'P 1'
_cell_length_a   4.50277500
_cell_length_b   7.28671900
_cell_length_c   6.90439700
_cell_angle_alpha   90.00000000
_cell_angle_beta   89.99995631
_cell_angle_gamma   90.00000000
_symmetry_Int_Tables_number   1
_chemical_formula_structural   CePr3F12
_chemical_formula_sum   'Ce1 Pr3 F12'
_cell_volume   226.53641501
_cell_formula_units_Z   1
loop_
 _symmetry_equiv_pos_site_id
 _symmetry_equiv_pos_as_xyz
  1  'x, y, z'
loop_
 _atom_site_type_symbol
 _atom_site_label
 _atom_site_symmetry_multiplicity
 _atom_site_fract_x
 _atom_site_fract_y
 _atom_site_fract_z
 _atom_site_occupancy
  Ce  Ce0  1  0.558436  0.000000  0.132492  1
  Pr  Pr1  1  0.063078  0.499999  0.366702  1
  Pr  Pr2  1  0.936018  0.000000  0.632585  1
  Pr  Pr3  1  0.436245  0.499999  0.866467  1
  F  F4  1  0.931670  0.499999  0.017761  1
  F  F5  1  0.402218  0.318277  0.165264  1
  F  F6  1  0.402218  0.681723  0.165264  1
  F  F7  1  0.902235  0.183141  0.335222  1
  F  F8  1  0.902235  0.816858  0.335222  1
  F  F9  1  0.432014  0.000000  0.483978  1
  F  F10  1  0.568365  0.499999  0.517955  1
  F  F11  1  0.098607  0.317059  0.665291  1
  F  F12  1  0.098607  0.682941  0.665291  1
  F  F13  1  0.598654  0.183137  0.834931  1
  F  F14  1  0.598654  0.816862  0.834931  1
  F  F15  1  0.070742  0.000000  0.980642  1
