# generated using pymatgen
data_Ho2Mn4Fe7CoP7
_symmetry_space_group_name_H-M   'P 1'
_cell_length_a   9.08793634
_cell_length_b   9.05130392
_cell_length_c   3.59830300
_cell_angle_alpha   90.00000000
_cell_angle_beta   90.00000000
_cell_angle_gamma   119.43642340
_symmetry_Int_Tables_number   1
_chemical_formula_structural   Ho2Mn4Fe7CoP7
_chemical_formula_sum   'Ho2 Mn4 Fe7 Co1 P7'
_cell_volume   257.77644200
_cell_formula_units_Z   1
loop_
 _symmetry_equiv_pos_site_id
 _symmetry_equiv_pos_as_xyz
  1  'x, y, z'
loop_
 _atom_site_type_symbol
 _atom_site_label
 _atom_site_symmetry_multiplicity
 _atom_site_fract_x
 _atom_site_fract_y
 _atom_site_fract_z
 _atom_site_occupancy
  Ho  Ho0  1  0.660555  0.329232  0.000000  1
  Ho  Ho1  1  0.338172  0.669933  0.500000  1
  Mn  Mn2  1  0.951851  0.562774  0.500000  1
  Mn  Mn3  1  0.106851  0.230916  0.500000  1
  Mn  Mn4  1  0.776080  0.879093  0.500000  1
  Mn  Mn5  1  0.123118  0.896247  0.500000  1
  Fe  Fe6  1  0.052605  0.429275  0.000000  1
  Fe  Fe7  1  0.571587  0.629564  0.000000  1
  Fe  Fe8  1  0.372190  0.945605  0.000000  1
  Fe  Fe9  1  0.272496  0.155366  0.000000  1
  Fe  Fe10  1  0.846990  0.118426  0.000000  1
  Fe  Fe11  1  0.880384  0.721361  0.000000  1
  Fe  Fe12  1  0.613359  0.048829  0.500000  1
  Co  Co13  1  0.434912  0.384239  0.500000  1
  P  P14  1  0.300612  0.413304  0.000000  1
  P  P15  1  0.588783  0.890326  0.000000  1
  P  P16  1  0.123397  0.710874  0.000000  1
  P  P17  1  0.404940  0.115473  0.500000  1
  P  P18  1  0.874139  0.278709  0.500000  1
  P  P19  1  0.706631  0.592933  0.500000  1
  P  P20  1  0.000348  0.997523  0.000000  1
