# generated using pymatgen
data_HoEr3Tm4(ReB6)4
_symmetry_space_group_name_H-M   'P 1'
_cell_length_a   3.64991900
_cell_length_b   9.11492400
_cell_length_c   11.48757200
_cell_angle_alpha   90.00082890
_cell_angle_beta   90.00009517
_cell_angle_gamma   90.00118695
_symmetry_Int_Tables_number   1
_chemical_formula_structural   HoEr3Tm4(ReB6)4
_chemical_formula_sum   'Ho1 Er3 Tm4 Re4 B24'
_cell_volume   382.17698053
_cell_formula_units_Z   1
loop_
 _symmetry_equiv_pos_site_id
 _symmetry_equiv_pos_as_xyz
  1  'x, y, z'
loop_
 _atom_site_type_symbol
 _atom_site_label
 _atom_site_symmetry_multiplicity
 _atom_site_fract_x
 _atom_site_fract_y
 _atom_site_fract_z
 _atom_site_occupancy
  Ho  Ho0  1  0.000006  0.176708  0.913879  1
  Er  Er1  1  0.999985  0.323340  0.413918  1
  Er  Er2  1  0.000006  0.676628  0.586123  1
  Er  Er3  1  0.999995  0.823352  0.086085  1
  Tm  Tm4  1  0.999999  0.943289  0.370252  1
  Tm  Tm5  1  0.000000  0.056713  0.629709  1
  Tm  Tm6  1  0.999994  0.443305  0.129727  1
  Tm  Tm7  1  0.000005  0.556783  0.870281  1
  Re  Re8  1  0.999994  0.638883  0.320579  1
  Re  Re9  1  0.000002  0.361142  0.679369  1
  Re  Re10  1  0.000006  0.138897  0.179501  1
  Re  Re11  1  0.999995  0.860987  0.820568  1
  B  B12  1  0.500006  0.553229  0.433160  1
  B  B13  1  0.499989  0.446722  0.566895  1
  B  B14  1  0.500000  0.053254  0.066887  1
  B  B15  1  0.500003  0.946668  0.933140  1
  B  B16  1  0.499992  0.750075  0.418951  1
  B  B17  1  0.499996  0.249915  0.581108  1
  B  B18  1  0.499996  0.250076  0.081081  1
  B  B19  1  0.500007  0.749967  0.918979  1
  B  B20  1  0.500007  0.792825  0.265204  1
  B  B21  1  0.500009  0.207219  0.734740  1
  B  B22  1  0.499990  0.292799  0.234674  1
  B  B23  1  0.499995  0.707221  0.765269  1
  B  B24  1  0.500012  0.630650  0.184958  1
  B  B25  1  0.499993  0.369391  0.815012  1
  B  B26  1  0.500004  0.130665  0.314967  1
  B  B27  1  0.500006  0.869389  0.685009  1
  B  B28  1  0.500006  0.981641  0.212100  1
  B  B29  1  0.499994  0.018267  0.787823  1
  B  B30  1  0.499996  0.481614  0.287818  1
  B  B31  1  0.499997  0.518319  0.712221  1
  B  B32  1  0.500015  0.599361  0.027711  1
  B  B33  1  0.499996  0.400677  0.972281  1
  B  B34  1  0.500006  0.099342  0.472289  1
  B  B35  1  0.499996  0.900685  0.527729  1
