# generated using pymatgen
data_TaNb5(SiMo)6
_symmetry_space_group_name_H-M   'P 1'
_cell_length_a   7.71873713
_cell_length_b   7.71870209
_cell_length_c   7.71873776
_cell_angle_alpha   126.57960679
_cell_angle_beta   128.34617969
_cell_angle_gamma   77.50533657
_symmetry_Int_Tables_number   1
_chemical_formula_structural   TaNb5(SiMo)6
_chemical_formula_sum   'Ta1 Nb5 Si6 Mo6'
_cell_volume   280.90591585
_cell_formula_units_Z   1
loop_
 _symmetry_equiv_pos_site_id
 _symmetry_equiv_pos_as_xyz
  1  'x, y, z'
loop_
 _atom_site_type_symbol
 _atom_site_label
 _atom_site_symmetry_multiplicity
 _atom_site_fract_x
 _atom_site_fract_y
 _atom_site_fract_z
 _atom_site_occupancy
  Ta  Ta0  1  0.249260  0.899533  0.150273  1
  Nb  Nb1  1  0.549031  0.093633  0.044603  1
  Nb  Nb2  1  0.451431  0.496461  0.545029  1
  Nb  Nb3  1  0.951931  0.494732  0.042799  1
  Nb  Nb4  1  0.047625  0.091052  0.543428  1
  Nb  Nb5  1  0.750693  0.902427  0.651733  1
  Si  Si6  1  0.750599  0.498332  0.247732  1
  Si  Si7  1  0.249454  0.497213  0.747759  1
  Si  Si8  1  0.333956  0.829705  0.497242  1
  Si  Si9  1  0.665318  0.163251  0.495062  1
  Si  Si10  1  0.832463  0.829705  0.995748  1
  Si  Si11  1  0.168190  0.163251  0.997933  1
  Mo  Mo12  1  0.499443  0.238361  0.737815  1
  Mo  Mo13  1  0.000546  0.238361  0.238917  1
  Mo  Mo14  1  0.130140  0.755837  0.627373  1
  Mo  Mo15  1  0.870461  0.497254  0.626260  1
  Mo  Mo16  1  0.628464  0.755837  0.125697  1
  Mo  Mo17  1  0.370993  0.497254  0.126793  1
