# generated using pymatgen
data_Hf5BSb3
_symmetry_space_group_name_H-M   'P 1'
_cell_length_a   8.43152300
_cell_length_b   8.43152352
_cell_length_c   5.74239500
_cell_angle_alpha   90.00000000
_cell_angle_beta   90.00000000
_cell_angle_gamma   119.99999404
_symmetry_Int_Tables_number   1
_chemical_formula_structural   Hf5BSb3
_chemical_formula_sum   'Hf10 B2 Sb6'
_cell_volume   353.53775968
_cell_formula_units_Z   2
loop_
 _symmetry_equiv_pos_site_id
 _symmetry_equiv_pos_as_xyz
  1  'x, y, z'
loop_
 _atom_site_type_symbol
 _atom_site_label
 _atom_site_symmetry_multiplicity
 _atom_site_fract_x
 _atom_site_fract_y
 _atom_site_fract_z
 _atom_site_occupancy
  Hf  Hf0  1  0.231639  0.000000  0.750000  1
  Hf  Hf1  1  0.768361  0.000000  0.250000  1
  Hf  Hf2  1  0.000000  0.231639  0.750000  1
  Hf  Hf3  1  0.000000  0.768361  0.250000  1
  Hf  Hf4  1  0.768361  0.768361  0.750000  1
  Hf  Hf5  1  0.231639  0.231639  0.250000  1
  Hf  Hf6  1  0.333333  0.666667  0.500000  1
  Hf  Hf7  1  0.666667  0.333333  0.500000  1
  Hf  Hf8  1  0.666667  0.333333  0.000000  1
  Hf  Hf9  1  0.333333  0.666667  0.000000  1
  B  B10  1  0.000000  0.000000  0.500000  1
  B  B11  1  0.000000  0.000000  0.000000  1
  Sb  Sb12  1  0.599650  0.000000  0.750000  1
  Sb  Sb13  1  0.400350  0.000000  0.250000  1
  Sb  Sb14  1  0.000000  0.599650  0.750000  1
  Sb  Sb15  1  0.000000  0.400350  0.250000  1
  Sb  Sb16  1  0.400350  0.400350  0.750000  1
  Sb  Sb17  1  0.599650  0.599650  0.250000  1
