# generated using pymatgen
data_Y7Zr(Si4Tc3)4
_symmetry_space_group_name_H-M   'P 1'
_cell_length_a   6.78286341
_cell_length_b   6.77887579
_cell_length_c   12.71966400
_cell_angle_alpha   89.86387025
_cell_angle_beta   90.14056896
_cell_angle_gamma   90.20831479
_symmetry_Int_Tables_number   1
_chemical_formula_structural   Y7Zr(Si4Tc3)4
_chemical_formula_sum   'Y7 Zr1 Si16 Tc12'
_cell_volume   584.84528573
_cell_formula_units_Z   1
loop_
 _symmetry_equiv_pos_site_id
 _symmetry_equiv_pos_as_xyz
  1  'x, y, z'
loop_
 _atom_site_type_symbol
 _atom_site_label
 _atom_site_symmetry_multiplicity
 _atom_site_fract_x
 _atom_site_fract_y
 _atom_site_fract_z
 _atom_site_occupancy
  Y  Y0  1  0.004173  0.663258  0.030563  1
  Y  Y1  1  0.995797  0.336615  0.530554  1
  Y  Y2  1  0.661870  0.005601  0.968506  1
  Y  Y3  1  0.162105  0.492399  0.781095  1
  Y  Y4  1  0.836668  0.506583  0.282674  1
  Y  Y5  1  0.492948  0.162922  0.218575  1
  Y  Y6  1  0.505305  0.836118  0.718729  1
  Zr  Zr7  1  0.339938  0.990085  0.467591  1
  Si  Si8  1  0.023667  0.731111  0.438247  1
  Si  Si9  1  0.984036  0.268190  0.939649  1
  Si  Si10  1  0.724218  0.020725  0.561516  1
  Si  Si11  1  0.220665  0.478160  0.188477  1
  Si  Si12  1  0.774019  0.519071  0.686865  1
  Si  Si13  1  0.481717  0.226270  0.809844  1
  Si  Si14  1  0.522123  0.780322  0.315498  1
  Si  Si15  1  0.268672  0.983473  0.060827  1
  Si  Si16  1  0.887191  0.805010  0.813329  1
  Si  Si17  1  0.117622  0.192786  0.317598  1
  Si  Si18  1  0.804976  0.886330  0.186422  1
  Si  Si19  1  0.306828  0.615396  0.562471  1
  Si  Si20  1  0.692597  0.387237  0.063423  1
  Si  Si21  1  0.611595  0.302819  0.436921  1
  Si  Si22  1  0.387877  0.691654  0.937280  1
  Si  Si23  1  0.195803  0.113169  0.682675  1
  Tc  Tc24  1  0.320696  0.483831  0.377852  1
  Tc  Tc25  1  0.813119  0.023473  0.370647  1
  Tc  Tc26  1  0.978375  0.188562  0.132955  1
  Tc  Tc27  1  0.024624  0.814936  0.627940  1
  Tc  Tc28  1  0.686150  0.515459  0.878646  1
  Tc  Tc29  1  0.478055  0.311425  0.617703  1
  Tc  Tc30  1  0.512114  0.682056  0.125045  1
  Tc  Tc31  1  0.188680  0.978366  0.868112  1
  Tc  Tc32  1  0.661535  0.671008  0.499590  1
  Tc  Tc33  1  0.833946  0.163412  0.747810  1
  Tc  Tc34  1  0.165375  0.837445  0.254058  1
  Tc  Tc35  1  0.334916  0.334724  0.000309  1
