# generated using pymatgen
data_Ce3Ho(MgIr)4
_symmetry_space_group_name_H-M   'P 1'
_cell_length_a   7.09137990
_cell_length_b   4.08947500
_cell_length_c   8.68393423
_cell_angle_alpha   90.00000000
_cell_angle_beta   90.26080834
_cell_angle_gamma   90.00000000
_symmetry_Int_Tables_number   1
_chemical_formula_structural   Ce3Ho(MgIr)4
_chemical_formula_sum   'Ce3 Ho1 Mg4 Ir4'
_cell_volume   251.83166463
_cell_formula_units_Z   1
loop_
 _symmetry_equiv_pos_site_id
 _symmetry_equiv_pos_as_xyz
  1  'x, y, z'
loop_
 _atom_site_type_symbol
 _atom_site_label
 _atom_site_symmetry_multiplicity
 _atom_site_fract_x
 _atom_site_fract_y
 _atom_site_fract_z
 _atom_site_occupancy
  Ce  Ce0  1  0.462388  0.250000  0.314132  1
  Ce  Ce1  1  0.036259  0.750000  0.823949  1
  Ce  Ce2  1  0.535573  0.750000  0.681182  1
  Ho  Ho3  1  0.958658  0.250000  0.179468  1
  Mg  Mg4  1  0.865663  0.250000  0.556791  1
  Mg  Mg5  1  0.366042  0.250000  0.944146  1
  Mg  Mg6  1  0.130905  0.750000  0.438722  1
  Mg  Mg7  1  0.639201  0.750000  0.058677  1
  Ir  Ir8  1  0.759262  0.250000  0.866148  1
  Ir  Ir9  1  0.258199  0.250000  0.632807  1
  Ir  Ir10  1  0.248898  0.750000  0.131953  1
  Ir  Ir11  1  0.738952  0.750000  0.372026  1
