# generated using pymatgen
data_Pr8Be3Si12Au
_symmetry_space_group_name_H-M   'P 1'
_cell_length_a   8.07999300
_cell_length_b   8.07999344
_cell_length_c   8.68918500
_cell_angle_alpha   90.00000000
_cell_angle_beta   90.00000000
_cell_angle_gamma   119.99999409
_symmetry_Int_Tables_number   1
_chemical_formula_structural   Pr8Be3Si12Au
_chemical_formula_sum   'Pr8 Be3 Si12 Au1'
_cell_volume   491.28295227
_cell_formula_units_Z   1
loop_
 _symmetry_equiv_pos_site_id
 _symmetry_equiv_pos_as_xyz
  1  'x, y, z'
loop_
 _atom_site_type_symbol
 _atom_site_label
 _atom_site_symmetry_multiplicity
 _atom_site_fract_x
 _atom_site_fract_y
 _atom_site_fract_z
 _atom_site_occupancy
  Pr  Pr0  1  0.497817  0.502183  0.753616  1
  Pr  Pr1  1  0.497905  0.502095  0.246419  1
  Pr  Pr2  1  0.004365  0.502183  0.753616  1
  Pr  Pr3  1  0.004191  0.502095  0.246419  1
  Pr  Pr4  1  0.497817  0.995635  0.753616  1
  Pr  Pr5  1  0.497905  0.995809  0.246419  1
  Pr  Pr6  1  0.000000  0.000000  0.750993  1
  Pr  Pr7  1  0.000000  0.000000  0.249068  1
  Be  Be8  1  0.666667  0.333333  0.998993  1
  Be  Be9  1  0.333333  0.666667  0.000999  1
  Be  Be10  1  0.333333  0.666667  0.499491  1
  Si  Si11  1  0.828100  0.171900  0.000127  1
  Si  Si12  1  0.172367  0.827633  0.999996  1
  Si  Si13  1  0.343798  0.171900  0.000127  1
  Si  Si14  1  0.172182  0.827818  0.499885  1
  Si  Si15  1  0.655267  0.827633  0.999996  1
  Si  Si16  1  0.837452  0.162548  0.500132  1
  Si  Si17  1  0.828100  0.656202  0.000127  1
  Si  Si18  1  0.655636  0.827818  0.499885  1
  Si  Si19  1  0.172367  0.344733  0.999996  1
  Si  Si20  1  0.325097  0.162548  0.500132  1
  Si  Si21  1  0.172182  0.344364  0.499885  1
  Si  Si22  1  0.837452  0.674903  0.500132  1
  Au  Au23  1  0.666667  0.333333  0.499930  1
