# generated using pymatgen
data_Pr4Al2ZnIn4Cu17
_symmetry_space_group_name_H-M   'P 1'
_cell_length_a   5.14973300
_cell_length_b   8.39429226
_cell_length_c   10.75105920
_cell_angle_alpha   90.06496218
_cell_angle_beta   90.00000000
_cell_angle_gamma   90.00000000
_symmetry_Int_Tables_number   1
_chemical_formula_structural   Pr4Al2ZnIn4Cu17
_chemical_formula_sum   'Pr4 Al2 Zn1 In4 Cu17'
_cell_volume   464.75040032
_cell_formula_units_Z   1
loop_
 _symmetry_equiv_pos_site_id
 _symmetry_equiv_pos_as_xyz
  1  'x, y, z'
loop_
 _atom_site_type_symbol
 _atom_site_label
 _atom_site_symmetry_multiplicity
 _atom_site_fract_x
 _atom_site_fract_y
 _atom_site_fract_z
 _atom_site_occupancy
  Pr  Pr0  1  0.250000  0.754023  0.057844  1
  Pr  Pr1  1  0.750000  0.246961  0.935911  1
  Pr  Pr2  1  0.750000  0.744358  0.555097  1
  Pr  Pr3  1  0.250000  0.255601  0.449987  1
  Al  Al4  1  0.250000  0.815405  0.741165  1
  Al  Al5  1  0.750000  0.185136  0.258964  1
  Zn  Zn6  1  0.750000  0.684444  0.242502  1
  In  In7  1  0.250000  0.636208  0.362579  1
  In  In8  1  0.750000  0.362440  0.639523  1
  In  In9  1  0.750000  0.859929  0.863700  1
  In  In10  1  0.250000  0.138893  0.135896  1
  Cu  Cu11  1  0.250000  0.317015  0.755978  1
  Cu  Cu12  1  0.501142  0.566518  0.812441  1
  Cu  Cu13  1  0.497348  0.431890  0.187543  1
  Cu  Cu14  1  0.496366  0.935258  0.313249  1
  Cu  Cu15  1  0.002652  0.431890  0.187543  1
  Cu  Cu16  1  0.501934  0.066257  0.687129  1
  Cu  Cu17  1  0.998858  0.566518  0.812441  1
  Cu  Cu18  1  0.998066  0.066257  0.687129  1
  Cu  Cu19  1  0.003634  0.935258  0.313249  1
  Cu  Cu20  1  0.250000  0.559946  0.607268  1
  Cu  Cu21  1  0.750000  0.438497  0.394604  1
  Cu  Cu22  1  0.750000  0.943689  0.106746  1
  Cu  Cu23  1  0.250000  0.059234  0.891689  1
  Cu  Cu24  1  0.250000  0.913624  0.516082  1
  Cu  Cu25  1  0.750000  0.085493  0.484338  1
  Cu  Cu26  1  0.750000  0.582232  0.015480  1
  Cu  Cu27  1  0.250000  0.417026  0.983922  1
