# generated using pymatgen
data_Ti3Be2ZnO
_symmetry_space_group_name_H-M   'P 1'
_cell_length_a   7.80648447
_cell_length_b   7.80648446
_cell_length_c   7.80648400
_cell_angle_alpha   60.00000197
_cell_angle_beta   60.00000199
_cell_angle_gamma   60.00000131
_symmetry_Int_Tables_number   1
_chemical_formula_structural   Ti3Be2ZnO
_chemical_formula_sum   'Ti12 Be8 Zn4 O4'
_cell_volume   336.39651903
_cell_formula_units_Z   4
loop_
 _symmetry_equiv_pos_site_id
 _symmetry_equiv_pos_as_xyz
  1  'x, y, z'
loop_
 _atom_site_type_symbol
 _atom_site_label
 _atom_site_symmetry_multiplicity
 _atom_site_fract_x
 _atom_site_fract_y
 _atom_site_fract_z
 _atom_site_occupancy
  Ti  Ti0  1  0.814213  0.814213  0.185787  1
  Ti  Ti1  1  0.185787  0.185787  0.814213  1
  Ti  Ti2  1  0.814213  0.185787  0.814213  1
  Ti  Ti3  1  0.185787  0.814213  0.185787  1
  Ti  Ti4  1  0.185787  0.814213  0.814213  1
  Ti  Ti5  1  0.814213  0.185787  0.185787  1
  Ti  Ti6  1  0.435787  0.435787  0.064213  1
  Ti  Ti7  1  0.064213  0.064213  0.435787  1
  Ti  Ti8  1  0.435787  0.064213  0.435787  1
  Ti  Ti9  1  0.064213  0.435787  0.064213  1
  Ti  Ti10  1  0.064213  0.435787  0.435787  1
  Ti  Ti11  1  0.435787  0.064213  0.064213  1
  Be  Be12  1  0.734970  0.421677  0.421677  1
  Be  Be13  1  0.421677  0.734970  0.421677  1
  Be  Be14  1  0.421677  0.421677  0.734970  1
  Be  Be15  1  0.421677  0.421677  0.421677  1
  Be  Be16  1  0.515030  0.828323  0.828323  1
  Be  Be17  1  0.828323  0.515030  0.828323  1
  Be  Be18  1  0.828323  0.828323  0.515030  1
  Be  Be19  1  0.828323  0.828323  0.828323  1
  Zn  Zn20  1  0.125000  0.625000  0.625000  1
  Zn  Zn21  1  0.625000  0.125000  0.625000  1
  Zn  Zn22  1  0.625000  0.625000  0.125000  1
  Zn  Zn23  1  0.625000  0.625000  0.625000  1
  O  O24  1  0.625000  0.125000  0.125000  1
  O  O25  1  0.125000  0.625000  0.125000  1
  O  O26  1  0.125000  0.125000  0.625000  1
  O  O27  1  0.125000  0.125000  0.125000  1
