# generated using pymatgen
data_Tb7Er(Sc3Si4)4
_symmetry_space_group_name_H-M   'P 1'
_cell_length_a   7.10242426
_cell_length_b   7.39305748
_cell_length_c   14.01035680
_cell_angle_alpha   89.96643545
_cell_angle_beta   90.01937625
_cell_angle_gamma   90.02440673
_symmetry_Int_Tables_number   1
_chemical_formula_structural   Tb7Er(Sc3Si4)4
_chemical_formula_sum   'Tb7 Er1 Sc12 Si16'
_cell_volume   735.66441842
_cell_formula_units_Z   1
loop_
 _symmetry_equiv_pos_site_id
 _symmetry_equiv_pos_as_xyz
  1  'x, y, z'
loop_
 _atom_site_type_symbol
 _atom_site_label
 _atom_site_symmetry_multiplicity
 _atom_site_fract_x
 _atom_site_fract_y
 _atom_site_fract_z
 _atom_site_occupancy
  Tb  Tb0  1  0.011802  0.174870  0.096951  1
  Tb  Tb1  1  0.988225  0.825126  0.902940  1
  Tb  Tb2  1  0.488156  0.674853  0.903189  1
  Tb  Tb3  1  0.988105  0.824916  0.596969  1
  Tb  Tb4  1  0.511853  0.325191  0.096934  1
  Tb  Tb5  1  0.011922  0.174832  0.403168  1
  Tb  Tb6  1  0.511730  0.325255  0.403255  1
  Er  Er7  1  0.488108  0.675272  0.597206  1
  Sc  Sc8  1  0.160724  0.502675  0.749892  1
  Sc  Sc9  1  0.839489  0.497531  0.249970  1
  Sc  Sc10  1  0.339389  0.002549  0.250020  1
  Sc  Sc11  1  0.660405  0.997319  0.749842  1
  Sc  Sc12  1  0.330614  0.176847  0.625119  1
  Sc  Sc13  1  0.669322  0.823043  0.374932  1
  Sc  Sc14  1  0.169706  0.676697  0.374962  1
  Sc  Sc15  1  0.669505  0.823353  0.125121  1
  Sc  Sc16  1  0.830254  0.323624  0.625123  1
  Sc  Sc17  1  0.330424  0.176672  0.874779  1
  Sc  Sc18  1  0.830430  0.323300  0.874774  1
  Sc  Sc19  1  0.169567  0.676658  0.125123  1
  Si  Si20  1  0.033296  0.118104  0.749978  1
  Si  Si21  1  0.966649  0.881965  0.250046  1
  Si  Si22  1  0.466698  0.617991  0.250038  1
  Si  Si23  1  0.533199  0.382530  0.749779  1
  Si  Si24  1  0.286011  0.873814  0.749642  1
  Si  Si25  1  0.714478  0.125582  0.249982  1
  Si  Si26  1  0.214442  0.374376  0.249997  1
  Si  Si27  1  0.784923  0.625798  0.749615  1
  Si  Si28  1  0.158423  0.465141  0.539581  1
  Si  Si29  1  0.842271  0.535454  0.460701  1
  Si  Si30  1  0.342902  0.964007  0.460840  1
  Si  Si31  1  0.842663  0.535373  0.039374  1
  Si  Si32  1  0.657036  0.034652  0.539574  1
  Si  Si33  1  0.157238  0.464595  0.960584  1
  Si  Si34  1  0.657424  0.035375  0.960622  1
  Si  Si35  1  0.342616  0.964660  0.039377  1
