# generated using pymatgen
data_Pr3BiIr4F28
_symmetry_space_group_name_H-M   'P 1'
_cell_length_a   5.69639890
_cell_length_b   9.26061026
_cell_length_c   12.32468277
_cell_angle_alpha   61.97096500
_cell_angle_beta   90.13183123
_cell_angle_gamma   89.90948246
_symmetry_Int_Tables_number   1
_chemical_formula_structural   Pr3BiIr4F28
_chemical_formula_sum   'Pr3 Bi1 Ir4 F28'
_cell_volume   573.89238657
_cell_formula_units_Z   1
loop_
 _symmetry_equiv_pos_site_id
 _symmetry_equiv_pos_as_xyz
  1  'x, y, z'
loop_
 _atom_site_type_symbol
 _atom_site_label
 _atom_site_symmetry_multiplicity
 _atom_site_fract_x
 _atom_site_fract_y
 _atom_site_fract_z
 _atom_site_occupancy
  Pr  Pr0  1  0.260099  0.191840  0.734818  1
  Pr  Pr1  1  0.239847  0.189783  0.234933  1
  Pr  Pr2  1  0.739384  0.809345  0.265800  1
  Bi  Bi3  1  0.767476  0.819582  0.761706  1
  Ir  Ir4  1  0.755563  0.274022  0.956699  1
  Ir  Ir5  1  0.257150  0.726922  0.544351  1
  Ir  Ir6  1  0.242463  0.727249  0.040611  1
  Ir  Ir7  1  0.745350  0.272428  0.458506  1
  F  F8  1  0.431013  0.708072  0.915694  1
  F  F9  1  0.938269  0.291091  0.584581  1
  F  F10  1  0.565502  0.291248  0.083088  1
  F  F11  1  0.066137  0.708217  0.418023  1
  F  F12  1  0.454532  0.280600  0.543144  1
  F  F13  1  0.946366  0.720010  0.956558  1
  F  F14  1  0.548361  0.717268  0.460224  1
  F  F15  1  0.047657  0.282711  0.040337  1
  F  F16  1  0.761725  0.509244  0.861943  1
  F  F17  1  0.265087  0.488067  0.639020  1
  F  F18  1  0.232898  0.489153  0.136259  1
  F  F19  1  0.737102  0.510779  0.363427  1
  F  F20  1  0.759459  0.035868  0.048703  1
  F  F21  1  0.259418  0.965230  0.451962  1
  F  F22  1  0.242489  0.966096  0.948160  1
  F  F23  1  0.741916  0.031870  0.550388  1
  F  F24  1  0.968045  0.730256  0.631431  1
  F  F25  1  0.468540  0.268804  0.868565  1
  F  F26  1  0.030771  0.268742  0.370019  1
  F  F27  1  0.528251  0.729775  0.131024  1
  F  F28  1  0.054806  0.744097  0.168061  1
  F  F29  1  0.555540  0.256264  0.330784  1
  F  F30  1  0.942481  0.256924  0.828633  1
  F  F31  1  0.442269  0.743042  0.672893  1
  F  F32  1  0.406411  0.967569  0.230043  1
  F  F33  1  0.907386  0.031694  0.269796  1
  F  F34  1  0.600817  0.028862  0.770890  1
  F  F35  1  0.089417  0.967275  0.728928  1
