# generated using pymatgen
data_Zn2FeH6
_symmetry_space_group_name_H-M   'P 1'
_cell_length_a   4.50326063
_cell_length_b   6.29623165
_cell_length_c   4.52559210
_cell_angle_alpha   69.28409868
_cell_angle_beta   59.53116298
_cell_angle_gamma   47.82198380
_symmetry_Int_Tables_number   1
_chemical_formula_structural   Zn2FeH6
_chemical_formula_sum   'Zn2 Fe1 H6'
_cell_volume   81.94144049
_cell_formula_units_Z   1
loop_
 _symmetry_equiv_pos_site_id
 _symmetry_equiv_pos_as_xyz
  1  'x, y, z'
loop_
 _atom_site_type_symbol
 _atom_site_label
 _atom_site_symmetry_multiplicity
 _atom_site_fract_x
 _atom_site_fract_y
 _atom_site_fract_z
 _atom_site_occupancy
  Zn  Zn0  1  0.735900  0.508060  0.448455  1
  Zn  Zn1  1  0.910548  0.007590  0.124288  1
  Fe  Fe2  1  0.408162  0.507355  0.109161  1
  H  H3  1  0.562030  0.311444  0.843132  1
  H  H4  1  0.516747  0.710583  0.835581  1
  H  H5  1  0.892912  0.333539  0.062583  1
  H  H6  1  0.966067  0.689132  0.064513  1
  H  H7  1  0.318030  0.306245  0.409985  1
  H  H8  1  0.194626  0.690979  0.419580  1
