# generated using pymatgen
data_Zr3Al2ZnPt3
_symmetry_space_group_name_H-M   'P 1'
_cell_length_a   7.15500475
_cell_length_b   7.21380132
_cell_length_c   3.62448800
_cell_angle_alpha   90.00000000
_cell_angle_beta   90.00000000
_cell_angle_gamma   120.27221299
_symmetry_Int_Tables_number   1
_chemical_formula_structural   Zr3Al2ZnPt3
_chemical_formula_sum   'Zr3 Al2 Zn1 Pt3'
_cell_volume   161.56734360
_cell_formula_units_Z   1
loop_
 _symmetry_equiv_pos_site_id
 _symmetry_equiv_pos_as_xyz
  1  'x, y, z'
loop_
 _atom_site_type_symbol
 _atom_site_label
 _atom_site_symmetry_multiplicity
 _atom_site_fract_x
 _atom_site_fract_y
 _atom_site_fract_z
 _atom_site_occupancy
  Zr  Zr0  1  0.000000  0.409751  0.500000  1
  Zr  Zr1  1  0.604770  0.599618  0.500000  1
  Zr  Zr2  1  0.395230  0.994848  0.500000  1
  Al  Al3  1  0.255896  0.258498  0.000000  1
  Al  Al4  1  0.744104  0.002602  0.000000  1
  Zn  Zn5  1  0.000000  0.735904  0.000000  1
  Pt  Pt6  1  0.340305  0.665341  0.000000  1
  Pt  Pt7  1  0.659695  0.325035  0.000000  1
  Pt  Pt8  1  0.000000  0.008404  0.500000  1
