# generated using pymatgen
data_Tb5Nd5YHo5(CdIr)4
_symmetry_space_group_name_H-M   'P 1'
_cell_length_a   9.74473510
_cell_length_b   9.73258095
_cell_length_c   9.73263044
_cell_angle_alpha   59.83227485
_cell_angle_beta   59.93566823
_cell_angle_gamma   59.93573082
_symmetry_Int_Tables_number   1
_chemical_formula_structural   Tb5Nd5YHo5(CdIr)4
_chemical_formula_sum   'Tb5 Nd5 Y1 Ho5 Cd4 Ir4'
_cell_volume   651.23549230
_cell_formula_units_Z   1
loop_
 _symmetry_equiv_pos_site_id
 _symmetry_equiv_pos_as_xyz
  1  'x, y, z'
loop_
 _atom_site_type_symbol
 _atom_site_label
 _atom_site_symmetry_multiplicity
 _atom_site_fract_x
 _atom_site_fract_y
 _atom_site_fract_z
 _atom_site_occupancy
  Tb  Tb0  1  0.347987  0.348338  0.348336  1
  Tb  Tb1  1  0.347889  0.350705  0.955126  1
  Tb  Tb2  1  0.347887  0.955125  0.350710  1
  Tb  Tb3  1  0.953296  0.349612  0.349616  1
  Tb  Tb4  1  0.812334  0.187104  0.187103  1
  Nd  Nd5  1  0.557118  0.941778  0.941774  1
  Nd  Nd6  1  0.561572  0.938768  0.559457  1
  Nd  Nd7  1  0.941533  0.558846  0.938366  1
  Nd  Nd8  1  0.561573  0.559464  0.938762  1
  Nd  Nd9  1  0.941529  0.938373  0.558843  1
  Y  Y10  1  0.943200  0.556998  0.556997  1
  Ho  Ho11  1  0.185303  0.813214  0.813204  1
  Ho  Ho12  1  0.187698  0.810967  0.188554  1
  Ho  Ho13  1  0.812608  0.186607  0.811639  1
  Ho  Ho14  1  0.187706  0.188555  0.810961  1
  Ho  Ho15  1  0.812598  0.811643  0.186607  1
  Cd  Cd16  1  0.581737  0.578951  0.578942  1
  Cd  Cd17  1  0.579260  0.580136  0.260760  1
  Cd  Cd18  1  0.579261  0.260761  0.580134  1
  Cd  Cd19  1  0.259248  0.579349  0.579344  1
  Ir  Ir20  1  0.142054  0.140961  0.140975  1
  Ir  Ir21  1  0.139945  0.144990  0.577356  1
  Ir  Ir22  1  0.139947  0.577361  0.144992  1
  Ir  Ir23  1  0.576722  0.141390  0.141435  1
