# generated using pymatgen
data_Sr6Pr2Si12Pd3Au
_symmetry_space_group_name_H-M   'P 1'
_cell_length_a   8.40536600
_cell_length_b   8.40536745
_cell_length_c   8.87729800
_cell_angle_alpha   90.00000000
_cell_angle_beta   90.00000000
_cell_angle_gamma   120.00001005
_symmetry_Int_Tables_number   1
_chemical_formula_structural   Sr6Pr2Si12Pd3Au
_chemical_formula_sum   'Sr6 Pr2 Si12 Pd3 Au1'
_cell_volume   543.15617241
_cell_formula_units_Z   1
loop_
 _symmetry_equiv_pos_site_id
 _symmetry_equiv_pos_as_xyz
  1  'x, y, z'
loop_
 _atom_site_type_symbol
 _atom_site_label
 _atom_site_symmetry_multiplicity
 _atom_site_fract_x
 _atom_site_fract_y
 _atom_site_fract_z
 _atom_site_occupancy
  Sr  Sr0  1  0.498682  0.501318  0.747059  1
  Sr  Sr1  1  0.499052  0.500948  0.252859  1
  Sr  Sr2  1  0.002636  0.501318  0.747059  1
  Sr  Sr3  1  0.001897  0.500948  0.252859  1
  Sr  Sr4  1  0.498682  0.997364  0.747059  1
  Sr  Sr5  1  0.499052  0.998103  0.252859  1
  Pr  Pr6  1  0.000000  0.000000  0.748103  1
  Pr  Pr7  1  0.000000  0.000000  0.251987  1
  Si  Si8  1  0.840321  0.159679  0.999926  1
  Si  Si9  1  0.165026  0.834974  0.000160  1
  Si  Si10  1  0.319358  0.159679  0.999926  1
  Si  Si11  1  0.163221  0.836779  0.499532  1
  Si  Si12  1  0.669947  0.834974  0.000160  1
  Si  Si13  1  0.836533  0.163467  0.500452  1
  Si  Si14  1  0.840321  0.680642  0.999926  1
  Si  Si15  1  0.673558  0.836779  0.499532  1
  Si  Si16  1  0.165026  0.330053  0.000160  1
  Si  Si17  1  0.326935  0.163467  0.500452  1
  Si  Si18  1  0.163221  0.326442  0.499532  1
  Si  Si19  1  0.836533  0.673065  0.500452  1
  Pd  Pd20  1  0.333333  0.666667  0.000509  1
  Pd  Pd21  1  0.333333  0.666667  0.499344  1
  Pd  Pd22  1  0.666667  0.333333  0.500499  1
  Au  Au23  1  0.666667  0.333333  0.999596  1
