# generated using pymatgen
data_Sc4Ti2AlGaPt4
_symmetry_space_group_name_H-M   'P 1'
_cell_length_a   4.31363500
_cell_length_b   6.64220381
_cell_length_c   7.65256804
_cell_angle_alpha   90.51299133
_cell_angle_beta   90.00000000
_cell_angle_gamma   90.00000000
_symmetry_Int_Tables_number   1
_chemical_formula_structural   Sc4Ti2AlGaPt4
_chemical_formula_sum   'Sc4 Ti2 Al1 Ga1 Pt4'
_cell_volume   219.25291922
_cell_formula_units_Z   1
loop_
 _symmetry_equiv_pos_site_id
 _symmetry_equiv_pos_as_xyz
  1  'x, y, z'
loop_
 _atom_site_type_symbol
 _atom_site_label
 _atom_site_symmetry_multiplicity
 _atom_site_fract_x
 _atom_site_fract_y
 _atom_site_fract_z
 _atom_site_occupancy
  Sc  Sc0  1  0.250000  0.034749  0.320301  1
  Sc  Sc1  1  0.250000  0.513224  0.178599  1
  Sc  Sc2  1  0.750000  0.989822  0.677899  1
  Sc  Sc3  1  0.750000  0.464949  0.814487  1
  Ti  Ti4  1  0.250000  0.641416  0.565908  1
  Ti  Ti5  1  0.750000  0.859395  0.067597  1
  Al  Al6  1  0.250000  0.143415  0.934597  1
  Ga  Ga7  1  0.750000  0.352771  0.431769  1
  Pt  Pt8  1  0.250000  0.258758  0.618566  1
  Pt  Pt9  1  0.250000  0.758092  0.891515  1
  Pt  Pt10  1  0.750000  0.743479  0.390682  1
  Pt  Pt11  1  0.750000  0.239932  0.108079  1
