# generated using pymatgen
data_LiW(SO4)3
_symmetry_space_group_name_H-M   'P 1'
_cell_length_a   8.53563682
_cell_length_b   9.34117996
_cell_length_c   8.64026948
_cell_angle_alpha   109.96167526
_cell_angle_beta   105.32656829
_cell_angle_gamma   110.96134108
_symmetry_Int_Tables_number   1
_chemical_formula_structural   LiW(SO4)3
_chemical_formula_sum   'Li2 W2 S6 O24'
_cell_volume   542.90961472
_cell_formula_units_Z   2
loop_
 _symmetry_equiv_pos_site_id
 _symmetry_equiv_pos_as_xyz
  1  'x, y, z'
loop_
 _atom_site_type_symbol
 _atom_site_label
 _atom_site_symmetry_multiplicity
 _atom_site_fract_x
 _atom_site_fract_y
 _atom_site_fract_z
 _atom_site_occupancy
  Li  Li0  1  0.842921  0.460275  0.218349  1
  Li  Li1  1  0.728438  0.054862  0.510581  1
  W  W2  1  0.025918  0.985421  0.995315  1
  W  W3  1  0.478039  0.508277  0.520643  1
  S  S4  1  0.584946  0.922861  0.765874  1
  S  S5  1  0.178481  0.410796  0.109182  1
  S  S6  1  0.090064  0.184426  0.449390  1
  S  S7  1  0.887365  0.775022  0.544866  1
  S  S8  1  0.775143  0.557420  0.891138  1
  S  S9  1  0.493642  0.158252  0.261702  1
  O  O10  1  0.030405  0.887711  0.747536  1
  O  O11  1  0.294882  0.047735  0.102112  1
  O  O12  1  0.970020  0.699339  0.440705  1
  O  O13  1  0.536699  0.039540  0.310301  1
  O  O14  1  0.055793  0.435070  0.190576  1
  O  O15  1  0.466658  0.929674  0.854132  1
  O  O16  1  0.481339  0.733677  0.593763  1
  O  O17  1  0.216957  0.488513  0.998434  1
  O  O18  1  0.234238  0.377674  0.505722  1
  O  O19  1  0.092284  0.205909  0.989697  1
  O  O20  1  0.363397  0.455426  0.256446  1
  O  O21  1  0.805274  0.869147  0.486389  1
  O  O22  1  0.185277  0.114594  0.536126  1
  O  O23  1  0.600029  0.560711  0.785336  1
  O  O24  1  0.935313  0.756253  0.981969  1
  O  O25  1  0.733590  0.621471  0.544435  1
  O  O26  1  0.751606  0.530518  0.039623  1
  O  O27  1  0.476106  0.278021  0.424041  1
  O  O28  1  0.618172  0.265248  0.212387  1
  O  O29  1  0.823519  0.450219  0.772832  1
  O  O30  1  0.643927  0.046844  0.700672  1
  O  O31  1  0.939660  0.199956  0.484447  1
  O  O32  1  0.757320  0.928271  0.887163  1
  O  O33  1  0.021868  0.089359  0.240332  1
