# generated using pymatgen
data_Cs5Rb3Mn3CoBr16
_symmetry_space_group_name_H-M   'P 1'
_cell_length_a   7.92956100
_cell_length_b   10.34120542
_cell_length_c   13.87359952
_cell_angle_alpha   90.23521176
_cell_angle_beta   90.00000000
_cell_angle_gamma   90.00000000
_symmetry_Int_Tables_number   1
_chemical_formula_structural   Cs5Rb3Mn3CoBr16
_chemical_formula_sum   'Cs5 Rb3 Mn3 Co1 Br16'
_cell_volume   1137.64248909
_cell_formula_units_Z   1
loop_
 _symmetry_equiv_pos_site_id
 _symmetry_equiv_pos_as_xyz
  1  'x, y, z'
loop_
 _atom_site_type_symbol
 _atom_site_label
 _atom_site_symmetry_multiplicity
 _atom_site_fract_x
 _atom_site_fract_y
 _atom_site_fract_z
 _atom_site_occupancy
  Cs  Cs0  1  0.250000  0.483652  0.329272  1
  Cs  Cs1  1  0.250000  0.632905  0.905315  1
  Cs  Cs2  1  0.750000  0.369079  0.088042  1
  Cs  Cs3  1  0.750000  0.865066  0.409216  1
  Cs  Cs4  1  0.250000  0.132652  0.592838  1
  Rb  Rb5  1  0.250000  0.983832  0.169188  1
  Rb  Rb6  1  0.750000  0.015895  0.828732  1
  Rb  Rb7  1  0.750000  0.516664  0.671705  1
  Mn  Mn8  1  0.250000  0.733067  0.580693  1
  Mn  Mn9  1  0.750000  0.265176  0.422721  1
  Mn  Mn10  1  0.250000  0.228858  0.920899  1
  Co  Co11  1  0.750000  0.772291  0.074873  1
  Br  Br12  1  0.990683  0.819417  0.659403  1
  Br  Br13  1  0.005669  0.173600  0.343367  1
  Br  Br14  1  0.998594  0.689455  0.152344  1
  Br  Br15  1  0.494331  0.173600  0.343367  1
  Br  Br16  1  0.992265  0.316526  0.841538  1
  Br  Br17  1  0.509317  0.819417  0.659403  1
  Br  Br18  1  0.507735  0.316526  0.841538  1
  Br  Br19  1  0.501406  0.689455  0.152344  1
  Br  Br20  1  0.250000  0.493659  0.597230  1
  Br  Br21  1  0.750000  0.505578  0.411575  1
  Br  Br22  1  0.750000  0.003740  0.084639  1
  Br  Br23  1  0.250000  0.989244  0.911107  1
  Br  Br24  1  0.250000  0.313856  0.090427  1
  Br  Br25  1  0.750000  0.688496  0.912214  1
  Br  Br26  1  0.750000  0.186883  0.593249  1
  Br  Br27  1  0.250000  0.821411  0.412763  1
