# generated using pymatgen
data_CuBi2Rh4PbO14
_symmetry_space_group_name_H-M   'P 1'
_cell_length_a   7.13893870
_cell_length_b   7.34590085
_cell_length_c   7.31250150
_cell_angle_alpha   59.84879158
_cell_angle_beta   58.99037865
_cell_angle_gamma   59.03626656
_symmetry_Int_Tables_number   1
_chemical_formula_structural   CuBi2Rh4PbO14
_chemical_formula_sum   'Cu1 Bi2 Rh4 Pb1 O14'
_cell_volume   266.75074176
_cell_formula_units_Z   1
loop_
 _symmetry_equiv_pos_site_id
 _symmetry_equiv_pos_as_xyz
  1  'x, y, z'
loop_
 _atom_site_type_symbol
 _atom_site_label
 _atom_site_symmetry_multiplicity
 _atom_site_fract_x
 _atom_site_fract_y
 _atom_site_fract_z
 _atom_site_occupancy
  Cu  Cu0  1  0.625000  0.125000  0.125000  1
  Bi  Bi1  1  0.125000  0.125000  0.125000  1
  Bi  Bi2  1  0.125000  0.625000  0.125000  1
  Rh  Rh3  1  0.625000  0.625000  0.625000  1
  Rh  Rh4  1  0.625000  0.625000  0.125000  1
  Rh  Rh5  1  0.125000  0.625000  0.625000  1
  Rh  Rh6  1  0.625000  0.125000  0.625000  1
  Pb  Pb7  1  0.125000  0.125000  0.625000  1
  O  O8  1  0.296027  0.237351  0.229273  1
  O  O9  1  0.286582  0.711180  0.291057  1
  O  O10  1  0.963747  0.958314  0.538262  1
  O  O11  1  0.543388  0.954055  0.548501  1
  O  O12  1  0.705459  0.700398  0.296832  1
  O  O13  1  0.963747  0.539678  0.538262  1
  O  O14  1  0.706612  0.295945  0.701499  1
  O  O15  1  0.286253  0.291686  0.711738  1
  O  O16  1  0.705459  0.297312  0.296832  1
  O  O17  1  0.286253  0.710322  0.711738  1
  O  O18  1  0.963418  0.538820  0.958943  1
  O  O19  1  0.544541  0.549602  0.953168  1
  O  O20  1  0.953973  0.012649  0.020727  1
  O  O21  1  0.544541  0.952688  0.953168  1
