# generated using pymatgen
data_TbHoNbB2Ru5
_symmetry_space_group_name_H-M   'P 1'
_cell_length_a   9.68424296
_cell_length_b   9.68424296
_cell_length_c   3.13403600
_cell_angle_alpha   90.00000000
_cell_angle_beta   90.00000000
_cell_angle_gamma   90.17240373
_symmetry_Int_Tables_number   1
_chemical_formula_structural   TbHoNbB2Ru5
_chemical_formula_sum   'Tb2 Ho2 Nb2 B4 Ru10'
_cell_volume   293.92286204
_cell_formula_units_Z   2
loop_
 _symmetry_equiv_pos_site_id
 _symmetry_equiv_pos_as_xyz
  1  'x, y, z'
loop_
 _atom_site_type_symbol
 _atom_site_label
 _atom_site_symmetry_multiplicity
 _atom_site_fract_x
 _atom_site_fract_y
 _atom_site_fract_z
 _atom_site_occupancy
  Tb  Tb0  1  0.825099  0.674901  0.000000  1
  Tb  Tb1  1  0.174901  0.325099  0.000000  1
  Ho  Ho2  1  0.325224  0.825224  0.000000  1
  Ho  Ho3  1  0.674776  0.174776  0.000000  1
  Nb  Nb4  1  0.500000  0.500000  0.000000  1
  Nb  Nb5  1  0.000000  0.000000  0.000000  1
  B  B6  1  0.619987  0.880013  0.000000  1
  B  B7  1  0.380013  0.119987  0.000000  1
  B  B8  1  0.120492  0.620492  0.000000  1
  B  B9  1  0.879508  0.379508  0.000000  1
  Ru  Ru10  1  0.570096  0.718719  0.500000  1
  Ru  Ru11  1  0.429904  0.281281  0.500000  1
  Ru  Ru12  1  0.072056  0.781846  0.500000  1
  Ru  Ru13  1  0.927944  0.218154  0.500000  1
  Ru  Ru14  1  0.281846  0.572056  0.500000  1
  Ru  Ru15  1  0.718154  0.427944  0.500000  1
  Ru  Ru16  1  0.218719  0.070096  0.500000  1
  Ru  Ru17  1  0.781281  0.929904  0.500000  1
  Ru  Ru18  1  0.500000  0.000000  0.500000  1
  Ru  Ru19  1  0.000000  0.500000  0.500000  1
