# generated using pymatgen
data_Pr(ThSe2)6
_symmetry_space_group_name_H-M   'P 1'
_cell_length_a   4.13816700
_cell_length_b   11.73720218
_cell_length_c   11.73719500
_cell_angle_alpha   120.00005621
_cell_angle_beta   90.00000000
_cell_angle_gamma   90.00000000
_symmetry_Int_Tables_number   1
_chemical_formula_structural   Pr(ThSe2)6
_chemical_formula_sum   'Pr1 Th6 Se12'
_cell_volume   493.70474854
_cell_formula_units_Z   1
loop_
 _symmetry_equiv_pos_site_id
 _symmetry_equiv_pos_as_xyz
  1  'x, y, z'
loop_
 _atom_site_type_symbol
 _atom_site_label
 _atom_site_symmetry_multiplicity
 _atom_site_fract_x
 _atom_site_fract_y
 _atom_site_fract_z
 _atom_site_occupancy
  Pr  Pr0  1  0.750000  0.999999  0.999999  1
  Th  Th1  1  0.750000  0.720106  0.567803  1
  Th  Th2  1  0.750000  0.432197  0.152304  1
  Th  Th3  1  0.750000  0.847695  0.279894  1
  Th  Th4  1  0.250000  0.286471  0.443091  1
  Th  Th5  1  0.250000  0.556909  0.843377  1
  Th  Th6  1  0.250000  0.156624  0.713530  1
  Se  Se7  1  0.750000  0.005797  0.750640  1
  Se  Se8  1  0.750000  0.249360  0.255157  1
  Se  Se9  1  0.750000  0.744843  0.994203  1
  Se  Se10  1  0.250000  0.994837  0.215302  1
  Se  Se11  1  0.250000  0.784698  0.779537  1
  Se  Se12  1  0.250000  0.220463  0.005161  1
  Se  Se13  1  0.750000  0.374996  0.861710  1
  Se  Se14  1  0.750000  0.138291  0.513288  1
  Se  Se15  1  0.750000  0.486712  0.625003  1
  Se  Se16  1  0.250000  0.616739  0.140834  1
  Se  Se17  1  0.250000  0.859165  0.475906  1
  Se  Se18  1  0.250000  0.524095  0.383261  1
