# generated using pymatgen
data_Zr6Co17ReP12
_symmetry_space_group_name_H-M   'P 1'
_cell_length_a   3.64346900
_cell_length_b   10.29229400
_cell_length_c   11.97741100
_cell_angle_alpha   90.00000000
_cell_angle_beta   90.00000000
_cell_angle_gamma   90.00000000
_symmetry_Int_Tables_number   1
_chemical_formula_structural   Zr6Co17ReP12
_chemical_formula_sum   'Zr6 Co17 Re1 P12'
_cell_volume   449.14876985
_cell_formula_units_Z   1
loop_
 _symmetry_equiv_pos_site_id
 _symmetry_equiv_pos_as_xyz
  1  'x, y, z'
loop_
 _atom_site_type_symbol
 _atom_site_label
 _atom_site_symmetry_multiplicity
 _atom_site_fract_x
 _atom_site_fract_y
 _atom_site_fract_z
 _atom_site_occupancy
  Zr  Zr0  1  0.000000  0.500000  0.530555  1
  Zr  Zr1  1  0.500000  0.000000  0.473532  1
  Zr  Zr2  1  0.500000  0.821545  0.208801  1
  Zr  Zr3  1  0.500000  0.178455  0.208801  1
  Zr  Zr4  1  0.000000  0.679915  0.792708  1
  Zr  Zr5  1  0.000000  0.320085  0.792708  1
  Co  Co6  1  0.000000  0.500000  0.989246  1
  Co  Co7  1  0.500000  0.000000  0.014335  1
  Co  Co8  1  0.500000  0.299476  0.432636  1
  Co  Co9  1  0.500000  0.700524  0.432636  1
  Co  Co10  1  0.000000  0.200571  0.567263  1
  Co  Co11  1  0.000000  0.799429  0.567263  1
  Co  Co12  1  0.500000  0.876184  0.707212  1
  Co  Co13  1  0.500000  0.123816  0.707212  1
  Co  Co14  1  0.000000  0.623388  0.293347  1
  Co  Co15  1  0.000000  0.376612  0.293347  1
  Co  Co16  1  0.500000  0.332239  0.990427  1
  Co  Co17  1  0.500000  0.667761  0.990427  1
  Co  Co18  1  0.000000  0.167051  0.005704  1
  Co  Co19  1  0.000000  0.832949  0.005704  1
  Co  Co20  1  0.000000  0.000000  0.834586  1
  Co  Co21  1  0.500000  0.500000  0.702847  1
  Co  Co22  1  0.000000  0.000000  0.296331  1
  Re  Re23  1  0.500000  0.500000  0.160707  1
  P  P24  1  0.500000  0.315947  0.617626  1
  P  P25  1  0.500000  0.684053  0.617626  1
  P  P26  1  0.000000  0.182734  0.383489  1
  P  P27  1  0.000000  0.817266  0.383489  1
  P  P28  1  0.500000  0.500000  0.877980  1
  P  P29  1  0.000000  0.000000  0.120205  1
  P  P30  1  0.500000  0.847889  0.888515  1
  P  P31  1  0.500000  0.152111  0.888515  1
  P  P32  1  0.000000  0.659643  0.109660  1
  P  P33  1  0.000000  0.340357  0.109660  1
  P  P34  1  0.500000  0.500000  0.356640  1
  P  P35  1  0.000000  0.000000  0.648259  1
