# generated using pymatgen
data_Mn6Co12Sn5Sb
_symmetry_space_group_name_H-M   'P 1'
_cell_length_a   4.24184641
_cell_length_b   5.98761620
_cell_length_c   12.74618523
_cell_angle_alpha   90.02344935
_cell_angle_beta   89.95393318
_cell_angle_gamma   89.98252181
_symmetry_Int_Tables_number   1
_chemical_formula_structural   Mn6Co12Sn5Sb
_chemical_formula_sum   'Mn6 Co12 Sn5 Sb1'
_cell_volume   323.73445426
_cell_formula_units_Z   1
loop_
 _symmetry_equiv_pos_site_id
 _symmetry_equiv_pos_as_xyz
  1  'x, y, z'
loop_
 _atom_site_type_symbol
 _atom_site_label
 _atom_site_symmetry_multiplicity
 _atom_site_fract_x
 _atom_site_fract_y
 _atom_site_fract_z
 _atom_site_occupancy
  Mn  Mn0  1  0.000000  0.000000  0.000000  1
  Mn  Mn1  1  0.500248  0.500131  0.168477  1
  Mn  Mn2  1  0.000075  0.000000  0.333265  1
  Mn  Mn3  1  0.500001  0.500000  0.500000  1
  Mn  Mn4  1  0.999926  0.000000  0.666736  1
  Mn  Mn5  1  0.499751  0.499869  0.831523  1
  Co  Co6  1  0.499937  0.253454  0.999969  1
  Co  Co7  1  0.500061  0.746545  0.000031  1
  Co  Co8  1  0.000194  0.252390  0.165129  1
  Co  Co9  1  0.000348  0.747557  0.165148  1
  Co  Co10  1  0.500393  0.250087  0.333167  1
  Co  Co11  1  0.500070  0.749904  0.333253  1
  Co  Co12  1  0.999882  0.250182  0.500074  1
  Co  Co13  1  0.000118  0.749818  0.499926  1
  Co  Co14  1  0.499929  0.250098  0.666748  1
  Co  Co15  1  0.499606  0.749915  0.666834  1
  Co  Co16  1  0.999650  0.252443  0.834851  1
  Co  Co17  1  0.999804  0.747610  0.834870  1
  Sn  Sn18  1  0.500217  0.999996  0.166699  1
  Sn  Sn19  1  0.000271  0.499927  0.333512  1
  Sn  Sn20  1  0.500001  0.000000  0.500000  1
  Sn  Sn21  1  0.999728  0.500073  0.666488  1
  Sn  Sn22  1  0.499784  0.000004  0.833301  1
  Sb  Sb23  1  0.000000  0.500000  0.000000  1
