# generated using pymatgen
data_La2CoNi3As4
_symmetry_space_group_name_H-M   'P 1'
_cell_length_a   4.23279800
_cell_length_b   4.23279800
_cell_length_c   9.60652200
_cell_angle_alpha   90.00000000
_cell_angle_beta   90.00000000
_cell_angle_gamma   90.00000000
_symmetry_Int_Tables_number   1
_chemical_formula_structural   La2CoNi3As4
_chemical_formula_sum   'La2 Co1 Ni3 As4'
_cell_volume   172.11600945
_cell_formula_units_Z   1
loop_
 _symmetry_equiv_pos_site_id
 _symmetry_equiv_pos_as_xyz
  1  'x, y, z'
loop_
 _atom_site_type_symbol
 _atom_site_label
 _atom_site_symmetry_multiplicity
 _atom_site_fract_x
 _atom_site_fract_y
 _atom_site_fract_z
 _atom_site_occupancy
  La  La0  1  0.000000  0.500000  0.753019  1
  La  La1  1  0.500000  0.000000  0.251348  1
  Co  Co2  1  0.000000  0.500000  0.114159  1
  Ni  Ni3  1  0.000000  0.000000  0.500704  1
  Ni  Ni4  1  0.500000  0.000000  0.881078  1
  Ni  Ni5  1  0.500000  0.500000  0.500704  1
  As  As6  1  0.000000  0.500000  0.365154  1
  As  As7  1  0.000000  0.000000  0.001994  1
  As  As8  1  0.500000  0.000000  0.629845  1
  As  As9  1  0.500000  0.500000  0.001994  1
