# generated using pymatgen
data_HfZr3Rh2N
_symmetry_space_group_name_H-M   'P 1'
_cell_length_a   8.78907952
_cell_length_b   8.78908023
_cell_length_c   8.78908000
_cell_angle_alpha   60.00000087
_cell_angle_beta   59.99999819
_cell_angle_gamma   59.99999930
_symmetry_Int_Tables_number   1
_chemical_formula_structural   HfZr3Rh2N
_chemical_formula_sum   'Hf4 Zr12 Rh8 N4'
_cell_volume   480.08179436
_cell_formula_units_Z   4
loop_
 _symmetry_equiv_pos_site_id
 _symmetry_equiv_pos_as_xyz
  1  'x, y, z'
loop_
 _atom_site_type_symbol
 _atom_site_label
 _atom_site_symmetry_multiplicity
 _atom_site_fract_x
 _atom_site_fract_y
 _atom_site_fract_z
 _atom_site_occupancy
  Hf  Hf0  1  0.125000  0.625000  0.625000  1
  Hf  Hf1  1  0.625000  0.125000  0.625000  1
  Hf  Hf2  1  0.625000  0.625000  0.125000  1
  Hf  Hf3  1  0.625000  0.625000  0.625000  1
  Zr  Zr4  1  0.816222  0.816222  0.183778  1
  Zr  Zr5  1  0.183778  0.183778  0.816222  1
  Zr  Zr6  1  0.816222  0.183778  0.816222  1
  Zr  Zr7  1  0.183778  0.816222  0.183778  1
  Zr  Zr8  1  0.183778  0.816222  0.816222  1
  Zr  Zr9  1  0.816222  0.183778  0.183778  1
  Zr  Zr10  1  0.433778  0.433778  0.066222  1
  Zr  Zr11  1  0.066222  0.066222  0.433778  1
  Zr  Zr12  1  0.433778  0.066222  0.433778  1
  Zr  Zr13  1  0.066222  0.433778  0.066222  1
  Zr  Zr14  1  0.066222  0.433778  0.433778  1
  Zr  Zr15  1  0.433778  0.066222  0.066222  1
  Rh  Rh16  1  0.763204  0.412265  0.412265  1
  Rh  Rh17  1  0.412265  0.763204  0.412265  1
  Rh  Rh18  1  0.412265  0.412265  0.763204  1
  Rh  Rh19  1  0.412265  0.412265  0.412265  1
  Rh  Rh20  1  0.486796  0.837735  0.837735  1
  Rh  Rh21  1  0.837735  0.486796  0.837735  1
  Rh  Rh22  1  0.837735  0.837735  0.486796  1
  Rh  Rh23  1  0.837735  0.837735  0.837735  1
  N  N24  1  0.625000  0.125000  0.125000  1
  N  N25  1  0.125000  0.625000  0.125000  1
  N  N26  1  0.125000  0.125000  0.625000  1
  N  N27  1  0.125000  0.125000  0.125000  1
