# generated using pymatgen
data_Zr10Hg5B2Au
_symmetry_space_group_name_H-M   'P 1'
_cell_length_a   8.72916967
_cell_length_b   8.72917000
_cell_length_c   5.49874900
_cell_angle_alpha   90.00000000
_cell_angle_beta   90.00000000
_cell_angle_gamma   120.17914012
_symmetry_Int_Tables_number   1
_chemical_formula_structural   Zr10Hg5B2Au
_chemical_formula_sum   'Zr10 Hg5 B2 Au1'
_cell_volume   362.20431550
_cell_formula_units_Z   1
loop_
 _symmetry_equiv_pos_site_id
 _symmetry_equiv_pos_as_xyz
  1  'x, y, z'
loop_
 _atom_site_type_symbol
 _atom_site_label
 _atom_site_symmetry_multiplicity
 _atom_site_fract_x
 _atom_site_fract_y
 _atom_site_fract_z
 _atom_site_occupancy
  Zr  Zr0  1  0.662846  0.334765  0.998287  1
  Zr  Zr1  1  0.334765  0.662846  0.998287  1
  Zr  Zr2  1  0.334765  0.662846  0.501713  1
  Zr  Zr3  1  0.662846  0.334765  0.501713  1
  Zr  Zr4  1  0.772389  0.772389  0.750000  1
  Zr  Zr5  1  0.227776  0.003916  0.750000  1
  Zr  Zr6  1  0.003916  0.227776  0.750000  1
  Zr  Zr7  1  0.229670  0.229670  0.250000  1
  Zr  Zr8  1  0.773896  0.000153  0.250000  1
  Zr  Zr9  1  0.000153  0.773896  0.250000  1
  Hg  Hg10  1  0.600317  0.000829  0.750000  1
  Hg  Hg11  1  0.000829  0.600317  0.750000  1
  Hg  Hg12  1  0.599299  0.599299  0.250000  1
  Hg  Hg13  1  0.399622  0.998035  0.250000  1
  Hg  Hg14  1  0.998035  0.399622  0.250000  1
  B  B15  1  0.999792  0.999792  0.001116  1
  B  B16  1  0.999792  0.999792  0.498884  1
  Au  Au17  1  0.399293  0.399293  0.750000  1
