# generated using pymatgen
data_Y8Cd2CoNi
_symmetry_space_group_name_H-M   'P 1'
_cell_length_a   9.58883667
_cell_length_b   9.58883679
_cell_length_c   9.60414500
_cell_angle_alpha   59.94717196
_cell_angle_beta   59.94717156
_cell_angle_gamma   59.87266628
_symmetry_Int_Tables_number   1
_chemical_formula_structural   Y8Cd2CoNi
_chemical_formula_sum   'Y16 Cd4 Co2 Ni2'
_cell_volume   623.31747779
_cell_formula_units_Z   2
loop_
 _symmetry_equiv_pos_site_id
 _symmetry_equiv_pos_as_xyz
  1  'x, y, z'
loop_
 _atom_site_type_symbol
 _atom_site_label
 _atom_site_symmetry_multiplicity
 _atom_site_fract_x
 _atom_site_fract_y
 _atom_site_fract_z
 _atom_site_occupancy
  Y  Y0  1  0.597149  0.597149  0.599773  1
  Y  Y1  1  0.597149  0.597149  0.205929  1
  Y  Y2  1  0.595895  0.207723  0.598191  1
  Y  Y3  1  0.207723  0.595895  0.598191  1
  Y  Y4  1  0.063558  0.438010  0.440004  1
  Y  Y5  1  0.438010  0.063558  0.058428  1
  Y  Y6  1  0.438010  0.063558  0.440004  1
  Y  Y7  1  0.063558  0.438010  0.058428  1
  Y  Y8  1  0.439086  0.439086  0.060914  1
  Y  Y9  1  0.060987  0.060987  0.439013  1
  Y  Y10  1  0.187374  0.811651  0.814020  1
  Y  Y11  1  0.811651  0.187374  0.186955  1
  Y  Y12  1  0.811651  0.187374  0.814020  1
  Y  Y13  1  0.187374  0.811651  0.186955  1
  Y  Y14  1  0.812835  0.812835  0.187165  1
  Y  Y15  1  0.187486  0.187486  0.812514  1
  Cd  Cd16  1  0.830057  0.830057  0.830530  1
  Cd  Cd17  1  0.830057  0.830057  0.509354  1
  Cd  Cd18  1  0.831114  0.506628  0.831129  1
  Cd  Cd19  1  0.506628  0.831114  0.831129  1
  Co  Co20  1  0.392620  0.392620  0.391003  1
  Co  Co21  1  0.392620  0.392620  0.823759  1
  Ni  Ni22  1  0.392625  0.824782  0.391297  1
  Ni  Ni23  1  0.824782  0.392625  0.391297  1
