# generated using pymatgen
data_Ho8Sc9Si16Ag3
_symmetry_space_group_name_H-M   'P 1'
_cell_length_a   6.89881200
_cell_length_b   7.39553350
_cell_length_c   14.03445000
_cell_angle_alpha   90.00000000
_cell_angle_beta   90.00000000
_cell_angle_gamma   89.78777280
_symmetry_Int_Tables_number   1
_chemical_formula_structural   Ho8Sc9Si16Ag3
_chemical_formula_sum   'Ho8 Sc9 Si16 Ag3'
_cell_volume   716.03827452
_cell_formula_units_Z   1
loop_
 _symmetry_equiv_pos_site_id
 _symmetry_equiv_pos_as_xyz
  1  'x, y, z'
loop_
 _atom_site_type_symbol
 _atom_site_label
 _atom_site_symmetry_multiplicity
 _atom_site_fract_x
 _atom_site_fract_y
 _atom_site_fract_z
 _atom_site_occupancy
  Ho  Ho0  1  0.012057  0.180300  0.099072  1
  Ho  Ho1  1  0.991529  0.815885  0.902116  1
  Ho  Ho2  1  0.485733  0.673363  0.902841  1
  Ho  Ho3  1  0.991529  0.815885  0.597884  1
  Ho  Ho4  1  0.510955  0.318383  0.098002  1
  Ho  Ho5  1  0.012057  0.180300  0.400928  1
  Ho  Ho6  1  0.510955  0.318383  0.401998  1
  Ho  Ho7  1  0.485733  0.673363  0.597159  1
  Sc  Sc8  1  0.658832  0.997623  0.750000  1
  Sc  Sc9  1  0.324937  0.184062  0.626287  1
  Sc  Sc10  1  0.669945  0.822684  0.373384  1
  Sc  Sc11  1  0.170610  0.679736  0.372902  1
  Sc  Sc12  1  0.669945  0.822684  0.126616  1
  Sc  Sc13  1  0.834068  0.326356  0.626423  1
  Sc  Sc14  1  0.324937  0.184062  0.873713  1
  Sc  Sc15  1  0.834068  0.326356  0.873577  1
  Sc  Sc16  1  0.170610  0.679736  0.127098  1
  Si  Si17  1  0.028865  0.098092  0.750000  1
  Si  Si18  1  0.970424  0.901179  0.250000  1
  Si  Si19  1  0.471164  0.601663  0.250000  1
  Si  Si20  1  0.534522  0.388370  0.750000  1
  Si  Si21  1  0.289628  0.882092  0.750000  1
  Si  Si22  1  0.717428  0.120110  0.250000  1
  Si  Si23  1  0.218864  0.381534  0.250000  1
  Si  Si24  1  0.779694  0.628297  0.750000  1
  Si  Si25  1  0.158861  0.460355  0.530435  1
  Si  Si26  1  0.838317  0.538073  0.466314  1
  Si  Si27  1  0.339527  0.962429  0.467645  1
  Si  Si28  1  0.838317  0.538073  0.033686  1
  Si  Si29  1  0.657652  0.032500  0.539031  1
  Si  Si30  1  0.158861  0.460355  0.969565  1
  Si  Si31  1  0.657652  0.032500  0.960969  1
  Si  Si32  1  0.339527  0.962429  0.032355  1
  Ag  Ag33  1  0.157938  0.512788  0.750000  1
  Ag  Ag34  1  0.842364  0.487119  0.250000  1
  Ag  Ag35  1  0.341895  0.012882  0.250000  1
