# generated using pymatgen
data_KHf2Br9
_symmetry_space_group_name_H-M   'P 1'
_cell_length_a   8.24069200
_cell_length_b   10.82385203
_cell_length_c   12.87759583
_cell_angle_alpha   61.74628063
_cell_angle_beta   90.00000000
_cell_angle_gamma   90.00000000
_symmetry_Int_Tables_number   1
_chemical_formula_structural   KHf2Br9
_chemical_formula_sum   'K2 Hf4 Br18'
_cell_volume   1011.78261708
_cell_formula_units_Z   2
loop_
 _symmetry_equiv_pos_site_id
 _symmetry_equiv_pos_as_xyz
  1  'x, y, z'
loop_
 _atom_site_type_symbol
 _atom_site_label
 _atom_site_symmetry_multiplicity
 _atom_site_fract_x
 _atom_site_fract_y
 _atom_site_fract_z
 _atom_site_occupancy
  K  K0  1  0.527962  0.500000  0.750000  1
  K  K1  1  0.472038  0.500000  0.250000  1
  Hf  Hf2  1  0.288709  0.813994  0.865770  1
  Hf  Hf3  1  0.711291  0.186006  0.134230  1
  Hf  Hf4  1  0.288709  0.186006  0.634230  1
  Hf  Hf5  1  0.711291  0.813994  0.365770  1
  Br  Br6  1  0.166169  0.735866  0.066991  1
  Br  Br7  1  0.833831  0.264134  0.933009  1
  Br  Br8  1  0.166169  0.264134  0.433009  1
  Br  Br9  1  0.833831  0.735866  0.566991  1
  Br  Br10  1  0.166753  0.628316  0.823902  1
  Br  Br11  1  0.833247  0.371684  0.176098  1
  Br  Br12  1  0.166753  0.371684  0.676098  1
  Br  Br13  1  0.833247  0.628316  0.323902  1
  Br  Br14  1  0.042121  0.000000  0.750000  1
  Br  Br15  1  0.957879  0.000000  0.250000  1
  Br  Br16  1  0.408823  0.053903  0.859418  1
  Br  Br17  1  0.591177  0.946097  0.140582  1
  Br  Br18  1  0.408823  0.946097  0.640582  1
  Br  Br19  1  0.591177  0.053903  0.359418  1
  Br  Br20  1  0.565081  0.699906  0.934990  1
  Br  Br21  1  0.434919  0.300094  0.065010  1
  Br  Br22  1  0.565081  0.300094  0.565010  1
  Br  Br23  1  0.434919  0.699906  0.434990  1
