# generated using pymatgen
data_Ho2BIrPt5
_symmetry_space_group_name_H-M   'P 1'
_cell_length_a   5.91271503
_cell_length_b   5.91271567
_cell_length_c   5.93265700
_cell_angle_alpha   59.88837744
_cell_angle_beta   59.88837387
_cell_angle_gamma   60.22326686
_symmetry_Int_Tables_number   1
_chemical_formula_structural   Ho2BIrPt5
_chemical_formula_sum   'Ho2 B1 Ir1 Pt5'
_cell_volume   146.65549210
_cell_formula_units_Z   1
loop_
 _symmetry_equiv_pos_site_id
 _symmetry_equiv_pos_as_xyz
  1  'x, y, z'
loop_
 _atom_site_type_symbol
 _atom_site_label
 _atom_site_symmetry_multiplicity
 _atom_site_fract_x
 _atom_site_fract_y
 _atom_site_fract_z
 _atom_site_occupancy
  Ho  Ho0  1  0.251216  0.251216  0.248784  1
  Ho  Ho1  1  0.751216  0.751216  0.748784  1
  B  B2  1  0.493946  0.493946  0.506054  1
  Ir  Ir3  1  0.244463  0.244463  0.755536  1
  Pt  Pt4  1  0.758976  0.243432  0.241023  1
  Pt  Pt5  1  0.243432  0.758976  0.241023  1
  Pt  Pt6  1  0.754342  0.754342  0.245657  1
  Pt  Pt7  1  0.758976  0.243432  0.756567  1
  Pt  Pt8  1  0.243432  0.758976  0.756567  1
