# generated using pymatgen
data_YbDy4Pa3(Pt2Pb)4
_symmetry_space_group_name_H-M   'P 1'
_cell_length_a   7.96800107
_cell_length_b   7.96800114
_cell_length_c   7.19818000
_cell_angle_alpha   90.00000000
_cell_angle_beta   90.00000000
_cell_angle_gamma   90.90670839
_symmetry_Int_Tables_number   1
_chemical_formula_structural   YbDy4Pa3(Pt2Pb)4
_chemical_formula_sum   'Yb1 Dy4 Pa3 Pt8 Pb4'
_cell_volume   456.94832620
_cell_formula_units_Z   1
loop_
 _symmetry_equiv_pos_site_id
 _symmetry_equiv_pos_as_xyz
  1  'x, y, z'
loop_
 _atom_site_type_symbol
 _atom_site_label
 _atom_site_symmetry_multiplicity
 _atom_site_fract_x
 _atom_site_fract_y
 _atom_site_fract_z
 _atom_site_occupancy
  Yb  Yb0  1  0.176776  0.823224  0.500000  1
  Dy  Dy1  1  0.339812  0.343429  0.500000  1
  Dy  Dy2  1  0.656571  0.660188  0.500000  1
  Dy  Dy3  1  0.840491  0.159509  0.000000  1
  Dy  Dy4  1  0.158808  0.841192  0.000000  1
  Pa  Pa5  1  0.678766  0.676121  0.000000  1
  Pa  Pa6  1  0.826409  0.173591  0.500000  1
  Pa  Pa7  1  0.323879  0.321234  0.000000  1
  Pt  Pt8  1  0.865077  0.873596  0.736910  1
  Pt  Pt9  1  0.126404  0.134923  0.736910  1
  Pt  Pt10  1  0.632540  0.367460  0.766576  1
  Pt  Pt11  1  0.632540  0.367460  0.233424  1
  Pt  Pt12  1  0.379290  0.620710  0.218689  1
  Pt  Pt13  1  0.126404  0.134923  0.263090  1
  Pt  Pt14  1  0.865077  0.873596  0.263090  1
  Pt  Pt15  1  0.379290  0.620710  0.781311  1
  Pb  Pb16  1  0.492802  0.996869  0.745887  1
  Pb  Pb17  1  0.492802  0.996869  0.254113  1
  Pb  Pb18  1  0.003131  0.507198  0.745887  1
  Pb  Pb19  1  0.003131  0.507198  0.254113  1
