# generated using pymatgen
data_PuCrF20
_symmetry_space_group_name_H-M   'P 1'
_cell_length_a   10.74295176
_cell_length_b   5.24274125
_cell_length_c   7.05880046
_cell_angle_alpha   90.16984356
_cell_angle_beta   89.36872405
_cell_angle_gamma   88.91434033
_symmetry_Int_Tables_number   1
_chemical_formula_structural   PuCrF20
_chemical_formula_sum   'Pu1 Cr1 F20'
_cell_volume   397.47190631
_cell_formula_units_Z   1
loop_
 _symmetry_equiv_pos_site_id
 _symmetry_equiv_pos_as_xyz
  1  'x, y, z'
loop_
 _atom_site_type_symbol
 _atom_site_label
 _atom_site_symmetry_multiplicity
 _atom_site_fract_x
 _atom_site_fract_y
 _atom_site_fract_z
 _atom_site_occupancy
  Pu  Pu0  1  0.000000  0.500000  0.500000  1
  Cr  Cr1  1  0.500000  0.500000  0.000000  1
  F  F2  1  0.858421  0.780044  0.977976  1
  F  F3  1  0.359368  0.215196  0.522943  1
  F  F4  1  0.141579  0.219956  0.022024  1
  F  F5  1  0.640632  0.784804  0.477057  1
  F  F6  1  0.850975  0.002870  0.094899  1
  F  F7  1  0.354871  0.994889  0.404192  1
  F  F8  1  0.149025  0.997130  0.905101  1
  F  F9  1  0.645129  0.005111  0.595808  1
  F  F10  1  0.077777  0.639573  0.263317  1
  F  F11  1  0.566525  0.367792  0.205310  1
  F  F12  1  0.922223  0.360427  0.736683  1
  F  F13  1  0.433475  0.632208  0.794690  1
  F  F14  1  0.855799  0.376459  0.348232  1
  F  F15  1  0.372835  0.617579  0.135895  1
  F  F16  1  0.144201  0.623541  0.651768  1
  F  F17  1  0.627165  0.382421  0.864105  1
  F  F18  1  0.092163  0.172459  0.453220  1
  F  F19  1  0.579343  0.785200  0.039955  1
  F  F20  1  0.420657  0.214800  0.960045  1
  F  F21  1  0.907837  0.827541  0.546780  1
