# generated using pymatgen
data_Dy8Y4Co4SnOs
_symmetry_space_group_name_H-M   'P 1'
_cell_length_a   8.32157624
_cell_length_b   8.32157575
_cell_length_c   8.32157586
_cell_angle_alpha   106.54034900
_cell_angle_beta   110.39213840
_cell_angle_gamma   111.52246824
_symmetry_Int_Tables_number   1
_chemical_formula_structural   Dy8Y4Co4SnOs
_chemical_formula_sum   'Dy8 Y4 Co4 Sn1 Os1'
_cell_volume   442.69294281
_cell_formula_units_Z   1
loop_
 _symmetry_equiv_pos_site_id
 _symmetry_equiv_pos_as_xyz
  1  'x, y, z'
loop_
 _atom_site_type_symbol
 _atom_site_label
 _atom_site_symmetry_multiplicity
 _atom_site_fract_x
 _atom_site_fract_y
 _atom_site_fract_z
 _atom_site_occupancy
  Dy  Dy0  1  0.306292  0.619958  0.313666  1
  Dy  Dy1  1  0.306292  0.992627  0.686334  1
  Dy  Dy2  1  0.693708  0.380042  0.686334  1
  Dy  Dy3  1  0.693708  0.007373  0.313666  1
  Dy  Dy4  1  0.194113  0.214623  0.408735  1
  Dy  Dy5  1  0.805887  0.785377  0.591265  1
  Dy  Dy6  1  0.194113  0.785377  0.979489  1
  Dy  Dy7  1  0.805887  0.214623  0.020511  1
  Y  Y8  1  0.468753  0.285460  0.183292  1
  Y  Y9  1  0.102168  0.285460  0.816708  1
  Y  Y10  1  0.897832  0.714540  0.183292  1
  Y  Y11  1  0.531247  0.714540  0.816708  1
  Co  Co12  1  0.500000  0.611637  0.111637  1
  Co  Co13  1  0.500000  0.388363  0.888363  1
  Co  Co14  1  0.379315  0.000000  0.379315  1
  Co  Co15  1  0.620685  0.000000  0.620685  1
  Sn  Sn16  1  0.000000  0.500000  0.500000  1
  Os  Os17  1  0.000000  0.000000  0.000000  1
