# generated using pymatgen
data_Sc10Tl7In(CuRh)2
_symmetry_space_group_name_H-M   'P 1'
_cell_length_a   3.41302100
_cell_length_b   7.77464997
_cell_length_c   17.60047395
_cell_angle_alpha   89.92233577
_cell_angle_beta   90.00000000
_cell_angle_gamma   90.00000000
_symmetry_Int_Tables_number   1
_chemical_formula_structural   Sc10Tl7In(CuRh)2
_chemical_formula_sum   'Sc10 Tl7 In1 Cu2 Rh2'
_cell_volume   467.02891478
_cell_formula_units_Z   1
loop_
 _symmetry_equiv_pos_site_id
 _symmetry_equiv_pos_as_xyz
  1  'x, y, z'
loop_
 _atom_site_type_symbol
 _atom_site_label
 _atom_site_symmetry_multiplicity
 _atom_site_fract_x
 _atom_site_fract_y
 _atom_site_fract_z
 _atom_site_occupancy
  Sc  Sc0  1  0.000000  0.000000  0.999932  1
  Sc  Sc1  1  0.000000  0.500569  0.500794  1
  Sc  Sc2  1  0.000000  0.736189  0.780014  1
  Sc  Sc3  1  0.000000  0.264227  0.219544  1
  Sc  Sc4  1  0.000000  0.259021  0.720121  1
  Sc  Sc5  1  0.000000  0.740583  0.279940  1
  Sc  Sc6  1  0.000000  0.874216  0.583725  1
  Sc  Sc7  1  0.000000  0.124871  0.416604  1
  Sc  Sc8  1  0.000000  0.375257  0.913458  1
  Sc  Sc9  1  0.000000  0.624939  0.085904  1
  Tl  Tl10  1  0.500000  0.800493  0.434104  1
  Tl  Tl11  1  0.500000  0.201943  0.566963  1
  Tl  Tl12  1  0.500000  0.298581  0.064241  1
  Tl  Tl13  1  0.500000  0.701214  0.935457  1
  Tl  Tl14  1  0.500000  0.927578  0.151532  1
  Tl  Tl15  1  0.500000  0.072159  0.848251  1
  Tl  Tl16  1  0.500000  0.422525  0.352788  1
  In  In17  1  0.500000  0.576577  0.648313  1
  Cu  Cu18  1  0.500000  0.961183  0.696349  1
  Cu  Cu19  1  0.500000  0.037093  0.303333  1
  Rh  Rh20  1  0.500000  0.461754  0.803255  1
  Rh  Rh21  1  0.500000  0.539029  0.195379  1
