# generated using pymatgen
data_Cs2BaV2O7
_symmetry_space_group_name_H-M   'P 1'
_cell_length_a   6.52771856
_cell_length_b   6.52771867
_cell_length_c   15.02294511
_cell_angle_alpha   76.58688739
_cell_angle_beta   76.58688644
_cell_angle_gamma   58.78937299
_symmetry_Int_Tables_number   1
_chemical_formula_structural   Cs2BaV2O7
_chemical_formula_sum   'Cs4 Ba2 V4 O14'
_cell_volume   527.73311498
_cell_formula_units_Z   2
loop_
 _symmetry_equiv_pos_site_id
 _symmetry_equiv_pos_as_xyz
  1  'x, y, z'
loop_
 _atom_site_type_symbol
 _atom_site_label
 _atom_site_symmetry_multiplicity
 _atom_site_fract_x
 _atom_site_fract_y
 _atom_site_fract_z
 _atom_site_occupancy
  Cs  Cs0  1  0.359672  0.916662  0.844576  1
  Cs  Cs1  1  0.083338  0.640328  0.655424  1
  Cs  Cs2  1  0.640328  0.083338  0.155424  1
  Cs  Cs3  1  0.916662  0.359672  0.344576  1
  Ba  Ba4  1  0.000000  0.500000  0.000000  1
  Ba  Ba5  1  0.500000  0.000000  0.500000  1
  V  V6  1  0.694526  0.240393  0.864192  1
  V  V7  1  0.759607  0.305474  0.635808  1
  V  V8  1  0.305474  0.759607  0.135808  1
  V  V9  1  0.240393  0.694526  0.364192  1
  O  O10  1  0.854980  0.145020  0.750000  1
  O  O11  1  0.145020  0.854980  0.250000  1
  O  O12  1  0.386153  0.398026  0.863885  1
  O  O13  1  0.601974  0.613847  0.636115  1
  O  O14  1  0.613847  0.601974  0.136115  1
  O  O15  1  0.398026  0.386153  0.363885  1
  O  O16  1  0.780231  0.980089  0.941120  1
  O  O17  1  0.019911  0.219769  0.558880  1
  O  O18  1  0.219769  0.019911  0.058880  1
  O  O19  1  0.980089  0.780231  0.441120  1
  O  O20  1  0.421462  0.789099  0.388504  1
  O  O21  1  0.210901  0.578538  0.111496  1
  O  O22  1  0.578538  0.210901  0.611496  1
  O  O23  1  0.789099  0.421462  0.888504  1
