# generated using pymatgen
data_PrDy5Cd23P
_symmetry_space_group_name_H-M   'P 1'
_cell_length_a   9.98385890
_cell_length_b   9.94379383
_cell_length_c   9.94378505
_cell_angle_alpha   60.26677886
_cell_angle_beta   59.86665216
_cell_angle_gamma   59.86688637
_symmetry_Int_Tables_number   1
_chemical_formula_structural   PrDy5Cd23P
_chemical_formula_sum   'Pr1 Dy5 Cd23 P1'
_cell_volume   698.03012640
_cell_formula_units_Z   1
loop_
 _symmetry_equiv_pos_site_id
 _symmetry_equiv_pos_as_xyz
  1  'x, y, z'
loop_
 _atom_site_type_symbol
 _atom_site_label
 _atom_site_symmetry_multiplicity
 _atom_site_fract_x
 _atom_site_fract_y
 _atom_site_fract_z
 _atom_site_occupancy
  Pr  Pr0  1  0.202649  0.797351  0.797351  1
  Dy  Dy1  1  0.803238  0.803947  0.196762  1
  Dy  Dy2  1  0.196053  0.803947  0.196762  1
  Dy  Dy3  1  0.799708  0.200292  0.200292  1
  Dy  Dy4  1  0.196053  0.196762  0.803947  1
  Dy  Dy5  1  0.803239  0.196761  0.803947  1
  Cd  Cd6  1  0.836566  0.838290  0.488578  1
  Cd  Cd7  1  0.836566  0.488578  0.838289  1
  Cd  Cd8  1  0.493979  0.836062  0.836061  1
  Cd  Cd9  1  0.833897  0.836062  0.836062  1
  Cd  Cd10  1  0.163938  0.166103  0.506022  1
  Cd  Cd11  1  0.163938  0.506021  0.166103  1
  Cd  Cd12  1  0.511422  0.163434  0.163435  1
  Cd  Cd13  1  0.161710  0.163434  0.163434  1
  Cd  Cd14  1  0.620558  0.621298  0.137585  1
  Cd  Cd15  1  0.620559  0.137585  0.621297  1
  Cd  Cd16  1  0.134737  0.619608  0.619607  1
  Cd  Cd17  1  0.626047  0.619607  0.619608  1
  Cd  Cd18  1  0.380393  0.373953  0.865262  1
  Cd  Cd19  1  0.380392  0.865263  0.373952  1
  Cd  Cd20  1  0.862415  0.379441  0.379441  1
  Cd  Cd21  1  0.378702  0.379442  0.379441  1
  Cd  Cd22  1  0.999423  0.000577  0.499643  1
  Cd  Cd23  1  0.500357  0.000577  0.499643  1
  Cd  Cd24  1  0.999224  0.500776  0.500776  1
  Cd  Cd25  1  0.500357  0.499643  0.000577  1
  Cd  Cd26  1  0.999423  0.499643  0.000577  1
  Cd  Cd27  1  0.499224  0.000776  0.000776  1
  Cd  Cd28  1  0.498502  0.501498  0.501498  1
  P  P29  1  0.996729  0.003271  0.003271  1
