# generated using pymatgen
data_Li2TaPt3
_symmetry_space_group_name_H-M   'P 1'
_cell_length_a   4.61555450
_cell_length_b   4.09384578
_cell_length_c   7.73486076
_cell_angle_alpha   105.49088913
_cell_angle_beta   119.58834888
_cell_angle_gamma   116.19044381
_symmetry_Int_Tables_number   1
_chemical_formula_structural   Li2TaPt3
_chemical_formula_sum   'Li2 Ta1 Pt3'
_cell_volume   89.33963645
_cell_formula_units_Z   1
loop_
 _symmetry_equiv_pos_site_id
 _symmetry_equiv_pos_as_xyz
  1  'x, y, z'
loop_
 _atom_site_type_symbol
 _atom_site_label
 _atom_site_symmetry_multiplicity
 _atom_site_fract_x
 _atom_site_fract_y
 _atom_site_fract_z
 _atom_site_occupancy
  Li  Li0  1  0.935688  0.240888  0.043987  1
  Li  Li1  1  0.518961  0.171135  0.324473  1
  Ta  Ta2  1  0.227444  0.205253  0.684538  1
  Pt  Pt3  1  0.727680  0.704619  0.184423  1
  Pt  Pt4  1  0.395908  0.710829  0.528818  1
  Pt  Pt5  1  0.058344  0.698500  0.839186  1
