# generated using pymatgen
data_Er7ScVSi16Tc11
_symmetry_space_group_name_H-M   'P 1'
_cell_length_a   6.77193698
_cell_length_b   6.76288177
_cell_length_c   12.53852243
_cell_angle_alpha   89.62991104
_cell_angle_beta   89.91132751
_cell_angle_gamma   89.99205155
_symmetry_Int_Tables_number   1
_chemical_formula_structural   Er7ScVSi16Tc11
_chemical_formula_sum   'Er7 Sc1 V1 Si16 Tc11'
_cell_volume   574.22418568
_cell_formula_units_Z   1
loop_
 _symmetry_equiv_pos_site_id
 _symmetry_equiv_pos_as_xyz
  1  'x, y, z'
loop_
 _atom_site_type_symbol
 _atom_site_label
 _atom_site_symmetry_multiplicity
 _atom_site_fract_x
 _atom_site_fract_y
 _atom_site_fract_z
 _atom_site_occupancy
  Er  Er0  1  0.001351  0.661930  0.030040  1
  Er  Er1  1  0.838466  0.498598  0.281694  1
  Er  Er2  1  0.159178  0.497919  0.779485  1
  Er  Er3  1  0.499908  0.840511  0.719033  1
  Er  Er4  1  0.496015  0.159232  0.220166  1
  Er  Er5  1  0.996294  0.337329  0.529690  1
  Er  Er6  1  0.659668  0.003826  0.969266  1
  Sc  Sc7  1  0.341707  0.995396  0.469844  1
  V  V8  1  0.831027  0.006167  0.376314  1
  Si  Si9  1  0.275307  0.973784  0.064501  1
  Si  Si10  1  0.530904  0.785861  0.318026  1
  Si  Si11  1  0.476903  0.229921  0.812146  1
  Si  Si12  1  0.771132  0.525088  0.685927  1
  Si  Si13  1  0.218485  0.470389  0.184923  1
  Si  Si14  1  0.716338  0.030419  0.564177  1
  Si  Si15  1  0.975289  0.276102  0.936409  1
  Si  Si16  1  0.037862  0.718026  0.434940  1
  Si  Si17  1  0.692432  0.381253  0.063755  1
  Si  Si18  1  0.122828  0.192023  0.317457  1
  Si  Si19  1  0.880670  0.809355  0.811034  1
  Si  Si20  1  0.192682  0.119231  0.684933  1
  Si  Si21  1  0.805104  0.881005  0.189351  1
  Si  Si22  1  0.309233  0.621941  0.560742  1
  Si  Si23  1  0.382182  0.691663  0.937075  1
  Si  Si24  1  0.618264  0.297319  0.435241  1
  Tc  Tc25  1  0.332289  0.330621  0.998780  1
  Tc  Tc26  1  0.166626  0.835162  0.252810  1
  Tc  Tc27  1  0.829236  0.170773  0.749793  1
  Tc  Tc28  1  0.665942  0.672667  0.499507  1
  Tc  Tc29  1  0.979414  0.178005  0.129339  1
  Tc  Tc30  1  0.328759  0.486057  0.374354  1
  Tc  Tc31  1  0.683439  0.525130  0.880521  1
  Tc  Tc32  1  0.473457  0.317595  0.618820  1
  Tc  Tc33  1  0.514738  0.672213  0.125088  1
  Tc  Tc34  1  0.020181  0.829081  0.623716  1
  Tc  Tc35  1  0.176692  0.978407  0.871100  1
