# generated using pymatgen
data_TbY3Al18Rh5Au
_symmetry_space_group_name_H-M   'P 1'
_cell_length_a   7.60042976
_cell_length_b   7.60035896
_cell_length_c   9.49284701
_cell_angle_alpha   89.94377573
_cell_angle_beta   89.94111649
_cell_angle_gamma   119.49407356
_symmetry_Int_Tables_number   1
_chemical_formula_structural   TbY3Al18Rh5Au
_chemical_formula_sum   'Tb1 Y3 Al18 Rh5 Au1'
_cell_volume   477.29849013
_cell_formula_units_Z   1
loop_
 _symmetry_equiv_pos_site_id
 _symmetry_equiv_pos_as_xyz
  1  'x, y, z'
loop_
 _atom_site_type_symbol
 _atom_site_label
 _atom_site_symmetry_multiplicity
 _atom_site_fract_x
 _atom_site_fract_y
 _atom_site_fract_z
 _atom_site_occupancy
  Tb  Tb0  1  0.326106  0.004444  0.749461  1
  Y  Y1  1  0.995539  0.673867  0.250585  1
  Y  Y2  1  0.004437  0.326138  0.749424  1
  Y  Y3  1  0.673878  0.995548  0.250582  1
  Al  Al4  1  0.135138  0.135145  0.257142  1
  Al  Al5  1  0.864843  0.864839  0.742867  1
  Al  Al6  1  0.001451  0.344315  0.078958  1
  Al  Al7  1  0.998523  0.655649  0.921014  1
  Al  Al8  1  0.000356  0.664149  0.573882  1
  Al  Al9  1  0.335804  0.999613  0.426096  1
  Al  Al10  1  0.999609  0.335804  0.426125  1
  Al  Al11  1  0.664223  0.000389  0.573888  1
  Al  Al12  1  0.655714  0.998550  0.921022  1
  Al  Al13  1  0.344324  0.001457  0.078977  1
  Al  Al14  1  0.333259  0.333286  0.550621  1
  Al  Al15  1  0.666747  0.666749  0.449373  1
  Al  Al16  1  0.658381  0.658381  0.055608  1
  Al  Al17  1  0.341621  0.341642  0.944389  1
  Al  Al18  1  0.339502  0.550838  0.251266  1
  Al  Al19  1  0.660500  0.449194  0.748734  1
  Al  Al20  1  0.550846  0.339502  0.251268  1
  Al  Al21  1  0.449183  0.660490  0.748731  1
  Rh  Rh22  1  0.671814  0.328222  0.000035  1
  Rh  Rh23  1  0.328211  0.671779  0.000022  1
  Rh  Rh24  1  0.328174  0.671820  0.499977  1
  Rh  Rh25  1  0.671837  0.328186  0.499974  1
  Rh  Rh26  1  0.999988  0.000005  0.499973  1
  Au  Au27  1  0.999989  0.999999  0.000007  1
