# generated using pymatgen
data_YHo2RuI3
_symmetry_space_group_name_H-M   'P 1'
_cell_length_a   8.84534211
_cell_length_b   4.21041100
_cell_length_c   12.30292471
_cell_angle_alpha   90.00000000
_cell_angle_beta   94.15024278
_cell_angle_gamma   90.00000000
_symmetry_Int_Tables_number   1
_chemical_formula_structural   YHo2RuI3
_chemical_formula_sum   'Y2 Ho4 Ru2 I6'
_cell_volume   456.99047454
_cell_formula_units_Z   2
loop_
 _symmetry_equiv_pos_site_id
 _symmetry_equiv_pos_as_xyz
  1  'x, y, z'
loop_
 _atom_site_type_symbol
 _atom_site_label
 _atom_site_symmetry_multiplicity
 _atom_site_fract_x
 _atom_site_fract_y
 _atom_site_fract_z
 _atom_site_occupancy
  Y  Y0  1  0.100319  0.250000  0.316677  1
  Y  Y1  1  0.899682  0.750001  0.683323  1
  Ho  Ho2  1  0.132085  0.250000  0.875128  1
  Ho  Ho3  1  0.867915  0.750001  0.124872  1
  Ho  Ho4  1  0.260028  0.750001  0.104113  1
  Ho  Ho5  1  0.739972  0.250000  0.895887  1
  Ru  Ru6  1  0.053569  0.250000  0.092578  1
  Ru  Ru7  1  0.946433  0.750001  0.907423  1
  I  I8  1  0.426786  0.750001  0.866486  1
  I  I9  1  0.573214  0.250000  0.133515  1
  I  I10  1  0.143053  0.250000  0.608152  1
  I  I11  1  0.856946  0.750001  0.391847  1
  I  I12  1  0.356191  0.750001  0.366198  1
  I  I13  1  0.643809  0.250000  0.633802  1
