# generated using pymatgen
data_Dy8Tm11LuSn16
_symmetry_space_group_name_H-M   'P 1'
_cell_length_a   7.97024105
_cell_length_b   8.10436105
_cell_length_c   15.31742500
_cell_angle_alpha   90.00000000
_cell_angle_beta   90.00000000
_cell_angle_gamma   90.01250384
_symmetry_Int_Tables_number   1
_chemical_formula_structural   Dy8Tm11LuSn16
_chemical_formula_sum   'Dy8 Tm11 Lu1 Sn16'
_cell_volume   989.40930153
_cell_formula_units_Z   1
loop_
 _symmetry_equiv_pos_site_id
 _symmetry_equiv_pos_as_xyz
  1  'x, y, z'
loop_
 _atom_site_type_symbol
 _atom_site_label
 _atom_site_symmetry_multiplicity
 _atom_site_fract_x
 _atom_site_fract_y
 _atom_site_fract_z
 _atom_site_occupancy
  Dy  Dy0  1  0.521746  0.320415  0.902814  1
  Dy  Dy1  1  0.021729  0.179601  0.597173  1
  Dy  Dy2  1  0.478229  0.679635  0.402820  1
  Dy  Dy3  1  0.978312  0.820447  0.097192  1
  Dy  Dy4  1  0.478229  0.679635  0.097180  1
  Dy  Dy5  1  0.978312  0.820447  0.402808  1
  Dy  Dy6  1  0.521746  0.320415  0.597186  1
  Dy  Dy7  1  0.021729  0.179601  0.902827  1
  Tm  Tm8  1  0.367466  0.836210  0.877492  1
  Tm  Tm9  1  0.867461  0.663772  0.622533  1
  Tm  Tm10  1  0.632439  0.163726  0.377486  1
  Tm  Tm11  1  0.132600  0.336155  0.122521  1
  Tm  Tm12  1  0.632439  0.163726  0.122514  1
  Tm  Tm13  1  0.132600  0.336155  0.377479  1
  Tm  Tm14  1  0.367466  0.836210  0.622508  1
  Tm  Tm15  1  0.867461  0.663772  0.877467  1
  Tm  Tm16  1  0.197697  0.504202  0.750000  1
  Tm  Tm17  1  0.697689  0.995789  0.750000  1
  Tm  Tm18  1  0.802333  0.495819  0.250000  1
  Lu  Lu19  1  0.302228  0.004258  0.250000  1
  Sn  Sn20  1  0.294036  0.036754  0.041766  1
  Sn  Sn21  1  0.794046  0.463254  0.458344  1
  Sn  Sn22  1  0.705951  0.963226  0.541658  1
  Sn  Sn23  1  0.205953  0.536750  0.958341  1
  Sn  Sn24  1  0.705951  0.963226  0.958342  1
  Sn  Sn25  1  0.205953  0.536750  0.541659  1
  Sn  Sn26  1  0.294036  0.036754  0.458234  1
  Sn  Sn27  1  0.794046  0.463254  0.041656  1
  Sn  Sn28  1  0.564225  0.620946  0.750000  1
  Sn  Sn29  1  0.064256  0.879079  0.750000  1
  Sn  Sn30  1  0.435708  0.378951  0.250000  1
  Sn  Sn31  1  0.936034  0.120833  0.250000  1
  Sn  Sn32  1  0.330340  0.147381  0.750000  1
  Sn  Sn33  1  0.830437  0.352540  0.750000  1
  Sn  Sn34  1  0.669526  0.852606  0.250000  1
  Sn  Sn35  1  0.169593  0.647708  0.250000  1
