# generated using pymatgen
data_Nd(EuSe2)2
_symmetry_space_group_name_H-M   'P 1'
_cell_length_a   7.81171667
_cell_length_b   7.79719550
_cell_length_c   7.81138944
_cell_angle_alpha   109.48298013
_cell_angle_beta   109.45757072
_cell_angle_gamma   109.48553715
_symmetry_Int_Tables_number   1
_chemical_formula_structural   Nd(EuSe2)2
_chemical_formula_sum   'Nd2 Eu4 Se8'
_cell_volume   366.20533196
_cell_formula_units_Z   2
loop_
 _symmetry_equiv_pos_site_id
 _symmetry_equiv_pos_as_xyz
  1  'x, y, z'
loop_
 _atom_site_type_symbol
 _atom_site_label
 _atom_site_symmetry_multiplicity
 _atom_site_fract_x
 _atom_site_fract_y
 _atom_site_fract_z
 _atom_site_occupancy
  Nd  Nd0  1  0.751233  0.875737  0.125091  1
  Nd  Nd1  1  0.625097  0.375736  0.251244  1
  Eu  Eu2  1  0.250291  0.625567  0.374338  1
  Eu  Eu3  1  0.374345  0.248067  0.623687  1
  Eu  Eu4  1  0.874338  0.125596  0.750281  1
  Eu  Eu5  1  0.123714  0.748076  0.874394  1
  Se  Se6  1  0.850407  0.502753  0.004125  1
  Se  Se7  1  0.357141  0.500983  0.001082  1
  Se  Se8  1  0.149615  0.147439  0.146562  1
  Se  Se9  1  0.504130  0.002749  0.350394  1
  Se  Se10  1  0.995017  0.849436  0.497033  1
  Se  Se11  1  0.997023  0.349442  0.495016  1
  Se  Se12  1  0.646583  0.647449  0.649619  1
  Se  Se13  1  0.501066  0.000968  0.857134  1
