# generated using pymatgen
data_LiNd2ZnRh2
_symmetry_space_group_name_H-M   'P 1'
_cell_length_a   4.07320200
_cell_length_b   7.29548113
_cell_length_c   16.49888281
_cell_angle_alpha   89.91245222
_cell_angle_beta   90.00000000
_cell_angle_gamma   90.00000000
_symmetry_Int_Tables_number   1
_chemical_formula_structural   LiNd2ZnRh2
_chemical_formula_sum   'Li4 Nd8 Zn4 Rh8'
_cell_volume   490.27970681
_cell_formula_units_Z   4
loop_
 _symmetry_equiv_pos_site_id
 _symmetry_equiv_pos_as_xyz
  1  'x, y, z'
loop_
 _atom_site_type_symbol
 _atom_site_label
 _atom_site_symmetry_multiplicity
 _atom_site_fract_x
 _atom_site_fract_y
 _atom_site_fract_z
 _atom_site_occupancy
  Li  Li0  1  0.750000  0.007998  0.560460  1
  Li  Li1  1  0.250000  0.631598  0.351118  1
  Li  Li2  1  0.750000  0.369123  0.648880  1
  Li  Li3  1  0.250000  0.491304  0.060557  1
  Nd  Nd4  1  0.250000  0.169913  0.939166  1
  Nd  Nd5  1  0.250000  0.661138  0.560475  1
  Nd  Nd6  1  0.750000  0.333365  0.439024  1
  Nd  Nd7  1  0.750000  0.956833  0.282157  1
  Nd  Nd8  1  0.750000  0.834424  0.059911  1
  Nd  Nd9  1  0.750000  0.451287  0.215518  1
  Nd  Nd10  1  0.250000  0.042544  0.718177  1
  Nd  Nd11  1  0.250000  0.548220  0.785039  1
  Zn  Zn12  1  0.750000  0.503772  0.941340  1
  Zn  Zn13  1  0.250000  0.993332  0.438885  1
  Zn  Zn14  1  0.250000  0.127628  0.148916  1
  Zn  Zn15  1  0.750000  0.875167  0.850790  1
  Rh  Rh16  1  0.750000  0.757233  0.439241  1
  Rh  Rh17  1  0.250000  0.241718  0.312450  1
  Rh  Rh18  1  0.750000  0.249289  0.815902  1
  Rh  Rh19  1  0.750000  0.758246  0.689382  1
  Rh  Rh20  1  0.250000  0.248363  0.559610  1
  Rh  Rh21  1  0.250000  0.752899  0.184605  1
  Rh  Rh22  1  0.750000  0.249382  0.063784  1
  Rh  Rh23  1  0.250000  0.745226  0.934614  1
