# generated using pymatgen
data_Lu5CoSiBi
_symmetry_space_group_name_H-M   'P 1'
_cell_length_a   8.34302886
_cell_length_b   8.34302863
_cell_length_c   8.60304536
_cell_angle_alpha   125.72587369
_cell_angle_beta   125.72586635
_cell_angle_gamma   78.21665942
_symmetry_Int_Tables_number   1
_chemical_formula_structural   Lu5CoSiBi
_chemical_formula_sum   'Lu10 Co2 Si2 Bi2'
_cell_volume   386.06877956
_cell_formula_units_Z   2
loop_
 _symmetry_equiv_pos_site_id
 _symmetry_equiv_pos_as_xyz
  1  'x, y, z'
loop_
 _atom_site_type_symbol
 _atom_site_label
 _atom_site_symmetry_multiplicity
 _atom_site_fract_x
 _atom_site_fract_y
 _atom_site_fract_z
 _atom_site_occupancy
  Lu  Lu0  1  0.000000  0.000000  0.000000  1
  Lu  Lu1  1  0.500000  0.500000  0.000000  1
  Lu  Lu2  1  0.773502  0.273502  0.785006  1
  Lu  Lu3  1  0.226498  0.726498  0.214994  1
  Lu  Lu4  1  0.488497  0.988497  0.214994  1
  Lu  Lu5  1  0.299440  0.460131  0.500000  1
  Lu  Lu6  1  0.039869  0.200560  0.500000  1
  Lu  Lu7  1  0.511503  0.011503  0.785006  1
  Lu  Lu8  1  0.700560  0.539869  0.500000  1
  Lu  Lu9  1  0.960131  0.799440  0.500000  1
  Co  Co10  1  0.635139  0.864861  0.500000  1
  Co  Co11  1  0.364861  0.135139  0.500000  1
  Si  Si12  1  0.147275  0.647275  0.794551  1
  Si  Si13  1  0.852725  0.352725  0.205449  1
  Bi  Bi14  1  0.250000  0.250000  0.000000  1
  Bi  Bi15  1  0.750000  0.750000  0.000000  1
