# generated using pymatgen
data_Er4FeTc3B8
_symmetry_space_group_name_H-M   'P 1'
_cell_length_a   5.24470700
_cell_length_b   5.89446051
_cell_length_c   6.35991323
_cell_angle_alpha   90.65247698
_cell_angle_beta   90.00000000
_cell_angle_gamma   90.00000000
_symmetry_Int_Tables_number   1
_chemical_formula_structural   Er4FeTc3B8
_chemical_formula_sum   'Er4 Fe1 Tc3 B8'
_cell_volume   196.60217724
_cell_formula_units_Z   1
loop_
 _symmetry_equiv_pos_site_id
 _symmetry_equiv_pos_as_xyz
  1  'x, y, z'
loop_
 _atom_site_type_symbol
 _atom_site_label
 _atom_site_symmetry_multiplicity
 _atom_site_fract_x
 _atom_site_fract_y
 _atom_site_fract_z
 _atom_site_occupancy
  Er  Er0  1  0.250000  0.513582  0.839623  1
  Er  Er1  1  0.250000  0.012265  0.663158  1
  Er  Er2  1  0.750000  0.487947  0.159200  1
  Er  Er3  1  0.750000  0.989010  0.339732  1
  Fe  Fe4  1  0.750000  0.820884  0.815550  1
  Tc  Tc5  1  0.250000  0.682982  0.316724  1
  Tc  Tc6  1  0.250000  0.180346  0.183894  1
  Tc  Tc7  1  0.750000  0.319093  0.687487  1
  B  B8  1  0.077030  0.866936  0.032168  1
  B  B9  1  0.423772  0.371284  0.464180  1
  B  B10  1  0.580811  0.123179  0.959791  1
  B  B11  1  0.919022  0.635547  0.541178  1
  B  B12  1  0.919189  0.123179  0.959791  1
  B  B13  1  0.580978  0.635547  0.541178  1
  B  B14  1  0.422970  0.866936  0.032168  1
  B  B15  1  0.076228  0.371284  0.464180  1
