# generated using pymatgen
data_DyHo9(PtPb3)2
_symmetry_space_group_name_H-M   'P 1'
_cell_length_a   9.19496100
_cell_length_b   9.19496141
_cell_length_c   6.80390500
_cell_angle_alpha   90.00000000
_cell_angle_beta   90.00000000
_cell_angle_gamma   120.00000211
_symmetry_Int_Tables_number   1
_chemical_formula_structural   DyHo9(PtPb3)2
_chemical_formula_sum   'Dy1 Ho9 Pt2 Pb6'
_cell_volume   498.18272757
_cell_formula_units_Z   1
loop_
 _symmetry_equiv_pos_site_id
 _symmetry_equiv_pos_as_xyz
  1  'x, y, z'
loop_
 _atom_site_type_symbol
 _atom_site_label
 _atom_site_symmetry_multiplicity
 _atom_site_fract_x
 _atom_site_fract_y
 _atom_site_fract_z
 _atom_site_occupancy
  Dy  Dy0  1  0.333333  0.666667  0.500000  1
  Ho  Ho1  1  0.244894  0.000054  0.750153  1
  Ho  Ho2  1  0.755161  0.000054  0.249847  1
  Ho  Ho3  1  0.999946  0.244839  0.750153  1
  Ho  Ho4  1  0.999946  0.755106  0.249847  1
  Ho  Ho5  1  0.755161  0.755106  0.750153  1
  Ho  Ho6  1  0.244894  0.244839  0.249847  1
  Ho  Ho7  1  0.666667  0.333333  0.500000  1
  Ho  Ho8  1  0.666667  0.333333  0.000000  1
  Ho  Ho9  1  0.333333  0.666667  0.000000  1
  Pt  Pt10  1  0.000000  0.000000  0.500000  1
  Pt  Pt11  1  0.000000  0.000000  0.000000  1
  Pb  Pb12  1  0.600338  0.000240  0.750213  1
  Pb  Pb13  1  0.399902  0.000240  0.249787  1
  Pb  Pb14  1  0.999760  0.600098  0.750213  1
  Pb  Pb15  1  0.999760  0.399662  0.249787  1
  Pb  Pb16  1  0.399902  0.399662  0.750213  1
  Pb  Pb17  1  0.600338  0.600098  0.249787  1
