# generated using pymatgen
data_KZr2CrS6
_symmetry_space_group_name_H-M   'P 1'
_cell_length_a   9.06264908
_cell_length_b   9.06264768
_cell_length_c   9.06264900
_cell_angle_alpha   39.94380498
_cell_angle_beta   39.94381551
_cell_angle_gamma   39.94381554
_symmetry_Int_Tables_number   1
_chemical_formula_structural   KZr2CrS6
_chemical_formula_sum   'K1 Zr2 Cr1 S6'
_cell_volume   276.42368256
_cell_formula_units_Z   1
loop_
 _symmetry_equiv_pos_site_id
 _symmetry_equiv_pos_as_xyz
  1  'x, y, z'
loop_
 _atom_site_type_symbol
 _atom_site_label
 _atom_site_symmetry_multiplicity
 _atom_site_fract_x
 _atom_site_fract_y
 _atom_site_fract_z
 _atom_site_occupancy
  K  K0  1  0.999332  0.999332  0.999332  1
  Zr  Zr1  1  0.500927  0.500927  0.500927  1
  Zr  Zr2  1  0.832469  0.832469  0.832469  1
  Cr  Cr3  1  0.166745  0.166745  0.166745  1
  S  S4  1  0.543470  0.223927  0.908163  1
  S  S5  1  0.908163  0.543470  0.223927  1
  S  S6  1  0.223927  0.908163  0.543470  1
  S  S7  1  0.789365  0.110033  0.425571  1
  S  S8  1  0.110033  0.425571  0.789365  1
  S  S9  1  0.425571  0.789365  0.110033  1
