# generated using pymatgen
data_K8TbTl3F20
_symmetry_space_group_name_H-M   'P 1'
_cell_length_a   6.78422809
_cell_length_b   7.27620200
_cell_length_c   11.21841400
_cell_angle_alpha   90.00000000
_cell_angle_beta   90.07020695
_cell_angle_gamma   90.00000000
_symmetry_Int_Tables_number   1
_chemical_formula_structural   K8TbTl3F20
_chemical_formula_sum   'K8 Tb1 Tl3 F20'
_cell_volume   553.77879919
_cell_formula_units_Z   1
loop_
 _symmetry_equiv_pos_site_id
 _symmetry_equiv_pos_as_xyz
  1  'x, y, z'
loop_
 _atom_site_type_symbol
 _atom_site_label
 _atom_site_symmetry_multiplicity
 _atom_site_fract_x
 _atom_site_fract_y
 _atom_site_fract_z
 _atom_site_occupancy
  K  K0  1  0.531975  0.499084  0.829425  1
  K  K1  1  0.467196  0.502062  0.170984  1
  K  K2  1  0.035931  0.502777  0.671918  1
  K  K3  1  0.467196  0.997938  0.170984  1
  K  K4  1  0.969019  0.499142  0.327559  1
  K  K5  1  0.531975  0.000916  0.829425  1
  K  K6  1  0.969019  0.000858  0.327559  1
  K  K7  1  0.035931  0.997223  0.671918  1
  Tb  Tb8  1  0.564690  0.750000  0.502012  1
  Tl  Tl9  1  0.434470  0.250000  0.498243  1
  Tl  Tl10  1  0.063346  0.250000  0.998679  1
  Tl  Tl11  1  0.935479  0.750000  0.001275  1
  F  F12  1  0.837334  0.750000  0.810960  1
  F  F13  1  0.161590  0.250000  0.188314  1
  F  F14  1  0.339665  0.250000  0.687933  1
  F  F15  1  0.660690  0.750000  0.311318  1
  F  F16  1  0.373570  0.750000  0.664686  1
  F  F17  1  0.624886  0.250000  0.339443  1
  F  F18  1  0.875195  0.250000  0.838354  1
  F  F19  1  0.124950  0.750000  0.161496  1
  F  F20  1  0.892349  0.750000  0.514373  1
  F  F21  1  0.106629  0.250000  0.486858  1
  F  F22  1  0.392110  0.250000  0.986722  1
  F  F23  1  0.607196  0.750000  0.012642  1
  F  F24  1  0.648376  0.034782  0.576137  1
  F  F25  1  0.351486  0.960801  0.421712  1
  F  F26  1  0.150509  0.961526  0.922473  1
  F  F27  1  0.351486  0.539199  0.421712  1
  F  F28  1  0.848430  0.038379  0.078140  1
  F  F29  1  0.648376  0.465218  0.576137  1
  F  F30  1  0.848430  0.461621  0.078140  1
  F  F31  1  0.150509  0.538474  0.922473  1
