# generated using pymatgen
data_Th4Al18(PdRu)3
_symmetry_space_group_name_H-M   'P 1'
_cell_length_a   7.71711239
_cell_length_b   7.71709795
_cell_length_c   9.57362628
_cell_angle_alpha   90.04619636
_cell_angle_beta   90.04618317
_cell_angle_gamma   119.38789089
_symmetry_Int_Tables_number   1
_chemical_formula_structural   Th4Al18(PdRu)3
_chemical_formula_sum   'Th4 Al18 Pd3 Ru3'
_cell_volume   496.77669179
_cell_formula_units_Z   1
loop_
 _symmetry_equiv_pos_site_id
 _symmetry_equiv_pos_as_xyz
  1  'x, y, z'
loop_
 _atom_site_type_symbol
 _atom_site_label
 _atom_site_symmetry_multiplicity
 _atom_site_fract_x
 _atom_site_fract_y
 _atom_site_fract_z
 _atom_site_occupancy
  Th  Th0  1  0.994032  0.672254  0.248245  1
  Th  Th1  1  0.006067  0.328443  0.750796  1
  Th  Th2  1  0.671558  0.993934  0.249204  1
  Th  Th3  1  0.327746  0.005967  0.751755  1
  Al  Al4  1  0.130246  0.131996  0.249458  1
  Al  Al5  1  0.868004  0.869755  0.750542  1
  Al  Al6  1  0.999045  0.329895  0.073874  1
  Al  Al7  1  0.990925  0.663384  0.924721  1
  Al  Al8  1  0.994483  0.669247  0.576446  1
  Al  Al9  1  0.330753  0.005517  0.423553  1
  Al  Al10  1  0.005030  0.331649  0.424119  1
  Al  Al11  1  0.668351  0.994970  0.575881  1
  Al  Al12  1  0.670105  0.000955  0.926126  1
  Al  Al13  1  0.336616  0.009075  0.075279  1
  Al  Al14  1  0.332552  0.332654  0.549933  1
  Al  Al15  1  0.667346  0.667448  0.450067  1
  Al  Al16  1  0.669440  0.664011  0.043034  1
  Al  Al17  1  0.335989  0.330560  0.956966  1
  Al  Al18  1  0.342049  0.544713  0.249503  1
  Al  Al19  1  0.656192  0.452620  0.754786  1
  Al  Al20  1  0.547379  0.343808  0.245214  1
  Al  Al21  1  0.455287  0.657950  0.750497  1
  Pd  Pd22  1  0.327766  0.672235  0.000000  1
  Pd  Pd23  1  0.326982  0.673019  0.500000  1
  Pd  Pd24  1  0.671999  0.328001  0.500000  1
  Ru  Ru25  1  0.673163  0.326836  0.000000  1
  Ru  Ru26  1  0.000979  0.999020  0.000000  1
  Ru  Ru27  1  0.999913  0.000087  0.500000  1
