# generated using pymatgen
data_Ca12Hg5Ir
_symmetry_space_group_name_H-M   'P 1'
_cell_length_a   9.60307546
_cell_length_b   9.60307622
_cell_length_c   9.60307514
_cell_angle_alpha   124.65778771
_cell_angle_beta   79.64934408
_cell_angle_gamma   127.66172633
_symmetry_Int_Tables_number   1
_chemical_formula_structural   Ca12Hg5Ir
_chemical_formula_sum   'Ca12 Hg5 Ir1'
_cell_volume   557.19265568
_cell_formula_units_Z   1
loop_
 _symmetry_equiv_pos_site_id
 _symmetry_equiv_pos_as_xyz
  1  'x, y, z'
loop_
 _atom_site_type_symbol
 _atom_site_label
 _atom_site_symmetry_multiplicity
 _atom_site_fract_x
 _atom_site_fract_y
 _atom_site_fract_z
 _atom_site_occupancy
  Ca  Ca0  1  0.616501  0.616501  0.000000  1
  Ca  Ca1  1  0.754563  0.113952  0.113159  1
  Ca  Ca2  1  0.402494  0.196203  0.206292  1
  Ca  Ca3  1  0.246802  0.467808  0.221006  1
  Ca  Ca4  1  0.008595  0.704157  0.304438  1
  Ca  Ca5  1  0.000793  0.113951  0.359389  1
  Ca  Ca6  1  0.583830  0.083829  0.500000  1
  Ca  Ca7  1  0.754563  0.641404  0.640611  1
  Ca  Ca8  1  0.399718  0.704157  0.695562  1
  Ca  Ca9  1  0.246801  0.025795  0.778995  1
  Ca  Ca10  1  0.989910  0.196203  0.793708  1
  Ca  Ca11  1  0.000793  0.641404  0.886841  1
  Hg  Hg12  1  0.331302  0.741270  0.075059  1
  Hg  Hg13  1  0.666211  0.741270  0.409968  1
  Hg  Hg14  1  0.010888  0.510888  0.500000  1
  Hg  Hg15  1  0.331302  0.256242  0.590033  1
  Hg  Hg16  1  0.666211  0.256242  0.924941  1
  Ir  Ir17  1  0.990429  0.990429  0.000000  1
