# generated using pymatgen
data_Na3CaTcN4
_symmetry_space_group_name_H-M   'P 1'
_cell_length_a   5.80216588
_cell_length_b   5.86277955
_cell_length_c   8.78239200
_cell_angle_alpha   70.73490231
_cell_angle_beta   79.06900608
_cell_angle_gamma   68.59308007
_symmetry_Int_Tables_number   1
_chemical_formula_structural   Na3CaTcN4
_chemical_formula_sum   'Na6 Ca2 Tc2 N8'
_cell_volume   261.74847874
_cell_formula_units_Z   2
loop_
 _symmetry_equiv_pos_site_id
 _symmetry_equiv_pos_as_xyz
  1  'x, y, z'
loop_
 _atom_site_type_symbol
 _atom_site_label
 _atom_site_symmetry_multiplicity
 _atom_site_fract_x
 _atom_site_fract_y
 _atom_site_fract_z
 _atom_site_occupancy
  Na  Na0  1  0.736740  0.622030  0.162999  1
  Na  Na1  1  0.263260  0.377970  0.837001  1
  Na  Na2  1  0.755799  0.241819  0.974815  1
  Na  Na3  1  0.244201  0.758181  0.025185  1
  Na  Na4  1  0.723867  0.474322  0.572455  1
  Na  Na5  1  0.276133  0.525678  0.427545  1
  Ca  Ca6  1  0.225038  0.949486  0.625938  1
  Ca  Ca7  1  0.774962  0.050514  0.374062  1
  Tc  Tc8  1  0.723244  0.840612  0.746621  1
  Tc  Tc9  1  0.276756  0.159388  0.253379  1
  N  N10  1  0.971525  0.717551  0.602470  1
  N  N11  1  0.028475  0.282449  0.397530  1
  N  N12  1  0.871658  0.863235  0.902729  1
  N  N13  1  0.128342  0.136765  0.097271  1
  N  N14  1  0.526361  0.639055  0.807645  1
  N  N15  1  0.473639  0.360945  0.192355  1
  N  N16  1  0.474285  0.848783  0.370767  1
  N  N17  1  0.525715  0.151217  0.629233  1
