# generated using pymatgen
data_Nd20Co3TcSb8
_symmetry_space_group_name_H-M   'P 1'
_cell_length_a   8.21500869
_cell_length_b   9.01546400
_cell_length_c   12.62562072
_cell_angle_alpha   90.00000000
_cell_angle_beta   90.27937192
_cell_angle_gamma   90.00000000
_symmetry_Int_Tables_number   1
_chemical_formula_structural   Nd20Co3TcSb8
_chemical_formula_sum   'Nd20 Co3 Tc1 Sb8'
_cell_volume   935.06905925
_cell_formula_units_Z   1
loop_
 _symmetry_equiv_pos_site_id
 _symmetry_equiv_pos_as_xyz
  1  'x, y, z'
loop_
 _atom_site_type_symbol
 _atom_site_label
 _atom_site_symmetry_multiplicity
 _atom_site_fract_x
 _atom_site_fract_y
 _atom_site_fract_z
 _atom_site_occupancy
  Nd  Nd0  1  0.156584  0.750000  0.208944  1
  Nd  Nd1  1  0.653558  0.250000  0.297054  1
  Nd  Nd2  1  0.845973  0.250000  0.795937  1
  Nd  Nd3  1  0.346945  0.750000  0.709506  1
  Nd  Nd4  1  0.448499  0.750000  0.997064  1
  Nd  Nd5  1  0.953362  0.250000  0.504220  1
  Nd  Nd6  1  0.548382  0.250000  0.002508  1
  Nd  Nd7  1  0.049248  0.750000  0.498399  1
  Nd  Nd8  1  0.625068  0.750000  0.301374  1
  Nd  Nd9  1  0.126340  0.250000  0.194109  1
  Nd  Nd10  1  0.376283  0.250000  0.695958  1
  Nd  Nd11  1  0.875383  0.750000  0.805163  1
  Nd  Nd12  1  0.821025  0.966399  0.065688  1
  Nd  Nd13  1  0.315802  0.040462  0.431337  1
  Nd  Nd14  1  0.182209  0.464953  0.934435  1
  Nd  Nd15  1  0.678077  0.533218  0.563514  1
  Nd  Nd16  1  0.182209  0.035047  0.934435  1
  Nd  Nd17  1  0.678077  0.966782  0.563514  1
  Nd  Nd18  1  0.821025  0.533601  0.065688  1
  Nd  Nd19  1  0.315802  0.459538  0.431337  1
  Co  Co20  1  0.931213  0.250000  0.008790  1
  Co  Co21  1  0.581261  0.250000  0.513447  1
  Co  Co22  1  0.070313  0.750000  0.991417  1
  Tc  Tc23  1  0.414654  0.750000  0.485948  1
  Sb  Sb24  1  0.926940  0.993828  0.326567  1
  Sb  Sb25  1  0.427556  0.007363  0.171913  1
  Sb  Sb26  1  0.072749  0.493201  0.674099  1
  Sb  Sb27  1  0.574110  0.506864  0.827528  1
  Sb  Sb28  1  0.072749  0.006799  0.674099  1
  Sb  Sb29  1  0.574110  0.993136  0.827528  1
  Sb  Sb30  1  0.926940  0.506172  0.326567  1
  Sb  Sb31  1  0.427556  0.492637  0.171913  1
