# generated using pymatgen
data_Nd2Sm4P13Rh20
_symmetry_space_group_name_H-M   'P 1'
_cell_length_a   13.43231704
_cell_length_b   13.43234849
_cell_length_c   3.96492200
_cell_angle_alpha   89.99882482
_cell_angle_beta   90.00456103
_cell_angle_gamma   119.99245429
_symmetry_Int_Tables_number   1
_chemical_formula_structural   Nd2Sm4P13Rh20
_chemical_formula_sum   'Nd2 Sm4 P13 Rh20'
_cell_volume   619.58540634
_cell_formula_units_Z   1
loop_
 _symmetry_equiv_pos_site_id
 _symmetry_equiv_pos_as_xyz
  1  'x, y, z'
loop_
 _atom_site_type_symbol
 _atom_site_label
 _atom_site_symmetry_multiplicity
 _atom_site_fract_x
 _atom_site_fract_y
 _atom_site_fract_z
 _atom_site_occupancy
  Nd  Nd0  1  0.530036  0.717108  0.247245  1
  Nd  Nd1  1  0.282693  0.812783  0.247296  1
  Sm  Sm2  1  0.186679  0.469414  0.247338  1
  Sm  Sm3  1  0.469903  0.282953  0.752764  1
  Sm  Sm4  1  0.717150  0.187064  0.752724  1
  Sm  Sm5  1  0.812948  0.530026  0.752658  1
  P  P6  1  0.524122  0.137899  0.250923  1
  P  P7  1  0.862190  0.386251  0.250819  1
  P  P8  1  0.613676  0.475890  0.250921  1
  P  P9  1  0.947504  0.717301  0.254973  1
  P  P10  1  0.282675  0.230111  0.255063  1
  P  P11  1  0.770033  0.052745  0.254929  1
  P  P12  1  0.385788  0.522928  0.749128  1
  P  P13  1  0.476883  0.863344  0.749092  1
  P  P14  1  0.136695  0.612789  0.749218  1
  P  P15  1  0.718260  0.770157  0.744889  1
  P  P16  1  0.229721  0.948010  0.744944  1
  P  P17  1  0.052538  0.282634  0.744894  1
  P  P18  1  0.000044  0.000108  0.999828  1
  Rh  Rh19  1  0.332570  0.665709  0.751000  1
  Rh  Rh20  1  0.921826  0.249188  0.255766  1
  Rh  Rh21  1  0.751132  0.672574  0.255761  1
  Rh  Rh22  1  0.327373  0.078566  0.255631  1
  Rh  Rh23  1  0.440177  0.025481  0.751746  1
  Rh  Rh24  1  0.975574  0.414907  0.751884  1
  Rh  Rh25  1  0.585146  0.559776  0.751818  1
  Rh  Rh26  1  0.666708  0.333335  0.248840  1
  Rh  Rh27  1  0.093360  0.185933  0.245691  1
  Rh  Rh28  1  0.814282  0.907568  0.245944  1
  Rh  Rh29  1  0.092508  0.906762  0.245905  1
  Rh  Rh30  1  0.023771  0.584422  0.248118  1
  Rh  Rh31  1  0.414779  0.438682  0.248112  1
  Rh  Rh32  1  0.561300  0.976504  0.248147  1
  Rh  Rh33  1  0.673781  0.923287  0.744450  1
  Rh  Rh34  1  0.076752  0.750147  0.744396  1
  Rh  Rh35  1  0.248975  0.327064  0.744253  1
  Rh  Rh36  1  0.907073  0.814337  0.754404  1
  Rh  Rh37  1  0.185786  0.092892  0.754182  1
  Rh  Rh38  1  0.907588  0.093353  0.754305  1
