# generated using pymatgen
data_HgSbRuF12
_symmetry_space_group_name_H-M   'P 1'
_cell_length_a   11.63849310
_cell_length_b   5.87114334
_cell_length_c   5.87980200
_cell_angle_alpha   57.33046392
_cell_angle_beta   56.76449752
_cell_angle_gamma   56.89894618
_symmetry_Int_Tables_number   1
_chemical_formula_structural   HgSbRuF12
_chemical_formula_sum   'Hg1 Sb1 Ru1 F12'
_cell_volume   264.41641426
_cell_formula_units_Z   1
loop_
 _symmetry_equiv_pos_site_id
 _symmetry_equiv_pos_as_xyz
  1  'x, y, z'
loop_
 _atom_site_type_symbol
 _atom_site_label
 _atom_site_symmetry_multiplicity
 _atom_site_fract_x
 _atom_site_fract_y
 _atom_site_fract_z
 _atom_site_occupancy
  Hg  Hg0  1  0.752761  0.496819  0.500048  1
  Sb  Sb1  1  0.485756  0.016688  0.002807  1
  Ru  Ru2  1  0.009682  0.987301  0.999102  1
  F  F3  1  0.169064  0.106810  0.782753  1
  F  F4  1  0.668570  0.104786  0.784527  1
  F  F5  1  0.054742  0.782498  0.331952  1
  F  F6  1  0.554806  0.784798  0.329783  1
  F  F7  1  0.111204  0.662962  0.892418  1
  F  F8  1  0.612677  0.666561  0.892903  1
  F  F9  1  0.448213  0.216966  0.655045  1
  F  F10  1  0.949108  0.212664  0.663145  1
  F  F11  1  0.326161  0.886579  0.228309  1
  F  F12  1  0.830368  0.891736  0.220261  1
  F  F13  1  0.388262  0.347105  0.108999  1
  F  F14  1  0.888627  0.335725  0.107947  1
