# generated using pymatgen
data_Hf2MnPtRh4
_symmetry_space_group_name_H-M   'P 1'
_cell_length_a   4.11661400
_cell_length_b   5.55087711
_cell_length_c   10.97781058
_cell_angle_alpha   88.96036259
_cell_angle_beta   90.00000000
_cell_angle_gamma   90.00000000
_symmetry_Int_Tables_number   1
_chemical_formula_structural   Hf2MnPtRh4
_chemical_formula_sum   'Hf4 Mn2 Pt2 Rh8'
_cell_volume   250.81066176
_cell_formula_units_Z   2
loop_
 _symmetry_equiv_pos_site_id
 _symmetry_equiv_pos_as_xyz
  1  'x, y, z'
loop_
 _atom_site_type_symbol
 _atom_site_label
 _atom_site_symmetry_multiplicity
 _atom_site_fract_x
 _atom_site_fract_y
 _atom_site_fract_z
 _atom_site_occupancy
  Hf  Hf0  1  0.500000  0.183800  0.636524  1
  Hf  Hf1  1  0.500000  0.816200  0.363476  1
  Hf  Hf2  1  0.500000  0.694158  0.863986  1
  Hf  Hf3  1  0.500000  0.305842  0.136014  1
  Mn  Mn4  1  0.000000  0.500000  0.500000  1
  Mn  Mn5  1  0.000000  0.000000  0.000000  1
  Pt  Pt6  1  0.000000  0.439895  0.745561  1
  Pt  Pt7  1  0.000000  0.560105  0.254439  1
  Rh  Rh8  1  0.500000  0.197519  0.889197  1
  Rh  Rh9  1  0.500000  0.802481  0.110803  1
  Rh  Rh10  1  0.500000  0.696416  0.610728  1
  Rh  Rh11  1  0.500000  0.303584  0.389272  1
  Rh  Rh12  1  0.000000  0.000000  0.500000  1
  Rh  Rh13  1  0.000000  0.500000  0.000000  1
  Rh  Rh14  1  0.000000  0.060616  0.244915  1
  Rh  Rh15  1  0.000000  0.939384  0.755085  1
