# generated using pymatgen
data_Ho6Er6IrOs3
_symmetry_space_group_name_H-M   'P 1'
_cell_length_a   6.33456920
_cell_length_b   7.33645143
_cell_length_c   8.98154323
_cell_angle_alpha   89.99789146
_cell_angle_beta   90.02591493
_cell_angle_gamma   90.08529429
_symmetry_Int_Tables_number   1
_chemical_formula_structural   Ho6Er6IrOs3
_chemical_formula_sum   'Ho6 Er6 Ir1 Os3'
_cell_volume   417.40108174
_cell_formula_units_Z   1
loop_
 _symmetry_equiv_pos_site_id
 _symmetry_equiv_pos_as_xyz
  1  'x, y, z'
loop_
 _atom_site_type_symbol
 _atom_site_label
 _atom_site_symmetry_multiplicity
 _atom_site_fract_x
 _atom_site_fract_y
 _atom_site_fract_z
 _atom_site_occupancy
  Ho  Ho0  1  0.332140  0.673615  0.061670  1
  Ho  Ho1  1  0.170217  0.176592  0.438584  1
  Ho  Ho2  1  0.872754  0.537829  0.250034  1
  Ho  Ho3  1  0.628489  0.038957  0.249981  1
  Ho  Ho4  1  0.127680  0.462032  0.749994  1
  Ho  Ho5  1  0.370507  0.961833  0.750003  1
  Er  Er6  1  0.669658  0.325029  0.562603  1
  Er  Er7  1  0.827754  0.824532  0.935603  1
  Er  Er8  1  0.669665  0.324957  0.937406  1
  Er  Er9  1  0.827735  0.824453  0.564385  1
  Er  Er10  1  0.332155  0.673563  0.438335  1
  Er  Er11  1  0.170193  0.176520  0.061393  1
  Ir  Ir12  1  0.039478  0.884097  0.249996  1
  Os  Os13  1  0.462423  0.383765  0.250001  1
  Os  Os14  1  0.962575  0.115723  0.750070  1
  Os  Os15  1  0.536580  0.616504  0.749942  1
