# generated using pymatgen
data_HoNb8CuSe16
_symmetry_space_group_name_H-M   'P 1'
_cell_length_a   7.01214300
_cell_length_b   7.01214104
_cell_length_c   13.76145700
_cell_angle_alpha   90.00000000
_cell_angle_beta   90.00000000
_cell_angle_gamma   120.00000452
_symmetry_Int_Tables_number   1
_chemical_formula_structural   HoNb8CuSe16
_chemical_formula_sum   'Ho1 Nb8 Cu1 Se16'
_cell_volume   585.99840828
_cell_formula_units_Z   1
loop_
 _symmetry_equiv_pos_site_id
 _symmetry_equiv_pos_as_xyz
  1  'x, y, z'
loop_
 _atom_site_type_symbol
 _atom_site_label
 _atom_site_symmetry_multiplicity
 _atom_site_fract_x
 _atom_site_fract_y
 _atom_site_fract_z
 _atom_site_occupancy
  Ho  Ho0  1  0.000000  0.000000  0.000000  1
  Nb  Nb1  1  0.000000  0.000000  0.261739  1
  Nb  Nb2  1  0.000000  0.000000  0.738261  1
  Nb  Nb3  1  0.508905  0.491095  0.262238  1
  Nb  Nb4  1  0.508905  0.017810  0.262238  1
  Nb  Nb5  1  0.982190  0.491095  0.262238  1
  Nb  Nb6  1  0.491095  0.508905  0.737762  1
  Nb  Nb7  1  0.491095  0.982190  0.737762  1
  Nb  Nb8  1  0.017810  0.508905  0.737762  1
  Cu  Cu9  1  0.000000  0.000000  0.500000  1
  Se  Se10  1  0.333333  0.666667  0.866342  1
  Se  Se11  1  0.666667  0.333333  0.133658  1
  Se  Se12  1  0.666667  0.333333  0.388017  1
  Se  Se13  1  0.333333  0.666667  0.611983  1
  Se  Se14  1  0.168908  0.831092  0.381965  1
  Se  Se15  1  0.168908  0.337818  0.381965  1
  Se  Se16  1  0.662182  0.831092  0.381965  1
  Se  Se17  1  0.831092  0.168908  0.618035  1
  Se  Se18  1  0.831092  0.662182  0.618035  1
  Se  Se19  1  0.337818  0.168908  0.618035  1
  Se  Se20  1  0.830645  0.169355  0.859033  1
  Se  Se21  1  0.830645  0.661290  0.859033  1
  Se  Se22  1  0.338710  0.169355  0.859033  1
  Se  Se23  1  0.169355  0.830645  0.140967  1
  Se  Se24  1  0.169355  0.338710  0.140967  1
  Se  Se25  1  0.661290  0.830645  0.140967  1
