# generated using pymatgen
data_Tb3Tm5Mn2(B12Os)2
_symmetry_space_group_name_H-M   'P 1'
_cell_length_a   3.59789200
_cell_length_b   9.08942489
_cell_length_c   11.47685809
_cell_angle_alpha   90.05241061
_cell_angle_beta   90.00000000
_cell_angle_gamma   90.00000000
_symmetry_Int_Tables_number   1
_chemical_formula_structural   Tb3Tm5Mn2(B12Os)2
_chemical_formula_sum   'Tb3 Tm5 Mn2 B24 Os2'
_cell_volume   375.32488271
_cell_formula_units_Z   1
loop_
 _symmetry_equiv_pos_site_id
 _symmetry_equiv_pos_as_xyz
  1  'x, y, z'
loop_
 _atom_site_type_symbol
 _atom_site_label
 _atom_site_symmetry_multiplicity
 _atom_site_fract_x
 _atom_site_fract_y
 _atom_site_fract_z
 _atom_site_occupancy
  Tb  Tb0  1  0.000000  0.326034  0.415813  1
  Tb  Tb1  1  0.000000  0.673908  0.584329  1
  Tb  Tb2  1  0.000000  0.820261  0.087468  1
  Tm  Tm3  1  0.000000  0.179967  0.912365  1
  Tm  Tm4  1  0.000000  0.939304  0.370766  1
  Tm  Tm5  1  0.000000  0.060985  0.629354  1
  Tm  Tm6  1  0.000000  0.445264  0.131173  1
  Tm  Tm7  1  0.000000  0.554172  0.868579  1
  Mn  Mn8  1  0.000000  0.638875  0.319621  1
  Mn  Mn9  1  0.000000  0.360611  0.680999  1
  B  B10  1  0.500000  0.554425  0.431735  1
  B  B11  1  0.500000  0.445322  0.568532  1
  B  B12  1  0.500000  0.054139  0.066652  1
  B  B13  1  0.500000  0.947218  0.932602  1
  B  B14  1  0.500000  0.747013  0.417275  1
  B  B15  1  0.500000  0.252970  0.583158  1
  B  B16  1  0.500000  0.249918  0.080811  1
  B  B17  1  0.500000  0.750146  0.918008  1
  B  B18  1  0.500000  0.789340  0.266229  1
  B  B19  1  0.500000  0.210075  0.734655  1
  B  B20  1  0.500000  0.291867  0.234614  1
  B  B21  1  0.500000  0.708279  0.765029  1
  B  B22  1  0.500000  0.630713  0.186433  1
  B  B23  1  0.500000  0.368351  0.814271  1
  B  B24  1  0.500000  0.130492  0.314872  1
  B  B25  1  0.500000  0.870025  0.685157  1
  B  B26  1  0.500000  0.982253  0.212604  1
  B  B27  1  0.500000  0.019041  0.787634  1
  B  B28  1  0.500000  0.485508  0.288158  1
  B  B29  1  0.500000  0.513997  0.712019  1
  B  B30  1  0.500000  0.601401  0.027835  1
  B  B31  1  0.500000  0.397001  0.971589  1
  B  B32  1  0.500000  0.101542  0.471946  1
  B  B33  1  0.500000  0.898659  0.528179  1
  Os  Os34  1  0.000000  0.138395  0.178678  1
  Os  Os35  1  0.000000  0.862527  0.820857  1
