# generated using pymatgen
data_Cr3Bi4RhF28
_symmetry_space_group_name_H-M   'P 1'
_cell_length_a   5.59847160
_cell_length_b   9.09401975
_cell_length_c   12.00239400
_cell_angle_alpha   62.13411392
_cell_angle_beta   90.13953298
_cell_angle_gamma   89.95418057
_symmetry_Int_Tables_number   1
_chemical_formula_structural   Cr3Bi4RhF28
_chemical_formula_sum   'Cr3 Bi4 Rh1 F28'
_cell_volume   540.21276271
_cell_formula_units_Z   1
loop_
 _symmetry_equiv_pos_site_id
 _symmetry_equiv_pos_as_xyz
  1  'x, y, z'
loop_
 _atom_site_type_symbol
 _atom_site_label
 _atom_site_symmetry_multiplicity
 _atom_site_fract_x
 _atom_site_fract_y
 _atom_site_fract_z
 _atom_site_occupancy
  Cr  Cr0  1  0.758439  0.273344  0.958217  1
  Cr  Cr1  1  0.260482  0.725726  0.542374  1
  Cr  Cr2  1  0.240332  0.725818  0.042486  1
  Bi  Bi3  1  0.776092  0.810885  0.762138  1
  Bi  Bi4  1  0.274066  0.184326  0.740818  1
  Bi  Bi5  1  0.223137  0.184732  0.238576  1
  Bi  Bi6  1  0.723716  0.814406  0.260687  1
  Rh  Rh7  1  0.741062  0.272674  0.458614  1
  F  F8  1  0.424193  0.711579  0.922107  1
  F  F9  1  0.921299  0.292288  0.587721  1
  F  F10  1  0.573853  0.288398  0.077665  1
  F  F11  1  0.074700  0.711443  0.422436  1
  F  F12  1  0.437565  0.279073  0.542670  1
  F  F13  1  0.954393  0.720500  0.956371  1
  F  F14  1  0.544922  0.722595  0.454796  1
  F  F15  1  0.044429  0.278948  0.044599  1
  F  F16  1  0.769015  0.500072  0.865470  1
  F  F17  1  0.273944  0.499453  0.634949  1
  F  F18  1  0.230028  0.499497  0.134790  1
  F  F19  1  0.731314  0.511325  0.360860  1
  F  F20  1  0.757687  0.042290  0.049127  1
  F  F21  1  0.257836  0.957275  0.451139  1
  F  F22  1  0.242305  0.957571  0.950982  1
  F  F23  1  0.743532  0.031091  0.549384  1
  F  F24  1  0.983646  0.727961  0.634007  1
  F  F25  1  0.480439  0.269189  0.868396  1
  F  F26  1  0.039100  0.272921  0.369694  1
  F  F27  1  0.519171  0.730854  0.132064  1
  F  F28  1  0.057330  0.747407  0.162336  1
  F  F29  1  0.563312  0.256859  0.325947  1
  F  F30  1  0.942789  0.253357  0.838169  1
  F  F31  1  0.444578  0.745839  0.663105  1
  F  F32  1  0.392812  0.970231  0.222261  1
  F  F33  1  0.893776  0.030261  0.277386  1
  F  F34  1  0.603118  0.029066  0.774165  1
  F  F35  1  0.101585  0.970745  0.723497  1
