# generated using pymatgen
data_Dy10Y6MgZn3Co4
_symmetry_space_group_name_H-M   'P 1'
_cell_length_a   9.42908536
_cell_length_b   9.40216997
_cell_length_c   9.40217000
_cell_angle_alpha   60.00000692
_cell_angle_beta   60.09438838
_cell_angle_gamma   60.09438595
_symmetry_Int_Tables_number   1
_chemical_formula_structural   Dy10Y6MgZn3Co4
_chemical_formula_sum   'Dy10 Y6 Mg1 Zn3 Co4'
_cell_volume   590.24036929
_cell_formula_units_Z   1
loop_
 _symmetry_equiv_pos_site_id
 _symmetry_equiv_pos_as_xyz
  1  'x, y, z'
loop_
 _atom_site_type_symbol
 _atom_site_label
 _atom_site_symmetry_multiplicity
 _atom_site_fract_x
 _atom_site_fract_y
 _atom_site_fract_z
 _atom_site_occupancy
  Dy  Dy0  1  0.349586  0.346957  0.346957  1
  Dy  Dy1  1  0.349586  0.346957  0.956500  1
  Dy  Dy2  1  0.349586  0.956500  0.346957  1
  Dy  Dy3  1  0.947302  0.350899  0.350899  1
  Dy  Dy4  1  0.809017  0.190392  0.190392  1
  Dy  Dy5  1  0.186934  0.812678  0.812678  1
  Dy  Dy6  1  0.186934  0.812678  0.187711  1
  Dy  Dy7  1  0.809017  0.190392  0.810199  1
  Dy  Dy8  1  0.186934  0.187711  0.812678  1
  Dy  Dy9  1  0.809017  0.810199  0.190392  1
  Y  Y10  1  0.932527  0.563207  0.563207  1
  Y  Y11  1  0.561550  0.937213  0.937213  1
  Y  Y12  1  0.561550  0.937213  0.564025  1
  Y  Y13  1  0.932527  0.563207  0.941059  1
  Y  Y14  1  0.561550  0.564025  0.937213  1
  Y  Y15  1  0.932527  0.941059  0.563207  1
  Mg  Mg16  1  0.288316  0.570562  0.570562  1
  Zn  Zn17  1  0.583968  0.577289  0.577289  1
  Zn  Zn18  1  0.583968  0.577289  0.261454  1
  Zn  Zn19  1  0.583968  0.261454  0.577289  1
  Co  Co20  1  0.139413  0.142685  0.142685  1
  Co  Co21  1  0.139413  0.142685  0.575216  1
  Co  Co22  1  0.139413  0.575216  0.142685  1
  Co  Co23  1  0.575396  0.141535  0.141535  1
