# generated using pymatgen
data_Nd4ScP12Ir11Ru8
_symmetry_space_group_name_H-M   'P 1'
_cell_length_a   12.73073541
_cell_length_b   12.67460890
_cell_length_c   3.98003000
_cell_angle_alpha   90.00000000
_cell_angle_beta   90.00000000
_cell_angle_gamma   120.02256766
_symmetry_Int_Tables_number   1
_chemical_formula_structural   Nd4ScP12Ir11Ru8
_chemical_formula_sum   'Nd4 Sc1 P12 Ir11 Ru8'
_cell_volume   556.04025044
_cell_formula_units_Z   1
loop_
 _symmetry_equiv_pos_site_id
 _symmetry_equiv_pos_as_xyz
  1  'x, y, z'
loop_
 _atom_site_type_symbol
 _atom_site_label
 _atom_site_symmetry_multiplicity
 _atom_site_fract_x
 _atom_site_fract_y
 _atom_site_fract_z
 _atom_site_occupancy
  Nd  Nd0  1  0.333332  0.666759  0.000000  1
  Nd  Nd1  1  0.810638  0.999263  0.500000  1
  Nd  Nd2  1  0.998931  0.810183  0.500000  1
  Nd  Nd3  1  0.186751  0.188304  0.500000  1
  Sc  Sc4  1  0.669490  0.334582  0.000000  1
  P  P5  1  0.180873  0.999041  0.000000  1
  P  P6  1  0.997302  0.182331  0.000000  1
  P  P7  1  0.816174  0.815223  0.000000  1
  P  P8  1  0.172116  0.479927  0.500000  1
  P  P9  1  0.520157  0.692116  0.500000  1
  P  P10  1  0.307769  0.828564  0.500000  1
  P  P11  1  0.693926  0.515820  0.500000  1
  P  P12  1  0.824294  0.307616  0.500000  1
  P  P13  1  0.486637  0.175683  0.500000  1
  P  P14  1  0.634459  0.999224  0.000000  1
  P  P15  1  0.000970  0.635034  0.000000  1
  P  P16  1  0.363224  0.368002  0.000000  1
  Ir  Ir17  1  0.365136  0.489409  0.500000  1
  Ir  Ir18  1  0.508304  0.873758  0.500000  1
  Ir  Ir19  1  0.127009  0.636195  0.500000  1
  Ir  Ir20  1  0.868625  0.503080  0.500000  1
  Ir  Ir21  1  0.636829  0.132832  0.500000  1
  Ir  Ir22  1  0.498806  0.363228  0.500000  1
  Ir  Ir23  1  0.380863  0.185004  0.000000  1
  Ir  Ir24  1  0.291492  0.004150  0.500000  1
  Ir  Ir25  1  0.998171  0.288653  0.500000  1
  Ir  Ir26  1  0.710753  0.708749  0.500000  1
  Ir  Ir27  1  0.999300  0.999515  0.000000  1
  Ru  Ru28  1  0.454459  0.003482  0.000000  1
  Ru  Ru29  1  0.999198  0.452200  0.000000  1
  Ru  Ru30  1  0.548258  0.545040  0.000000  1
  Ru  Ru31  1  0.179591  0.379530  0.000000  1
  Ru  Ru32  1  0.619404  0.799771  0.000000  1
  Ru  Ru33  1  0.200107  0.821852  0.000000  1
  Ru  Ru34  1  0.800255  0.616201  0.000000  1
  Ru  Ru35  1  0.816395  0.199682  0.000000  1
