# generated using pymatgen
data_Sc2Ti4Sn5
_symmetry_space_group_name_H-M   'P 1'
_cell_length_a   10.61847772
_cell_length_b   10.61847803
_cell_length_c   10.61847706
_cell_angle_alpha   149.02755949
_cell_angle_beta   131.87759555
_cell_angle_gamma   58.33468698
_symmetry_Int_Tables_number   1
_chemical_formula_structural   Sc2Ti4Sn5
_chemical_formula_sum   'Sc4 Ti8 Sn10'
_cell_volume   455.23563832
_cell_formula_units_Z   2
loop_
 _symmetry_equiv_pos_site_id
 _symmetry_equiv_pos_as_xyz
  1  'x, y, z'
loop_
 _atom_site_type_symbol
 _atom_site_label
 _atom_site_symmetry_multiplicity
 _atom_site_fract_x
 _atom_site_fract_y
 _atom_site_fract_z
 _atom_site_occupancy
  Sc  Sc0  1  0.254719  0.143382  0.111338  1
  Sc  Sc1  1  0.745281  0.856618  0.888662  1
  Sc  Sc2  1  0.032044  0.643382  0.388662  1
  Sc  Sc3  1  0.967956  0.356618  0.611338  1
  Ti  Ti4  1  0.310196  0.560196  0.250000  1
  Ti  Ti5  1  0.689804  0.439804  0.750000  1
  Ti  Ti6  1  0.689804  0.939804  0.250000  1
  Ti  Ti7  1  0.310196  0.060196  0.750000  1
  Ti  Ti8  1  0.675782  0.435669  0.240112  1
  Ti  Ti9  1  0.324218  0.564331  0.759888  1
  Ti  Ti10  1  0.195557  0.935669  0.259888  1
  Ti  Ti11  1  0.804443  0.064331  0.740112  1
  Sn  Sn12  1  0.589306  0.289479  0.299827  1
  Sn  Sn13  1  0.410694  0.710521  0.700173  1
  Sn  Sn14  1  0.989652  0.789479  0.200173  1
  Sn  Sn15  1  0.010348  0.210521  0.799827  1
  Sn  Sn16  1  0.000000  0.250000  0.250000  1
  Sn  Sn17  1  0.000000  0.750000  0.750000  1
  Sn  Sn18  1  0.468835  0.067952  0.400882  1
  Sn  Sn19  1  0.531165  0.932048  0.599118  1
  Sn  Sn20  1  0.667070  0.567952  0.099118  1
  Sn  Sn21  1  0.332930  0.432048  0.900882  1
