# generated using pymatgen
data_Zr2MnInFe8
_symmetry_space_group_name_H-M   'P 1'
_cell_length_a   4.90864553
_cell_length_b   4.90864509
_cell_length_c   8.48671888
_cell_angle_alpha   106.80982280
_cell_angle_beta   73.19017585
_cell_angle_gamma   120.00000532
_symmetry_Int_Tables_number   1
_chemical_formula_structural   Zr2MnInFe8
_chemical_formula_sum   'Zr2 Mn1 In1 Fe8'
_cell_volume   166.92424505
_cell_formula_units_Z   1
loop_
 _symmetry_equiv_pos_site_id
 _symmetry_equiv_pos_as_xyz
  1  'x, y, z'
loop_
 _atom_site_type_symbol
 _atom_site_label
 _atom_site_symmetry_multiplicity
 _atom_site_fract_x
 _atom_site_fract_y
 _atom_site_fract_z
 _atom_site_occupancy
  Zr  Zr0  1  0.997094  0.002906  0.008717  1
  Zr  Zr1  1  0.502285  0.497715  0.493144  1
  Mn  Mn2  1  0.873962  0.126038  0.378113  1
  In  In3  1  0.375453  0.624547  0.873642  1
  Fe  Fe4  1  0.435863  0.564137  0.191019  1
  Fe  Fe5  1  0.937098  0.062902  0.683524  1
  Fe  Fe6  1  0.435863  0.062747  0.191019  1
  Fe  Fe7  1  0.937098  0.557719  0.683524  1
  Fe  Fe8  1  0.188229  0.811771  0.435311  1
  Fe  Fe9  1  0.687519  0.312481  0.937445  1
  Fe  Fe10  1  0.937253  0.564137  0.191019  1
  Fe  Fe11  1  0.442281  0.062902  0.683524  1
