# generated using pymatgen
data_TbY4In3
_symmetry_space_group_name_H-M   'P 1'
_cell_length_a   6.13417493
_cell_length_b   9.24336828
_cell_length_c   9.24336800
_cell_angle_alpha   83.68979523
_cell_angle_beta   70.64823359
_cell_angle_gamma   70.64823504
_symmetry_Int_Tables_number   1
_chemical_formula_structural   TbY4In3
_chemical_formula_sum   'Tb2 Y8 In6'
_cell_volume   466.55436925
_cell_formula_units_Z   2
loop_
 _symmetry_equiv_pos_site_id
 _symmetry_equiv_pos_as_xyz
  1  'x, y, z'
loop_
 _atom_site_type_symbol
 _atom_site_label
 _atom_site_symmetry_multiplicity
 _atom_site_fract_x
 _atom_site_fract_y
 _atom_site_fract_z
 _atom_site_occupancy
  Tb  Tb0  1  0.750000  0.500231  0.499769  1
  Tb  Tb1  1  0.250000  0.499769  0.500231  1
  Y  Y2  1  0.718031  0.866151  0.697937  1
  Y  Y3  1  0.281969  0.133849  0.302063  1
  Y  Y4  1  0.781969  0.302063  0.133849  1
  Y  Y5  1  0.218031  0.697937  0.866151  1
  Y  Y6  1  0.583980  0.698281  0.133889  1
  Y  Y7  1  0.416020  0.301719  0.866111  1
  Y  Y8  1  0.083980  0.133889  0.698281  1
  Y  Y9  1  0.916020  0.866111  0.301719  1
  In  In10  1  0.161035  0.500136  0.178555  1
  In  In11  1  0.838965  0.499864  0.821445  1
  In  In12  1  0.338965  0.821445  0.499864  1
  In  In13  1  0.661035  0.178555  0.500136  1
  In  In14  1  0.250000  0.999992  0.000008  1
  In  In15  1  0.750000  0.000008  0.999992  1
