# generated using pymatgen
data_Tm11LuCo6Pb
_symmetry_space_group_name_H-M   'P 1'
_cell_length_a   8.26617129
_cell_length_b   8.26617066
_cell_length_c   8.26926136
_cell_angle_alpha   109.46434708
_cell_angle_beta   109.51267191
_cell_angle_gamma   109.42150589
_symmetry_Int_Tables_number   1
_chemical_formula_structural   Tm11LuCo6Pb
_chemical_formula_sum   'Tm11 Lu1 Co6 Pb1'
_cell_volume   435.04531298
_cell_formula_units_Z   1
loop_
 _symmetry_equiv_pos_site_id
 _symmetry_equiv_pos_as_xyz
  1  'x, y, z'
loop_
 _atom_site_type_symbol
 _atom_site_label
 _atom_site_symmetry_multiplicity
 _atom_site_fract_x
 _atom_site_fract_y
 _atom_site_fract_z
 _atom_site_occupancy
  Tm  Tm0  1  0.194766  0.303330  0.498095  1
  Tm  Tm1  1  0.194513  0.696783  0.891296  1
  Tm  Tm2  1  0.805091  0.303475  0.108566  1
  Tm  Tm3  1  0.696817  0.502070  0.804922  1
  Tm  Tm4  1  0.303897  0.498336  0.195263  1
  Tm  Tm5  1  0.696926  0.891366  0.195263  1
  Tm  Tm6  1  0.302853  0.108105  0.804922  1
  Tm  Tm7  1  0.502168  0.805033  0.696674  1
  Tm  Tm8  1  0.498472  0.195447  0.303504  1
  Tm  Tm9  1  0.108057  0.805031  0.303504  1
  Tm  Tm10  1  0.891641  0.194507  0.696674  1
  Lu  Lu11  1  0.805241  0.695801  0.501043  1
  Co  Co12  1  0.885397  0.386243  0.499959  1
  Co  Co13  1  0.113716  0.614562  0.499959  1
  Co  Co14  1  0.385893  0.499960  0.885853  1
  Co  Co15  1  0.614594  0.500335  0.114928  1
  Co  Co16  1  0.500218  0.885738  0.385956  1
  Co  Co17  1  0.499984  0.114217  0.614201  1
  Pb  Pb18  1  0.999755  0.999661  0.999417  1
