# generated using pymatgen
data_Nb4TcP4RuRh2
_symmetry_space_group_name_H-M   'P 1'
_cell_length_a   3.74327400
_cell_length_b   6.39713633
_cell_length_c   7.26566305
_cell_angle_alpha   90.68636722
_cell_angle_beta   90.00000000
_cell_angle_gamma   90.00000000
_symmetry_Int_Tables_number   1
_chemical_formula_structural   Nb4TcP4RuRh2
_chemical_formula_sum   'Nb4 Tc1 P4 Ru1 Rh2'
_cell_volume   173.97278473
_cell_formula_units_Z   1
loop_
 _symmetry_equiv_pos_site_id
 _symmetry_equiv_pos_as_xyz
  1  'x, y, z'
loop_
 _atom_site_type_symbol
 _atom_site_label
 _atom_site_symmetry_multiplicity
 _atom_site_fract_x
 _atom_site_fract_y
 _atom_site_fract_z
 _atom_site_occupancy
  Nb  Nb0  1  0.250000  0.023778  0.825640  1
  Nb  Nb1  1  0.250000  0.528800  0.666625  1
  Nb  Nb2  1  0.750000  0.977535  0.173333  1
  Nb  Nb3  1  0.750000  0.470651  0.333807  1
  Tc  Tc4  1  0.250000  0.143625  0.440170  1
  P  P5  1  0.250000  0.768696  0.376627  1
  P  P6  1  0.250000  0.263767  0.128201  1
  P  P7  1  0.750000  0.232580  0.623610  1
  P  P8  1  0.750000  0.737160  0.871839  1
  Ru  Ru9  1  0.750000  0.854756  0.561100  1
  Rh  Rh10  1  0.250000  0.644650  0.062710  1
  Rh  Rh11  1  0.750000  0.354001  0.936338  1
