# generated using pymatgen
data_NdY2WO7
_symmetry_space_group_name_H-M   'P 1'
_cell_length_a   6.52444272
_cell_length_b   6.52444161
_cell_length_c   7.61693100
_cell_angle_alpha   90.00000000
_cell_angle_beta   90.00000000
_cell_angle_gamma   109.22809219
_symmetry_Int_Tables_number   1
_chemical_formula_structural   NdY2WO7
_chemical_formula_sum   'Nd2 Y4 W2 O14'
_cell_volume   306.15241820
_cell_formula_units_Z   2
loop_
 _symmetry_equiv_pos_site_id
 _symmetry_equiv_pos_as_xyz
  1  'x, y, z'
loop_
 _atom_site_type_symbol
 _atom_site_label
 _atom_site_symmetry_multiplicity
 _atom_site_fract_x
 _atom_site_fract_y
 _atom_site_fract_z
 _atom_site_occupancy
  Nd  Nd0  1  0.500000  0.500000  0.500000  1
  Nd  Nd1  1  0.500000  0.500000  0.000000  1
  Y  Y2  1  0.532592  0.000937  0.750000  1
  Y  Y3  1  0.000937  0.532592  0.250000  1
  Y  Y4  1  0.467408  0.999063  0.250000  1
  Y  Y5  1  0.999063  0.467408  0.750000  1
  W  W6  1  0.000000  0.000000  0.500000  1
  W  W7  1  0.000000  0.000000  0.000000  1
  O  O8  1  0.679135  0.927739  0.471349  1
  O  O9  1  0.927739  0.679135  0.528651  1
  O  O10  1  0.679135  0.927739  0.028651  1
  O  O11  1  0.927739  0.679135  0.971349  1
  O  O12  1  0.320865  0.072261  0.528651  1
  O  O13  1  0.072261  0.320865  0.471349  1
  O  O14  1  0.320865  0.072261  0.971349  1
  O  O15  1  0.072261  0.320865  0.028651  1
  O  O16  1  0.929691  0.070309  0.750000  1
  O  O17  1  0.070309  0.929691  0.250000  1
  O  O18  1  0.363577  0.636422  0.750000  1
  O  O19  1  0.636422  0.363577  0.250000  1
  O  O20  1  0.641615  0.358385  0.750000  1
  O  O21  1  0.358385  0.641615  0.250000  1
