# generated using pymatgen
data_SmNp4O10
_symmetry_space_group_name_H-M   'P 1'
_cell_length_a   6.62467269
_cell_length_b   6.62467260
_cell_length_c   6.62467246
_cell_angle_alpha   99.59402137
_cell_angle_beta   99.59402128
_cell_angle_gamma   131.81044130
_symmetry_Int_Tables_number   1
_chemical_formula_structural   SmNp4O10
_chemical_formula_sum   'Sm1 Np4 O10'
_cell_volume   197.81796481
_cell_formula_units_Z   1
loop_
 _symmetry_equiv_pos_site_id
 _symmetry_equiv_pos_as_xyz
  1  'x, y, z'
loop_
 _atom_site_type_symbol
 _atom_site_label
 _atom_site_symmetry_multiplicity
 _atom_site_fract_x
 _atom_site_fract_y
 _atom_site_fract_z
 _atom_site_occupancy
  Sm  Sm0  1  0.000000  0.000000  0.000000  1
  Np  Np1  1  0.399374  0.799939  0.199313  1
  Np  Np2  1  0.799939  0.600626  0.400566  1
  Np  Np3  1  0.200061  0.399374  0.599434  1
  Np  Np4  1  0.600626  0.200061  0.800687  1
  O  O5  1  0.250000  0.750000  0.500000  1
  O  O6  1  0.642037  0.537079  0.691955  1
  O  O7  1  0.049917  0.357963  0.895042  1
  O  O8  1  0.462921  0.154876  0.104958  1
  O  O9  1  0.845124  0.950083  0.308045  1
  O  O10  1  0.357963  0.462921  0.308045  1
  O  O11  1  0.750000  0.250000  0.500000  1
  O  O12  1  0.154876  0.049917  0.691955  1
  O  O13  1  0.537079  0.845124  0.895042  1
  O  O14  1  0.950083  0.642037  0.104958  1
