# generated using pymatgen
data_ZrSc3Al7Tc
_symmetry_space_group_name_H-M   'P 1'
_cell_length_a   5.35017700
_cell_length_b   5.35017608
_cell_length_c   8.65172900
_cell_angle_alpha   90.00000000
_cell_angle_beta   90.00000000
_cell_angle_gamma   119.99998714
_symmetry_Int_Tables_number   1
_chemical_formula_structural   ZrSc3Al7Tc
_chemical_formula_sum   'Zr1 Sc3 Al7 Tc1'
_cell_volume   214.47161436
_cell_formula_units_Z   1
loop_
 _symmetry_equiv_pos_site_id
 _symmetry_equiv_pos_as_xyz
  1  'x, y, z'
loop_
 _atom_site_type_symbol
 _atom_site_label
 _atom_site_symmetry_multiplicity
 _atom_site_fract_x
 _atom_site_fract_y
 _atom_site_fract_z
 _atom_site_occupancy
  Zr  Zr0  1  0.333333  0.666667  0.062175  1
  Sc  Sc1  1  0.333333  0.666667  0.444482  1
  Sc  Sc2  1  0.666667  0.333333  0.935195  1
  Sc  Sc3  1  0.666667  0.333333  0.554413  1
  Al  Al4  1  0.169254  0.338506  0.758586  1
  Al  Al5  1  0.831192  0.168808  0.242449  1
  Al  Al6  1  0.337616  0.168808  0.242449  1
  Al  Al7  1  0.661494  0.830746  0.758586  1
  Al  Al8  1  0.000000  0.000000  0.500367  1
  Al  Al9  1  0.831192  0.662384  0.242449  1
  Al  Al10  1  0.169254  0.830746  0.758586  1
  Tc  Tc11  1  0.000000  0.000000  0.000265  1
