# generated using pymatgen
data_Cs2RbIn(AsS2)6
_symmetry_space_group_name_H-M   'P 1'
_cell_length_a   9.63668900
_cell_length_b   9.63668797
_cell_length_c   8.37528500
_cell_angle_alpha   90.00000000
_cell_angle_beta   90.00000000
_cell_angle_gamma   120.00001293
_symmetry_Int_Tables_number   1
_chemical_formula_structural   Cs2RbIn(AsS2)6
_chemical_formula_sum   'Cs2 Rb1 In1 As6 S12'
_cell_volume   673.57476747
_cell_formula_units_Z   1
loop_
 _symmetry_equiv_pos_site_id
 _symmetry_equiv_pos_as_xyz
  1  'x, y, z'
loop_
 _atom_site_type_symbol
 _atom_site_label
 _atom_site_symmetry_multiplicity
 _atom_site_fract_x
 _atom_site_fract_y
 _atom_site_fract_z
 _atom_site_occupancy
  Cs  Cs0  1  0.333333  0.666667  0.854352  1
  Cs  Cs1  1  0.666667  0.333333  0.145648  1
  Rb  Rb2  1  0.000000  0.000000  0.000000  1
  In  In3  1  0.000000  0.000000  0.500000  1
  As  As4  1  0.278111  0.829947  0.398756  1
  As  As5  1  0.170053  0.448164  0.398756  1
  As  As6  1  0.551836  0.721889  0.398756  1
  As  As7  1  0.721889  0.170053  0.601244  1
  As  As8  1  0.829947  0.551836  0.601244  1
  As  As9  1  0.448164  0.278111  0.601244  1
  S  S10  1  0.232458  0.020696  0.307967  1
  S  S11  1  0.979304  0.211763  0.307967  1
  S  S12  1  0.788237  0.767542  0.307967  1
  S  S13  1  0.767542  0.979304  0.692033  1
  S  S14  1  0.020696  0.788237  0.692033  1
  S  S15  1  0.211763  0.232458  0.692033  1
  S  S16  1  0.510808  0.904324  0.251647  1
  S  S17  1  0.095676  0.606485  0.251647  1
  S  S18  1  0.393515  0.489192  0.251647  1
  S  S19  1  0.489192  0.095676  0.748353  1
  S  S20  1  0.904324  0.393515  0.748353  1
  S  S21  1  0.606485  0.510808  0.748353  1
