# generated using pymatgen
data_Li2(ZrTe2)5
_symmetry_space_group_name_H-M   'P 1'
_cell_length_a   7.00549091
_cell_length_b   10.82247759
_cell_length_c   8.22884900
_cell_angle_alpha   66.93385981
_cell_angle_beta   64.82062478
_cell_angle_gamma   90.00863178
_symmetry_Int_Tables_number   1
_chemical_formula_structural   Li2(ZrTe2)5
_chemical_formula_sum   'Li2 Zr5 Te10'
_cell_volume   508.92970979
_cell_formula_units_Z   1
loop_
 _symmetry_equiv_pos_site_id
 _symmetry_equiv_pos_as_xyz
  1  'x, y, z'
loop_
 _atom_site_type_symbol
 _atom_site_label
 _atom_site_symmetry_multiplicity
 _atom_site_fract_x
 _atom_site_fract_y
 _atom_site_fract_z
 _atom_site_occupancy
  Li  Li0  1  0.796160  0.093186  0.406796  1
  Li  Li1  1  0.003840  0.506814  0.993204  1
  Zr  Zr2  1  0.400000  0.800000  0.200000  1
  Zr  Zr3  1  0.802737  0.600550  0.398325  1
  Zr  Zr4  1  0.193945  0.401339  0.598844  1
  Zr  Zr5  1  0.606055  0.198661  0.801156  1
  Zr  Zr6  1  0.997263  0.999450  0.001675  1
  Te  Te7  1  0.966873  0.847831  0.401408  1
  Te  Te8  1  0.562335  0.049468  0.201662  1
  Te  Te9  1  0.169997  0.250103  0.997392  1
  Te  Te10  1  0.761395  0.450578  0.800933  1
  Te  Te11  1  0.369823  0.650629  0.596316  1
  Te  Te12  1  0.430177  0.949371  0.803684  1
  Te  Te13  1  0.038605  0.149422  0.599067  1
  Te  Te14  1  0.630003  0.349897  0.402608  1
  Te  Te15  1  0.237665  0.550532  0.198338  1
  Te  Te16  1  0.833127  0.752169  0.998592  1
