# generated using pymatgen
data_Er16MgIn3Ni3Ir
_symmetry_space_group_name_H-M   'P 1'
_cell_length_a   9.54506856
_cell_length_b   9.52993069
_cell_length_c   9.52045200
_cell_angle_alpha   60.03290336
_cell_angle_beta   60.08528237
_cell_angle_gamma   60.19180335
_symmetry_Int_Tables_number   1
_chemical_formula_structural   Er16MgIn3Ni3Ir
_chemical_formula_sum   'Er16 Mg1 In3 Ni3 Ir1'
_cell_volume   613.79764955
_cell_formula_units_Z   1
loop_
 _symmetry_equiv_pos_site_id
 _symmetry_equiv_pos_as_xyz
  1  'x, y, z'
loop_
 _atom_site_type_symbol
 _atom_site_label
 _atom_site_symmetry_multiplicity
 _atom_site_fract_x
 _atom_site_fract_y
 _atom_site_fract_z
 _atom_site_occupancy
  Er  Er0  1  0.063029  0.063739  0.436615  1
  Er  Er1  1  0.651101  0.043636  0.652631  1
  Er  Er2  1  0.190545  0.808429  0.189744  1
  Er  Er3  1  0.435931  0.064372  0.436628  1
  Er  Er4  1  0.191055  0.188431  0.810256  1
  Er  Er5  1  0.651404  0.655966  0.650995  1
  Er  Er6  1  0.048676  0.651851  0.649736  1
  Er  Er7  1  0.435931  0.064372  0.063069  1
  Er  Er8  1  0.651404  0.655966  0.041635  1
  Er  Er9  1  0.190545  0.808429  0.811283  1
  Er  Er10  1  0.812583  0.185916  0.811413  1
  Er  Er11  1  0.812583  0.185916  0.190086  1
  Er  Er12  1  0.813626  0.810093  0.188141  1
  Er  Er13  1  0.061913  0.434941  0.440158  1
  Er  Er14  1  0.439653  0.436144  0.062102  1
  Er  Er15  1  0.061913  0.434941  0.062989  1
  Mg  Mg16  1  0.731594  0.422858  0.422774  1
  In  In17  1  0.418394  0.416668  0.747264  1
  In  In18  1  0.417627  0.747489  0.417442  1
  In  In19  1  0.418394  0.416668  0.417675  1
  Ni  Ni20  1  0.857829  0.859036  0.857889  1
  Ni  Ni21  1  0.426000  0.858648  0.857676  1
  Ni  Ni22  1  0.857829  0.859036  0.425245  1
  Ir  Ir23  1  0.860444  0.426453  0.856552  1
