# generated using pymatgen
data_ErLuCS
_symmetry_space_group_name_H-M   'P 1'
_cell_length_a   6.59787920
_cell_length_b   6.59787833
_cell_length_c   6.59787900
_cell_angle_alpha   31.52201571
_cell_angle_beta   31.52202811
_cell_angle_gamma   31.52202734
_symmetry_Int_Tables_number   1
_chemical_formula_structural   ErLuCS
_chemical_formula_sum   'Er1 Lu1 C1 S1'
_cell_volume   69.70400238
_cell_formula_units_Z   1
loop_
 _symmetry_equiv_pos_site_id
 _symmetry_equiv_pos_as_xyz
  1  'x, y, z'
loop_
 _atom_site_type_symbol
 _atom_site_label
 _atom_site_symmetry_multiplicity
 _atom_site_fract_x
 _atom_site_fract_y
 _atom_site_fract_z
 _atom_site_occupancy
  Er  Er0  1  0.513488  0.513488  0.513488  1
  Lu  Lu1  1  0.986973  0.986973  0.986973  1
  C  C2  1  0.251057  0.251057  0.251057  1
  S  S3  1  0.748482  0.748482  0.748482  1
