# generated using pymatgen
data_Sm3Y2P12Pd3Ru16
_symmetry_space_group_name_H-M   'P 1'
_cell_length_a   12.64756500
_cell_length_b   12.64756597
_cell_length_c   3.99256200
_cell_angle_alpha   90.00000000
_cell_angle_beta   90.00000000
_cell_angle_gamma   119.99999484
_symmetry_Int_Tables_number   1
_chemical_formula_structural   Sm3Y2P12Pd3Ru16
_chemical_formula_sum   'Sm3 Y2 P12 Pd3 Ru16'
_cell_volume   553.09049728
_cell_formula_units_Z   1
loop_
 _symmetry_equiv_pos_site_id
 _symmetry_equiv_pos_as_xyz
  1  'x, y, z'
loop_
 _atom_site_type_symbol
 _atom_site_label
 _atom_site_symmetry_multiplicity
 _atom_site_fract_x
 _atom_site_fract_y
 _atom_site_fract_z
 _atom_site_occupancy
  Sm  Sm0  1  0.000000  0.181757  0.500000  1
  Sm  Sm1  1  0.818243  0.818243  0.500000  1
  Sm  Sm2  1  0.181757  0.000000  0.500000  1
  Y  Y3  1  0.666667  0.333333  0.000000  1
  Y  Y4  1  0.333333  0.666667  0.000000  1
  P  P5  1  0.000000  0.812304  0.000000  1
  P  P6  1  0.187696  0.187696  0.000000  1
  P  P7  1  0.812304  0.000000  0.000000  1
  P  P8  1  0.699484  0.179799  0.500000  1
  P  P9  1  0.820201  0.519684  0.500000  1
  P  P10  1  0.480316  0.300516  0.500000  1
  P  P11  1  0.179799  0.699484  0.500000  1
  P  P12  1  0.519684  0.820201  0.500000  1
  P  P13  1  0.300516  0.480316  0.500000  1
  P  P14  1  0.000000  0.367909  0.000000  1
  P  P15  1  0.632091  0.632091  0.000000  1
  P  P16  1  0.367909  0.000000  0.000000  1
  Pd  Pd17  1  0.000000  0.553441  0.000000  1
  Pd  Pd18  1  0.446559  0.446559  0.000000  1
  Pd  Pd19  1  0.553441  0.000000  0.000000  1
  Ru  Ru20  1  0.000000  0.710984  0.500000  1
  Ru  Ru21  1  0.289016  0.289016  0.500000  1
  Ru  Ru22  1  0.710984  0.000000  0.500000  1
  Ru  Ru23  1  0.805664  0.186127  0.000000  1
  Ru  Ru24  1  0.813873  0.619537  0.000000  1
  Ru  Ru25  1  0.380463  0.194336  0.000000  1
  Ru  Ru26  1  0.186127  0.805664  0.000000  1
  Ru  Ru27  1  0.619537  0.813873  0.000000  1
  Ru  Ru28  1  0.194336  0.380463  0.000000  1
  Ru  Ru29  1  0.875989  0.369461  0.500000  1
  Ru  Ru30  1  0.630539  0.506528  0.500000  1
  Ru  Ru31  1  0.493472  0.124011  0.500000  1
  Ru  Ru32  1  0.369461  0.875989  0.500000  1
  Ru  Ru33  1  0.506528  0.630539  0.500000  1
  Ru  Ru34  1  0.124011  0.493472  0.500000  1
  Ru  Ru35  1  0.000000  0.000000  0.000000  1
