# generated using pymatgen
data_Tb6Er3LuSi6
_symmetry_space_group_name_H-M   'P 1'
_cell_length_a   8.43719700
_cell_length_b   8.43719680
_cell_length_c   6.31774700
_cell_angle_alpha   90.00000000
_cell_angle_beta   90.00000000
_cell_angle_gamma   119.99999685
_symmetry_Int_Tables_number   1
_chemical_formula_structural   Tb6Er3LuSi6
_chemical_formula_sum   'Tb6 Er3 Lu1 Si6'
_cell_volume   389.48366198
_cell_formula_units_Z   1
loop_
 _symmetry_equiv_pos_site_id
 _symmetry_equiv_pos_as_xyz
  1  'x, y, z'
loop_
 _atom_site_type_symbol
 _atom_site_label
 _atom_site_symmetry_multiplicity
 _atom_site_fract_x
 _atom_site_fract_y
 _atom_site_fract_z
 _atom_site_occupancy
  Tb  Tb0  1  0.000182  0.755680  0.750206  1
  Tb  Tb1  1  0.000182  0.244502  0.249794  1
  Tb  Tb2  1  0.755498  0.755680  0.249794  1
  Tb  Tb3  1  0.755498  0.999818  0.750206  1
  Tb  Tb4  1  0.244320  0.244502  0.750206  1
  Tb  Tb5  1  0.244320  0.999818  0.249794  1
  Er  Er6  1  0.333333  0.666667  0.500000  1
  Er  Er7  1  0.666667  0.333333  0.000000  1
  Er  Er8  1  0.666667  0.333333  0.500000  1
  Lu  Lu9  1  0.333333  0.666667  0.000000  1
  Si  Si10  1  0.394993  0.999467  0.750518  1
  Si  Si11  1  0.394993  0.395526  0.249482  1
  Si  Si12  1  0.000533  0.605007  0.249482  1
  Si  Si13  1  0.000533  0.395526  0.750518  1
  Si  Si14  1  0.604474  0.605007  0.750518  1
  Si  Si15  1  0.604474  0.999467  0.249482  1
