# generated using pymatgen
data_La16Dy4Ru7Pt5
_symmetry_space_group_name_H-M   'P 1'
_cell_length_a   11.49273849
_cell_length_b   11.49273946
_cell_length_c   6.51992900
_cell_angle_alpha   90.06965089
_cell_angle_beta   90.06964591
_cell_angle_gamma   89.85263193
_symmetry_Int_Tables_number   1
_chemical_formula_structural   La16Dy4Ru7Pt5
_chemical_formula_sum   'La16 Dy4 Ru7 Pt5'
_cell_volume   861.16798504
_cell_formula_units_Z   1
loop_
 _symmetry_equiv_pos_site_id
 _symmetry_equiv_pos_as_xyz
  1  'x, y, z'
loop_
 _atom_site_type_symbol
 _atom_site_label
 _atom_site_symmetry_multiplicity
 _atom_site_fract_x
 _atom_site_fract_y
 _atom_site_fract_z
 _atom_site_occupancy
  La  La0  1  0.294963  0.089179  0.377704  1
  La  La1  1  0.296388  0.909596  0.876810  1
  La  La2  1  0.702620  0.083912  0.876052  1
  La  La3  1  0.703821  0.909494  0.377012  1
  La  La4  1  0.584879  0.785398  0.887097  1
  La  La5  1  0.582240  0.208558  0.377546  1
  La  La6  1  0.414543  0.788764  0.385987  1
  La  La7  1  0.410203  0.209967  0.888000  1
  La  La8  1  0.214602  0.415121  0.612903  1
  La  La9  1  0.211236  0.585457  0.114013  1
  La  La10  1  0.791442  0.417760  0.122454  1
  La  La11  1  0.790033  0.589797  0.612000  1
  La  La12  1  0.910821  0.705037  0.122296  1
  La  La13  1  0.916088  0.297380  0.623948  1
  La  La14  1  0.090404  0.703612  0.623190  1
  La  La15  1  0.090506  0.296179  0.122988  1
  Dy  Dy16  1  0.999580  0.999823  0.499481  1
  Dy  Dy17  1  0.000177  0.000420  0.000519  1
  Dy  Dy18  1  0.497628  0.501199  0.001497  1
  Dy  Dy19  1  0.498801  0.502372  0.498503  1
  Ru  Ru20  1  0.650356  0.648026  0.250459  1
  Ru  Ru21  1  0.351974  0.349644  0.249541  1
  Ru  Ru22  1  0.349752  0.650248  0.750000  1
  Ru  Ru23  1  0.500282  0.000356  0.117570  1
  Ru  Ru24  1  0.500321  0.001305  0.618594  1
  Ru  Ru25  1  0.998695  0.499679  0.881406  1
  Ru  Ru26  1  0.999644  0.499718  0.382430  1
  Pt  Pt27  1  0.853176  0.146824  0.250000  1
  Pt  Pt28  1  0.854332  0.854739  0.749649  1
  Pt  Pt29  1  0.145261  0.145668  0.750351  1
  Pt  Pt30  1  0.146219  0.853781  0.250000  1
  Pt  Pt31  1  0.649013  0.350987  0.750000  1
