# generated using pymatgen
data_NdTc3As4Rh3
_symmetry_space_group_name_H-M   'P 1'
_cell_length_a   7.21073606
_cell_length_b   7.20962216
_cell_length_c   3.94142300
_cell_angle_alpha   90.00000000
_cell_angle_beta   90.00000000
_cell_angle_gamma   119.99488224
_symmetry_Int_Tables_number   1
_chemical_formula_structural   NdTc3As4Rh3
_chemical_formula_sum   'Nd1 Tc3 As4 Rh3'
_cell_volume   177.45905995
_cell_formula_units_Z   1
loop_
 _symmetry_equiv_pos_site_id
 _symmetry_equiv_pos_as_xyz
  1  'x, y, z'
loop_
 _atom_site_type_symbol
 _atom_site_label
 _atom_site_symmetry_multiplicity
 _atom_site_fract_x
 _atom_site_fract_y
 _atom_site_fract_z
 _atom_site_occupancy
  Nd  Nd0  1  0.000029  0.000014  0.000000  1
  Tc  Tc1  1  0.535895  0.071713  0.000000  1
  Tc  Tc2  1  0.535895  0.464181  0.000000  1
  Tc  Tc3  1  0.928270  0.464135  0.000000  1
  As  As4  1  0.806584  0.613279  0.500000  1
  As  As5  1  0.333372  0.666686  0.000000  1
  As  As6  1  0.386778  0.193388  0.500000  1
  As  As7  1  0.806584  0.193305  0.500000  1
  Rh  Rh8  1  0.603306  0.801653  0.500000  1
  Rh  Rh9  1  0.198310  0.396697  0.500000  1
  Rh  Rh10  1  0.198310  0.801613  0.500000  1
