# generated using pymatgen
data_DyTm(Lu4Pb3)2
_symmetry_space_group_name_H-M   'P 1'
_cell_length_a   8.89839300
_cell_length_b   8.91784088
_cell_length_c   6.50878000
_cell_angle_alpha   90.00000000
_cell_angle_beta   90.00000000
_cell_angle_gamma   119.92788274
_symmetry_Int_Tables_number   1
_chemical_formula_structural   DyTm(Lu4Pb3)2
_chemical_formula_sum   'Dy1 Tm1 Lu8 Pb6'
_cell_volume   447.62740729
_cell_formula_units_Z   1
loop_
 _symmetry_equiv_pos_site_id
 _symmetry_equiv_pos_as_xyz
  1  'x, y, z'
loop_
 _atom_site_type_symbol
 _atom_site_label
 _atom_site_symmetry_multiplicity
 _atom_site_fract_x
 _atom_site_fract_y
 _atom_site_fract_z
 _atom_site_occupancy
  Dy  Dy0  1  0.765070  0.000000  0.750000  1
  Tm  Tm1  1  0.233112  0.000000  0.250000  1
  Lu  Lu2  1  0.234817  0.235410  0.750000  1
  Lu  Lu3  1  0.334206  0.667797  0.000090  1
  Lu  Lu4  1  0.666410  0.332203  0.000090  1
  Lu  Lu5  1  0.999406  0.764590  0.750000  1
  Lu  Lu6  1  0.764864  0.763796  0.250000  1
  Lu  Lu7  1  0.001070  0.236204  0.250000  1
  Lu  Lu8  1  0.334206  0.667797  0.499910  1
  Lu  Lu9  1  0.666410  0.332203  0.499910  1
  Pb  Pb10  1  0.002140  0.397986  0.750000  1
  Pb  Pb11  1  0.395218  0.395543  0.250000  1
  Pb  Pb12  1  0.605744  0.000000  0.250000  1
  Pb  Pb13  1  0.604154  0.602014  0.750000  1
  Pb  Pb14  1  0.393498  0.000000  0.750000  1
  Pb  Pb15  1  0.999675  0.604457  0.250000  1
