# generated using pymatgen
data_Er3Tm7IrOs3
_symmetry_space_group_name_H-M   'P 1'
_cell_length_a   6.31010153
_cell_length_b   7.30555458
_cell_length_c   8.28817893
_cell_angle_alpha   96.89037324
_cell_angle_beta   112.24804345
_cell_angle_gamma   89.95520999
_symmetry_Int_Tables_number   1
_chemical_formula_structural   Er3Tm7IrOs3
_chemical_formula_sum   'Er3 Tm7 Ir1 Os3'
_cell_volume   350.66220031
_cell_formula_units_Z   1
loop_
 _symmetry_equiv_pos_site_id
 _symmetry_equiv_pos_as_xyz
  1  'x, y, z'
loop_
 _atom_site_type_symbol
 _atom_site_label
 _atom_site_symmetry_multiplicity
 _atom_site_fract_x
 _atom_site_fract_y
 _atom_site_fract_z
 _atom_site_occupancy
  Er  Er0  1  0.970741  0.915551  0.180389  1
  Er  Er1  1  0.789412  0.581717  0.817531  1
  Er  Er2  1  0.025296  0.083518  0.814269  1
  Tm  Tm3  1  0.208569  0.418749  0.180567  1
  Tm  Tm4  1  0.647643  0.817202  0.438820  1
  Tm  Tm5  1  0.208919  0.681344  0.562360  1
  Tm  Tm6  1  0.352875  0.181386  0.563746  1
  Tm  Tm7  1  0.794101  0.320101  0.438436  1
  Tm  Tm8  1  0.421617  0.748797  0.999427  1
  Tm  Tm9  1  0.578351  0.250638  0.999501  1
  Ir  Ir10  1  0.396216  0.077672  0.221722  1
  Os  Os11  1  0.823202  0.576157  0.218295  1
  Os  Os12  1  0.606485  0.924004  0.781856  1
  Os  Os13  1  0.176573  0.423164  0.783081  1
