# generated using pymatgen
data_Yb3Al12CoOs3
_symmetry_space_group_name_H-M   'P 1'
_cell_length_a   8.80964200
_cell_length_b   8.80964306
_cell_length_c   9.48583100
_cell_angle_alpha   90.00000000
_cell_angle_beta   90.00000000
_cell_angle_gamma   119.99999600
_symmetry_Int_Tables_number   1
_chemical_formula_structural   Yb3Al12CoOs3
_chemical_formula_sum   'Yb6 Al24 Co2 Os6'
_cell_volume   637.56226541
_cell_formula_units_Z   2
loop_
 _symmetry_equiv_pos_site_id
 _symmetry_equiv_pos_as_xyz
  1  'x, y, z'
loop_
 _atom_site_type_symbol
 _atom_site_label
 _atom_site_symmetry_multiplicity
 _atom_site_fract_x
 _atom_site_fract_y
 _atom_site_fract_z
 _atom_site_occupancy
  Yb  Yb0  1  0.195721  0.391441  0.250000  1
  Yb  Yb1  1  0.804279  0.608559  0.750000  1
  Yb  Yb2  1  0.608559  0.804279  0.250000  1
  Yb  Yb3  1  0.391441  0.195721  0.750000  1
  Yb  Yb4  1  0.195721  0.804279  0.250000  1
  Yb  Yb5  1  0.804279  0.195721  0.750000  1
  Al  Al6  1  0.333333  0.666667  0.993334  1
  Al  Al7  1  0.666667  0.333333  0.006666  1
  Al  Al8  1  0.666667  0.333333  0.493334  1
  Al  Al9  1  0.333333  0.666667  0.506666  1
  Al  Al10  1  0.156973  0.313946  0.575551  1
  Al  Al11  1  0.843027  0.686054  0.424449  1
  Al  Al12  1  0.686054  0.843027  0.575551  1
  Al  Al13  1  0.843027  0.686054  0.075551  1
  Al  Al14  1  0.313946  0.156973  0.424449  1
  Al  Al15  1  0.156973  0.313946  0.924449  1
  Al  Al16  1  0.156973  0.843027  0.575551  1
  Al  Al17  1  0.313946  0.156973  0.075551  1
  Al  Al18  1  0.843027  0.156973  0.424449  1
  Al  Al19  1  0.686054  0.843027  0.924449  1
  Al  Al20  1  0.843027  0.156973  0.075551  1
  Al  Al21  1  0.156973  0.843027  0.924449  1
  Al  Al22  1  0.559946  0.119892  0.250000  1
  Al  Al23  1  0.440054  0.880108  0.750000  1
  Al  Al24  1  0.880108  0.440054  0.250000  1
  Al  Al25  1  0.119892  0.559946  0.750000  1
  Al  Al26  1  0.559946  0.440054  0.250000  1
  Al  Al27  1  0.440054  0.559946  0.750000  1
  Al  Al28  1  0.000000  0.000000  0.250000  1
  Al  Al29  1  0.000000  0.000000  0.750000  1
  Co  Co30  1  0.000000  0.000000  0.000000  1
  Co  Co31  1  0.000000  0.000000  0.500000  1
  Os  Os32  1  0.500000  0.000000  0.000000  1
  Os  Os33  1  0.000000  0.500000  0.000000  1
  Os  Os34  1  0.500000  0.000000  0.500000  1
  Os  Os35  1  0.500000  0.500000  0.000000  1
  Os  Os36  1  0.000000  0.500000  0.500000  1
  Os  Os37  1  0.500000  0.500000  0.500000  1
