# generated using pymatgen
data_Ba2YbUSe6
_symmetry_space_group_name_H-M   'P 1'
_cell_length_a   7.41743643
_cell_length_b   7.91765700
_cell_length_c   13.14888300
_cell_angle_alpha   90.00000000
_cell_angle_beta   124.71577963
_cell_angle_gamma   90.00000000
_symmetry_Int_Tables_number   1
_chemical_formula_structural   Ba2YbUSe6
_chemical_formula_sum   'Ba4 Yb2 U2 Se12'
_cell_volume   634.75253880
_cell_formula_units_Z   2
loop_
 _symmetry_equiv_pos_site_id
 _symmetry_equiv_pos_as_xyz
  1  'x, y, z'
loop_
 _atom_site_type_symbol
 _atom_site_label
 _atom_site_symmetry_multiplicity
 _atom_site_fract_x
 _atom_site_fract_y
 _atom_site_fract_z
 _atom_site_occupancy
  Ba  Ba0  1  0.227125  0.077736  0.251768  1
  Ba  Ba1  1  0.772875  0.577736  0.248232  1
  Ba  Ba2  1  0.227124  0.422265  0.751767  1
  Ba  Ba3  1  0.772876  0.922265  0.748233  1
  Yb  Yb4  1  0.500000  0.000000  0.000000  1
  Yb  Yb5  1  0.500000  0.500000  0.500000  1
  U  U6  1  0.000000  0.500000  0.000000  1
  U  U7  1  0.000000  0.000000  0.500000  1
  Se  Se8  1  0.863150  0.790303  0.046286  1
  Se  Se9  1  0.748155  0.312579  0.044597  1
  Se  Se10  1  0.329546  0.482497  0.240816  1
  Se  Se11  1  0.670455  0.982497  0.259184  1
  Se  Se12  1  0.251845  0.812579  0.455403  1
  Se  Se13  1  0.136850  0.290303  0.453714  1
  Se  Se14  1  0.863150  0.709697  0.546287  1
  Se  Se15  1  0.748154  0.187421  0.544597  1
  Se  Se16  1  0.329546  0.017503  0.740817  1
  Se  Se17  1  0.670454  0.517503  0.759183  1
  Se  Se18  1  0.251846  0.687422  0.955403  1
  Se  Se19  1  0.136851  0.209697  0.953714  1
