# generated using pymatgen
data_U4Co(Si2Ni)5
_symmetry_space_group_name_H-M   'P 1'
_cell_length_a   7.85767649
_cell_length_b   7.88262995
_cell_length_c   7.88263039
_cell_angle_alpha   138.15561836
_cell_angle_beta   105.02504310
_cell_angle_gamma   89.80572672
_symmetry_Int_Tables_number   1
_chemical_formula_structural   U4Co(Si2Ni)5
_chemical_formula_sum   'U4 Co1 Si10 Ni5'
_cell_volume   300.62777795
_cell_formula_units_Z   1
loop_
 _symmetry_equiv_pos_site_id
 _symmetry_equiv_pos_as_xyz
  1  'x, y, z'
loop_
 _atom_site_type_symbol
 _atom_site_label
 _atom_site_symmetry_multiplicity
 _atom_site_fract_x
 _atom_site_fract_y
 _atom_site_fract_z
 _atom_site_occupancy
  U  U0  1  0.869031  0.634047  0.234984  1
  U  U1  1  0.134204  0.368402  0.765801  1
  U  U2  1  0.601274  0.867035  0.734239  1
  U  U3  1  0.398004  0.133843  0.264160  1
  Co  Co4  1  0.248694  0.860222  0.388471  1
  Si  Si5  1  0.051135  0.895347  0.155788  1
  Si  Si6  1  0.951006  0.105621  0.845385  1
  Si  Si7  1  0.261239  0.605434  0.655805  1
  Si  Si8  1  0.740772  0.395509  0.345263  1
  Si  Si9  1  0.229258  0.978008  0.748017  1
  Si  Si10  1  0.771343  0.521460  0.749969  1
  Si  Si11  1  0.771343  0.021374  0.249883  1
  Si  Si12  1  0.497481  0.243019  0.744505  1
  Si  Si13  1  0.497481  0.752976  0.254462  1
  Si  Si14  1  0.229258  0.481240  0.251249  1
  Ni  Ni15  1  0.000795  0.250040  0.249885  1
  Ni  Ni16  1  0.746152  0.137100  0.609053  1
  Ni  Ni17  1  0.527318  0.634831  0.892487  1
  Ni  Ni18  1  0.473419  0.363582  0.109837  1
  Ni  Ni19  1  0.000795  0.750911  0.750756  1
