# generated using pymatgen
data_Sc5Ga2Sb
_symmetry_space_group_name_H-M   'P 1'
_cell_length_a   8.17533808
_cell_length_b   8.17339637
_cell_length_c   6.03948100
_cell_angle_alpha   90.00000000
_cell_angle_beta   90.00000000
_cell_angle_gamma   119.99214212
_symmetry_Int_Tables_number   1
_chemical_formula_structural   Sc5Ga2Sb
_chemical_formula_sum   'Sc10 Ga4 Sb2'
_cell_volume   349.52071122
_cell_formula_units_Z   2
loop_
 _symmetry_equiv_pos_site_id
 _symmetry_equiv_pos_as_xyz
  1  'x, y, z'
loop_
 _atom_site_type_symbol
 _atom_site_label
 _atom_site_symmetry_multiplicity
 _atom_site_fract_x
 _atom_site_fract_y
 _atom_site_fract_z
 _atom_site_occupancy
  Sc  Sc0  1  0.316046  0.658023  0.000000  1
  Sc  Sc1  1  0.670449  0.335224  0.500000  1
  Sc  Sc2  1  0.670449  0.335224  0.000000  1
  Sc  Sc3  1  0.316046  0.658023  0.500000  1
  Sc  Sc4  1  0.230463  0.999784  0.250000  1
  Sc  Sc5  1  0.230463  0.230680  0.750000  1
  Sc  Sc6  1  0.013109  0.764911  0.750000  1
  Sc  Sc7  1  0.013109  0.248198  0.250000  1
  Sc  Sc8  1  0.766819  0.752920  0.250000  1
  Sc  Sc9  1  0.766819  0.013900  0.750000  1
  Ga  Ga10  1  0.998024  0.398227  0.750000  1
  Ga  Ga11  1  0.998024  0.599797  0.250000  1
  Ga  Ga12  1  0.400076  0.397126  0.250000  1
  Ga  Ga13  1  0.400076  0.002949  0.750000  1
  Sb  Sb14  1  0.605013  0.995958  0.250000  1
  Sb  Sb15  1  0.605013  0.609055  0.750000  1
