# generated using pymatgen
data_Sc4Ga20(TcRu)3
_symmetry_space_group_name_H-M   'P 1'
_cell_length_a   9.04122268
_cell_length_b   9.04122268
_cell_length_c   6.00474900
_cell_angle_alpha   90.00000000
_cell_angle_beta   90.00000000
_cell_angle_gamma   89.83235640
_symmetry_Int_Tables_number   1
_chemical_formula_structural   Sc4Ga20(TcRu)3
_chemical_formula_sum   'Sc4 Ga20 Tc3 Ru3'
_cell_volume   490.84834455
_cell_formula_units_Z   1
loop_
 _symmetry_equiv_pos_site_id
 _symmetry_equiv_pos_as_xyz
  1  'x, y, z'
loop_
 _atom_site_type_symbol
 _atom_site_label
 _atom_site_symmetry_multiplicity
 _atom_site_fract_x
 _atom_site_fract_y
 _atom_site_fract_z
 _atom_site_occupancy
  Sc  Sc0  1  0.182038  0.680572  0.000000  1
  Sc  Sc1  1  0.819428  0.317962  0.000000  1
  Sc  Sc2  1  0.681167  0.818833  0.000000  1
  Sc  Sc3  1  0.317541  0.182459  0.000000  1
  Ga  Ga4  1  0.062217  0.208818  0.716870  1
  Ga  Ga5  1  0.938525  0.791738  0.717325  1
  Ga  Ga6  1  0.561864  0.291672  0.717629  1
  Ga  Ga7  1  0.438421  0.708814  0.717330  1
  Ga  Ga8  1  0.791186  0.061579  0.717330  1
  Ga  Ga9  1  0.208328  0.938136  0.717629  1
  Ga  Ga10  1  0.708262  0.561475  0.717325  1
  Ga  Ga11  1  0.291182  0.437783  0.716870  1
  Ga  Ga12  1  0.938525  0.791738  0.282675  1
  Ga  Ga13  1  0.062217  0.208818  0.283130  1
  Ga  Ga14  1  0.438421  0.708814  0.282670  1
  Ga  Ga15  1  0.561864  0.291672  0.282371  1
  Ga  Ga16  1  0.208328  0.938136  0.282371  1
  Ga  Ga17  1  0.791186  0.061579  0.282670  1
  Ga  Ga18  1  0.291182  0.437783  0.283130  1
  Ga  Ga19  1  0.708262  0.561475  0.282675  1
  Ga  Ga20  1  0.000559  0.499441  0.730751  1
  Ga  Ga21  1  0.499380  0.000620  0.730620  1
  Ga  Ga22  1  0.000559  0.499441  0.269249  1
  Ga  Ga23  1  0.499380  0.000620  0.269380  1
  Tc  Tc24  1  0.178194  0.678317  0.500000  1
  Tc  Tc25  1  0.821683  0.321806  0.500000  1
  Tc  Tc26  1  0.678037  0.821963  0.500000  1
  Ru  Ru27  1  0.322550  0.177450  0.500000  1
  Ru  Ru28  1  0.000539  0.001026  0.000000  1
  Ru  Ru29  1  0.498974  0.499461  0.000000  1
