# generated using pymatgen
data_K6TmAlSb4
_symmetry_space_group_name_H-M   'P 1'
_cell_length_a   9.72181340
_cell_length_b   9.72181362
_cell_length_c   9.72181375
_cell_angle_alpha   127.82352276
_cell_angle_beta   69.79316772
_cell_angle_gamma   137.06936560
_symmetry_Int_Tables_number   1
_chemical_formula_structural   K6TmAlSb4
_chemical_formula_sum   'K6 Tm1 Al1 Sb4'
_cell_volume   485.10110441
_cell_formula_units_Z   1
loop_
 _symmetry_equiv_pos_site_id
 _symmetry_equiv_pos_as_xyz
  1  'x, y, z'
loop_
 _atom_site_type_symbol
 _atom_site_label
 _atom_site_symmetry_multiplicity
 _atom_site_fract_x
 _atom_site_fract_y
 _atom_site_fract_z
 _atom_site_occupancy
  K  K0  1  0.804743  0.181001  0.004381  1
  K  K1  1  0.695258  0.699639  0.376256  1
  K  K2  1  0.750000  0.250000  0.500000  1
  K  K3  1  0.250000  0.750000  0.499999  1
  K  K4  1  0.323381  0.319000  0.623743  1
  K  K5  1  0.176619  0.800362  0.995619  1
  Tm  Tm6  1  0.250000  0.250000  0.000000  1
  Al  Al7  1  0.750000  0.750000  0.000000  1
  Sb  Sb8  1  0.419075  0.711835  0.092960  1
  Sb  Sb9  1  0.080924  0.173886  0.292761  1
  Sb  Sb10  1  0.881124  0.788164  0.707240  1
  Sb  Sb11  1  0.618875  0.326114  0.907039  1
