# generated using pymatgen
data_SrRh4Pb3O14
_symmetry_space_group_name_H-M   'P 1'
_cell_length_a   7.32630814
_cell_length_b   7.32178742
_cell_length_c   7.32630800
_cell_angle_alpha   59.97957397
_cell_angle_beta   60.00000061
_cell_angle_gamma   59.97957377
_symmetry_Int_Tables_number   1
_chemical_formula_structural   SrRh4Pb3O14
_chemical_formula_sum   'Sr1 Rh4 Pb3 O14'
_cell_volume   277.80388775
_cell_formula_units_Z   1
loop_
 _symmetry_equiv_pos_site_id
 _symmetry_equiv_pos_as_xyz
  1  'x, y, z'
loop_
 _atom_site_type_symbol
 _atom_site_label
 _atom_site_symmetry_multiplicity
 _atom_site_fract_x
 _atom_site_fract_y
 _atom_site_fract_z
 _atom_site_occupancy
  Sr  Sr0  1  0.125000  0.625000  0.125000  1
  Rh  Rh1  1  0.625000  0.625000  0.625000  1
  Rh  Rh2  1  0.625000  0.625000  0.125000  1
  Rh  Rh3  1  0.125000  0.625000  0.625000  1
  Rh  Rh4  1  0.625000  0.125000  0.625000  1
  Pb  Pb5  1  0.125000  0.125000  0.125000  1
  Pb  Pb6  1  0.625000  0.125000  0.125000  1
  Pb  Pb7  1  0.125000  0.125000  0.625000  1
  O  O8  1  0.256562  0.230316  0.256562  1
  O  O9  1  0.297449  0.713173  0.297449  1
  O  O10  1  0.954795  0.958425  0.543390  1
  O  O11  1  0.543390  0.958425  0.543390  1
  O  O12  1  0.691931  0.713173  0.297449  1
  O  O13  1  0.952551  0.536827  0.558069  1
  O  O14  1  0.706610  0.291575  0.706610  1
  O  O15  1  0.295205  0.291575  0.706610  1
  O  O16  1  0.706610  0.291575  0.295205  1
  O  O17  1  0.297449  0.713173  0.691931  1
  O  O18  1  0.952551  0.536827  0.952551  1
  O  O19  1  0.558069  0.536827  0.952551  1
  O  O20  1  0.993438  0.019684  0.993438  1
  O  O21  1  0.543390  0.958425  0.954795  1
