# generated using pymatgen
data_BaYb5(Si3Ru)8
_symmetry_space_group_name_H-M   'P 1'
_cell_length_a   10.19065083
_cell_length_b   10.19065134
_cell_length_c   8.22229894
_cell_angle_alpha   89.95409472
_cell_angle_beta   90.04590241
_cell_angle_gamma   132.38284588
_symmetry_Int_Tables_number   1
_chemical_formula_structural   BaYb5(Si3Ru)8
_chemical_formula_sum   'Ba1 Yb5 Si24 Ru8'
_cell_volume   630.72477422
_cell_formula_units_Z   1
loop_
 _symmetry_equiv_pos_site_id
 _symmetry_equiv_pos_as_xyz
  1  'x, y, z'
loop_
 _atom_site_type_symbol
 _atom_site_label
 _atom_site_symmetry_multiplicity
 _atom_site_fract_x
 _atom_site_fract_y
 _atom_site_fract_z
 _atom_site_occupancy
  Ba  Ba0  1  0.504103  0.004103  0.250000  1
  Yb  Yb1  1  0.000156  0.000080  0.000482  1
  Yb  Yb2  1  0.500080  0.500156  0.499518  1
  Yb  Yb3  1  0.003459  0.503459  0.250000  1
  Yb  Yb4  1  0.999278  0.499278  0.750000  1
  Yb  Yb5  1  0.497158  0.997158  0.750000  1
  Si  Si6  1  0.712919  0.302962  0.993306  1
  Si  Si7  1  0.289263  0.699365  0.994361  1
  Si  Si8  1  0.802962  0.212919  0.506694  1
  Si  Si9  1  0.199365  0.789263  0.505639  1
  Si  Si10  1  0.333916  0.332727  0.167995  1
  Si  Si11  1  0.666997  0.666913  0.832156  1
  Si  Si12  1  0.166913  0.166997  0.667844  1
  Si  Si13  1  0.832727  0.833916  0.332005  1
  Si  Si14  1  0.847467  0.615906  0.010071  1
  Si  Si15  1  0.154564  0.385737  0.992623  1
  Si  Si16  1  0.653022  0.885075  0.512520  1
  Si  Si17  1  0.115906  0.347467  0.489929  1
  Si  Si18  1  0.344021  0.114267  0.499358  1
  Si  Si19  1  0.885737  0.654564  0.507377  1
  Si  Si20  1  0.385075  0.153022  0.987480  1
  Si  Si21  1  0.614267  0.844021  0.000642  1
  Si  Si22  1  0.898169  0.130004  0.268445  1
  Si  Si23  1  0.106126  0.876014  0.731173  1
  Si  Si24  1  0.604152  0.373065  0.768498  1
  Si  Si25  1  0.630004  0.398169  0.231555  1
  Si  Si26  1  0.386792  0.616918  0.228672  1
  Si  Si27  1  0.376014  0.606126  0.768827  1
  Si  Si28  1  0.873065  0.104152  0.731502  1
  Si  Si29  1  0.116918  0.886792  0.271328  1
  Ru  Ru30  1  0.835338  0.171631  0.995203  1
  Ru  Ru31  1  0.164908  0.828582  0.996948  1
  Ru  Ru32  1  0.671631  0.335338  0.504797  1
  Ru  Ru33  1  0.328582  0.664908  0.503052  1
  Ru  Ru34  1  0.124957  0.125572  0.375671  1
  Ru  Ru35  1  0.873983  0.874433  0.624141  1
  Ru  Ru36  1  0.374433  0.373983  0.875859  1
  Ru  Ru37  1  0.625572  0.624957  0.124329  1
