# generated using pymatgen
data_Tb2Ho3(FeO6)2
_symmetry_space_group_name_H-M   'P 1'
_cell_length_a   6.76026592
_cell_length_b   6.76026563
_cell_length_c   7.25595563
_cell_angle_alpha   74.51555793
_cell_angle_beta   74.51555509
_cell_angle_gamma   51.15322660
_symmetry_Int_Tables_number   1
_chemical_formula_structural   Tb2Ho3(FeO6)2
_chemical_formula_sum   'Tb2 Ho3 Fe2 O12'
_cell_volume   246.69157764
_cell_formula_units_Z   1
loop_
 _symmetry_equiv_pos_site_id
 _symmetry_equiv_pos_as_xyz
  1  'x, y, z'
loop_
 _atom_site_type_symbol
 _atom_site_label
 _atom_site_symmetry_multiplicity
 _atom_site_fract_x
 _atom_site_fract_y
 _atom_site_fract_z
 _atom_site_occupancy
  Tb  Tb0  1  0.304735  0.304735  0.358880  1
  Tb  Tb1  1  0.999757  0.999757  0.500472  1
  Ho  Ho2  1  0.695035  0.695035  0.641929  1
  Ho  Ho3  1  0.307071  0.307071  0.833189  1
  Ho  Ho4  1  0.693098  0.693098  0.166957  1
  Fe  Fe5  1  0.756757  0.243623  0.999532  1
  Fe  Fe6  1  0.243623  0.756757  0.999532  1
  O  O7  1  0.899147  0.421957  0.920427  1
  O  O8  1  0.421957  0.899147  0.920427  1
  O  O9  1  0.100219  0.579186  0.077423  1
  O  O10  1  0.579186  0.100219  0.077423  1
  O  O11  1  0.094968  0.594850  0.580473  1
  O  O12  1  0.594850  0.094968  0.580473  1
  O  O13  1  0.900845  0.407258  0.422405  1
  O  O14  1  0.407258  0.900845  0.422405  1
  O  O15  1  0.001126  0.001126  0.818218  1
  O  O16  1  0.999317  0.999317  0.181566  1
  O  O17  1  0.499896  0.499896  0.815834  1
  O  O18  1  0.501157  0.501157  0.182434  1
