# generated using pymatgen
data_NaAg3(PbO3)2
_symmetry_space_group_name_H-M   'P 1'
_cell_length_a   5.77181368
_cell_length_b   5.77930069
_cell_length_c   6.72022852
_cell_angle_alpha   73.32831779
_cell_angle_beta   98.25793237
_cell_angle_gamma   120.04291067
_symmetry_Int_Tables_number   1
_chemical_formula_structural   NaAg3(PbO3)2
_chemical_formula_sum   'Na1 Ag3 Pb2 O6'
_cell_volume   185.89327926
_cell_formula_units_Z   1
loop_
 _symmetry_equiv_pos_site_id
 _symmetry_equiv_pos_as_xyz
  1  'x, y, z'
loop_
 _atom_site_type_symbol
 _atom_site_label
 _atom_site_symmetry_multiplicity
 _atom_site_fract_x
 _atom_site_fract_y
 _atom_site_fract_z
 _atom_site_occupancy
  Na  Na0  1  0.333333  0.166667  0.500000  1
  Ag  Ag1  1  0.680005  0.340001  0.000000  1
  Ag  Ag2  1  0.333333  0.666667  0.000000  1
  Ag  Ag3  1  0.986662  0.993332  0.000000  1
  Pb  Pb4  1  0.999660  0.499829  0.500000  1
  Pb  Pb5  1  0.667007  0.833504  0.500000  1
  O  O6  1  0.333333  0.756100  0.678402  1
  O  O7  1  0.982948  0.108012  0.678059  1
  O  O8  1  0.683719  0.458398  0.678059  1
  O  O9  1  0.683719  0.225321  0.321941  1
  O  O10  1  0.333333  0.577234  0.321598  1
  O  O11  1  0.982948  0.874935  0.321941  1
