# generated using pymatgen
data_YbThZn19Cu3
_symmetry_space_group_name_H-M   'P 1'
_cell_length_a   8.18064026
_cell_length_b   8.18623740
_cell_length_c   8.18623739
_cell_angle_alpha   100.02359711
_cell_angle_beta   99.79153594
_cell_angle_gamma   131.02949178
_symmetry_Int_Tables_number   1
_chemical_formula_structural   YbThZn19Cu3
_chemical_formula_sum   'Yb1 Th1 Zn19 Cu3'
_cell_volume   376.24058380
_cell_formula_units_Z   1
loop_
 _symmetry_equiv_pos_site_id
 _symmetry_equiv_pos_as_xyz
  1  'x, y, z'
loop_
 _atom_site_type_symbol
 _atom_site_label
 _atom_site_symmetry_multiplicity
 _atom_site_fract_x
 _atom_site_fract_y
 _atom_site_fract_z
 _atom_site_occupancy
  Yb  Yb0  1  0.750186  0.250190  0.499996  1
  Th  Th1  1  0.502435  0.501063  0.001372  1
  Zn  Zn2  1  0.398099  0.073746  0.080089  1
  Zn  Zn3  1  0.988677  0.313480  0.916405  1
  Zn  Zn4  1  0.260154  0.677221  0.826114  1
  Zn  Zn5  1  0.849738  0.429431  0.174604  1
  Zn  Zn6  1  0.924938  0.597852  0.910963  1
  Zn  Zn7  1  0.686367  0.010042  0.081734  1
  Zn  Zn8  1  0.325431  0.737371  0.171472  1
  Zn  Zn9  1  0.566023  0.147058  0.824421  1
  Zn  Zn10  1  0.849738  0.675136  0.420308  1
  Zn  Zn11  1  0.260154  0.434039  0.582932  1
  Zn  Zn12  1  0.988677  0.072273  0.675199  1
  Zn  Zn13  1  0.398099  0.318010  0.324351  1
  Zn  Zn14  1  0.325431  0.153960  0.588060  1
  Zn  Zn15  1  0.566023  0.741602  0.418965  1
  Zn  Zn16  1  0.924938  0.013975  0.327087  1
  Zn  Zn17  1  0.686367  0.604634  0.676325  1
  Zn  Zn18  1  0.250449  0.746387  0.504063  1
  Zn  Zn19  1  0.998697  0.002782  0.995914  1
  Zn  Zn20  1  0.124174  0.872858  0.251316  1
  Cu  Cu21  1  0.126993  0.875332  0.748313  1
  Cu  Cu22  1  0.126993  0.378680  0.251662  1
  Cu  Cu23  1  0.621216  0.872879  0.748336  1
