# generated using pymatgen
data_Er7ZrSiPd24
_symmetry_space_group_name_H-M   'P 1'
_cell_length_a   8.27950245
_cell_length_b   8.27950245
_cell_length_c   8.27950245
_cell_angle_alpha   89.85939241
_cell_angle_beta   89.85939241
_cell_angle_gamma   89.85939241
_symmetry_Int_Tables_number   1
_chemical_formula_structural   Er7ZrSiPd24
_chemical_formula_sum   'Er7 Zr1 Si1 Pd24'
_cell_volume   567.55610577
_cell_formula_units_Z   1
loop_
 _symmetry_equiv_pos_site_id
 _symmetry_equiv_pos_as_xyz
  1  'x, y, z'
loop_
 _atom_site_type_symbol
 _atom_site_label
 _atom_site_symmetry_multiplicity
 _atom_site_fract_x
 _atom_site_fract_y
 _atom_site_fract_z
 _atom_site_occupancy
  Er  Er0  1  0.745259  0.745259  0.745259  1
  Er  Er1  1  0.746430  0.746430  0.253905  1
  Er  Er2  1  0.746430  0.253905  0.746430  1
  Er  Er3  1  0.254200  0.254200  0.746910  1
  Er  Er4  1  0.254200  0.746910  0.254200  1
  Er  Er5  1  0.253905  0.746430  0.746430  1
  Er  Er6  1  0.746910  0.254200  0.254200  1
  Zr  Zr7  1  0.257585  0.257585  0.257585  1
  Si  Si8  1  0.995824  0.995824  0.995824  1
  Pd  Pd9  1  0.257114  0.497222  0.004442  1
  Pd  Pd10  1  0.743496  0.498390  0.000573  1
  Pd  Pd11  1  0.004442  0.257114  0.497222  1
  Pd  Pd12  1  0.497222  0.257114  0.004442  1
  Pd  Pd13  1  0.000573  0.743496  0.498390  1
  Pd  Pd14  1  0.498390  0.743496  0.000573  1
  Pd  Pd15  1  0.497222  0.004442  0.257114  1
  Pd  Pd16  1  0.257114  0.004442  0.497222  1
  Pd  Pd17  1  0.498390  0.000573  0.743496  1
  Pd  Pd18  1  0.743496  0.000573  0.498390  1
  Pd  Pd19  1  0.004442  0.497222  0.257114  1
  Pd  Pd20  1  0.000573  0.498390  0.743496  1
  Pd  Pd21  1  0.252702  0.497874  0.497874  1
  Pd  Pd22  1  0.748507  0.499383  0.499383  1
  Pd  Pd23  1  0.497874  0.252702  0.497874  1
  Pd  Pd24  1  0.499383  0.748507  0.499383  1
  Pd  Pd25  1  0.497874  0.497874  0.252702  1
  Pd  Pd26  1  0.499383  0.499383  0.748507  1
  Pd  Pd27  1  0.275583  0.004074  0.004074  1
  Pd  Pd28  1  0.717301  0.000014  0.000014  1
  Pd  Pd29  1  0.004074  0.275583  0.004074  1
  Pd  Pd30  1  0.000014  0.717301  0.000014  1
  Pd  Pd31  1  0.004074  0.004074  0.275583  1
  Pd  Pd32  1  0.000014  0.000014  0.717301  1
