# generated using pymatgen
data_Ho10Th6MgTl2CdRu4
_symmetry_space_group_name_H-M   'P 1'
_cell_length_a   9.68155886
_cell_length_b   9.75660506
_cell_length_c   9.75660500
_cell_angle_alpha   59.35680357
_cell_angle_beta   60.18968549
_cell_angle_gamma   60.18967027
_symmetry_Int_Tables_number   1
_chemical_formula_structural   Ho10Th6MgTl2CdRu4
_chemical_formula_sum   'Ho10 Th6 Mg1 Tl2 Cd1 Ru4'
_cell_volume   650.27853452
_cell_formula_units_Z   1
loop_
 _symmetry_equiv_pos_site_id
 _symmetry_equiv_pos_as_xyz
  1  'x, y, z'
loop_
 _atom_site_type_symbol
 _atom_site_label
 _atom_site_symmetry_multiplicity
 _atom_site_fract_x
 _atom_site_fract_y
 _atom_site_fract_z
 _atom_site_occupancy
  Ho  Ho0  1  0.189194  0.809594  0.190681  1
  Ho  Ho1  1  0.808788  0.190198  0.809260  1
  Ho  Ho2  1  0.188630  0.190315  0.810190  1
  Ho  Ho3  1  0.808166  0.808241  0.191603  1
  Ho  Ho4  1  0.936483  0.567912  0.566820  1
  Ho  Ho5  1  0.565403  0.937692  0.932221  1
  Ho  Ho6  1  0.563235  0.942361  0.561934  1
  Ho  Ho7  1  0.939966  0.562789  0.936637  1
  Ho  Ho8  1  0.562725  0.562098  0.939536  1
  Ho  Ho9  1  0.938322  0.937845  0.563087  1
  Th  Th10  1  0.338801  0.350074  0.350947  1
  Th  Th11  1  0.352698  0.344590  0.954591  1
  Th  Th12  1  0.352035  0.954622  0.344927  1
  Th  Th13  1  0.953044  0.349895  0.351176  1
  Th  Th14  1  0.814267  0.185048  0.184903  1
  Th  Th15  1  0.180859  0.817499  0.817838  1
  Mg  Mg16  1  0.266501  0.574519  0.576164  1
  Tl  Tl17  1  0.585845  0.583104  0.586061  1
  Tl  Tl18  1  0.581429  0.584761  0.245015  1
  Cd  Cd19  1  0.580629  0.247777  0.585080  1
  Ru  Ru20  1  0.128530  0.147645  0.147378  1
  Ru  Ru21  1  0.144988  0.129008  0.574536  1
  Ru  Ru22  1  0.145030  0.573439  0.129795  1
  Ru  Ru23  1  0.574430  0.148975  0.149620  1
