# generated using pymatgen
data_Mg4Zn3GeRh8
_symmetry_space_group_name_H-M   'P 1'
_cell_length_a   6.11760845
_cell_length_b   6.16921300
_cell_length_c   6.11763862
_cell_angle_alpha   90.00074556
_cell_angle_beta   89.95218815
_cell_angle_gamma   89.99994421
_symmetry_Int_Tables_number   1
_chemical_formula_structural   Mg4Zn3GeRh8
_chemical_formula_sum   'Mg4 Zn3 Ge1 Rh8'
_cell_volume   230.88467627
_cell_formula_units_Z   1
loop_
 _symmetry_equiv_pos_site_id
 _symmetry_equiv_pos_as_xyz
  1  'x, y, z'
loop_
 _atom_site_type_symbol
 _atom_site_label
 _atom_site_symmetry_multiplicity
 _atom_site_fract_x
 _atom_site_fract_y
 _atom_site_fract_z
 _atom_site_occupancy
  Mg  Mg0  1  0.999980  0.249999  0.999998  1
  Mg  Mg1  1  0.000015  0.750001  0.000003  1
  Mg  Mg2  1  0.499968  0.750002  0.499998  1
  Mg  Mg3  1  0.500029  0.249998  0.500008  1
  Zn  Zn4  1  0.500006  0.250006  0.000013  1
  Zn  Zn5  1  0.499978  0.749995  0.000008  1
  Zn  Zn6  1  0.999997  0.250010  0.499986  1
  Ge  Ge7  1  0.000003  0.750001  0.500002  1
  Rh  Rh8  1  0.751848  0.996867  0.251850  1
  Rh  Rh9  1  0.751838  0.503137  0.251838  1
  Rh  Rh10  1  0.245807  0.996467  0.254192  1
  Rh  Rh11  1  0.245809  0.503511  0.254186  1
  Rh  Rh12  1  0.754200  0.996448  0.745805  1
  Rh  Rh13  1  0.754204  0.503569  0.745794  1
  Rh  Rh14  1  0.248164  0.503098  0.748162  1
  Rh  Rh15  1  0.248149  0.996889  0.748157  1
