# generated using pymatgen
data_Pu8Si13Rh3
_symmetry_space_group_name_H-M   'P 1'
_cell_length_a   8.22001800
_cell_length_b   8.22001715
_cell_length_c   7.89825800
_cell_angle_alpha   90.00000000
_cell_angle_beta   90.00000000
_cell_angle_gamma   119.99999538
_symmetry_Int_Tables_number   1
_chemical_formula_structural   Pu8Si13Rh3
_chemical_formula_sum   'Pu8 Si13 Rh3'
_cell_volume   462.17607493
_cell_formula_units_Z   1
loop_
 _symmetry_equiv_pos_site_id
 _symmetry_equiv_pos_as_xyz
  1  'x, y, z'
loop_
 _atom_site_type_symbol
 _atom_site_label
 _atom_site_symmetry_multiplicity
 _atom_site_fract_x
 _atom_site_fract_y
 _atom_site_fract_z
 _atom_site_occupancy
  Pu  Pu0  1  0.000000  0.000000  0.750049  1
  Pu  Pu1  1  0.000000  0.000000  0.250172  1
  Pu  Pu2  1  0.499662  0.500338  0.748676  1
  Pu  Pu3  1  0.499662  0.999326  0.748676  1
  Pu  Pu4  1  0.000674  0.500338  0.748676  1
  Pu  Pu5  1  0.500395  0.499605  0.251014  1
  Pu  Pu6  1  0.999210  0.499605  0.251014  1
  Pu  Pu7  1  0.500395  0.000790  0.251014  1
  Si  Si8  1  0.666667  0.333333  0.998165  1
  Si  Si9  1  0.835740  0.164260  0.000482  1
  Si  Si10  1  0.835740  0.671480  0.000482  1
  Si  Si11  1  0.328520  0.164260  0.000482  1
  Si  Si12  1  0.835065  0.164935  0.500208  1
  Si  Si13  1  0.835065  0.670131  0.500208  1
  Si  Si14  1  0.329869  0.164935  0.500208  1
  Si  Si15  1  0.164609  0.835391  0.499262  1
  Si  Si16  1  0.670780  0.835391  0.499262  1
  Si  Si17  1  0.164609  0.329220  0.499262  1
  Si  Si18  1  0.166274  0.833726  0.000406  1
  Si  Si19  1  0.667453  0.833726  0.000406  1
  Si  Si20  1  0.166274  0.332547  0.000406  1
  Rh  Rh21  1  0.666667  0.333333  0.500697  1
  Rh  Rh22  1  0.333333  0.666667  0.499305  1
  Rh  Rh23  1  0.333333  0.666667  0.001470  1
