# generated using pymatgen
data_Nd7Sc(Si4Mo3)4
_symmetry_space_group_name_H-M   'P 1'
_cell_length_a   6.89116651
_cell_length_b   7.05197120
_cell_length_c   13.07069547
_cell_angle_alpha   89.80488371
_cell_angle_beta   89.94743960
_cell_angle_gamma   89.86574858
_symmetry_Int_Tables_number   1
_chemical_formula_structural   Nd7Sc(Si4Mo3)4
_chemical_formula_sum   'Nd7 Sc1 Si16 Mo12'
_cell_volume   635.18185054
_cell_formula_units_Z   1
loop_
 _symmetry_equiv_pos_site_id
 _symmetry_equiv_pos_as_xyz
  1  'x, y, z'
loop_
 _atom_site_type_symbol
 _atom_site_label
 _atom_site_symmetry_multiplicity
 _atom_site_fract_x
 _atom_site_fract_y
 _atom_site_fract_z
 _atom_site_occupancy
  Nd  Nd0  1  0.497133  0.335255  0.093890  1
  Nd  Nd1  1  0.997480  0.164003  0.406233  1
  Nd  Nd2  1  0.502898  0.664019  0.594126  1
  Nd  Nd3  1  0.001463  0.835607  0.908261  1
  Nd  Nd4  1  0.501893  0.665096  0.907715  1
  Nd  Nd5  1  0.002590  0.835908  0.594078  1
  Nd  Nd6  1  0.496879  0.335255  0.403793  1
  Sc  Sc7  1  0.995360  0.168192  0.097748  1
  Si  Si8  1  0.654099  0.047137  0.549383  1
  Si  Si9  1  0.153231  0.448829  0.953893  1
  Si  Si10  1  0.335433  0.959504  0.050148  1
  Si  Si11  1  0.845341  0.546720  0.450111  1
  Si  Si12  1  0.346377  0.952652  0.449329  1
  Si  Si13  1  0.848860  0.537074  0.050244  1
  Si  Si14  1  0.657285  0.046630  0.953574  1
  Si  Si15  1  0.154751  0.454121  0.549122  1
  Si  Si16  1  0.536628  0.358478  0.751035  1
  Si  Si17  1  0.036716  0.140492  0.750487  1
  Si  Si18  1  0.464542  0.643170  0.248849  1
  Si  Si19  1  0.965220  0.865032  0.246331  1
  Si  Si20  1  0.806870  0.618642  0.751193  1
  Si  Si21  1  0.305924  0.879277  0.750733  1
  Si  Si22  1  0.188594  0.373971  0.246281  1
  Si  Si23  1  0.700921  0.122591  0.246560  1
  Mo  Mo24  1  0.832223  0.334142  0.627251  1
  Mo  Mo25  1  0.330361  0.164183  0.874598  1
  Mo  Mo26  1  0.168128  0.665582  0.126296  1
  Mo  Mo27  1  0.670778  0.836481  0.371805  1
  Mo  Mo28  1  0.167094  0.665752  0.371061  1
  Mo  Mo29  1  0.670905  0.838314  0.124951  1
  Mo  Mo30  1  0.833525  0.331719  0.875770  1
  Mo  Mo31  1  0.331555  0.164693  0.626736  1
  Mo  Mo32  1  0.664436  0.004500  0.751179  1
  Mo  Mo33  1  0.164939  0.494677  0.750763  1
  Mo  Mo34  1  0.333717  0.999242  0.247822  1
  Mo  Mo35  1  0.835854  0.503061  0.248652  1
