# generated using pymatgen
data_Ac2BPt8
_symmetry_space_group_name_H-M   'P 1'
_cell_length_a   4.31277500
_cell_length_b   9.23132754
_cell_length_c   9.23132677
_cell_angle_alpha   145.53473022
_cell_angle_beta   90.00000000
_cell_angle_gamma   90.00000000
_symmetry_Int_Tables_number   1
_chemical_formula_structural   Ac2BPt8
_chemical_formula_sum   'Ac2 B1 Pt8'
_cell_volume   207.98395483
_cell_formula_units_Z   1
loop_
 _symmetry_equiv_pos_site_id
 _symmetry_equiv_pos_as_xyz
  1  'x, y, z'
loop_
 _atom_site_type_symbol
 _atom_site_label
 _atom_site_symmetry_multiplicity
 _atom_site_fract_x
 _atom_site_fract_y
 _atom_site_fract_z
 _atom_site_occupancy
  Ac  Ac0  1  0.500000  0.609881  0.371090  1
  Ac  Ac1  1  0.500000  0.371090  0.609881  1
  B  B2  1  0.000000  0.212536  0.212536  1
  Pt  Pt3  1  0.000000  0.909583  0.116386  1
  Pt  Pt4  1  0.500000  0.792756  0.189930  1
  Pt  Pt5  1  0.000000  0.991654  0.492284  1
  Pt  Pt6  1  0.000000  0.604877  0.604877  1
  Pt  Pt7  1  0.500000  0.189930  0.792756  1
  Pt  Pt8  1  0.000000  0.116386  0.909583  1
  Pt  Pt9  1  0.000000  0.492284  0.991654  1
  Pt  Pt10  1  0.500000  0.022605  0.022605  1
