# generated using pymatgen
data_Y2BeGaBr2
_symmetry_space_group_name_H-M   'P 1'
_cell_length_a   3.99350500
_cell_length_b   3.99350407
_cell_length_c   11.22795700
_cell_angle_alpha   90.00000000
_cell_angle_beta   90.00000000
_cell_angle_gamma   119.99999938
_symmetry_Int_Tables_number   1
_chemical_formula_structural   Y2BeGaBr2
_chemical_formula_sum   'Y2 Be1 Ga1 Br2'
_cell_volume   155.07426788
_cell_formula_units_Z   1
loop_
 _symmetry_equiv_pos_site_id
 _symmetry_equiv_pos_as_xyz
  1  'x, y, z'
loop_
 _atom_site_type_symbol
 _atom_site_label
 _atom_site_symmetry_multiplicity
 _atom_site_fract_x
 _atom_site_fract_y
 _atom_site_fract_z
 _atom_site_occupancy
  Y  Y0  1  0.000000  0.000000  0.174132  1
  Y  Y1  1  0.000000  0.000000  0.824953  1
  Be  Be2  1  0.333333  0.666667  0.006927  1
  Ga  Ga3  1  0.666667  0.333333  0.994300  1
  Br  Br4  1  0.333333  0.666667  0.662107  1
  Br  Br5  1  0.666667  0.333333  0.337582  1
