# generated using pymatgen
data_Dy3TmAl18(IrPt)3
_symmetry_space_group_name_H-M   'P 1'
_cell_length_a   7.58625662
_cell_length_b   7.58871072
_cell_length_c   9.44026703
_cell_angle_alpha   89.97967832
_cell_angle_beta   89.97757257
_cell_angle_gamma   119.68029793
_symmetry_Int_Tables_number   1
_chemical_formula_structural   Dy3TmAl18(IrPt)3
_chemical_formula_sum   'Dy3 Tm1 Al18 Ir3 Pt3'
_cell_volume   472.17220225
_cell_formula_units_Z   1
loop_
 _symmetry_equiv_pos_site_id
 _symmetry_equiv_pos_as_xyz
  1  'x, y, z'
loop_
 _atom_site_type_symbol
 _atom_site_label
 _atom_site_symmetry_multiplicity
 _atom_site_fract_x
 _atom_site_fract_y
 _atom_site_fract_z
 _atom_site_occupancy
  Dy  Dy0  1  0.995505  0.670561  0.250613  1
  Dy  Dy1  1  0.005273  0.329721  0.749459  1
  Dy  Dy2  1  0.669983  0.994565  0.250547  1
  Tm  Tm3  1  0.329071  0.004643  0.749197  1
  Al  Al4  1  0.126741  0.127261  0.250478  1
  Al  Al5  1  0.873130  0.873478  0.749534  1
  Al  Al6  1  0.000268  0.331763  0.076396  1
  Al  Al7  1  0.999903  0.669258  0.922540  1
  Al  Al8  1  0.997399  0.665298  0.575614  1
  Al  Al9  1  0.335092  0.003085  0.425281  1
  Al  Al10  1  0.996575  0.331196  0.424917  1
  Al  Al11  1  0.668256  0.003367  0.575626  1
  Al  Al12  1  0.667701  0.999807  0.923074  1
  Al  Al13  1  0.331281  0.000652  0.076522  1
  Al  Al14  1  0.332980  0.329272  0.554375  1
  Al  Al15  1  0.670414  0.667123  0.446272  1
  Al  Al16  1  0.669411  0.669554  0.057092  1
  Al  Al17  1  0.330600  0.330287  0.942251  1
  Al  Al18  1  0.340327  0.545572  0.250520  1
  Al  Al19  1  0.658583  0.451489  0.747438  1
  Al  Al20  1  0.547770  0.340724  0.252679  1
  Al  Al21  1  0.454159  0.659952  0.749474  1
  Ir  Ir22  1  0.671663  0.327922  0.500206  1
  Ir  Ir23  1  0.000121  0.000398  0.999731  1
  Ir  Ir24  1  0.000687  0.999825  0.500279  1
  Pt  Pt25  1  0.671936  0.327775  0.999895  1
  Pt  Pt26  1  0.327522  0.672787  0.999871  1
  Pt  Pt27  1  0.327651  0.672664  0.500118  1
