# generated using pymatgen
data_Ho6Lu4In5Bi
_symmetry_space_group_name_H-M   'P 1'
_cell_length_a   6.51699000
_cell_length_b   8.98622890
_cell_length_c   8.95089803
_cell_angle_alpha   120.13094666
_cell_angle_beta   90.00067050
_cell_angle_gamma   89.99938252
_symmetry_Int_Tables_number   1
_chemical_formula_structural   Ho6Lu4In5Bi
_chemical_formula_sum   'Ho6 Lu4 In5 Bi1'
_cell_volume   453.36418134
_cell_formula_units_Z   1
loop_
 _symmetry_equiv_pos_site_id
 _symmetry_equiv_pos_as_xyz
  1  'x, y, z'
loop_
 _atom_site_type_symbol
 _atom_site_label
 _atom_site_symmetry_multiplicity
 _atom_site_fract_x
 _atom_site_fract_y
 _atom_site_fract_z
 _atom_site_occupancy
  Ho  Ho0  1  0.750029  0.232053  0.000010  1
  Ho  Ho1  1  0.750002  0.764467  0.756790  1
  Ho  Ho2  1  0.749994  0.007686  0.243211  1
  Ho  Ho3  1  0.249987  0.761791  0.999998  1
  Ho  Ho4  1  0.249992  0.238572  0.237379  1
  Ho  Ho5  1  0.250003  0.001184  0.762627  1
  Lu  Lu6  1  0.495546  0.327880  0.660934  1
  Lu  Lu7  1  0.495553  0.666924  0.339052  1
  Lu  Lu8  1  0.004452  0.666955  0.339070  1
  Lu  Lu9  1  0.004431  0.327864  0.660907  1
  In  In10  1  0.749996  0.403159  0.401859  1
  In  In11  1  0.749991  0.001302  0.598167  1
  In  In12  1  0.250015  0.398081  0.000002  1
  In  In13  1  0.250008  0.599821  0.602455  1
  In  In14  1  0.250004  0.997369  0.397541  1
  Bi  Bi15  1  0.750000  0.604897  0.999997  1
