# generated using pymatgen
data_Ho4ErTm3(B6Ru)4
_symmetry_space_group_name_H-M   'P 1'
_cell_length_a   3.63121800
_cell_length_b   9.08874201
_cell_length_c   11.46236102
_cell_angle_alpha   90.00655718
_cell_angle_beta   90.00000000
_cell_angle_gamma   90.00000000
_symmetry_Int_Tables_number   1
_chemical_formula_structural   Ho4ErTm3(B6Ru)4
_chemical_formula_sum   'Ho4 Er1 Tm3 B24 Ru4'
_cell_volume   378.29463198
_cell_formula_units_Z   1
loop_
 _symmetry_equiv_pos_site_id
 _symmetry_equiv_pos_as_xyz
  1  'x, y, z'
loop_
 _atom_site_type_symbol
 _atom_site_label
 _atom_site_symmetry_multiplicity
 _atom_site_fract_x
 _atom_site_fract_y
 _atom_site_fract_z
 _atom_site_occupancy
  Ho  Ho0  1  0.000000  0.322033  0.414185  1
  Ho  Ho1  1  0.000000  0.677981  0.585919  1
  Ho  Ho2  1  0.000000  0.821919  0.085761  1
  Ho  Ho3  1  0.000000  0.178080  0.914140  1
  Er  Er4  1  0.000000  0.943871  0.372516  1
  Tm  Tm5  1  0.000000  0.056185  0.627684  1
  Tm  Tm6  1  0.000000  0.443881  0.127475  1
  Tm  Tm7  1  0.000000  0.556117  0.872472  1
  B  B8  1  0.500000  0.554216  0.433045  1
  B  B9  1  0.500000  0.445681  0.566987  1
  B  B10  1  0.500000  0.054312  0.066907  1
  B  B11  1  0.500000  0.945696  0.933019  1
  B  B12  1  0.500000  0.748627  0.419685  1
  B  B13  1  0.500000  0.251114  0.580377  1
  B  B14  1  0.500000  0.248984  0.080329  1
  B  B15  1  0.500000  0.751058  0.919641  1
  B  B16  1  0.500000  0.791325  0.265852  1
  B  B17  1  0.500000  0.208420  0.734058  1
  B  B18  1  0.500000  0.291721  0.234007  1
  B  B19  1  0.500000  0.708396  0.765954  1
  B  B20  1  0.500000  0.631232  0.184537  1
  B  B21  1  0.500000  0.368703  0.815405  1
  B  B22  1  0.500000  0.131564  0.315301  1
  B  B23  1  0.500000  0.868674  0.684631  1
  B  B24  1  0.500000  0.983233  0.212912  1
  B  B25  1  0.500000  0.016908  0.786859  1
  B  B26  1  0.500000  0.483036  0.286836  1
  B  B27  1  0.500000  0.516917  0.713151  1
  B  B28  1  0.500000  0.606064  0.029160  1
  B  B29  1  0.500000  0.393935  0.970824  1
  B  B30  1  0.500000  0.106481  0.470991  1
  B  B31  1  0.500000  0.893756  0.529484  1
  Ru  Ru32  1  0.000000  0.637931  0.320614  1
  Ru  Ru33  1  0.000000  0.361758  0.679417  1
  Ru  Ru34  1  0.000000  0.138459  0.179199  1
  Ru  Ru35  1  0.000000  0.861731  0.820664  1
