# generated using pymatgen
data_NpPO5
_symmetry_space_group_name_H-M   'P 1'
_cell_length_a   5.69562294
_cell_length_b   5.69774153
_cell_length_c   8.02657056
_cell_angle_alpha   107.97116039
_cell_angle_beta   110.36985772
_cell_angle_gamma   95.88734391
_symmetry_Int_Tables_number   1
_chemical_formula_structural   NpPO5
_chemical_formula_sum   'Np2 P2 O10'
_cell_volume   225.74630726
_cell_formula_units_Z   2
loop_
 _symmetry_equiv_pos_site_id
 _symmetry_equiv_pos_as_xyz
  1  'x, y, z'
loop_
 _atom_site_type_symbol
 _atom_site_label
 _atom_site_symmetry_multiplicity
 _atom_site_fract_x
 _atom_site_fract_y
 _atom_site_fract_z
 _atom_site_occupancy
  Np  Np0  1  0.000000  0.000000  0.000000  1
  Np  Np1  1  0.500000  0.500000  0.500000  1
  P  P2  1  0.883805  0.578688  0.239067  1
  P  P3  1  0.116195  0.421312  0.760933  1
  O  O4  1  0.190331  0.707291  0.888469  1
  O  O5  1  0.146498  0.260441  0.887705  1
  O  O6  1  0.830552  0.346318  0.613070  1
  O  O7  1  0.293857  0.366141  0.652846  1
  O  O8  1  0.853502  0.739559  0.112295  1
  O  O9  1  0.169448  0.653682  0.386930  1
  O  O10  1  0.706143  0.633859  0.347154  1
  O  O11  1  0.809669  0.292709  0.111531  1
  O  O12  1  0.693724  0.825241  0.740961  1
  O  O13  1  0.306276  0.174759  0.259039  1
