# generated using pymatgen
data_Dy5Zr3P12Ir13Ru3
_symmetry_space_group_name_H-M   'P 1'
_cell_length_a   12.87129900
_cell_length_b   12.87130019
_cell_length_c   3.97682800
_cell_angle_alpha   90.00000000
_cell_angle_beta   90.00000000
_cell_angle_gamma   119.99999951
_symmetry_Int_Tables_number   1
_chemical_formula_structural   Dy5Zr3P12Ir13Ru3
_chemical_formula_sum   'Dy5 Zr3 P12 Ir13 Ru3'
_cell_volume   570.57434463
_cell_formula_units_Z   1
loop_
 _symmetry_equiv_pos_site_id
 _symmetry_equiv_pos_as_xyz
  1  'x, y, z'
loop_
 _atom_site_type_symbol
 _atom_site_label
 _atom_site_symmetry_multiplicity
 _atom_site_fract_x
 _atom_site_fract_y
 _atom_site_fract_z
 _atom_site_occupancy
  Dy  Dy0  1  0.333333  0.666667  0.500000  1
  Dy  Dy1  1  0.666667  0.333333  0.500000  1
  Dy  Dy2  1  0.000593  0.814104  0.000000  1
  Dy  Dy3  1  0.185896  0.186488  0.000000  1
  Dy  Dy4  1  0.813512  0.999407  0.000000  1
  Zr  Zr5  1  0.998049  0.445662  0.500000  1
  Zr  Zr6  1  0.554338  0.552387  0.500000  1
  Zr  Zr7  1  0.447613  0.001951  0.500000  1
  P  P8  1  0.005815  0.652513  0.500000  1
  P  P9  1  0.347487  0.353302  0.500000  1
  P  P10  1  0.646698  0.994185  0.500000  1
  P  P11  1  0.520414  0.690613  0.000000  1
  P  P12  1  0.309387  0.829801  0.000000  1
  P  P13  1  0.170199  0.479586  0.000000  1
  P  P14  1  0.481136  0.171276  0.000000  1
  P  P15  1  0.690141  0.518864  0.000000  1
  P  P16  1  0.828724  0.309859  0.000000  1
  P  P17  1  0.002546  0.179118  0.500000  1
  P  P18  1  0.820882  0.823428  0.500000  1
  P  P19  1  0.176572  0.997454  0.500000  1
  Ir  Ir20  1  0.510365  0.870245  0.000000  1
  Ir  Ir21  1  0.129755  0.640121  0.000000  1
  Ir  Ir22  1  0.359879  0.489635  0.000000  1
  Ir  Ir23  1  0.495256  0.359953  0.000000  1
  Ir  Ir24  1  0.864698  0.504744  0.000000  1
  Ir  Ir25  1  0.640047  0.135302  0.000000  1
  Ir  Ir26  1  0.997251  0.275234  0.000000  1
  Ir  Ir27  1  0.724766  0.722017  0.000000  1
  Ir  Ir28  1  0.277983  0.002749  0.000000  1
  Ir  Ir29  1  0.370986  0.181903  0.500000  1
  Ir  Ir30  1  0.810917  0.629014  0.500000  1
  Ir  Ir31  1  0.818097  0.189083  0.500000  1
  Ir  Ir32  1  0.000000  0.000000  0.500000  1
  Ru  Ru33  1  0.624896  0.802637  0.500000  1
  Ru  Ru34  1  0.197363  0.822259  0.500000  1
  Ru  Ru35  1  0.177741  0.375104  0.500000  1
