# generated using pymatgen
data_Tb14Dy2In3Rh4Au
_symmetry_space_group_name_H-M   'P 1'
_cell_length_a   9.67110011
_cell_length_b   9.66983707
_cell_length_c   9.65098908
_cell_angle_alpha   59.94529983
_cell_angle_beta   59.93497605
_cell_angle_gamma   59.99202019
_symmetry_Int_Tables_number   1
_chemical_formula_structural   Tb14Dy2In3Rh4Au
_chemical_formula_sum   'Tb14 Dy2 In3 Rh4 Au1'
_cell_volume   637.57628519
_cell_formula_units_Z   1
loop_
 _symmetry_equiv_pos_site_id
 _symmetry_equiv_pos_as_xyz
  1  'x, y, z'
loop_
 _atom_site_type_symbol
 _atom_site_label
 _atom_site_symmetry_multiplicity
 _atom_site_fract_x
 _atom_site_fract_y
 _atom_site_fract_z
 _atom_site_occupancy
  Tb  Tb0  1  0.690453  0.310380  0.309425  1
  Tb  Tb1  1  0.690070  0.690001  0.311909  1
  Tb  Tb2  1  0.310493  0.690525  0.309280  1
  Tb  Tb3  1  0.936966  0.937272  0.554206  1
  Tb  Tb4  1  0.148684  0.148872  0.550816  1
  Tb  Tb5  1  0.569017  0.938692  0.553940  1
  Tb  Tb6  1  0.151630  0.151483  0.149256  1
  Tb  Tb7  1  0.309995  0.309783  0.690918  1
  Tb  Tb8  1  0.938533  0.568978  0.554105  1
  Tb  Tb9  1  0.563403  0.563165  0.935393  1
  Tb  Tb10  1  0.564098  0.937093  0.933666  1
  Tb  Tb11  1  0.936914  0.564095  0.933707  1
  Tb  Tb12  1  0.147731  0.552396  0.147998  1
  Tb  Tb13  1  0.311017  0.690707  0.691076  1
  Dy  Dy14  1  0.690843  0.310778  0.691144  1
  Dy  Dy15  1  0.552237  0.147856  0.147839  1
  In  In16  1  0.243652  0.917760  0.923185  1
  In  In17  1  0.917501  0.243732  0.923218  1
  In  In18  1  0.917303  0.917706  0.921871  1
  Rh  Rh19  1  0.357038  0.356625  0.357313  1
  Rh  Rh20  1  0.926611  0.357477  0.357873  1
  Rh  Rh21  1  0.358367  0.357713  0.925889  1
  Rh  Rh22  1  0.357677  0.927005  0.357406  1
  Au  Au23  1  0.909767  0.909902  0.268565  1
