# generated using pymatgen
data_Dy2Al9Os2Au
_symmetry_space_group_name_H-M   'P 1'
_cell_length_a   7.62242106
_cell_length_b   7.62242256
_cell_length_c   9.53616100
_cell_angle_alpha   90.00000000
_cell_angle_beta   90.00000000
_cell_angle_gamma   119.26010928
_symmetry_Int_Tables_number   1
_chemical_formula_structural   Dy2Al9Os2Au
_chemical_formula_sum   'Dy4 Al18 Os4 Au2'
_cell_volume   483.37040534
_cell_formula_units_Z   2
loop_
 _symmetry_equiv_pos_site_id
 _symmetry_equiv_pos_as_xyz
  1  'x, y, z'
loop_
 _atom_site_type_symbol
 _atom_site_label
 _atom_site_symmetry_multiplicity
 _atom_site_fract_x
 _atom_site_fract_y
 _atom_site_fract_z
 _atom_site_occupancy
  Dy  Dy0  1  0.997403  0.676080  0.750000  1
  Dy  Dy1  1  0.002597  0.323920  0.250000  1
  Dy  Dy2  1  0.676080  0.997403  0.750000  1
  Dy  Dy3  1  0.323920  0.002597  0.250000  1
  Al  Al4  1  0.143346  0.143346  0.750000  1
  Al  Al5  1  0.856654  0.856654  0.250000  1
  Al  Al6  1  0.003060  0.347393  0.575838  1
  Al  Al7  1  0.996940  0.652607  0.424162  1
  Al  Al8  1  0.996940  0.652607  0.075838  1
  Al  Al9  1  0.347393  0.003060  0.924162  1
  Al  Al10  1  0.003060  0.347393  0.924162  1
  Al  Al11  1  0.652607  0.996940  0.075838  1
  Al  Al12  1  0.652607  0.996940  0.424162  1
  Al  Al13  1  0.347393  0.003060  0.575838  1
  Al  Al14  1  0.344478  0.344478  0.053929  1
  Al  Al15  1  0.655522  0.655522  0.946071  1
  Al  Al16  1  0.655522  0.655522  0.553929  1
  Al  Al17  1  0.344478  0.344478  0.446071  1
  Al  Al18  1  0.336802  0.554270  0.750000  1
  Al  Al19  1  0.663198  0.445730  0.250000  1
  Al  Al20  1  0.554270  0.336802  0.750000  1
  Al  Al21  1  0.445730  0.663198  0.250000  1
  Os  Os22  1  0.672421  0.327579  0.500000  1
  Os  Os23  1  0.327579  0.672421  0.500000  1
  Os  Os24  1  0.327579  0.672421  0.000000  1
  Os  Os25  1  0.672421  0.327579  0.000000  1
  Au  Au26  1  0.000000  0.000000  0.500000  1
  Au  Au27  1  0.000000  0.000000  0.000000  1
