# generated using pymatgen
data_Yb3Th5(Si4Mo3)4
_symmetry_space_group_name_H-M   'P 1'
_cell_length_a   6.92043836
_cell_length_b   7.05968173
_cell_length_c   13.07516800
_cell_angle_alpha   90.00279636
_cell_angle_beta   89.77403382
_cell_angle_gamma   90.01468776
_symmetry_Int_Tables_number   1
_chemical_formula_structural   Yb3Th5(Si4Mo3)4
_chemical_formula_sum   'Yb3 Th5 Si16 Mo12'
_cell_volume   638.79662442
_cell_formula_units_Z   1
loop_
 _symmetry_equiv_pos_site_id
 _symmetry_equiv_pos_as_xyz
  1  'x, y, z'
loop_
 _atom_site_type_symbol
 _atom_site_label
 _atom_site_symmetry_multiplicity
 _atom_site_fract_x
 _atom_site_fract_y
 _atom_site_fract_z
 _atom_site_occupancy
  Yb  Yb0  1  0.995368  0.160861  0.087068  1
  Yb  Yb1  1  0.003693  0.837943  0.910425  1
  Yb  Yb2  1  0.503023  0.663859  0.908109  1
  Th  Th3  1  0.005248  0.835323  0.598326  1
  Th  Th4  1  0.497125  0.338168  0.090025  1
  Th  Th5  1  0.994257  0.162255  0.404754  1
  Th  Th6  1  0.493971  0.336014  0.402106  1
  Th  Th7  1  0.504585  0.666276  0.598629  1
  Si  Si8  1  0.036553  0.143060  0.753994  1
  Si  Si9  1  0.964570  0.857364  0.245177  1
  Si  Si10  1  0.462457  0.649958  0.249466  1
  Si  Si11  1  0.536905  0.358501  0.753121  1
  Si  Si12  1  0.307552  0.879902  0.759119  1
  Si  Si13  1  0.695950  0.118163  0.243220  1
  Si  Si14  1  0.183042  0.375758  0.243604  1
  Si  Si15  1  0.809009  0.621021  0.759485  1
  Si  Si16  1  0.155452  0.449293  0.548618  1
  Si  Si17  1  0.844125  0.550032  0.452140  1
  Si  Si18  1  0.346406  0.949084  0.451195  1
  Si  Si19  1  0.851380  0.543382  0.047873  1
  Si  Si20  1  0.655025  0.051401  0.548239  1
  Si  Si21  1  0.153227  0.461011  0.948457  1
  Si  Si22  1  0.655071  0.034746  0.949437  1
  Si  Si23  1  0.344064  0.952576  0.047623  1
  Mo  Mo24  1  0.167400  0.500131  0.748713  1
  Mo  Mo25  1  0.830752  0.499941  0.250371  1
  Mo  Mo26  1  0.332750  0.005573  0.249114  1
  Mo  Mo27  1  0.666893  0.000056  0.749312  1
  Mo  Mo28  1  0.331552  0.161384  0.627711  1
  Mo  Mo29  1  0.672988  0.841382  0.373188  1
  Mo  Mo30  1  0.167216  0.659882  0.373865  1
  Mo  Mo31  1  0.667790  0.831919  0.124769  1
  Mo  Mo32  1  0.829311  0.338450  0.626885  1
  Mo  Mo33  1  0.334115  0.170821  0.875187  1
  Mo  Mo34  1  0.831052  0.329786  0.874997  1
  Mo  Mo35  1  0.170126  0.664721  0.125684  1
