# generated using pymatgen
data_MnTl2GeF14
_symmetry_space_group_name_H-M   'P 1'
_cell_length_a   5.43139456
_cell_length_b   8.73733876
_cell_length_c   11.72315700
_cell_angle_alpha   62.27421101
_cell_angle_beta   90.04346188
_cell_angle_gamma   89.99223905
_symmetry_Int_Tables_number   1
_chemical_formula_structural   MnTl2GeF14
_chemical_formula_sum   'Mn2 Tl4 Ge2 F28'
_cell_volume   492.45735121
_cell_formula_units_Z   2
loop_
 _symmetry_equiv_pos_site_id
 _symmetry_equiv_pos_as_xyz
  1  'x, y, z'
loop_
 _atom_site_type_symbol
 _atom_site_label
 _atom_site_symmetry_multiplicity
 _atom_site_fract_x
 _atom_site_fract_y
 _atom_site_fract_z
 _atom_site_occupancy
  Mn  Mn0  1  0.261524  0.276759  0.454331  1
  Mn  Mn1  1  0.738476  0.723241  0.545669  1
  Tl  Tl2  1  0.262578  0.811733  0.262592  1
  Tl  Tl3  1  0.737422  0.188267  0.737408  1
  Tl  Tl4  1  0.762376  0.188949  0.236283  1
  Tl  Tl5  1  0.237624  0.811051  0.763717  1
  Ge  Ge6  1  0.760344  0.724367  0.043814  1
  Ge  Ge7  1  0.239656  0.275633  0.956186  1
  F  F8  1  0.924107  0.702334  0.424140  1
  F  F9  1  0.075893  0.297666  0.575860  1
  F  F10  1  0.426997  0.298036  0.075806  1
  F  F11  1  0.573003  0.701964  0.924194  1
  F  F12  1  0.481398  0.724344  0.133124  1
  F  F13  1  0.518602  0.275656  0.866876  1
  F  F14  1  0.976723  0.276541  0.366269  1
  F  F15  1  0.023277  0.723459  0.633731  1
  F  F16  1  0.945550  0.735406  0.173717  1
  F  F17  1  0.054450  0.264594  0.826283  1
  F  F18  1  0.446110  0.264536  0.323041  1
  F  F19  1  0.553890  0.735464  0.676959  1
  F  F20  1  0.775904  0.487900  0.139764  1
  F  F21  1  0.224096  0.512100  0.860236  1
  F  F22  1  0.275012  0.517584  0.358220  1
  F  F23  1  0.724988  0.482416  0.641780  1
  F  F24  1  0.951545  0.284403  0.036449  1
  F  F25  1  0.048455  0.715597  0.963551  1
  F  F26  1  0.449604  0.716503  0.463866  1
  F  F27  1  0.550396  0.283497  0.536134  1
  F  F28  1  0.738890  0.958583  0.458268  1
  F  F29  1  0.261110  0.041417  0.541732  1
  F  F30  1  0.237568  0.041038  0.042375  1
  F  F31  1  0.762432  0.958962  0.957625  1
  F  F32  1  0.606770  0.967087  0.224398  1
  F  F33  1  0.393230  0.032913  0.775602  1
  F  F34  1  0.106236  0.032309  0.275954  1
  F  F35  1  0.893764  0.967691  0.724046  1
