# generated using pymatgen
data_Tb3DyHo2(AlC3)2
_symmetry_space_group_name_H-M   'P 1'
_cell_length_a   3.57866800
_cell_length_b   7.08219069
_cell_length_c   9.98634859
_cell_angle_alpha   89.85047424
_cell_angle_beta   90.00000000
_cell_angle_gamma   90.00000000
_symmetry_Int_Tables_number   1
_chemical_formula_structural   Tb3DyHo2(AlC3)2
_chemical_formula_sum   'Tb3 Dy1 Ho2 Al2 C6'
_cell_volume   253.10123763
_cell_formula_units_Z   1
loop_
 _symmetry_equiv_pos_site_id
 _symmetry_equiv_pos_as_xyz
  1  'x, y, z'
loop_
 _atom_site_type_symbol
 _atom_site_label
 _atom_site_symmetry_multiplicity
 _atom_site_fract_x
 _atom_site_fract_y
 _atom_site_fract_z
 _atom_site_occupancy
  Tb  Tb0  1  0.500000  0.510697  0.198490  1
  Tb  Tb1  1  0.000000  0.750290  0.459523  1
  Tb  Tb2  1  0.000000  0.250432  0.540555  1
  Dy  Dy3  1  0.500000  0.487565  0.801730  1
  Ho  Ho4  1  0.500000  0.988667  0.200573  1
  Ho  Ho5  1  0.500000  0.011036  0.798861  1
  Al  Al6  1  0.000000  0.758188  0.004667  1
  Al  Al7  1  0.000000  0.240989  0.994723  1
  C  C8  1  0.500000  0.509218  0.567063  1
  C  C9  1  0.500000  0.491739  0.434724  1
  C  C10  1  0.500000  0.991476  0.565838  1
  C  C11  1  0.500000  0.009306  0.433640  1
  C  C12  1  0.000000  0.752321  0.207628  1
  C  C13  1  0.000000  0.248077  0.791983  1
