# generated using pymatgen
data_Lu20Os7Pt5
_symmetry_space_group_name_H-M   'P 1'
_cell_length_a   10.69444502
_cell_length_b   10.69444532
_cell_length_c   6.31116000
_cell_angle_alpha   90.06078116
_cell_angle_beta   90.06078116
_cell_angle_gamma   89.71494086
_symmetry_Int_Tables_number   1
_chemical_formula_structural   Lu20Os7Pt5
_chemical_formula_sum   'Lu20 Os7 Pt5'
_cell_volume   721.80493220
_cell_formula_units_Z   1
loop_
 _symmetry_equiv_pos_site_id
 _symmetry_equiv_pos_as_xyz
  1  'x, y, z'
loop_
 _atom_site_type_symbol
 _atom_site_label
 _atom_site_symmetry_multiplicity
 _atom_site_fract_x
 _atom_site_fract_y
 _atom_site_fract_z
 _atom_site_occupancy
  Lu  Lu0  1  0.297099  0.089026  0.373225  1
  Lu  Lu1  1  0.297013  0.909823  0.872790  1
  Lu  Lu2  1  0.701861  0.083018  0.872079  1
  Lu  Lu3  1  0.701947  0.910168  0.373113  1
  Lu  Lu4  1  0.581952  0.789226  0.877245  1
  Lu  Lu5  1  0.580571  0.205942  0.371637  1
  Lu  Lu6  1  0.416674  0.791623  0.375797  1
  Lu  Lu7  1  0.412550  0.206411  0.879295  1
  Lu  Lu8  1  0.210774  0.418048  0.622755  1
  Lu  Lu9  1  0.208377  0.583326  0.124203  1
  Lu  Lu10  1  0.794058  0.419429  0.128363  1
  Lu  Lu11  1  0.793589  0.587450  0.620705  1
  Lu  Lu12  1  0.910974  0.702901  0.126775  1
  Lu  Lu13  1  0.916982  0.298139  0.627921  1
  Lu  Lu14  1  0.090177  0.702987  0.627210  1
  Lu  Lu15  1  0.089832  0.298053  0.126887  1
  Lu  Lu16  1  0.999608  0.999891  0.499407  1
  Lu  Lu17  1  0.000109  0.000392  0.000593  1
  Lu  Lu18  1  0.497295  0.501283  0.002425  1
  Lu  Lu19  1  0.498717  0.502705  0.497575  1
  Os  Os20  1  0.654318  0.652077  0.248924  1
  Os  Os21  1  0.347923  0.345682  0.251076  1
  Os  Os22  1  0.345472  0.654528  0.750000  1
  Os  Os23  1  0.499815  0.000428  0.122297  1
  Os  Os24  1  0.499833  0.000259  0.624143  1
  Os  Os25  1  0.999741  0.500167  0.875857  1
  Os  Os26  1  0.999572  0.500185  0.377703  1
  Pt  Pt27  1  0.847924  0.152076  0.250000  1
  Pt  Pt28  1  0.849587  0.850338  0.750136  1
  Pt  Pt29  1  0.149662  0.150413  0.749864  1
  Pt  Pt30  1  0.150626  0.849374  0.250000  1
  Pt  Pt31  1  0.655362  0.344638  0.750000  1
