# generated using pymatgen
data_Dy5Ho2Cd(Co3Sn11)2
_symmetry_space_group_name_H-M   'P 1'
_cell_length_a   9.67835701
_cell_length_b   9.67856994
_cell_length_c   10.01408102
_cell_angle_alpha   89.99999839
_cell_angle_beta   90.00559796
_cell_angle_gamma   120.00072741
_symmetry_Int_Tables_number   1
_chemical_formula_structural   Dy5Ho2Cd(Co3Sn11)2
_chemical_formula_sum   'Dy5 Ho2 Cd1 Co6 Sn22'
_cell_volume   812.36532385
_cell_formula_units_Z   1
loop_
 _symmetry_equiv_pos_site_id
 _symmetry_equiv_pos_as_xyz
  1  'x, y, z'
loop_
 _atom_site_type_symbol
 _atom_site_label
 _atom_site_symmetry_multiplicity
 _atom_site_fract_x
 _atom_site_fract_y
 _atom_site_fract_z
 _atom_site_occupancy
  Dy  Dy0  1  0.999987  0.999994  0.000022  1
  Dy  Dy1  1  0.521026  0.478969  0.693654  1
  Dy  Dy2  1  0.521026  0.042056  0.693654  1
  Dy  Dy3  1  0.957937  0.478968  0.693702  1
  Dy  Dy4  1  0.042060  0.521031  0.306292  1
  Ho  Ho5  1  0.479043  0.958084  0.306306  1
  Ho  Ho6  1  0.479043  0.520960  0.306306  1
  Cd  Cd7  1  0.999995  0.999997  0.499987  1
  Co  Co8  1  0.167960  0.832042  0.803186  1
  Co  Co9  1  0.167960  0.335918  0.803186  1
  Co  Co10  1  0.664093  0.832047  0.803181  1
  Co  Co11  1  0.335994  0.167997  0.196895  1
  Co  Co12  1  0.831940  0.664061  0.196863  1
  Co  Co13  1  0.831940  0.167879  0.196863  1
  Sn  Sn14  1  0.666604  0.333302  0.181460  1
  Sn  Sn15  1  0.666657  0.333328  0.881008  1
  Sn  Sn16  1  0.333523  0.666762  0.119225  1
  Sn  Sn17  1  0.346163  0.346135  0.000046  1
  Sn  Sn18  1  0.999982  0.653870  0.000010  1
  Sn  Sn19  1  0.653852  0.999991  0.000040  1
  Sn  Sn20  1  0.653852  0.653861  0.000040  1
  Sn  Sn21  1  0.333352  0.666676  0.818553  1
  Sn  Sn22  1  0.435321  0.217660  0.452861  1
  Sn  Sn23  1  0.217714  0.782402  0.546896  1
  Sn  Sn24  1  0.217714  0.435312  0.546896  1
  Sn  Sn25  1  0.564683  0.782341  0.546838  1
  Sn  Sn26  1  0.116638  0.883524  0.271097  1
  Sn  Sn27  1  0.782210  0.564695  0.452937  1
  Sn  Sn28  1  0.782210  0.217515  0.452937  1
  Sn  Sn29  1  0.346163  0.000029  0.000046  1
  Sn  Sn30  1  0.116638  0.233114  0.271097  1
  Sn  Sn31  1  0.766758  0.883379  0.271111  1
  Sn  Sn32  1  0.233044  0.116522  0.728932  1
  Sn  Sn33  1  0.883468  0.766962  0.728931  1
  Sn  Sn34  1  0.883468  0.116507  0.728931  1
  Sn  Sn35  1  0.999982  0.346112  0.000010  1
