# generated using pymatgen
data_La6Ir13Rh5
_symmetry_space_group_name_H-M   'P 1'
_cell_length_a   5.39713700
_cell_length_b   5.39713610
_cell_length_c   17.85100600
_cell_angle_alpha   90.00000000
_cell_angle_beta   90.00000000
_cell_angle_gamma   119.99999938
_symmetry_Int_Tables_number   1
_chemical_formula_structural   La6Ir13Rh5
_chemical_formula_sum   'La6 Ir13 Rh5'
_cell_volume   450.31886654
_cell_formula_units_Z   1
loop_
 _symmetry_equiv_pos_site_id
 _symmetry_equiv_pos_as_xyz
  1  'x, y, z'
loop_
 _atom_site_type_symbol
 _atom_site_label
 _atom_site_symmetry_multiplicity
 _atom_site_fract_x
 _atom_site_fract_y
 _atom_site_fract_z
 _atom_site_occupancy
  La  La0  1  0.333333  0.666667  0.541638  1
  La  La1  1  0.666667  0.333333  0.041617  1
  La  La2  1  0.666667  0.333333  0.458362  1
  La  La3  1  0.333333  0.666667  0.958383  1
  La  La4  1  0.333333  0.666667  0.750001  1
  La  La5  1  0.666667  0.333333  0.249999  1
  Ir  Ir6  1  0.166698  0.333396  0.127615  1
  Ir  Ir7  1  0.833231  0.666461  0.627706  1
  Ir  Ir8  1  0.666604  0.833302  0.127615  1
  Ir  Ir9  1  0.166698  0.833302  0.127615  1
  Ir  Ir10  1  0.833231  0.166769  0.627706  1
  Ir  Ir11  1  0.333539  0.166769  0.627706  1
  Ir  Ir12  1  0.833302  0.666604  0.872385  1
  Ir  Ir13  1  0.833302  0.166698  0.872385  1
  Ir  Ir14  1  0.333396  0.166698  0.872385  1
  Ir  Ir15  1  0.666461  0.833231  0.372294  1
  Ir  Ir16  1  0.166769  0.833231  0.372294  1
  Ir  Ir17  1  0.166769  0.333539  0.372294  1
  Ir  Ir18  1  0.000000  0.000000  0.000000  1
  Rh  Rh19  1  0.000000  0.000000  0.250026  1
  Rh  Rh20  1  0.000000  0.000000  0.749974  1
  Rh  Rh21  1  0.333333  0.666667  0.250059  1
  Rh  Rh22  1  0.666667  0.333333  0.749941  1
  Rh  Rh23  1  0.000000  0.000000  0.500000  1
