# generated using pymatgen
data_Pr2Er(TmSi2)2
_symmetry_space_group_name_H-M   'P 1'
_cell_length_a   7.46345649
_cell_length_b   7.75285446
_cell_length_c   14.75851979
_cell_angle_alpha   89.96073872
_cell_angle_beta   90.07224605
_cell_angle_gamma   89.99584794
_symmetry_Int_Tables_number   1
_chemical_formula_structural   Pr2Er(TmSi2)2
_chemical_formula_sum   'Pr8 Er4 Tm8 Si16'
_cell_volume   853.97270614
_cell_formula_units_Z   4
loop_
 _symmetry_equiv_pos_site_id
 _symmetry_equiv_pos_as_xyz
  1  'x, y, z'
loop_
 _atom_site_type_symbol
 _atom_site_label
 _atom_site_symmetry_multiplicity
 _atom_site_fract_x
 _atom_site_fract_y
 _atom_site_fract_z
 _atom_site_occupancy
  Pr  Pr0  1  0.019596  0.177239  0.402103  1
  Pr  Pr1  1  0.519794  0.322826  0.402082  1
  Pr  Pr2  1  0.480235  0.677048  0.902210  1
  Pr  Pr3  1  0.480398  0.677229  0.598007  1
  Pr  Pr4  1  0.980226  0.822891  0.597985  1
  Pr  Pr5  1  0.980410  0.822804  0.902178  1
  Pr  Pr6  1  0.519532  0.322915  0.097907  1
  Pr  Pr7  1  0.019747  0.177054  0.097929  1
  Er  Er8  1  0.323109  0.178111  0.623299  1
  Er  Er9  1  0.676941  0.821886  0.376587  1
  Er  Er10  1  0.176999  0.677918  0.376645  1
  Er  Er11  1  0.823119  0.322224  0.876711  1
  Tm  Tm12  1  0.654873  0.990508  0.749965  1
  Tm  Tm13  1  0.823152  0.322239  0.623366  1
  Tm  Tm14  1  0.845108  0.490486  0.249801  1
  Tm  Tm15  1  0.345095  0.009498  0.249771  1
  Tm  Tm16  1  0.323238  0.177659  0.876689  1
  Tm  Tm17  1  0.176826  0.677829  0.123338  1
  Tm  Tm18  1  0.676838  0.822163  0.123306  1
  Tm  Tm19  1  0.154896  0.509515  0.750032  1
  Si  Si20  1  0.275251  0.879390  0.750221  1
  Si  Si21  1  0.471314  0.615579  0.249444  1
  Si  Si22  1  0.028667  0.115584  0.750066  1
  Si  Si23  1  0.528657  0.384412  0.750018  1
  Si  Si24  1  0.146354  0.467722  0.539875  1
  Si  Si25  1  0.971320  0.884406  0.249483  1
  Si  Si26  1  0.724737  0.120603  0.249778  1
  Si  Si27  1  0.852992  0.532700  0.040097  1
  Si  Si28  1  0.352817  0.967696  0.039723  1
  Si  Si29  1  0.147820  0.468128  0.960457  1
  Si  Si30  1  0.647575  0.032416  0.539898  1
  Si  Si31  1  0.352976  0.968147  0.460304  1
  Si  Si32  1  0.852804  0.531430  0.460678  1
  Si  Si33  1  0.775238  0.620599  0.749810  1
  Si  Si34  1  0.224736  0.379402  0.249758  1
  Si  Si35  1  0.646610  0.031741  0.960477  1
