# generated using pymatgen
data_Nd20Ir9OsRh2
_symmetry_space_group_name_H-M   'P 1'
_cell_length_a   11.24689400
_cell_length_b   11.24689400
_cell_length_c   6.61933800
_cell_angle_alpha   90.00000000
_cell_angle_beta   90.00000000
_cell_angle_gamma   90.00000000
_symmetry_Int_Tables_number   1
_chemical_formula_structural   Nd20Ir9OsRh2
_chemical_formula_sum   'Nd20 Ir9 Os1 Rh2'
_cell_volume   837.29743705
_cell_formula_units_Z   1
loop_
 _symmetry_equiv_pos_site_id
 _symmetry_equiv_pos_as_xyz
  1  'x, y, z'
loop_
 _atom_site_type_symbol
 _atom_site_label
 _atom_site_symmetry_multiplicity
 _atom_site_fract_x
 _atom_site_fract_y
 _atom_site_fract_z
 _atom_site_occupancy
  Nd  Nd0  1  0.090431  0.291583  0.114676  1
  Nd  Nd1  1  0.791583  0.409569  0.114676  1
  Nd  Nd2  1  0.208417  0.590431  0.114676  1
  Nd  Nd3  1  0.909569  0.708417  0.114676  1
  Nd  Nd4  1  0.410424  0.792750  0.387263  1
  Nd  Nd5  1  0.589576  0.207250  0.387263  1
  Nd  Nd6  1  0.292750  0.089576  0.387263  1
  Nd  Nd7  1  0.707250  0.910424  0.387263  1
  Nd  Nd8  1  0.410653  0.207505  0.881681  1
  Nd  Nd9  1  0.707505  0.089347  0.881681  1
  Nd  Nd10  1  0.292495  0.910653  0.881681  1
  Nd  Nd11  1  0.589347  0.792495  0.881681  1
  Nd  Nd12  1  0.089862  0.708761  0.616632  1
  Nd  Nd13  1  0.910138  0.291239  0.616632  1
  Nd  Nd14  1  0.208761  0.410138  0.616632  1
  Nd  Nd15  1  0.791239  0.589862  0.616632  1
  Nd  Nd16  1  0.000000  0.000000  0.999667  1
  Nd  Nd17  1  0.500000  0.500000  0.999667  1
  Nd  Nd18  1  0.500000  0.500000  0.499112  1
  Nd  Nd19  1  0.000000  0.000000  0.499112  1
  Ir  Ir20  1  0.153213  0.845827  0.249895  1
  Ir  Ir21  1  0.345827  0.346787  0.249895  1
  Ir  Ir22  1  0.654173  0.653213  0.249895  1
  Ir  Ir23  1  0.846787  0.154173  0.249895  1
  Ir  Ir24  1  0.345779  0.653060  0.750335  1
  Ir  Ir25  1  0.153060  0.154221  0.750335  1
  Ir  Ir26  1  0.846940  0.845779  0.750335  1
  Ir  Ir27  1  0.654221  0.346940  0.750335  1
  Ir  Ir28  1  0.000000  0.500000  0.877272  1
  Os  Os29  1  0.500000  0.000000  0.623752  1
  Rh  Rh30  1  0.000000  0.500000  0.379946  1
  Rh  Rh31  1  0.500000  0.000000  0.119540  1
