# generated using pymatgen
data_La3Al12Ru3Rh
_symmetry_space_group_name_H-M   'P 1'
_cell_length_a   8.97513701
_cell_length_b   8.97513541
_cell_length_c   9.72029434
_cell_angle_alpha   90.19181557
_cell_angle_beta   89.80818153
_cell_angle_gamma   120.09073765
_symmetry_Int_Tables_number   1
_chemical_formula_structural   La3Al12Ru3Rh
_chemical_formula_sum   'La6 Al24 Ru6 Rh2'
_cell_volume   677.47158682
_cell_formula_units_Z   2
loop_
 _symmetry_equiv_pos_site_id
 _symmetry_equiv_pos_as_xyz
  1  'x, y, z'
loop_
 _atom_site_type_symbol
 _atom_site_label
 _atom_site_symmetry_multiplicity
 _atom_site_fract_x
 _atom_site_fract_y
 _atom_site_fract_z
 _atom_site_occupancy
  La  La0  1  0.193233  0.383977  0.251834  1
  La  La1  1  0.806767  0.616023  0.748166  1
  La  La2  1  0.616023  0.806767  0.251834  1
  La  La3  1  0.383977  0.193233  0.748166  1
  La  La4  1  0.191525  0.808475  0.251713  1
  La  La5  1  0.808475  0.191525  0.748287  1
  Al  Al6  1  0.334429  0.665571  0.002626  1
  Al  Al7  1  0.665571  0.334429  0.997374  1
  Al  Al8  1  0.666658  0.333342  0.501378  1
  Al  Al9  1  0.333342  0.666658  0.498622  1
  Al  Al10  1  0.162739  0.324981  0.577255  1
  Al  Al11  1  0.837261  0.675019  0.422745  1
  Al  Al12  1  0.675019  0.837261  0.577255  1
  Al  Al13  1  0.836863  0.675994  0.076577  1
  Al  Al14  1  0.324981  0.162739  0.422745  1
  Al  Al15  1  0.163137  0.324006  0.923423  1
  Al  Al16  1  0.162362  0.837638  0.576718  1
  Al  Al17  1  0.324006  0.163137  0.076577  1
  Al  Al18  1  0.837638  0.162362  0.423282  1
  Al  Al19  1  0.675994  0.836863  0.923423  1
  Al  Al20  1  0.838441  0.161559  0.077152  1
  Al  Al21  1  0.161559  0.838441  0.922848  1
  Al  Al22  1  0.564237  0.128002  0.250385  1
  Al  Al23  1  0.435763  0.871998  0.749615  1
  Al  Al24  1  0.871998  0.435763  0.250385  1
  Al  Al25  1  0.128002  0.564237  0.749615  1
  Al  Al26  1  0.564080  0.435920  0.249053  1
  Al  Al27  1  0.435920  0.564080  0.750947  1
  Al  Al28  1  0.000081  0.999919  0.250088  1
  Al  Al29  1  0.999919  0.000081  0.749912  1
  Ru  Ru30  1  0.500000  0.000000  0.500000  1
  Ru  Ru31  1  0.500000  0.500000  0.000000  1
  Ru  Ru32  1  0.000000  0.500000  0.500000  1
  Ru  Ru33  1  0.500000  0.500000  0.500000  1
  Ru  Ru34  1  0.000000  0.000000  0.000000  1
  Ru  Ru35  1  0.000000  0.000000  0.500000  1
  Rh  Rh36  1  0.500000  0.000000  0.000000  1
  Rh  Rh37  1  0.000000  0.500000  0.000000  1
