# generated using pymatgen
data_CaHoGa2(BRh3)2
_symmetry_space_group_name_H-M   'P 1'
_cell_length_a   5.54231700
_cell_length_b   5.54231684
_cell_length_c   6.96188200
_cell_angle_alpha   90.00000000
_cell_angle_beta   90.00000000
_cell_angle_gamma   119.99998304
_symmetry_Int_Tables_number   1
_chemical_formula_structural   CaHoGa2(BRh3)2
_chemical_formula_sum   'Ca1 Ho1 Ga2 B2 Rh6'
_cell_volume   185.19961340
_cell_formula_units_Z   1
loop_
 _symmetry_equiv_pos_site_id
 _symmetry_equiv_pos_as_xyz
  1  'x, y, z'
loop_
 _atom_site_type_symbol
 _atom_site_label
 _atom_site_symmetry_multiplicity
 _atom_site_fract_x
 _atom_site_fract_y
 _atom_site_fract_z
 _atom_site_occupancy
  Ca  Ca0  1  0.000000  0.000000  0.500000  1
  Ho  Ho1  1  0.000000  0.000000  0.000000  1
  Ga  Ga2  1  0.333333  0.666667  0.500000  1
  Ga  Ga3  1  0.666667  0.333333  0.500000  1
  B  B4  1  0.333333  0.666667  0.000000  1
  B  B5  1  0.666667  0.333333  0.000000  1
  Rh  Rh6  1  0.000000  0.500000  0.207851  1
  Rh  Rh7  1  0.500000  0.000000  0.792149  1
  Rh  Rh8  1  0.500000  0.500000  0.792149  1
  Rh  Rh9  1  0.000000  0.500000  0.792149  1
  Rh  Rh10  1  0.500000  0.000000  0.207851  1
  Rh  Rh11  1  0.500000  0.500000  0.207851  1
