# generated using pymatgen
data_TbDy9(InBi)3
_symmetry_space_group_name_H-M   'P 1'
_cell_length_a   9.06844654
_cell_length_b   9.07393869
_cell_length_c   6.61497100
_cell_angle_alpha   90.00000000
_cell_angle_beta   90.00000000
_cell_angle_gamma   120.03968923
_symmetry_Int_Tables_number   1
_chemical_formula_structural   TbDy9(InBi)3
_chemical_formula_sum   'Tb1 Dy9 In3 Bi3'
_cell_volume   471.20890060
_cell_formula_units_Z   1
loop_
 _symmetry_equiv_pos_site_id
 _symmetry_equiv_pos_as_xyz
  1  'x, y, z'
loop_
 _atom_site_type_symbol
 _atom_site_label
 _atom_site_symmetry_multiplicity
 _atom_site_fract_x
 _atom_site_fract_y
 _atom_site_fract_z
 _atom_site_occupancy
  Tb  Tb0  1  0.991701  0.759068  0.250000  1
  Dy  Dy1  1  0.660567  0.332858  0.998052  1
  Dy  Dy2  1  0.344077  0.667886  0.997761  1
  Dy  Dy3  1  0.344077  0.667886  0.502239  1
  Dy  Dy4  1  0.660567  0.332858  0.501948  1
  Dy  Dy5  1  0.755663  0.764301  0.750000  1
  Dy  Dy6  1  0.244079  0.009897  0.750000  1
  Dy  Dy7  1  0.001477  0.235629  0.750000  1
  Dy  Dy8  1  0.242500  0.240978  0.250000  1
  Dy  Dy9  1  0.758225  0.989566  0.250000  1
  In  In10  1  0.395566  0.396637  0.750000  1
  In  In11  1  0.606543  0.004256  0.750000  1
  In  In12  1  0.602229  0.599647  0.250000  1
  Bi  Bi13  1  0.002968  0.610694  0.750000  1
  Bi  Bi14  1  0.391264  0.996465  0.250000  1
  Bi  Bi15  1  0.998496  0.391375  0.250000  1
