# generated using pymatgen
data_Dy4Sn6IrRh6
_symmetry_space_group_name_H-M   'P 1'
_cell_length_a   7.62190350
_cell_length_b   7.62190346
_cell_length_c   7.62190403
_cell_angle_alpha   109.47647789
_cell_angle_beta   109.47647921
_cell_angle_gamma   109.46070551
_symmetry_Int_Tables_number   1
_chemical_formula_structural   Dy4Sn6IrRh6
_chemical_formula_sum   'Dy4 Sn6 Ir1 Rh6'
_cell_volume   340.85405317
_cell_formula_units_Z   1
loop_
 _symmetry_equiv_pos_site_id
 _symmetry_equiv_pos_as_xyz
  1  'x, y, z'
loop_
 _atom_site_type_symbol
 _atom_site_label
 _atom_site_symmetry_multiplicity
 _atom_site_fract_x
 _atom_site_fract_y
 _atom_site_fract_z
 _atom_site_occupancy
  Dy  Dy0  1  0.999684  0.000316  0.500000  1
  Dy  Dy1  1  0.999684  0.499684  0.999368  1
  Dy  Dy2  1  0.500316  0.000316  0.000632  1
  Dy  Dy3  1  0.500316  0.499684  0.500000  1
  Sn  Sn4  1  0.684083  0.684083  0.000000  1
  Sn  Sn5  1  0.315434  0.999854  0.315580  1
  Sn  Sn6  1  0.000146  0.315726  0.315580  1
  Sn  Sn7  1  0.315917  0.315917  0.000000  1
  Sn  Sn8  1  0.684274  0.999854  0.684420  1
  Sn  Sn9  1  0.000146  0.684566  0.684420  1
  Ir  Ir10  1  0.750000  0.250000  0.500000  1
  Rh  Rh11  1  0.749816  0.499943  0.249873  1
  Rh  Rh12  1  0.500057  0.250184  0.750127  1
  Rh  Rh13  1  0.250070  0.499943  0.750127  1
  Rh  Rh14  1  0.250000  0.750000  0.500000  1
  Rh  Rh15  1  0.500057  0.749930  0.249873  1
  Rh  Rh16  1  0.000000  0.000000  0.000000  1
