# generated using pymatgen
data_Pr4C4SeCl
_symmetry_space_group_name_H-M   'P 1'
_cell_length_a   7.46574404
_cell_length_b   7.46574357
_cell_length_c   6.88330276
_cell_angle_alpha   79.55907927
_cell_angle_beta   79.55907826
_cell_angle_gamma   33.91102114
_symmetry_Int_Tables_number   1
_chemical_formula_structural   Pr4C4SeCl
_chemical_formula_sum   'Pr4 C4 Se1 Cl1'
_cell_volume   210.16747438
_cell_formula_units_Z   1
loop_
 _symmetry_equiv_pos_site_id
 _symmetry_equiv_pos_as_xyz
  1  'x, y, z'
loop_
 _atom_site_type_symbol
 _atom_site_label
 _atom_site_symmetry_multiplicity
 _atom_site_fract_x
 _atom_site_fract_y
 _atom_site_fract_z
 _atom_site_occupancy
  Pr  Pr0  1  0.550266  0.151843  0.139876  1
  Pr  Pr1  1  0.149683  0.558680  0.651210  1
  Pr  Pr2  1  0.441320  0.850317  0.848790  1
  Pr  Pr3  1  0.848157  0.449734  0.360124  1
  C  C4  1  0.355406  0.102017  0.472471  1
  C  C5  1  0.897983  0.644594  0.027529  1
  C  C6  1  0.645129  0.905284  0.524027  1
  C  C7  1  0.094716  0.354871  0.975973  1
  Se  Se8  1  0.784092  0.215908  0.750000  1
  Cl  Cl9  1  0.233251  0.766749  0.250000  1
