# generated using pymatgen
data_Hf3Al3Co2As
_symmetry_space_group_name_H-M   'P 1'
_cell_length_a   6.58472300
_cell_length_b   6.58472204
_cell_length_c   7.79650700
_cell_angle_alpha   90.00000000
_cell_angle_beta   90.00000000
_cell_angle_gamma   120.00000984
_symmetry_Int_Tables_number   1
_chemical_formula_structural   Hf3Al3Co2As
_chemical_formula_sum   'Hf6 Al6 Co4 As2'
_cell_volume   292.75587485
_cell_formula_units_Z   2
loop_
 _symmetry_equiv_pos_site_id
 _symmetry_equiv_pos_as_xyz
  1  'x, y, z'
loop_
 _atom_site_type_symbol
 _atom_site_label
 _atom_site_symmetry_multiplicity
 _atom_site_fract_x
 _atom_site_fract_y
 _atom_site_fract_z
 _atom_site_occupancy
  Hf  Hf0  1  0.602234  0.025344  0.750000  1
  Hf  Hf1  1  0.974656  0.576890  0.750000  1
  Hf  Hf2  1  0.423110  0.397766  0.750000  1
  Hf  Hf3  1  0.974658  0.576874  0.250000  1
  Hf  Hf4  1  0.602216  0.025342  0.250000  1
  Hf  Hf5  1  0.423126  0.397784  0.250000  1
  Al  Al6  1  0.771490  0.751379  0.999926  1
  Al  Al7  1  0.248621  0.020111  0.999926  1
  Al  Al8  1  0.979889  0.228510  0.999926  1
  Al  Al9  1  0.771490  0.751379  0.500074  1
  Al  Al10  1  0.248621  0.020111  0.500074  1
  Al  Al11  1  0.979889  0.228510  0.500074  1
  Co  Co12  1  0.000000  0.000000  0.750000  1
  Co  Co13  1  0.000000  0.000000  0.250000  1
  Co  Co14  1  0.666667  0.333333  0.999961  1
  Co  Co15  1  0.666667  0.333333  0.500039  1
  As  As16  1  0.333333  0.666667  0.500036  1
  As  As17  1  0.333333  0.666667  0.999965  1
