# generated using pymatgen
data_Ac6InSn9
_symmetry_space_group_name_H-M   'P 1'
_cell_length_a   6.91452565
_cell_length_b   6.91452585
_cell_length_c   10.93603217
_cell_angle_alpha   89.78368592
_cell_angle_beta   89.78368526
_cell_angle_gamma   101.63337348
_symmetry_Int_Tables_number   1
_chemical_formula_structural   Ac6InSn9
_chemical_formula_sum   'Ac6 In1 Sn9'
_cell_volume   512.10925188
_cell_formula_units_Z   1
loop_
 _symmetry_equiv_pos_site_id
 _symmetry_equiv_pos_as_xyz
  1  'x, y, z'
loop_
 _atom_site_type_symbol
 _atom_site_label
 _atom_site_symmetry_multiplicity
 _atom_site_fract_x
 _atom_site_fract_y
 _atom_site_fract_z
 _atom_site_occupancy
  Ac  Ac0  1  0.796770  0.203244  0.999342  1
  Ac  Ac1  1  0.203244  0.796770  0.999342  1
  Ac  Ac2  1  0.203613  0.795723  0.500568  1
  Ac  Ac3  1  0.795723  0.203613  0.500568  1
  Ac  Ac4  1  0.631785  0.631785  0.250157  1
  Ac  Ac5  1  0.369891  0.369891  0.750584  1
  In  In6  1  0.307984  0.307984  0.049813  1
  Sn  Sn7  1  0.078688  0.488337  0.249233  1
  Sn  Sn8  1  0.922443  0.511305  0.750068  1
  Sn  Sn9  1  0.488337  0.078687  0.249233  1
  Sn  Sn10  1  0.511305  0.922443  0.750068  1
  Sn  Sn11  1  0.030811  0.030811  0.249422  1
  Sn  Sn12  1  0.970776  0.970776  0.749830  1
  Sn  Sn13  1  0.688949  0.688949  0.950845  1
  Sn  Sn14  1  0.688433  0.688433  0.551363  1
  Sn  Sn15  1  0.311247  0.311247  0.449564  1
