# generated using pymatgen
data_La4Ga5Ir7Rh2
_symmetry_space_group_name_H-M   'P 1'
_cell_length_a   12.39064814
_cell_length_b   12.38799531
_cell_length_c   12.38799526
_cell_angle_alpha   26.45743229
_cell_angle_beta   26.50294593
_cell_angle_gamma   26.50294264
_symmetry_Int_Tables_number   1
_chemical_formula_structural   La4Ga5Ir7Rh2
_chemical_formula_sum   'La4 Ga5 Ir7 Rh2'
_cell_volume   333.40257964
_cell_formula_units_Z   1
loop_
 _symmetry_equiv_pos_site_id
 _symmetry_equiv_pos_as_xyz
  1  'x, y, z'
loop_
 _atom_site_type_symbol
 _atom_site_label
 _atom_site_symmetry_multiplicity
 _atom_site_fract_x
 _atom_site_fract_y
 _atom_site_fract_z
 _atom_site_occupancy
  La  La0  1  0.950110  0.949948  0.949948  1
  La  La1  1  0.049890  0.050052  0.050052  1
  La  La2  1  0.853717  0.853218  0.853218  1
  La  La3  1  0.146283  0.146782  0.146782  1
  Ga  Ga4  1  0.500000  0.500000  0.500000  1
  Ga  Ga5  1  0.721411  0.720817  0.720817  1
  Ga  Ga6  1  0.278589  0.279183  0.279183  1
  Ga  Ga7  1  0.612270  0.611855  0.611855  1
  Ga  Ga8  1  0.387730  0.388145  0.388145  1
  Ir  Ir9  1  0.000000  0.500000  0.500000  1
  Ir  Ir10  1  0.389145  0.894573  0.388593  1
  Ir  Ir11  1  0.389145  0.388593  0.894573  1
  Ir  Ir12  1  0.894250  0.388741  0.388741  1
  Ir  Ir13  1  0.610855  0.105427  0.611407  1
  Ir  Ir14  1  0.610855  0.611407  0.105427  1
  Ir  Ir15  1  0.105750  0.611259  0.611259  1
  Rh  Rh16  1  0.500000  0.500000  0.000000  1
  Rh  Rh17  1  0.500000  0.000000  0.500000  1
