# generated using pymatgen
data_Tb5Y15Ir11Ru
_symmetry_space_group_name_H-M   'P 1'
_cell_length_a   10.92227333
_cell_length_b   10.92245826
_cell_length_c   6.42025909
_cell_angle_alpha   89.99014649
_cell_angle_beta   89.98364627
_cell_angle_gamma   89.97698103
_symmetry_Int_Tables_number   1
_chemical_formula_structural   Tb5Y15Ir11Ru
_chemical_formula_sum   'Tb5 Y15 Ir11 Ru1'
_cell_volume   765.92444329
_cell_formula_units_Z   1
loop_
 _symmetry_equiv_pos_site_id
 _symmetry_equiv_pos_as_xyz
  1  'x, y, z'
loop_
 _atom_site_type_symbol
 _atom_site_label
 _atom_site_symmetry_multiplicity
 _atom_site_fract_x
 _atom_site_fract_y
 _atom_site_fract_z
 _atom_site_occupancy
  Tb  Tb0  1  0.292611  0.087290  0.377890  1
  Tb  Tb1  1  0.999902  0.999950  0.499000  1
  Tb  Tb2  1  0.999970  0.000020  0.998841  1
  Tb  Tb3  1  0.499964  0.499973  0.998989  1
  Tb  Tb4  1  0.500067  0.500008  0.499025  1
  Y  Y5  1  0.293002  0.912455  0.880463  1
  Y  Y6  1  0.706938  0.087333  0.880690  1
  Y  Y7  1  0.707526  0.912650  0.377714  1
  Y  Y8  1  0.587462  0.793071  0.880612  1
  Y  Y9  1  0.587500  0.207575  0.377718  1
  Y  Y10  1  0.412738  0.792403  0.377793  1
  Y  Y11  1  0.412671  0.207101  0.880528  1
  Y  Y12  1  0.208762  0.411491  0.621304  1
  Y  Y13  1  0.208762  0.588390  0.120962  1
  Y  Y14  1  0.791245  0.411617  0.120893  1
  Y  Y15  1  0.791261  0.588557  0.621204  1
  Y  Y16  1  0.911615  0.708791  0.120948  1
  Y  Y17  1  0.911390  0.291242  0.621187  1
  Y  Y18  1  0.088554  0.708714  0.621215  1
  Y  Y19  1  0.088337  0.291163  0.120633  1
  Ir  Ir20  1  0.847370  0.153573  0.249884  1
  Ir  Ir21  1  0.847408  0.846939  0.749718  1
  Ir  Ir22  1  0.152783  0.153063  0.749359  1
  Ir  Ir23  1  0.152805  0.846556  0.249907  1
  Ir  Ir24  1  0.653085  0.347370  0.749677  1
  Ir  Ir25  1  0.653479  0.652660  0.249835  1
  Ir  Ir26  1  0.346486  0.347142  0.250057  1
  Ir  Ir27  1  0.346906  0.652630  0.749662  1
  Ir  Ir28  1  0.499775  0.000149  0.624921  1
  Ir  Ir29  1  0.999993  0.499983  0.876079  1
  Ir  Ir30  1  0.000019  0.499993  0.376273  1
  Ru  Ru31  1  0.499617  0.000148  0.127014  1
