# generated using pymatgen
data_Sr2Cd3Pb
_symmetry_space_group_name_H-M   'P 1'
_cell_length_a   6.56288408
_cell_length_b   6.53915664
_cell_length_c   6.53915636
_cell_angle_alpha   133.91568581
_cell_angle_beta   103.73678839
_cell_angle_gamma   93.88943324
_symmetry_Int_Tables_number   1
_chemical_formula_structural   Sr2Cd3Pb
_chemical_formula_sum   'Sr2 Cd3 Pb1'
_cell_volume   185.21478669
_cell_formula_units_Z   1
loop_
 _symmetry_equiv_pos_site_id
 _symmetry_equiv_pos_as_xyz
  1  'x, y, z'
loop_
 _atom_site_type_symbol
 _atom_site_label
 _atom_site_symmetry_multiplicity
 _atom_site_fract_x
 _atom_site_fract_y
 _atom_site_fract_z
 _atom_site_occupancy
  Sr  Sr0  1  0.791129  0.541187  0.249942  1
  Sr  Sr1  1  0.206536  0.459141  0.747395  1
  Cd  Cd2  1  0.382432  0.827122  0.555310  1
  Cd  Cd3  1  0.792511  0.845225  0.947286  1
  Cd  Cd4  1  0.217027  0.167814  0.049212  1
  Pb  Pb5  1  0.610364  0.159510  0.450855  1
