# generated using pymatgen
data_LaY3(IO4)4
_symmetry_space_group_name_H-M   'P 1'
_cell_length_a   5.66143182
_cell_length_b   11.05751136
_cell_length_c   5.62991900
_cell_angle_alpha   90.23785759
_cell_angle_beta   89.88795732
_cell_angle_gamma   89.58259599
_symmetry_Int_Tables_number   1
_chemical_formula_structural   LaY3(IO4)4
_chemical_formula_sum   'La1 Y3 I4 O16'
_cell_volume   352.42742723
_cell_formula_units_Z   1
loop_
 _symmetry_equiv_pos_site_id
 _symmetry_equiv_pos_as_xyz
  1  'x, y, z'
loop_
 _atom_site_type_symbol
 _atom_site_label
 _atom_site_symmetry_multiplicity
 _atom_site_fract_x
 _atom_site_fract_y
 _atom_site_fract_z
 _atom_site_occupancy
  La  La0  1  0.500600  0.608073  0.679625  1
  Y  Y1  1  0.483606  0.397036  0.177082  1
  Y  Y2  1  0.979211  0.594553  0.178137  1
  Y  Y3  1  0.007858  0.397253  0.676158  1
  I  I4  1  0.008290  0.140413  0.178201  1
  I  I5  1  0.512726  0.865219  0.172450  1
  I  I6  1  0.493270  0.140758  0.677609  1
  I  I7  1  0.001622  0.861171  0.672961  1
  O  O8  1  0.136284  0.281739  0.063568  1
  O  O9  1  0.644150  0.719134  0.077129  1
  O  O10  1  0.254553  0.065054  0.337181  1
  O  O11  1  0.752153  0.940397  0.339328  1
  O  O12  1  0.860820  0.219377  0.434236  1
  O  O13  1  0.355949  0.791433  0.424820  1
  O  O14  1  0.742929  0.485790  0.424021  1
  O  O15  1  0.235228  0.505167  0.422890  1
  O  O16  1  0.362354  0.282724  0.564042  1
  O  O17  1  0.879785  0.718811  0.554282  1
  O  O18  1  0.249488  0.064883  0.837173  1
  O  O19  1  0.750968  0.931933  0.837576  1
  O  O20  1  0.638808  0.219248  0.933419  1
  O  O21  1  0.150534  0.779520  0.923497  1
  O  O22  1  0.752664  0.485322  0.930196  1
  O  O23  1  0.246142  0.505001  0.930784  1
