# generated using pymatgen
data_Er3CoCuSn3Ir
_symmetry_space_group_name_H-M   'P 1'
_cell_length_a   7.50960700
_cell_length_b   7.50960637
_cell_length_c   3.77779300
_cell_angle_alpha   90.00000000
_cell_angle_beta   90.00000000
_cell_angle_gamma   119.99999835
_symmetry_Int_Tables_number   1
_chemical_formula_structural   Er3CoCuSn3Ir
_chemical_formula_sum   'Er3 Co1 Cu1 Sn3 Ir1'
_cell_volume   184.50289271
_cell_formula_units_Z   1
loop_
 _symmetry_equiv_pos_site_id
 _symmetry_equiv_pos_as_xyz
  1  'x, y, z'
loop_
 _atom_site_type_symbol
 _atom_site_label
 _atom_site_symmetry_multiplicity
 _atom_site_fract_x
 _atom_site_fract_y
 _atom_site_fract_z
 _atom_site_occupancy
  Er  Er0  1  0.393336  0.408407  0.500000  1
  Er  Er1  1  0.591593  0.984928  0.500000  1
  Er  Er2  1  0.015072  0.606664  0.500000  1
  Co  Co3  1  0.000000  0.000000  0.500000  1
  Cu  Cu4  1  0.666667  0.333333  0.000000  1
  Sn  Sn5  1  0.748923  0.741419  0.000000  1
  Sn  Sn6  1  0.258581  0.007503  0.000000  1
  Sn  Sn7  1  0.992497  0.251077  0.000000  1
  Ir  Ir8  1  0.333333  0.666667  0.000000  1
