# generated using pymatgen
data_Ho7Th(ReB6)4
_symmetry_space_group_name_H-M   'P 1'
_cell_length_a   3.69883300
_cell_length_b   9.17799956
_cell_length_c   11.57107471
_cell_angle_alpha   90.04016413
_cell_angle_beta   90.00000000
_cell_angle_gamma   90.00000000
_symmetry_Int_Tables_number   1
_chemical_formula_structural   Ho7Th(ReB6)4
_chemical_formula_sum   'Ho7 Th1 Re4 B24'
_cell_volume   392.81344788
_cell_formula_units_Z   1
loop_
 _symmetry_equiv_pos_site_id
 _symmetry_equiv_pos_as_xyz
  1  'x, y, z'
loop_
 _atom_site_type_symbol
 _atom_site_label
 _atom_site_symmetry_multiplicity
 _atom_site_fract_x
 _atom_site_fract_y
 _atom_site_fract_z
 _atom_site_occupancy
  Ho  Ho0  1  0.000000  0.677571  0.587157  1
  Ho  Ho1  1  0.000000  0.823498  0.085342  1
  Ho  Ho2  1  0.000000  0.175857  0.913934  1
  Ho  Ho3  1  0.000000  0.942076  0.369630  1
  Ho  Ho4  1  0.000000  0.055769  0.631156  1
  Ho  Ho5  1  0.000000  0.443717  0.128358  1
  Ho  Ho6  1  0.000000  0.557133  0.870514  1
  Th  Th7  1  0.000000  0.322588  0.413962  1
  Re  Re8  1  0.000000  0.639540  0.320481  1
  Re  Re9  1  0.000000  0.361503  0.680261  1
  Re  Re10  1  0.000000  0.138453  0.178248  1
  Re  Re11  1  0.000000  0.861273  0.821119  1
  B  B12  1  0.500000  0.555855  0.432452  1
  B  B13  1  0.500000  0.446964  0.569293  1
  B  B14  1  0.500000  0.053131  0.066526  1
  B  B15  1  0.500000  0.946659  0.932993  1
  B  B16  1  0.500000  0.750197  0.418551  1
  B  B17  1  0.500000  0.250586  0.584467  1
  B  B18  1  0.500000  0.248939  0.080334  1
  B  B19  1  0.500000  0.750764  0.918547  1
  B  B20  1  0.500000  0.792282  0.265325  1
  B  B21  1  0.500000  0.207812  0.735570  1
  B  B22  1  0.500000  0.290796  0.232297  1
  B  B23  1  0.500000  0.707841  0.765565  1
  B  B24  1  0.500000  0.632008  0.184672  1
  B  B25  1  0.500000  0.369332  0.814974  1
  B  B26  1  0.500000  0.129485  0.312539  1
  B  B27  1  0.500000  0.868738  0.685918  1
  B  B28  1  0.500000  0.982252  0.211247  1
  B  B29  1  0.500000  0.016981  0.788426  1
  B  B30  1  0.500000  0.485663  0.286425  1
  B  B31  1  0.500000  0.517925  0.713186  1
  B  B32  1  0.500000  0.601112  0.027778  1
  B  B33  1  0.500000  0.399386  0.971516  1
  B  B34  1  0.500000  0.097555  0.472774  1
  B  B35  1  0.500000  0.898757  0.528464  1
