# generated using pymatgen
data_Tm12ZnInSi4
_symmetry_space_group_name_H-M   'P 1'
_cell_length_a   8.35932709
_cell_length_b   8.35932577
_cell_length_c   8.35932600
_cell_angle_alpha   112.02337263
_cell_angle_beta   111.54778366
_cell_angle_gamma   104.93589631
_symmetry_Int_Tables_number   1
_chemical_formula_structural   Tm12ZnInSi4
_chemical_formula_sum   'Tm12 Zn1 In1 Si4'
_cell_volume   447.56846186
_cell_formula_units_Z   1
loop_
 _symmetry_equiv_pos_site_id
 _symmetry_equiv_pos_as_xyz
  1  'x, y, z'
loop_
 _atom_site_type_symbol
 _atom_site_label
 _atom_site_symmetry_multiplicity
 _atom_site_fract_x
 _atom_site_fract_y
 _atom_site_fract_z
 _atom_site_occupancy
  Tm  Tm0  1  0.565453  0.262876  0.302576  1
  Tm  Tm1  1  0.180070  0.229477  0.409548  1
  Tm  Tm2  1  0.180070  0.770523  0.950596  1
  Tm  Tm3  1  0.679827  0.477138  0.797311  1
  Tm  Tm4  1  0.679827  0.882516  0.202689  1
  Tm  Tm5  1  0.960300  0.262876  0.697424  1
  Tm  Tm6  1  0.039700  0.737124  0.302576  1
  Tm  Tm7  1  0.320173  0.117484  0.797311  1
  Tm  Tm8  1  0.320173  0.522862  0.202689  1
  Tm  Tm9  1  0.819930  0.229477  0.049404  1
  Tm  Tm10  1  0.819930  0.770523  0.590452  1
  Tm  Tm11  1  0.434547  0.737124  0.697424  1
  Zn  Zn12  1  0.000000  0.500000  0.500000  1
  In  In13  1  0.500000  0.000000  0.500000  1
  Si  Si14  1  0.882391  0.882391  0.000000  1
  Si  Si15  1  0.362457  0.500000  0.862457  1
  Si  Si16  1  0.637543  0.500000  0.137543  1
  Si  Si17  1  0.117609  0.117609  0.000000  1
