# generated using pymatgen
data_Sc6Al16ZnPd7
_symmetry_space_group_name_H-M   'P 1'
_cell_length_a   8.86566465
_cell_length_b   8.86566461
_cell_length_c   8.86566400
_cell_angle_alpha   60.00000227
_cell_angle_beta   60.00000244
_cell_angle_gamma   60.00000146
_symmetry_Int_Tables_number   1
_chemical_formula_structural   Sc6Al16ZnPd7
_chemical_formula_sum   'Sc6 Al16 Zn1 Pd7'
_cell_volume   492.74121272
_cell_formula_units_Z   1
loop_
 _symmetry_equiv_pos_site_id
 _symmetry_equiv_pos_as_xyz
  1  'x, y, z'
loop_
 _atom_site_type_symbol
 _atom_site_label
 _atom_site_symmetry_multiplicity
 _atom_site_fract_x
 _atom_site_fract_y
 _atom_site_fract_z
 _atom_site_occupancy
  Sc  Sc0  1  0.711803  0.288197  0.288197  1
  Sc  Sc1  1  0.288197  0.711803  0.711803  1
  Sc  Sc2  1  0.288197  0.711803  0.288197  1
  Sc  Sc3  1  0.711803  0.288197  0.711803  1
  Sc  Sc4  1  0.288197  0.288197  0.711803  1
  Sc  Sc5  1  0.711803  0.711803  0.288197  1
  Al  Al6  1  0.122458  0.122458  0.122458  1
  Al  Al7  1  0.877542  0.877542  0.877542  1
  Al  Al8  1  0.122458  0.122458  0.632625  1
  Al  Al9  1  0.122458  0.632625  0.122458  1
  Al  Al10  1  0.877542  0.877542  0.367375  1
  Al  Al11  1  0.877542  0.367375  0.877542  1
  Al  Al12  1  0.632625  0.122458  0.122458  1
  Al  Al13  1  0.367375  0.877542  0.877542  1
  Al  Al14  1  0.339219  0.339219  0.339219  1
  Al  Al15  1  0.660781  0.660781  0.660781  1
  Al  Al16  1  0.339219  0.339219  0.982343  1
  Al  Al17  1  0.339219  0.982343  0.339219  1
  Al  Al18  1  0.660781  0.660781  0.017657  1
  Al  Al19  1  0.660781  0.017657  0.660781  1
  Al  Al20  1  0.982343  0.339219  0.339219  1
  Al  Al21  1  0.017657  0.660781  0.660781  1
  Zn  Zn22  1  0.500000  0.500000  0.500000  1
  Pd  Pd23  1  0.500000  0.000000  0.000000  1
  Pd  Pd24  1  0.000000  0.500000  0.500000  1
  Pd  Pd25  1  0.000000  0.500000  0.000000  1
  Pd  Pd26  1  0.500000  0.000000  0.500000  1
  Pd  Pd27  1  0.000000  0.000000  0.500000  1
  Pd  Pd28  1  0.500000  0.500000  0.000000  1
  Pd  Pd29  1  0.000000  0.000000  0.000000  1
