# generated using pymatgen
data_SmTl(CO3)2
_symmetry_space_group_name_H-M   'P 1'
_cell_length_a   6.56295553
_cell_length_b   6.56295641
_cell_length_c   7.29877000
_cell_angle_alpha   75.79179311
_cell_angle_beta   75.79179118
_cell_angle_gamma   94.73252452
_symmetry_Int_Tables_number   1
_chemical_formula_structural   SmTl(CO3)2
_chemical_formula_sum   'Sm2 Tl2 C4 O12'
_cell_volume   292.00804032
_cell_formula_units_Z   2
loop_
 _symmetry_equiv_pos_site_id
 _symmetry_equiv_pos_as_xyz
  1  'x, y, z'
loop_
 _atom_site_type_symbol
 _atom_site_label
 _atom_site_symmetry_multiplicity
 _atom_site_fract_x
 _atom_site_fract_y
 _atom_site_fract_z
 _atom_site_occupancy
  Sm  Sm0  1  0.097432  0.902568  0.750000  1
  Sm  Sm1  1  0.902568  0.097432  0.250000  1
  Tl  Tl2  1  0.613325  0.386675  0.750000  1
  Tl  Tl3  1  0.386675  0.613325  0.250000  1
  C  C4  1  0.648268  0.894438  0.748824  1
  C  C5  1  0.351732  0.105562  0.251176  1
  C  C6  1  0.105562  0.351732  0.751176  1
  C  C7  1  0.894438  0.648268  0.248824  1
  O  O8  1  0.450557  0.895356  0.763921  1
  O  O9  1  0.549443  0.104644  0.236079  1
  O  O10  1  0.104644  0.549443  0.736079  1
  O  O11  1  0.895356  0.450557  0.263921  1
  O  O12  1  0.717059  0.763400  0.876568  1
  O  O13  1  0.282941  0.236600  0.123432  1
  O  O14  1  0.236600  0.282941  0.623432  1
  O  O15  1  0.763400  0.717059  0.376568  1
  O  O16  1  0.796273  0.030260  0.603957  1
  O  O17  1  0.203727  0.969740  0.396043  1
  O  O18  1  0.969740  0.203727  0.896043  1
  O  O19  1  0.030260  0.796273  0.103957  1
