# generated using pymatgen
data_La4AlSn7Pd12
_symmetry_space_group_name_H-M   'P 1'
_cell_length_a   4.82021500
_cell_length_b   10.33170384
_cell_length_c   9.84794800
_cell_angle_alpha   89.83119640
_cell_angle_beta   90.00000000
_cell_angle_gamma   90.00000000
_symmetry_Int_Tables_number   1
_chemical_formula_structural   La4AlSn7Pd12
_chemical_formula_sum   'La4 Al1 Sn7 Pd12'
_cell_volume   490.43586294
_cell_formula_units_Z   1
loop_
 _symmetry_equiv_pos_site_id
 _symmetry_equiv_pos_as_xyz
  1  'x, y, z'
loop_
 _atom_site_type_symbol
 _atom_site_label
 _atom_site_symmetry_multiplicity
 _atom_site_fract_x
 _atom_site_fract_y
 _atom_site_fract_z
 _atom_site_occupancy
  La  La0  1  0.250000  0.433422  0.738975  1
  La  La1  1  0.250000  0.067291  0.240038  1
  La  La2  1  0.750000  0.568580  0.264125  1
  La  La3  1  0.750000  0.929732  0.758899  1
  Al  Al4  1  0.750000  0.645546  0.617531  1
  Sn  Sn5  1  0.250000  0.866412  0.520852  1
  Sn  Sn6  1  0.250000  0.627680  0.019859  1
  Sn  Sn7  1  0.750000  0.130424  0.479133  1
  Sn  Sn8  1  0.750000  0.373052  0.977575  1
  Sn  Sn9  1  0.250000  0.150486  0.887791  1
  Sn  Sn10  1  0.250000  0.350202  0.390126  1
  Sn  Sn11  1  0.750000  0.848495  0.110953  1
  Pd  Pd12  1  0.250000  0.136191  0.600624  1
  Pd  Pd13  1  0.250000  0.359406  0.101554  1
  Pd  Pd14  1  0.750000  0.861866  0.398245  1
  Pd  Pd15  1  0.750000  0.642996  0.890321  1
  Pd  Pd16  1  0.250000  0.721888  0.749566  1
  Pd  Pd17  1  0.250000  0.774012  0.252401  1
  Pd  Pd18  1  0.750000  0.275078  0.246207  1
  Pd  Pd19  1  0.750000  0.225326  0.745537  1
  Pd  Pd20  1  0.250000  0.903429  0.980771  1
  Pd  Pd21  1  0.250000  0.596907  0.489552  1
  Pd  Pd22  1  0.750000  0.094593  0.017026  1
  Pd  Pd23  1  0.750000  0.416985  0.522335  1
