# generated using pymatgen
data_Y14Ho2In3AgIr3Rh
_symmetry_space_group_name_H-M   'P 1'
_cell_length_a   9.69985242
_cell_length_b   9.71879149
_cell_length_c   9.68333900
_cell_angle_alpha   59.87882098
_cell_angle_beta   59.82775945
_cell_angle_gamma   59.93539866
_symmetry_Int_Tables_number   1
_chemical_formula_structural   Y14Ho2In3AgIr3Rh
_chemical_formula_sum   'Y14 Ho2 In3 Ag1 Ir3 Rh1'
_cell_volume   643.73807438
_cell_formula_units_Z   1
loop_
 _symmetry_equiv_pos_site_id
 _symmetry_equiv_pos_as_xyz
  1  'x, y, z'
loop_
 _atom_site_type_symbol
 _atom_site_label
 _atom_site_symmetry_multiplicity
 _atom_site_fract_x
 _atom_site_fract_y
 _atom_site_fract_z
 _atom_site_occupancy
  Y  Y0  1  0.188600  0.187512  0.810145  1
  Y  Y1  1  0.600859  0.598940  0.200604  1
  Y  Y2  1  0.442563  0.058068  0.441869  1
  Y  Y3  1  0.441342  0.443417  0.057893  1
  Y  Y4  1  0.812866  0.184185  0.810433  1
  Y  Y5  1  0.188812  0.810847  0.188854  1
  Y  Y6  1  0.439174  0.059394  0.059529  1
  Y  Y7  1  0.185450  0.812313  0.809940  1
  Y  Y8  1  0.059600  0.439651  0.060873  1
  Y  Y9  1  0.810155  0.810628  0.185864  1
  Y  Y10  1  0.199581  0.599581  0.600818  1
  Y  Y11  1  0.057393  0.443805  0.441212  1
  Y  Y12  1  0.059050  0.059558  0.439027  1
  Y  Y13  1  0.810180  0.188324  0.189265  1
  Ho  Ho14  1  0.598329  0.205209  0.597438  1
  Ho  Ho15  1  0.599506  0.598713  0.598799  1
  In  In16  1  0.832028  0.832988  0.504950  1
  In  In17  1  0.505092  0.832985  0.832043  1
  In  In18  1  0.832462  0.503826  0.832643  1
  Ag  Ag19  1  0.833330  0.834251  0.833091  1
  Ir  Ir20  1  0.392917  0.823875  0.393255  1
  Ir  Ir21  1  0.392733  0.390017  0.393135  1
  Ir  Ir22  1  0.824031  0.390793  0.394540  1
  Rh  Rh23  1  0.393950  0.391121  0.823779  1
