# generated using pymatgen
data_Pr4In2IrAu3
_symmetry_space_group_name_H-M   'P 1'
_cell_length_a   8.14809329
_cell_length_b   8.14809329
_cell_length_c   3.87572400
_cell_angle_alpha   90.00000000
_cell_angle_beta   90.00000000
_cell_angle_gamma   89.96953823
_symmetry_Int_Tables_number   1
_chemical_formula_structural   Pr4In2IrAu3
_chemical_formula_sum   'Pr4 In2 Ir1 Au3'
_cell_volume   257.31479991
_cell_formula_units_Z   1
loop_
 _symmetry_equiv_pos_site_id
 _symmetry_equiv_pos_as_xyz
  1  'x, y, z'
loop_
 _atom_site_type_symbol
 _atom_site_label
 _atom_site_symmetry_multiplicity
 _atom_site_fract_x
 _atom_site_fract_y
 _atom_site_fract_z
 _atom_site_occupancy
  Pr  Pr0  1  0.673195  0.173195  0.500000  1
  Pr  Pr1  1  0.311748  0.811748  0.500000  1
  Pr  Pr2  1  0.179870  0.346349  0.500000  1
  Pr  Pr3  1  0.846349  0.679870  0.500000  1
  In  In4  1  0.001473  0.995430  0.000000  1
  In  In5  1  0.495430  0.501473  0.000000  1
  Ir  Ir6  1  0.124042  0.624042  0.000000  1
  Au  Au7  1  0.872821  0.372821  0.000000  1
  Au  Au8  1  0.623928  0.871143  0.000000  1
  Au  Au9  1  0.371143  0.123928  0.000000  1
