# generated using pymatgen
data_Er4Tm6In8Pt3Rh
_symmetry_space_group_name_H-M   'P 1'
_cell_length_a   3.58180200
_cell_length_b   8.09798148
_cell_length_c   18.12922508
_cell_angle_alpha   90.00125479
_cell_angle_beta   90.00000000
_cell_angle_gamma   90.00000000
_symmetry_Int_Tables_number   1
_chemical_formula_structural   Er4Tm6In8Pt3Rh
_chemical_formula_sum   'Er4 Tm6 In8 Pt3 Rh1'
_cell_volume   525.84481367
_cell_formula_units_Z   1
loop_
 _symmetry_equiv_pos_site_id
 _symmetry_equiv_pos_as_xyz
  1  'x, y, z'
loop_
 _atom_site_type_symbol
 _atom_site_label
 _atom_site_symmetry_multiplicity
 _atom_site_fract_x
 _atom_site_fract_y
 _atom_site_fract_z
 _atom_site_occupancy
  Er  Er0  1  0.000000  0.256994  0.721431  1
  Er  Er1  1  0.000000  0.749453  0.278856  1
  Er  Er2  1  0.000000  0.000301  0.000413  1
  Er  Er3  1  0.000000  0.500460  0.499353  1
  Tm  Tm4  1  0.000000  0.114301  0.411950  1
  Tm  Tm5  1  0.000000  0.882557  0.584909  1
  Tm  Tm6  1  0.000000  0.384347  0.915281  1
  Tm  Tm7  1  0.000000  0.617194  0.086356  1
  Tm  Tm8  1  0.000000  0.238627  0.222438  1
  Tm  Tm9  1  0.000000  0.757106  0.778503  1
  In  In10  1  0.500000  0.421937  0.351552  1
  In  In11  1  0.500000  0.575019  0.647930  1
  In  In12  1  0.500000  0.075753  0.852258  1
  In  In13  1  0.500000  0.927973  0.149403  1
  In  In14  1  0.500000  0.292809  0.066826  1
  In  In15  1  0.500000  0.708837  0.933823  1
  In  In16  1  0.500000  0.206848  0.565442  1
  In  In17  1  0.500000  0.793187  0.431796  1
  Pt  Pt18  1  0.500000  0.974500  0.696205  1
  Pt  Pt19  1  0.500000  0.476890  0.803835  1
  Pt  Pt20  1  0.500000  0.521253  0.196873  1
  Rh  Rh21  1  0.500000  0.023656  0.304568  1
