# generated using pymatgen
data_LiEr3Cd3Au2
_symmetry_space_group_name_H-M   'P 1'
_cell_length_a   7.78471600
_cell_length_b   7.78471579
_cell_length_c   3.80010300
_cell_angle_alpha   90.00000000
_cell_angle_beta   90.00000000
_cell_angle_gamma   120.00000938
_symmetry_Int_Tables_number   1
_chemical_formula_structural   LiEr3Cd3Au2
_chemical_formula_sum   'Li1 Er3 Cd3 Au2'
_cell_volume   199.43964567
_cell_formula_units_Z   1
loop_
 _symmetry_equiv_pos_site_id
 _symmetry_equiv_pos_as_xyz
  1  'x, y, z'
loop_
 _atom_site_type_symbol
 _atom_site_label
 _atom_site_symmetry_multiplicity
 _atom_site_fract_x
 _atom_site_fract_y
 _atom_site_fract_z
 _atom_site_occupancy
  Li  Li0  1  0.000000  0.000000  0.000000  1
  Er  Er1  1  0.584598  0.000000  0.000000  1
  Er  Er2  1  0.000000  0.584598  0.000000  1
  Er  Er3  1  0.415402  0.415402  0.000000  1
  Cd  Cd4  1  0.245351  0.000000  0.500000  1
  Cd  Cd5  1  0.000000  0.245351  0.500000  1
  Cd  Cd6  1  0.754649  0.754649  0.500000  1
  Au  Au7  1  0.333333  0.666667  0.500000  1
  Au  Au8  1  0.666667  0.333333  0.500000  1
