# generated using pymatgen
data_Ce3MgScRu3
_symmetry_space_group_name_H-M   'P 1'
_cell_length_a   6.23539600
_cell_length_b   7.89617203
_cell_length_c   7.89617200
_cell_angle_alpha   120.00000826
_cell_angle_beta   90.00000000
_cell_angle_gamma   90.00000000
_symmetry_Int_Tables_number   1
_chemical_formula_structural   Ce3MgScRu3
_chemical_formula_sum   'Ce6 Mg2 Sc2 Ru6'
_cell_volume   336.68815431
_cell_formula_units_Z   2
loop_
 _symmetry_equiv_pos_site_id
 _symmetry_equiv_pos_as_xyz
  1  'x, y, z'
loop_
 _atom_site_type_symbol
 _atom_site_label
 _atom_site_symmetry_multiplicity
 _atom_site_fract_x
 _atom_site_fract_y
 _atom_site_fract_z
 _atom_site_occupancy
  Ce  Ce0  1  0.753085  0.748473  0.748473  1
  Ce  Ce1  1  0.246915  0.251527  0.251527  1
  Ce  Ce2  1  0.753085  0.000000  0.251527  1
  Ce  Ce3  1  0.246915  0.000000  0.748473  1
  Ce  Ce4  1  0.753085  0.251527  0.000000  1
  Ce  Ce5  1  0.246915  0.748473  0.000000  1
  Mg  Mg6  1  0.000000  0.666667  0.333333  1
  Mg  Mg7  1  0.000000  0.333333  0.666667  1
  Sc  Sc8  1  0.500000  0.333333  0.666667  1
  Sc  Sc9  1  0.500000  0.666667  0.333333  1
  Ru  Ru10  1  0.745421  0.371976  0.371976  1
  Ru  Ru11  1  0.254579  0.628024  0.628024  1
  Ru  Ru12  1  0.745421  0.000000  0.628024  1
  Ru  Ru13  1  0.254579  0.000000  0.371976  1
  Ru  Ru14  1  0.745421  0.628024  0.000000  1
  Ru  Ru15  1  0.254579  0.371976  0.000000  1
