# generated using pymatgen
data_Dy3Co7NiP6W
_symmetry_space_group_name_H-M   'P 1'
_cell_length_a   3.73848700
_cell_length_b   10.54902500
_cell_length_c   12.25344300
_cell_angle_alpha   90.00000000
_cell_angle_beta   90.00000000
_cell_angle_gamma   90.00000000
_symmetry_Int_Tables_number   1
_chemical_formula_structural   Dy3Co7NiP6W
_chemical_formula_sum   'Dy6 Co14 Ni2 P12 W2'
_cell_volume   483.24384505
_cell_formula_units_Z   2
loop_
 _symmetry_equiv_pos_site_id
 _symmetry_equiv_pos_as_xyz
  1  'x, y, z'
loop_
 _atom_site_type_symbol
 _atom_site_label
 _atom_site_symmetry_multiplicity
 _atom_site_fract_x
 _atom_site_fract_y
 _atom_site_fract_z
 _atom_site_occupancy
  Dy  Dy0  1  0.000000  0.500000  0.522773  1
  Dy  Dy1  1  0.500000  0.000000  0.477227  1
  Dy  Dy2  1  0.500000  0.818206  0.204535  1
  Dy  Dy3  1  0.500000  0.181794  0.204535  1
  Dy  Dy4  1  0.000000  0.681794  0.795465  1
  Dy  Dy5  1  0.000000  0.318206  0.795465  1
  Co  Co6  1  0.000000  0.500000  0.987441  1
  Co  Co7  1  0.500000  0.000000  0.012559  1
  Co  Co8  1  0.500000  0.332770  0.990465  1
  Co  Co9  1  0.500000  0.667230  0.990465  1
  Co  Co10  1  0.000000  0.167230  0.009535  1
  Co  Co11  1  0.000000  0.832770  0.009535  1
  Co  Co12  1  0.500000  0.297120  0.431719  1
  Co  Co13  1  0.500000  0.702880  0.431719  1
  Co  Co14  1  0.000000  0.202880  0.568281  1
  Co  Co15  1  0.000000  0.797120  0.568281  1
  Co  Co16  1  0.500000  0.878525  0.708683  1
  Co  Co17  1  0.500000  0.121475  0.708683  1
  Co  Co18  1  0.000000  0.621475  0.291317  1
  Co  Co19  1  0.000000  0.378525  0.291317  1
  Ni  Ni20  1  0.500000  0.500000  0.701385  1
  Ni  Ni21  1  0.000000  0.000000  0.298615  1
  P  P22  1  0.500000  0.500000  0.881624  1
  P  P23  1  0.000000  0.000000  0.118376  1
  P  P24  1  0.500000  0.500000  0.349561  1
  P  P25  1  0.000000  0.000000  0.650439  1
  P  P26  1  0.500000  0.310206  0.615518  1
  P  P27  1  0.500000  0.689794  0.615518  1
  P  P28  1  0.000000  0.189794  0.384482  1
  P  P29  1  0.000000  0.810206  0.384482  1
  P  P30  1  0.500000  0.844216  0.893048  1
  P  P31  1  0.500000  0.155784  0.893048  1
  P  P32  1  0.000000  0.655784  0.106952  1
  P  P33  1  0.000000  0.344216  0.106952  1
  W  W34  1  0.500000  0.500000  0.155526  1
  W  W35  1  0.000000  0.000000  0.844474  1
