# generated using pymatgen
data_KSmH9W
_symmetry_space_group_name_H-M   'P 1'
_cell_length_a   8.80063900
_cell_length_b   8.80063793
_cell_length_c   5.33371400
_cell_angle_alpha   90.00000000
_cell_angle_beta   90.00000000
_cell_angle_gamma   120.00000025
_symmetry_Int_Tables_number   1
_chemical_formula_structural   KSmH9W
_chemical_formula_sum   'K3 Sm3 H27 W3'
_cell_volume   357.75747438
_cell_formula_units_Z   3
loop_
 _symmetry_equiv_pos_site_id
 _symmetry_equiv_pos_as_xyz
  1  'x, y, z'
loop_
 _atom_site_type_symbol
 _atom_site_label
 _atom_site_symmetry_multiplicity
 _atom_site_fract_x
 _atom_site_fract_y
 _atom_site_fract_z
 _atom_site_occupancy
  K  K0  1  0.000000  0.598780  0.000000  1
  K  K1  1  0.401220  0.401220  0.000000  1
  K  K2  1  0.598780  0.000000  0.000000  1
  Sm  Sm3  1  0.000000  0.261821  0.500000  1
  Sm  Sm4  1  0.738179  0.738179  0.500000  1
  Sm  Sm5  1  0.261821  0.000000  0.500000  1
  H  H6  1  0.806691  0.324976  0.736515  1
  H  H7  1  0.675024  0.481714  0.736515  1
  H  H8  1  0.518286  0.193309  0.736515  1
  H  H9  1  0.193309  0.518286  0.263485  1
  H  H10  1  0.518286  0.193309  0.263485  1
  H  H11  1  0.806691  0.324976  0.263485  1
  H  H12  1  0.675024  0.481714  0.263485  1
  H  H13  1  0.324976  0.806691  0.736515  1
  H  H14  1  0.481714  0.675024  0.736515  1
  H  H15  1  0.202889  0.000000  0.000000  1
  H  H16  1  0.797111  0.797111  0.000000  1
  H  H17  1  0.000000  0.202889  0.000000  1
  H  H18  1  0.856052  0.000000  0.257291  1
  H  H19  1  0.143948  0.143948  0.742709  1
  H  H20  1  0.000000  0.856052  0.742709  1
  H  H21  1  0.000000  0.856052  0.257291  1
  H  H22  1  0.143948  0.143948  0.257291  1
  H  H23  1  0.856052  0.000000  0.742709  1
  H  H24  1  0.132579  0.667404  0.500000  1
  H  H25  1  0.534824  0.867421  0.500000  1
  H  H26  1  0.332596  0.465176  0.500000  1
  H  H27  1  0.465176  0.332596  0.500000  1
  H  H28  1  0.867421  0.534824  0.500000  1
  H  H29  1  0.667404  0.132579  0.500000  1
  H  H30  1  0.193309  0.518286  0.736515  1
  H  H31  1  0.324976  0.806691  0.263485  1
  H  H32  1  0.481714  0.675024  0.263485  1
  W  W33  1  0.666667  0.333333  0.500000  1
  W  W34  1  0.333333  0.666667  0.500000  1
  W  W35  1  0.000000  0.000000  0.000000  1
