# generated using pymatgen
data_Yb7Dy(Si4Mo3)4
_symmetry_space_group_name_H-M   'P 1'
_cell_length_a   6.72218103
_cell_length_b   6.91922723
_cell_length_c   13.03234331
_cell_angle_alpha   89.94692734
_cell_angle_beta   90.00858224
_cell_angle_gamma   89.92569793
_symmetry_Int_Tables_number   1
_chemical_formula_structural   Yb7Dy(Si4Mo3)4
_chemical_formula_sum   'Yb7 Dy1 Si16 Mo12'
_cell_volume   606.16345948
_cell_formula_units_Z   1
loop_
 _symmetry_equiv_pos_site_id
 _symmetry_equiv_pos_as_xyz
  1  'x, y, z'
loop_
 _atom_site_type_symbol
 _atom_site_label
 _atom_site_symmetry_multiplicity
 _atom_site_fract_x
 _atom_site_fract_y
 _atom_site_fract_z
 _atom_site_occupancy
  Yb  Yb0  1  0.498269  0.334300  0.090198  1
  Yb  Yb1  1  0.998242  0.166077  0.409310  1
  Yb  Yb2  1  0.501622  0.666055  0.590869  1
  Yb  Yb3  1  0.001317  0.831550  0.907635  1
  Yb  Yb4  1  0.501302  0.666674  0.908781  1
  Yb  Yb5  1  0.001548  0.832997  0.590851  1
  Yb  Yb6  1  0.498424  0.334585  0.409970  1
  Dy  Dy7  1  0.000001  0.169861  0.093430  1
  Si  Si8  1  0.657892  0.043171  0.545729  1
  Si  Si9  1  0.158268  0.457545  0.954182  1
  Si  Si10  1  0.341686  0.956818  0.045278  1
  Si  Si11  1  0.842270  0.543275  0.454363  1
  Si  Si12  1  0.342410  0.956723  0.454519  1
  Si  Si13  1  0.841216  0.544354  0.044972  1
  Si  Si14  1  0.659396  0.042236  0.954279  1
  Si  Si15  1  0.157930  0.456439  0.545793  1
  Si  Si16  1  0.535047  0.373148  0.750293  1
  Si  Si17  1  0.035014  0.125381  0.749771  1
  Si  Si18  1  0.464945  0.628536  0.249229  1
  Si  Si19  1  0.964612  0.872123  0.250236  1
  Si  Si20  1  0.800466  0.630969  0.749830  1
  Si  Si21  1  0.301318  0.867663  0.749904  1
  Si  Si22  1  0.200030  0.369558  0.251172  1
  Si  Si23  1  0.696393  0.132539  0.250931  1
  Mo  Mo24  1  0.834957  0.330727  0.628094  1
  Mo  Mo25  1  0.333895  0.168055  0.872654  1
  Mo  Mo26  1  0.164943  0.668315  0.126916  1
  Mo  Mo27  1  0.665468  0.830981  0.371970  1
  Mo  Mo28  1  0.165548  0.669013  0.371788  1
  Mo  Mo29  1  0.667438  0.833549  0.127097  1
  Mo  Mo30  1  0.835659  0.330081  0.872954  1
  Mo  Mo31  1  0.334953  0.168325  0.628085  1
  Mo  Mo32  1  0.661197  0.008469  0.750194  1
  Mo  Mo33  1  0.161212  0.490485  0.750193  1
  Mo  Mo34  1  0.337166  0.992579  0.249551  1
  Mo  Mo35  1  0.837944  0.506842  0.248977  1
