# generated using pymatgen
data_Ce3MgSn4
_symmetry_space_group_name_H-M   'P 1'
_cell_length_a   6.55559870
_cell_length_b   6.55559879
_cell_length_c   10.11181300
_cell_angle_alpha   90.00000000
_cell_angle_beta   90.00000000
_cell_angle_gamma   100.40699052
_symmetry_Int_Tables_number   1
_chemical_formula_structural   Ce3MgSn4
_chemical_formula_sum   'Ce6 Mg2 Sn8'
_cell_volume   427.41518864
_cell_formula_units_Z   2
loop_
 _symmetry_equiv_pos_site_id
 _symmetry_equiv_pos_as_xyz
  1  'x, y, z'
loop_
 _atom_site_type_symbol
 _atom_site_label
 _atom_site_symmetry_multiplicity
 _atom_site_fract_x
 _atom_site_fract_y
 _atom_site_fract_z
 _atom_site_occupancy
  Ce  Ce0  1  0.590146  0.590146  0.250000  1
  Ce  Ce1  1  0.409854  0.409854  0.750000  1
  Ce  Ce2  1  0.226425  0.773575  0.500000  1
  Ce  Ce3  1  0.226425  0.773575  0.000000  1
  Ce  Ce4  1  0.773575  0.226425  0.500000  1
  Ce  Ce5  1  0.773575  0.226425  0.000000  1
  Mg  Mg6  1  0.995600  0.995600  0.250000  1
  Mg  Mg7  1  0.004400  0.004400  0.750000  1
  Sn  Sn8  1  0.267128  0.267128  0.039155  1
  Sn  Sn9  1  0.732872  0.732872  0.960845  1
  Sn  Sn10  1  0.267128  0.267128  0.460845  1
  Sn  Sn11  1  0.732872  0.732872  0.539155  1
  Sn  Sn12  1  0.493657  0.050149  0.250000  1
  Sn  Sn13  1  0.949851  0.506343  0.750000  1
  Sn  Sn14  1  0.506343  0.949851  0.750000  1
  Sn  Sn15  1  0.050149  0.493657  0.250000  1
