# generated using pymatgen
data_Tb4ZnCd2Cu2Ru
_symmetry_space_group_name_H-M   'P 1'
_cell_length_a   7.63309213
_cell_length_b   7.63309138
_cell_length_c   3.76596700
_cell_angle_alpha   90.00000000
_cell_angle_beta   90.00000000
_cell_angle_gamma   88.88431154
_symmetry_Int_Tables_number   1
_chemical_formula_structural   Tb4ZnCd2Cu2Ru
_chemical_formula_sum   'Tb4 Zn1 Cd2 Cu2 Ru1'
_cell_volume   219.37904101
_cell_formula_units_Z   1
loop_
 _symmetry_equiv_pos_site_id
 _symmetry_equiv_pos_as_xyz
  1  'x, y, z'
loop_
 _atom_site_type_symbol
 _atom_site_label
 _atom_site_symmetry_multiplicity
 _atom_site_fract_x
 _atom_site_fract_y
 _atom_site_fract_z
 _atom_site_occupancy
  Tb  Tb0  1  0.661689  0.161689  0.500000  1
  Tb  Tb1  1  0.312969  0.812969  0.500000  1
  Tb  Tb2  1  0.192332  0.345486  0.500000  1
  Tb  Tb3  1  0.845486  0.692332  0.500000  1
  Zn  Zn4  1  0.876911  0.376911  0.000000  1
  Cd  Cd5  1  0.001066  0.009864  0.000000  1
  Cd  Cd6  1  0.509864  0.501066  0.000000  1
  Cu  Cu7  1  0.611301  0.873747  0.000000  1
  Cu  Cu8  1  0.373747  0.111301  0.000000  1
  Ru  Ru9  1  0.114634  0.614634  0.000000  1
