# generated using pymatgen
data_Nb6GaCo6
_symmetry_space_group_name_H-M   'P 1'
_cell_length_a   4.94117882
_cell_length_b   4.94117933
_cell_length_c   9.12674408
_cell_angle_alpha   74.29420114
_cell_angle_beta   74.29420193
_cell_angle_gamma   59.99999020
_symmetry_Int_Tables_number   1
_chemical_formula_structural   Nb6GaCo6
_chemical_formula_sum   'Nb6 Ga1 Co6'
_cell_volume   183.30840566
_cell_formula_units_Z   1
loop_
 _symmetry_equiv_pos_site_id
 _symmetry_equiv_pos_as_xyz
  1  'x, y, z'
loop_
 _atom_site_type_symbol
 _atom_site_label
 _atom_site_symmetry_multiplicity
 _atom_site_fract_x
 _atom_site_fract_y
 _atom_site_fract_z
 _atom_site_occupancy
  Nb  Nb0  1  0.169421  0.169421  0.491736  1
  Nb  Nb1  1  0.830579  0.830579  0.508264  1
  Nb  Nb2  1  0.345702  0.345702  0.962895  1
  Nb  Nb3  1  0.654298  0.654298  0.037105  1
  Nb  Nb4  1  0.449510  0.449510  0.651469  1
  Nb  Nb5  1  0.550490  0.550490  0.348531  1
  Ga  Ga6  1  0.000000  0.000000  0.000000  1
  Co  Co7  1  0.588313  0.089795  0.232097  1
  Co  Co8  1  0.089795  0.089795  0.232097  1
  Co  Co9  1  0.089795  0.588313  0.232097  1
  Co  Co10  1  0.411687  0.910205  0.767903  1
  Co  Co11  1  0.910205  0.910205  0.767903  1
  Co  Co12  1  0.910205  0.411687  0.767903  1
