# generated using pymatgen
data_Tm2Fe7Si4Tc
_symmetry_space_group_name_H-M   'P 1'
_cell_length_a   6.70339336
_cell_length_b   7.40172498
_cell_length_c   3.85626500
_cell_angle_alpha   90.00000000
_cell_angle_beta   90.00000000
_cell_angle_gamma   90.22080614
_symmetry_Int_Tables_number   1
_chemical_formula_structural   Tm2Fe7Si4Tc
_chemical_formula_sum   'Tm2 Fe7 Si4 Tc1'
_cell_volume   191.33362280
_cell_formula_units_Z   1
loop_
 _symmetry_equiv_pos_site_id
 _symmetry_equiv_pos_as_xyz
  1  'x, y, z'
loop_
 _atom_site_type_symbol
 _atom_site_label
 _atom_site_symmetry_multiplicity
 _atom_site_fract_x
 _atom_site_fract_y
 _atom_site_fract_z
 _atom_site_occupancy
  Tm  Tm0  1  0.498592  0.496477  0.500000  1
  Tm  Tm1  1  0.000878  0.999483  0.000000  1
  Fe  Fe2  1  0.341303  0.106392  0.500000  1
  Fe  Fe3  1  0.145229  0.602028  0.000000  1
  Fe  Fe4  1  0.854054  0.394185  0.000000  1
  Fe  Fe5  1  0.928484  0.653696  0.500000  1
  Fe  Fe6  1  0.077969  0.350669  0.500000  1
  Fe  Fe7  1  0.573897  0.158549  0.000000  1
  Fe  Fe8  1  0.426090  0.843860  0.000000  1
  Si  Si9  1  0.771203  0.205976  0.500000  1
  Si  Si10  1  0.236055  0.798966  0.500000  1
  Si  Si11  1  0.263316  0.300491  0.000000  1
  Si  Si12  1  0.739663  0.690248  0.000000  1
  Tc  Tc13  1  0.643268  0.898980  0.500000  1
