# generated using pymatgen
data_LaSm6FeI12
_symmetry_space_group_name_H-M   'P 1'
_cell_length_a   10.00920046
_cell_length_b   9.82566717
_cell_length_c   10.00187649
_cell_angle_alpha   106.99940262
_cell_angle_beta   107.75182812
_cell_angle_gamma   107.78793112
_symmetry_Int_Tables_number   1
_chemical_formula_structural   LaSm6FeI12
_chemical_formula_sum   'La1 Sm6 Fe1 I12'
_cell_volume   807.42070643
_cell_formula_units_Z   1
loop_
 _symmetry_equiv_pos_site_id
 _symmetry_equiv_pos_as_xyz
  1  'x, y, z'
loop_
 _atom_site_type_symbol
 _atom_site_label
 _atom_site_symmetry_multiplicity
 _atom_site_fract_x
 _atom_site_fract_y
 _atom_site_fract_z
 _atom_site_occupancy
  La  La0  1  0.908210  0.726856  0.973252  1
  Sm  Sm1  1  0.966235  0.895876  0.693625  1
  Sm  Sm2  1  0.692596  0.968232  0.894758  1
  Sm  Sm3  1  0.093509  0.274521  0.028414  1
  Sm  Sm4  1  0.033918  0.104561  0.307834  1
  Sm  Sm5  1  0.308005  0.029206  0.105750  1
  Sm  Sm6  1  0.499463  0.501562  0.498067  1
  Fe  Fe7  1  0.994659  0.982989  0.999692  1
  I  I8  1  0.783061  0.314910  0.930044  1
  I  I9  1  0.925486  0.778170  0.321888  1
  I  I10  1  0.315976  0.929730  0.777730  1
  I  I11  1  0.231043  0.686430  0.075416  1
  I  I12  1  0.077815  0.228927  0.692737  1
  I  I13  1  0.686521  0.076364  0.223711  1
  I  I14  1  0.523538  0.608841  0.836132  1
  I  I15  1  0.839904  0.528648  0.604063  1
  I  I16  1  0.612865  0.850527  0.531895  1
  I  I17  1  0.462788  0.388722  0.153938  1
  I  I18  1  0.155991  0.469570  0.381077  1
  I  I19  1  0.388418  0.155359  0.469979  1
