# generated using pymatgen
data_Pr11Ho(Si7Br3)2
_symmetry_space_group_name_H-M   'P 1'
_cell_length_a   4.09276900
_cell_length_b   11.80951400
_cell_length_c   16.60101100
_cell_angle_alpha   90.00000000
_cell_angle_beta   90.00000000
_cell_angle_gamma   90.00000000
_symmetry_Int_Tables_number   1
_chemical_formula_structural   Pr11Ho(Si7Br3)2
_chemical_formula_sum   'Pr11 Ho1 Si14 Br6'
_cell_volume   802.38683783
_cell_formula_units_Z   1
loop_
 _symmetry_equiv_pos_site_id
 _symmetry_equiv_pos_as_xyz
  1  'x, y, z'
loop_
 _atom_site_type_symbol
 _atom_site_label
 _atom_site_symmetry_multiplicity
 _atom_site_fract_x
 _atom_site_fract_y
 _atom_site_fract_z
 _atom_site_occupancy
  Pr  Pr0  1  0.500000  0.342399  0.500000  1
  Pr  Pr1  1  0.000000  0.658386  0.000000  1
  Pr  Pr2  1  0.500000  0.359583  0.755396  1
  Pr  Pr3  1  0.000000  0.641093  0.742351  1
  Pr  Pr4  1  0.500000  0.359583  0.244604  1
  Pr  Pr5  1  0.000000  0.641093  0.257649  1
  Pr  Pr6  1  0.500000  0.065157  0.880061  1
  Pr  Pr7  1  0.000000  0.932905  0.619224  1
  Pr  Pr8  1  0.500000  0.065157  0.119939  1
  Pr  Pr9  1  0.000000  0.932905  0.380776  1
  Pr  Pr10  1  0.500000  0.356218  0.000000  1
  Ho  Ho11  1  0.000000  0.645348  0.500000  1
  Si  Si12  1  0.000000  0.151793  0.000000  1
  Si  Si13  1  0.500000  0.845689  0.500000  1
  Si  Si14  1  0.500000  0.567499  0.875968  1
  Si  Si15  1  0.000000  0.435715  0.621624  1
  Si  Si16  1  0.500000  0.567499  0.124032  1
  Si  Si17  1  0.000000  0.435715  0.378376  1
  Si  Si18  1  0.000000  0.253579  0.873812  1
  Si  Si19  1  0.500000  0.744289  0.623955  1
  Si  Si20  1  0.000000  0.253579  0.126188  1
  Si  Si21  1  0.500000  0.744289  0.376045  1
  Si  Si22  1  0.000000  0.457929  0.876572  1
  Si  Si23  1  0.500000  0.543279  0.619498  1
  Si  Si24  1  0.500000  0.543279  0.380502  1
  Si  Si25  1  0.000000  0.457929  0.123428  1
  Br  Br26  1  0.500000  0.108945  0.692839  1
  Br  Br27  1  0.000000  0.890213  0.806994  1
  Br  Br28  1  0.000000  0.138695  0.500000  1
  Br  Br29  1  0.500000  0.861101  0.000000  1
  Br  Br30  1  0.500000  0.108945  0.307161  1
  Br  Br31  1  0.000000  0.890213  0.193006  1
