# generated using pymatgen
data_KRb3SnO4
_symmetry_space_group_name_H-M   'P 1'
_cell_length_a   7.03180400
_cell_length_b   11.23571248
_cell_length_c   11.39476117
_cell_angle_alpha   68.81323341
_cell_angle_beta   90.00000000
_cell_angle_gamma   90.00000000
_symmetry_Int_Tables_number   1
_chemical_formula_structural   KRb3SnO4
_chemical_formula_sum   'K4 Rb12 Sn4 O16'
_cell_volume   839.41797682
_cell_formula_units_Z   4
loop_
 _symmetry_equiv_pos_site_id
 _symmetry_equiv_pos_as_xyz
  1  'x, y, z'
loop_
 _atom_site_type_symbol
 _atom_site_label
 _atom_site_symmetry_multiplicity
 _atom_site_fract_x
 _atom_site_fract_y
 _atom_site_fract_z
 _atom_site_occupancy
  K  K0  1  0.642170  0.863866  0.110293  1
  K  K1  1  0.357830  0.136134  0.889707  1
  K  K2  1  0.857830  0.863866  0.610293  1
  K  K3  1  0.142170  0.136134  0.389707  1
  Rb  Rb4  1  0.680697  0.054379  0.308708  1
  Rb  Rb5  1  0.109700  0.333924  0.598826  1
  Rb  Rb6  1  0.405145  0.549395  0.311717  1
  Rb  Rb7  1  0.094855  0.549395  0.811717  1
  Rb  Rb8  1  0.819303  0.054379  0.808708  1
  Rb  Rb9  1  0.594855  0.450605  0.688283  1
  Rb  Rb10  1  0.890300  0.666076  0.401174  1
  Rb  Rb11  1  0.180697  0.945621  0.191292  1
  Rb  Rb12  1  0.609700  0.666076  0.901174  1
  Rb  Rb13  1  0.390300  0.333924  0.098826  1
  Rb  Rb14  1  0.319303  0.945621  0.691292  1
  Rb  Rb15  1  0.905145  0.450605  0.188283  1
  Sn  Sn16  1  0.363694  0.749850  0.499472  1
  Sn  Sn17  1  0.636306  0.250150  0.500528  1
  Sn  Sn18  1  0.863694  0.250150  0.000528  1
  Sn  Sn19  1  0.136306  0.749850  0.999472  1
  O  O20  1  0.019061  0.205396  0.158326  1
  O  O21  1  0.519061  0.794604  0.341674  1
  O  O22  1  0.253516  0.576694  0.041732  1
  O  O23  1  0.158999  0.882230  0.465073  1
  O  O24  1  0.746484  0.423306  0.958268  1
  O  O25  1  0.474339  0.257241  0.354086  1
  O  O26  1  0.658999  0.117770  0.034927  1
  O  O27  1  0.980939  0.794604  0.841674  1
  O  O28  1  0.753516  0.423306  0.458268  1
  O  O29  1  0.025661  0.257241  0.854086  1
  O  O30  1  0.341001  0.882230  0.965073  1
  O  O31  1  0.841001  0.117770  0.534927  1
  O  O32  1  0.525661  0.742759  0.645914  1
  O  O33  1  0.246484  0.576694  0.541732  1
  O  O34  1  0.480939  0.205396  0.658326  1
  O  O35  1  0.974339  0.742759  0.145914  1
