# generated using pymatgen
data_Er2Tm6Cd2RuRh
_symmetry_space_group_name_H-M   'P 1'
_cell_length_a   9.52629624
_cell_length_b   9.52350245
_cell_length_c   9.57302072
_cell_angle_alpha   59.59888837
_cell_angle_beta   59.59551750
_cell_angle_gamma   59.46219501
_symmetry_Int_Tables_number   1
_chemical_formula_structural   Er2Tm6Cd2RuRh
_chemical_formula_sum   'Er4 Tm12 Cd4 Ru2 Rh2'
_cell_volume   607.86756019
_cell_formula_units_Z   2
loop_
 _symmetry_equiv_pos_site_id
 _symmetry_equiv_pos_as_xyz
  1  'x, y, z'
loop_
 _atom_site_type_symbol
 _atom_site_label
 _atom_site_symmetry_multiplicity
 _atom_site_fract_x
 _atom_site_fract_y
 _atom_site_fract_z
 _atom_site_occupancy
  Er  Er0  1  0.809651  0.187735  0.814144  1
  Er  Er1  1  0.187561  0.809840  0.188389  1
  Er  Er2  1  0.812023  0.812077  0.188076  1
  Er  Er3  1  0.188048  0.188008  0.811972  1
  Tm  Tm4  1  0.598166  0.598396  0.599219  1
  Tm  Tm5  1  0.598730  0.598579  0.204416  1
  Tm  Tm6  1  0.596634  0.209245  0.597331  1
  Tm  Tm7  1  0.209174  0.596677  0.597480  1
  Tm  Tm8  1  0.062227  0.437589  0.439559  1
  Tm  Tm9  1  0.437249  0.062537  0.059924  1
  Tm  Tm10  1  0.437731  0.062192  0.439612  1
  Tm  Tm11  1  0.062474  0.437320  0.059784  1
  Tm  Tm12  1  0.437994  0.437911  0.061392  1
  Tm  Tm13  1  0.059749  0.059735  0.439995  1
  Tm  Tm14  1  0.187896  0.809489  0.813761  1
  Tm  Tm15  1  0.809747  0.187667  0.188749  1
  Cd  Cd16  1  0.830592  0.830296  0.830275  1
  Cd  Cd17  1  0.830389  0.830651  0.508640  1
  Cd  Cd18  1  0.830791  0.507421  0.831029  1
  Cd  Cd19  1  0.507436  0.830778  0.830757  1
  Ru  Ru20  1  0.392450  0.392361  0.388119  1
  Ru  Ru21  1  0.392928  0.393196  0.826616  1
  Rh  Rh22  1  0.393980  0.826319  0.390494  1
  Rh  Rh23  1  0.826377  0.393983  0.390263  1
