# generated using pymatgen
data_Ho2Co9TcAs6
_symmetry_space_group_name_H-M   'P 1'
_cell_length_a   3.80604900
_cell_length_b   10.70734100
_cell_length_c   12.19560600
_cell_angle_alpha   90.00000000
_cell_angle_beta   90.00000000
_cell_angle_gamma   90.00000000
_symmetry_Int_Tables_number   1
_chemical_formula_structural   Ho2Co9TcAs6
_chemical_formula_sum   'Ho4 Co18 Tc2 As12'
_cell_volume   497.00343976
_cell_formula_units_Z   2
loop_
 _symmetry_equiv_pos_site_id
 _symmetry_equiv_pos_as_xyz
  1  'x, y, z'
loop_
 _atom_site_type_symbol
 _atom_site_label
 _atom_site_symmetry_multiplicity
 _atom_site_fract_x
 _atom_site_fract_y
 _atom_site_fract_z
 _atom_site_occupancy
  Ho  Ho0  1  0.250000  0.580949  0.701634  1
  Ho  Ho1  1  0.250000  0.919051  0.201634  1
  Ho  Ho2  1  0.750000  0.416798  0.295632  1
  Ho  Ho3  1  0.750000  0.083202  0.795632  1
  Co  Co4  1  0.750000  0.289226  0.009970  1
  Co  Co5  1  0.750000  0.210774  0.509970  1
  Co  Co6  1  0.250000  0.406424  0.488389  1
  Co  Co7  1  0.250000  0.093576  0.988389  1
  Co  Co8  1  0.750000  0.593588  0.511748  1
  Co  Co9  1  0.750000  0.906412  0.011748  1
  Co  Co10  1  0.250000  0.215584  0.177290  1
  Co  Co11  1  0.250000  0.284416  0.677290  1
  Co  Co12  1  0.750000  0.783378  0.823927  1
  Co  Co13  1  0.750000  0.716622  0.323927  1
  Co  Co14  1  0.250000  0.886791  0.699231  1
  Co  Co15  1  0.250000  0.613209  0.199231  1
  Co  Co16  1  0.750000  0.116326  0.302489  1
  Co  Co17  1  0.750000  0.383674  0.802489  1
  Co  Co18  1  0.250000  0.466868  0.932162  1
  Co  Co19  1  0.250000  0.033132  0.432162  1
  Co  Co20  1  0.750000  0.532240  0.068173  1
  Co  Co21  1  0.750000  0.967760  0.568173  1
  Tc  Tc22  1  0.250000  0.707715  0.989600  1
  Tc  Tc23  1  0.250000  0.792285  0.489600  1
  As  As24  1  0.250000  0.414334  0.113808  1
  As  As25  1  0.250000  0.085666  0.613808  1
  As  As26  1  0.750000  0.581670  0.884041  1
  As  As27  1  0.750000  0.918330  0.384041  1
  As  As28  1  0.250000  0.267903  0.869208  1
  As  As29  1  0.250000  0.232097  0.369208  1
  As  As30  1  0.750000  0.731615  0.133496  1
  As  As31  1  0.750000  0.768385  0.633496  1
  As  As32  1  0.250000  0.595009  0.390206  1
  As  As33  1  0.250000  0.904991  0.890206  1
  As  As34  1  0.750000  0.399022  0.608995  1
  As  As35  1  0.750000  0.100978  0.108995  1
