# generated using pymatgen
data_HoEr5Co16(P6W)2
_symmetry_space_group_name_H-M   'P 1'
_cell_length_a   3.70735500
_cell_length_b   10.53921400
_cell_length_c   12.20565600
_cell_angle_alpha   90.00000000
_cell_angle_beta   90.00000000
_cell_angle_gamma   90.00000000
_symmetry_Int_Tables_number   1
_chemical_formula_structural   HoEr5Co16(P6W)2
_chemical_formula_sum   'Ho1 Er5 Co16 P12 W2'
_cell_volume   476.90680884
_cell_formula_units_Z   1
loop_
 _symmetry_equiv_pos_site_id
 _symmetry_equiv_pos_as_xyz
  1  'x, y, z'
loop_
 _atom_site_type_symbol
 _atom_site_label
 _atom_site_symmetry_multiplicity
 _atom_site_fract_x
 _atom_site_fract_y
 _atom_site_fract_z
 _atom_site_occupancy
  Ho  Ho0  1  0.750000  0.250000  0.474834  1
  Er  Er1  1  0.250000  0.750000  0.525172  1
  Er  Er2  1  0.250000  0.930609  0.794846  1
  Er  Er3  1  0.250000  0.569391  0.794846  1
  Er  Er4  1  0.750000  0.069506  0.204980  1
  Er  Er5  1  0.750000  0.430494  0.204980  1
  Co  Co6  1  0.250000  0.250000  0.299000  1
  Co  Co7  1  0.750000  0.750000  0.700632  1
  Co  Co8  1  0.750000  0.250000  0.013128  1
  Co  Co9  1  0.250000  0.750000  0.986869  1
  Co  Co10  1  0.250000  0.417189  0.010115  1
  Co  Co11  1  0.250000  0.082811  0.010115  1
  Co  Co12  1  0.750000  0.582862  0.989910  1
  Co  Co13  1  0.750000  0.917138  0.989910  1
  Co  Co14  1  0.250000  0.454680  0.568555  1
  Co  Co15  1  0.250000  0.045320  0.568555  1
  Co  Co16  1  0.750000  0.545899  0.431474  1
  Co  Co17  1  0.750000  0.954101  0.431474  1
  Co  Co18  1  0.250000  0.872081  0.292855  1
  Co  Co19  1  0.250000  0.627919  0.292855  1
  Co  Co20  1  0.750000  0.127811  0.707276  1
  Co  Co21  1  0.750000  0.372189  0.707276  1
  P  P22  1  0.250000  0.250000  0.120028  1
  P  P23  1  0.750000  0.750000  0.879810  1
  P  P24  1  0.250000  0.250000  0.649270  1
  P  P25  1  0.750000  0.750000  0.351169  1
  P  P26  1  0.250000  0.438381  0.383658  1
  P  P27  1  0.250000  0.061619  0.383658  1
  P  P28  1  0.750000  0.561959  0.616160  1
  P  P29  1  0.750000  0.938041  0.616160  1
  P  P30  1  0.250000  0.906181  0.107641  1
  P  P31  1  0.250000  0.593819  0.107641  1
  P  P32  1  0.750000  0.093762  0.892438  1
  P  P33  1  0.750000  0.406238  0.892438  1
  W  W34  1  0.250000  0.250000  0.843496  1
  W  W35  1  0.750000  0.750000  0.156775  1
