# generated using pymatgen
data_EuCr2(Sb6Pt)2
_symmetry_space_group_name_H-M   'P 1'
_cell_length_a   8.20279812
_cell_length_b   8.24460142
_cell_length_c   8.20279765
_cell_angle_alpha   109.32147498
_cell_angle_beta   109.13464382
_cell_angle_gamma   109.75106331
_symmetry_Int_Tables_number   1
_chemical_formula_structural   EuCr2(Sb6Pt)2
_chemical_formula_sum   'Eu1 Cr2 Sb12 Pt2'
_cell_volume   428.11814572
_cell_formula_units_Z   1
loop_
 _symmetry_equiv_pos_site_id
 _symmetry_equiv_pos_as_xyz
  1  'x, y, z'
loop_
 _atom_site_type_symbol
 _atom_site_label
 _atom_site_symmetry_multiplicity
 _atom_site_fract_x
 _atom_site_fract_y
 _atom_site_fract_z
 _atom_site_occupancy
  Eu  Eu0  1  0.000000  0.000000  0.000000  1
  Cr  Cr1  1  0.500000  0.000000  0.000000  1
  Cr  Cr2  1  0.000000  0.000000  0.500000  1
  Sb  Sb3  1  0.334019  0.150988  0.495963  1
  Sb  Sb4  1  0.344975  0.849012  0.183031  1
  Sb  Sb5  1  0.655025  0.150988  0.816969  1
  Sb  Sb6  1  0.816487  0.667182  0.163759  1
  Sb  Sb7  1  0.151783  0.497768  0.345985  1
  Sb  Sb8  1  0.503422  0.667182  0.850694  1
  Sb  Sb9  1  0.837713  0.171461  0.333747  1
  Sb  Sb10  1  0.665981  0.849012  0.504037  1
  Sb  Sb11  1  0.183513  0.332818  0.836241  1
  Sb  Sb12  1  0.162287  0.828539  0.666253  1
  Sb  Sb13  1  0.496578  0.332818  0.149306  1
  Sb  Sb14  1  0.848217  0.502232  0.654015  1
  Pt  Pt15  1  0.500000  0.500000  0.500000  1
  Pt  Pt16  1  0.000000  0.500000  0.000000  1
