# generated using pymatgen
data_Er6Zn18Ir5Se
_symmetry_space_group_name_H-M   'P 1'
_cell_length_a   8.97089744
_cell_length_b   9.00910473
_cell_length_c   8.97089764
_cell_angle_alpha   59.85901176
_cell_angle_beta   60.14192137
_cell_angle_gamma   59.85901546
_symmetry_Int_Tables_number   1
_chemical_formula_structural   Er6Zn18Ir5Se
_chemical_formula_sum   'Er6 Zn18 Ir5 Se1'
_cell_volume   512.11948018
_cell_formula_units_Z   1
loop_
 _symmetry_equiv_pos_site_id
 _symmetry_equiv_pos_as_xyz
  1  'x, y, z'
loop_
 _atom_site_type_symbol
 _atom_site_label
 _atom_site_symmetry_multiplicity
 _atom_site_fract_x
 _atom_site_fract_y
 _atom_site_fract_z
 _atom_site_occupancy
  Er  Er0  1  0.718844  0.274143  0.281156  1
  Er  Er1  1  0.721683  0.278317  0.721683  1
  Er  Er2  1  0.718844  0.725857  0.281156  1
  Er  Er3  1  0.281156  0.725857  0.718844  1
  Er  Er4  1  0.278317  0.721683  0.278317  1
  Er  Er5  1  0.281156  0.274143  0.718844  1
  Zn  Zn6  1  0.623777  0.125215  0.125794  1
  Zn  Zn7  1  0.125639  0.625276  0.125639  1
  Zn  Zn8  1  0.125794  0.125215  0.623777  1
  Zn  Zn9  1  0.125639  0.123447  0.125639  1
  Zn  Zn10  1  0.376223  0.874785  0.874206  1
  Zn  Zn11  1  0.874361  0.374724  0.874361  1
  Zn  Zn12  1  0.874206  0.874785  0.376223  1
  Zn  Zn13  1  0.874361  0.876553  0.874361  1
  Zn  Zn14  1  0.000000  0.500000  0.000000  1
  Zn  Zn15  1  0.000000  0.000000  0.000000  1
  Zn  Zn16  1  0.999893  0.333129  0.333846  1
  Zn  Zn17  1  0.331783  0.003154  0.331783  1
  Zn  Zn18  1  0.333846  0.333129  0.999893  1
  Zn  Zn19  1  0.331783  0.333278  0.331783  1
  Zn  Zn20  1  0.000107  0.666871  0.666154  1
  Zn  Zn21  1  0.668217  0.996846  0.668217  1
  Zn  Zn22  1  0.666154  0.666871  0.000107  1
  Zn  Zn23  1  0.668217  0.666722  0.668217  1
  Ir  Ir24  1  0.500000  0.000000  0.000000  1
  Ir  Ir25  1  0.500000  0.000000  0.500000  1
  Ir  Ir26  1  0.500000  0.500000  0.000000  1
  Ir  Ir27  1  0.000000  0.500000  0.500000  1
  Ir  Ir28  1  0.000000  0.000000  0.500000  1
  Se  Se29  1  0.500000  0.500000  0.500000  1
