# generated using pymatgen
data_Er8Tm2Ga3Bi2Pt
_symmetry_space_group_name_H-M   'P 1'
_cell_length_a   8.69061307
_cell_length_b   8.69061271
_cell_length_c   8.55949405
_cell_angle_alpha   124.47028306
_cell_angle_beta   124.47029317
_cell_angle_gamma   83.40332878
_symmetry_Int_Tables_number   1
_chemical_formula_structural   Er8Tm2Ga3Bi2Pt
_chemical_formula_sum   'Er8 Tm2 Ga3 Bi2 Pt1'
_cell_volume   418.83018060
_cell_formula_units_Z   1
loop_
 _symmetry_equiv_pos_site_id
 _symmetry_equiv_pos_as_xyz
  1  'x, y, z'
loop_
 _atom_site_type_symbol
 _atom_site_label
 _atom_site_symmetry_multiplicity
 _atom_site_fract_x
 _atom_site_fract_y
 _atom_site_fract_z
 _atom_site_occupancy
  Er  Er0  1  0.793855  0.293855  0.807701  1
  Er  Er1  1  0.296056  0.497559  0.511924  1
  Er  Er2  1  0.997559  0.796056  0.511924  1
  Er  Er3  1  0.715868  0.514365  0.511924  1
  Er  Er4  1  0.014365  0.215868  0.511924  1
  Er  Er5  1  0.513847  0.013847  0.807701  1
  Er  Er6  1  0.200160  0.700160  0.168575  1
  Er  Er7  1  0.468416  0.968416  0.168575  1
  Tm  Tm8  1  0.998832  0.003539  0.002371  1
  Tm  Tm9  1  0.503539  0.498832  0.002371  1
  Ga  Ga10  1  0.860411  0.360411  0.220822  1
  Ga  Ga11  1  0.354454  0.145602  0.500056  1
  Ga  Ga12  1  0.645602  0.854454  0.500056  1
  Bi  Bi13  1  0.254137  0.254137  0.008273  1
  Bi  Bi14  1  0.754137  0.754137  0.008273  1
  Pt  Pt15  1  0.128765  0.628765  0.757529  1
