# generated using pymatgen
data_Mn3InPt8
_symmetry_space_group_name_H-M   'P 1'
_cell_length_a   4.01600200
_cell_length_b   5.59427396
_cell_length_c   16.71561969
_cell_angle_alpha   88.10084896
_cell_angle_beta   90.00000000
_cell_angle_gamma   90.00000000
_symmetry_Int_Tables_number   1
_chemical_formula_structural   Mn3InPt8
_chemical_formula_sum   'Mn6 In2 Pt16'
_cell_volume   375.33711580
_cell_formula_units_Z   2
loop_
 _symmetry_equiv_pos_site_id
 _symmetry_equiv_pos_as_xyz
  1  'x, y, z'
loop_
 _atom_site_type_symbol
 _atom_site_label
 _atom_site_symmetry_multiplicity
 _atom_site_fract_x
 _atom_site_fract_y
 _atom_site_fract_z
 _atom_site_occupancy
  Mn  Mn0  1  0.500000  0.725435  0.241951  1
  Mn  Mn1  1  0.500000  0.731439  0.577189  1
  Mn  Mn2  1  0.500000  0.752515  0.916963  1
  Mn  Mn3  1  0.500000  0.247485  0.083037  1
  Mn  Mn4  1  0.500000  0.268561  0.422811  1
  Mn  Mn5  1  0.500000  0.274565  0.758049  1
  In  In6  1  0.000000  0.996694  0.332051  1
  In  In7  1  0.000000  0.003306  0.667949  1
  Pt  Pt8  1  0.000000  0.990624  0.166149  1
  Pt  Pt9  1  0.000000  0.000000  0.500000  1
  Pt  Pt10  1  0.000000  0.009376  0.833851  1
  Pt  Pt11  1  0.000000  0.500000  0.000000  1
  Pt  Pt12  1  0.000000  0.496296  0.332694  1
  Pt  Pt13  1  0.000000  0.503704  0.667306  1
  Pt  Pt14  1  0.000000  0.491317  0.165488  1
  Pt  Pt15  1  0.000000  0.500000  0.500000  1
  Pt  Pt16  1  0.000000  0.508683  0.834512  1
  Pt  Pt17  1  0.500000  0.239846  0.250223  1
  Pt  Pt18  1  0.500000  0.243222  0.586321  1
  Pt  Pt19  1  0.500000  0.250510  0.918304  1
  Pt  Pt20  1  0.500000  0.749490  0.081696  1
  Pt  Pt21  1  0.500000  0.756778  0.413679  1
  Pt  Pt22  1  0.500000  0.760154  0.749777  1
  Pt  Pt23  1  0.000000  0.000000  0.000000  1
