# generated using pymatgen
data_LiTm(PS3)2
_symmetry_space_group_name_H-M   'P 1'
_cell_length_a   14.64935389
_cell_length_b   14.64935403
_cell_length_c   14.64935400
_cell_angle_alpha   24.47532339
_cell_angle_beta   24.47532217
_cell_angle_gamma   24.47532674
_symmetry_Int_Tables_number   1
_chemical_formula_structural   LiTm(PS3)2
_chemical_formula_sum   'Li2 Tm2 P4 S12'
_cell_volume   474.42651607
_cell_formula_units_Z   2
loop_
 _symmetry_equiv_pos_site_id
 _symmetry_equiv_pos_as_xyz
  1  'x, y, z'
loop_
 _atom_site_type_symbol
 _atom_site_label
 _atom_site_symmetry_multiplicity
 _atom_site_fract_x
 _atom_site_fract_y
 _atom_site_fract_z
 _atom_site_occupancy
  Li  Li0  1  0.584564  0.584564  0.584564  1
  Li  Li1  1  0.415436  0.415436  0.415436  1
  Tm  Tm2  1  0.083467  0.083467  0.083467  1
  Tm  Tm3  1  0.916533  0.916533  0.916533  1
  P  P4  1  0.723531  0.723531  0.723531  1
  P  P5  1  0.775532  0.775532  0.775532  1
  P  P6  1  0.224468  0.224468  0.224468  1
  P  P7  1  0.276469  0.276469  0.276469  1
  S  S8  1  0.477602  0.779038  0.108957  1
  S  S9  1  0.026680  0.709683  0.395130  1
  S  S10  1  0.604870  0.973320  0.290317  1
  S  S11  1  0.709683  0.395130  0.026680  1
  S  S12  1  0.779038  0.108957  0.477602  1
  S  S13  1  0.395130  0.026680  0.709683  1
  S  S14  1  0.290317  0.604870  0.973320  1
  S  S15  1  0.108957  0.477602  0.779038  1
  S  S16  1  0.973320  0.290317  0.604870  1
  S  S17  1  0.891043  0.522398  0.220962  1
  S  S18  1  0.220962  0.891043  0.522398  1
  S  S19  1  0.522398  0.220962  0.891043  1
