# generated using pymatgen
data_Ta3Ti(VSi)4
_symmetry_space_group_name_H-M   'P 1'
_cell_length_a   3.36557200
_cell_length_b   6.59158780
_cell_length_c   7.93533703
_cell_angle_alpha   90.15507383
_cell_angle_beta   90.00000000
_cell_angle_gamma   90.00000000
_symmetry_Int_Tables_number   1
_chemical_formula_structural   Ta3Ti(VSi)4
_chemical_formula_sum   'Ta3 Ti1 V4 Si4'
_cell_volume   176.04054856
_cell_formula_units_Z   1
loop_
 _symmetry_equiv_pos_site_id
 _symmetry_equiv_pos_as_xyz
  1  'x, y, z'
loop_
 _atom_site_type_symbol
 _atom_site_label
 _atom_site_symmetry_multiplicity
 _atom_site_fract_x
 _atom_site_fract_y
 _atom_site_fract_z
 _atom_site_occupancy
  Ta  Ta0  1  0.250000  0.545664  0.166416  1
  Ta  Ta1  1  0.750000  0.452917  0.833509  1
  Ta  Ta2  1  0.750000  0.953444  0.667187  1
  Ti  Ti3  1  0.250000  0.046311  0.333517  1
  V  V4  1  0.250000  0.628886  0.560812  1
  V  V5  1  0.750000  0.372074  0.437820  1
  V  V6  1  0.750000  0.870238  0.061384  1
  V  V7  1  0.250000  0.130737  0.938152  1
  Si  Si8  1  0.250000  0.754360  0.862029  1
  Si  Si9  1  0.750000  0.241734  0.141804  1
  Si  Si10  1  0.750000  0.750278  0.361352  1
  Si  Si11  1  0.250000  0.253358  0.636018  1
