# generated using pymatgen
data_Na4HfUCl12
_symmetry_space_group_name_H-M   'P 1'
_cell_length_a   6.80901800
_cell_length_b   6.80901701
_cell_length_c   12.78868900
_cell_angle_alpha   90.00000000
_cell_angle_beta   90.00000000
_cell_angle_gamma   119.99999508
_symmetry_Int_Tables_number   1
_chemical_formula_structural   Na4HfUCl12
_chemical_formula_sum   'Na4 Hf1 U1 Cl12'
_cell_volume   513.48242189
_cell_formula_units_Z   1
loop_
 _symmetry_equiv_pos_site_id
 _symmetry_equiv_pos_as_xyz
  1  'x, y, z'
loop_
 _atom_site_type_symbol
 _atom_site_label
 _atom_site_symmetry_multiplicity
 _atom_site_fract_x
 _atom_site_fract_y
 _atom_site_fract_z
 _atom_site_occupancy
  Na  Na0  1  0.000000  0.000000  0.750000  1
  Na  Na1  1  0.666667  0.333333  0.750000  1
  Na  Na2  1  0.333333  0.666667  0.250000  1
  Na  Na3  1  0.000000  0.000000  0.250000  1
  Hf  Hf4  1  0.333333  0.666667  0.750000  1
  U  U5  1  0.666667  0.333333  0.250000  1
  Cl  Cl6  1  0.038790  0.371938  0.637723  1
  Cl  Cl7  1  0.333149  0.961210  0.637723  1
  Cl  Cl8  1  0.628062  0.666851  0.637723  1
  Cl  Cl9  1  0.628062  0.961210  0.862277  1
  Cl  Cl10  1  0.333149  0.371938  0.862277  1
  Cl  Cl11  1  0.038790  0.666851  0.862277  1
  Cl  Cl12  1  0.980807  0.332974  0.130946  1
  Cl  Cl13  1  0.352166  0.019193  0.130946  1
  Cl  Cl14  1  0.667026  0.647834  0.130946  1
  Cl  Cl15  1  0.667026  0.019193  0.369054  1
  Cl  Cl16  1  0.352166  0.332974  0.369054  1
  Cl  Cl17  1  0.980807  0.647834  0.369054  1
