# generated using pymatgen
data_Ba3SrLi2(AlGe2)2
_symmetry_space_group_name_H-M   'P 1'
_cell_length_a   8.90465034
_cell_length_b   8.89179241
_cell_length_c   8.89179280
_cell_angle_alpha   137.30481872
_cell_angle_beta   136.95872429
_cell_angle_gamma   62.21102336
_symmetry_Int_Tables_number   1
_chemical_formula_structural   Ba3SrLi2(AlGe2)2
_chemical_formula_sum   'Ba3 Sr1 Li2 Al2 Ge4'
_cell_volume   321.99041255
_cell_formula_units_Z   1
loop_
 _symmetry_equiv_pos_site_id
 _symmetry_equiv_pos_as_xyz
  1  'x, y, z'
loop_
 _atom_site_type_symbol
 _atom_site_label
 _atom_site_symmetry_multiplicity
 _atom_site_fract_x
 _atom_site_fract_y
 _atom_site_fract_z
 _atom_site_occupancy
  Ba  Ba0  1  0.902846  0.163421  0.739425  1
  Ba  Ba1  1  0.423383  0.663604  0.759780  1
  Ba  Ba2  1  0.573310  0.334838  0.238471  1
  Sr  Sr3  1  0.104233  0.846546  0.257687  1
  Li  Li4  1  0.500309  0.250738  0.752907  1
  Li  Li5  1  0.500309  0.747402  0.249572  1
  Al  Al6  1  0.997978  0.252695  0.251182  1
  Al  Al7  1  0.997978  0.746796  0.745282  1
  Ge  Ge8  1  0.670294  0.900440  0.769853  1
  Ge  Ge9  1  0.136895  0.401631  0.735262  1
  Ge  Ge10  1  0.864575  0.599518  0.265058  1
  Ge  Ge11  1  0.327890  0.092368  0.235521  1
