# generated using pymatgen
data_Sc2CuPdPt4
_symmetry_space_group_name_H-M   'P 1'
_cell_length_a   5.63072490
_cell_length_b   5.63335737
_cell_length_c   5.68506300
_cell_angle_alpha   59.66518869
_cell_angle_beta   59.70224224
_cell_angle_gamma   60.62380903
_symmetry_Int_Tables_number   1
_chemical_formula_structural   Sc2CuPdPt4
_chemical_formula_sum   'Sc2 Cu1 Pd1 Pt4'
_cell_volume   127.48074640
_cell_formula_units_Z   1
loop_
 _symmetry_equiv_pos_site_id
 _symmetry_equiv_pos_as_xyz
  1  'x, y, z'
loop_
 _atom_site_type_symbol
 _atom_site_label
 _atom_site_symmetry_multiplicity
 _atom_site_fract_x
 _atom_site_fract_y
 _atom_site_fract_z
 _atom_site_occupancy
  Sc  Sc0  1  0.000000  0.000000  0.500000  1
  Sc  Sc1  1  0.500000  0.500000  0.000000  1
  Cu  Cu2  1  0.500000  0.500000  0.500000  1
  Pd  Pd3  1  0.500000  0.000000  0.500000  1
  Pt  Pt4  1  0.000000  0.000000  0.000000  1
  Pt  Pt5  1  0.000000  0.500000  0.000000  1
  Pt  Pt6  1  0.500000  0.000000  0.000000  1
  Pt  Pt7  1  0.000000  0.500000  0.500000  1
