# generated using pymatgen
data_Cu2AsIr3S8
_symmetry_space_group_name_H-M   'P 1'
_cell_length_a   7.01833420
_cell_length_b   7.01833469
_cell_length_c   7.01833463
_cell_angle_alpha   60.86935116
_cell_angle_beta   60.86934819
_cell_angle_gamma   60.86934720
_symmetry_Int_Tables_number   1
_chemical_formula_structural   Cu2AsIr3S8
_chemical_formula_sum   'Cu2 As1 Ir3 S8'
_cell_volume   249.23939411
_cell_formula_units_Z   1
loop_
 _symmetry_equiv_pos_site_id
 _symmetry_equiv_pos_as_xyz
  1  'x, y, z'
loop_
 _atom_site_type_symbol
 _atom_site_label
 _atom_site_symmetry_multiplicity
 _atom_site_fract_x
 _atom_site_fract_y
 _atom_site_fract_z
 _atom_site_occupancy
  Cu  Cu0  1  0.999423  0.999423  0.999423  1
  Cu  Cu1  1  0.250577  0.250577  0.250577  1
  As  As2  1  0.625000  0.625000  0.625000  1
  Ir  Ir3  1  0.625000  0.625000  0.125000  1
  Ir  Ir4  1  0.125000  0.625000  0.625000  1
  Ir  Ir5  1  0.625000  0.125000  0.625000  1
  S  S6  1  0.380047  0.380047  0.844214  1
  S  S7  1  0.386008  0.386008  0.386008  1
  S  S8  1  0.863992  0.863992  0.863992  1
  S  S9  1  0.869953  0.869953  0.405786  1
  S  S10  1  0.380047  0.844214  0.380047  1
  S  S11  1  0.844214  0.380047  0.380047  1
  S  S12  1  0.405786  0.869953  0.869953  1
  S  S13  1  0.869953  0.405786  0.869953  1
