# generated using pymatgen
data_PrHo5(MoO7)2
_symmetry_space_group_name_H-M   'P 1'
_cell_length_a   6.48029199
_cell_length_b   6.48029247
_cell_length_c   7.52057681
_cell_angle_alpha   89.82580758
_cell_angle_beta   90.17419280
_cell_angle_gamma   108.89542645
_symmetry_Int_Tables_number   1
_chemical_formula_structural   PrHo5(MoO7)2
_chemical_formula_sum   'Pr1 Ho5 Mo2 O14'
_cell_volume   298.79924071
_cell_formula_units_Z   1
loop_
 _symmetry_equiv_pos_site_id
 _symmetry_equiv_pos_as_xyz
  1  'x, y, z'
loop_
 _atom_site_type_symbol
 _atom_site_label
 _atom_site_symmetry_multiplicity
 _atom_site_fract_x
 _atom_site_fract_y
 _atom_site_fract_z
 _atom_site_occupancy
  Pr  Pr0  1  0.512062  0.512062  0.500000  1
  Ho  Ho1  1  0.455549  0.455549  0.000000  1
  Ho  Ho2  1  0.000616  0.534264  0.241105  1
  Ho  Ho3  1  0.999036  0.462291  0.745730  1
  Ho  Ho4  1  0.534264  0.000616  0.758895  1
  Ho  Ho5  1  0.462291  0.999036  0.254270  1
  Mo  Mo6  1  0.999374  0.999374  0.500000  1
  Mo  Mo7  1  0.994241  0.994241  0.000000  1
  O  O8  1  0.925978  0.070596  0.748167  1
  O  O9  1  0.070596  0.925978  0.251833  1
  O  O10  1  0.360354  0.641798  0.237011  1
  O  O11  1  0.641798  0.360354  0.762989  1
  O  O12  1  0.366498  0.633235  0.762092  1
  O  O13  1  0.633235  0.366498  0.237908  1
  O  O14  1  0.326330  0.079116  0.975081  1
  O  O15  1  0.674201  0.924528  0.473426  1
  O  O16  1  0.317811  0.066274  0.536130  1
  O  O17  1  0.695381  0.960466  0.041809  1
  O  O18  1  0.066274  0.317811  0.463870  1
  O  O19  1  0.960466  0.695381  0.958191  1
  O  O20  1  0.924528  0.674201  0.526574  1
  O  O21  1  0.079116  0.326330  0.024919  1
