# generated using pymatgen
data_Lu20GeBi10Sb
_symmetry_space_group_name_H-M   'P 1'
_cell_length_a   8.04329003
_cell_length_b   9.33195700
_cell_length_c   11.73238692
_cell_angle_alpha   90.00000000
_cell_angle_beta   89.90447245
_cell_angle_gamma   90.00000000
_symmetry_Int_Tables_number   1
_chemical_formula_structural   Lu20GeBi10Sb
_chemical_formula_sum   'Lu20 Ge1 Bi10 Sb1'
_cell_volume   880.62747569
_cell_formula_units_Z   1
loop_
 _symmetry_equiv_pos_site_id
 _symmetry_equiv_pos_as_xyz
  1  'x, y, z'
loop_
 _atom_site_type_symbol
 _atom_site_label
 _atom_site_symmetry_multiplicity
 _atom_site_fract_x
 _atom_site_fract_y
 _atom_site_fract_z
 _atom_site_occupancy
  Lu  Lu0  1  0.184395  0.573614  0.444926  1
  Lu  Lu1  1  0.691874  0.936228  0.059999  1
  Lu  Lu2  1  0.809427  0.052740  0.559744  1
  Lu  Lu3  1  0.309995  0.431031  0.942399  1
  Lu  Lu4  1  0.809427  0.447260  0.559744  1
  Lu  Lu5  1  0.309995  0.068969  0.942399  1
  Lu  Lu6  1  0.184395  0.926386  0.444926  1
  Lu  Lu7  1  0.691874  0.563772  0.059999  1
  Lu  Lu8  1  0.023266  0.750000  0.989643  1
  Lu  Lu9  1  0.537320  0.750000  0.511113  1
  Lu  Lu10  1  0.973428  0.250000  0.010584  1
  Lu  Lu11  1  0.478758  0.250000  0.489968  1
  Lu  Lu12  1  0.172955  0.750000  0.708658  1
  Lu  Lu13  1  0.692732  0.750000  0.777762  1
  Lu  Lu14  1  0.810465  0.250000  0.279829  1
  Lu  Lu15  1  0.316618  0.250000  0.214240  1
  Lu  Lu16  1  0.856145  0.750000  0.292174  1
  Lu  Lu17  1  0.352932  0.750000  0.217781  1
  Lu  Lu18  1  0.147080  0.250000  0.717668  1
  Lu  Lu19  1  0.645916  0.250000  0.784589  1
  Ge  Ge20  1  0.906732  0.750000  0.538543  1
  Bi  Bi21  1  0.935412  0.496262  0.825120  1
  Bi  Bi22  1  0.434001  0.001719  0.675099  1
  Bi  Bi23  1  0.065474  0.996303  0.175643  1
  Bi  Bi24  1  0.564283  0.503237  0.324804  1
  Bi  Bi25  1  0.065474  0.503697  0.175643  1
  Bi  Bi26  1  0.564283  0.996763  0.324804  1
  Bi  Bi27  1  0.935412  0.003738  0.825120  1
  Bi  Bi28  1  0.434001  0.498281  0.675099  1
  Bi  Bi29  1  0.405102  0.750000  0.954231  1
  Bi  Bi30  1  0.094115  0.250000  0.456502  1
  Sb  Sb31  1  0.596714  0.250000  0.041252  1
