# generated using pymatgen
data_Gd6ErSc13Pb16
_symmetry_space_group_name_H-M   'P 1'
_cell_length_a   8.08697644
_cell_length_b   8.19537449
_cell_length_c   15.40969200
_cell_angle_alpha   90.02707006
_cell_angle_beta   90.31657819
_cell_angle_gamma   89.94634733
_symmetry_Int_Tables_number   1
_chemical_formula_structural   Gd6ErSc13Pb16
_chemical_formula_sum   'Gd6 Er1 Sc13 Pb16'
_cell_volume   1021.27352295
_cell_formula_units_Z   1
loop_
 _symmetry_equiv_pos_site_id
 _symmetry_equiv_pos_as_xyz
  1  'x, y, z'
loop_
 _atom_site_type_symbol
 _atom_site_label
 _atom_site_symmetry_multiplicity
 _atom_site_fract_x
 _atom_site_fract_y
 _atom_site_fract_z
 _atom_site_occupancy
  Gd  Gd0  1  0.023692  0.178659  0.596578  1
  Gd  Gd1  1  0.477567  0.678810  0.406248  1
  Gd  Gd2  1  0.975918  0.821289  0.093354  1
  Gd  Gd3  1  0.476078  0.677333  0.093014  1
  Gd  Gd4  1  0.976919  0.821425  0.405894  1
  Gd  Gd5  1  0.521185  0.320543  0.595419  1
  Er  Er6  1  0.025359  0.180644  0.904460  1
  Sc  Sc7  1  0.357516  0.846901  0.874469  1
  Sc  Sc8  1  0.856092  0.653227  0.627280  1
  Sc  Sc9  1  0.641972  0.153514  0.374180  1
  Sc  Sc10  1  0.138754  0.346484  0.123663  1
  Sc  Sc11  1  0.638524  0.155681  0.123910  1
  Sc  Sc12  1  0.142150  0.345734  0.374393  1
  Sc  Sc13  1  0.357766  0.847954  0.628317  1
  Sc  Sc14  1  0.859353  0.651736  0.874509  1
  Sc  Sc15  1  0.534553  0.319610  0.901465  1
  Sc  Sc16  1  0.190438  0.506931  0.751973  1
  Sc  Sc17  1  0.690267  0.994047  0.752116  1
  Sc  Sc18  1  0.808238  0.492851  0.248366  1
  Sc  Sc19  1  0.308482  0.007648  0.249534  1
  Pb  Pb20  1  0.298916  0.047176  0.042959  1
  Pb  Pb21  1  0.801969  0.453310  0.455540  1
  Pb  Pb22  1  0.698016  0.953821  0.545795  1
  Pb  Pb23  1  0.209003  0.535754  0.953015  1
  Pb  Pb24  1  0.699634  0.960656  0.953887  1
  Pb  Pb25  1  0.196818  0.547352  0.545804  1
  Pb  Pb26  1  0.301418  0.046013  0.456089  1
  Pb  Pb27  1  0.795195  0.451146  0.040301  1
  Pb  Pb28  1  0.548878  0.631534  0.751336  1
  Pb  Pb29  1  0.048368  0.868302  0.750845  1
  Pb  Pb30  1  0.449772  0.366865  0.249624  1
  Pb  Pb31  1  0.949970  0.133717  0.248729  1
  Pb  Pb32  1  0.337974  0.158983  0.755409  1
  Pb  Pb33  1  0.832071  0.344460  0.752128  1
  Pb  Pb34  1  0.665612  0.845876  0.249673  1
  Pb  Pb35  1  0.165562  0.654019  0.249724  1
