# generated using pymatgen
data_TaNb2Co2OsN
_symmetry_space_group_name_H-M   'P 1'
_cell_length_a   8.09166796
_cell_length_b   8.09084730
_cell_length_c   8.09084704
_cell_angle_alpha   60.00671192
_cell_angle_beta   59.99664329
_cell_angle_gamma   59.99663985
_symmetry_Int_Tables_number   1
_chemical_formula_structural   TaNb2Co2OsN
_chemical_formula_sum   'Ta4 Nb8 Co8 Os4 N4'
_cell_volume   374.55105599
_cell_formula_units_Z   4
loop_
 _symmetry_equiv_pos_site_id
 _symmetry_equiv_pos_as_xyz
  1  'x, y, z'
loop_
 _atom_site_type_symbol
 _atom_site_label
 _atom_site_symmetry_multiplicity
 _atom_site_fract_x
 _atom_site_fract_y
 _atom_site_fract_z
 _atom_site_occupancy
  Ta  Ta0  1  0.805363  0.805363  0.194637  1
  Ta  Ta1  1  0.194637  0.194637  0.805363  1
  Ta  Ta2  1  0.805363  0.194637  0.805363  1
  Ta  Ta3  1  0.194637  0.805363  0.194637  1
  Nb  Nb4  1  0.194086  0.805914  0.805914  1
  Nb  Nb5  1  0.805914  0.194086  0.194086  1
  Nb  Nb6  1  0.443640  0.443640  0.056360  1
  Nb  Nb7  1  0.056360  0.056360  0.443640  1
  Nb  Nb8  1  0.443640  0.056360  0.443640  1
  Nb  Nb9  1  0.056360  0.443640  0.056360  1
  Nb  Nb10  1  0.055766  0.444234  0.444234  1
  Nb  Nb11  1  0.444234  0.055766  0.055766  1
  Co  Co12  1  0.736242  0.421504  0.421504  1
  Co  Co13  1  0.421504  0.736242  0.420752  1
  Co  Co14  1  0.421504  0.420752  0.736242  1
  Co  Co15  1  0.420752  0.421504  0.421504  1
  Co  Co16  1  0.510639  0.830200  0.830200  1
  Co  Co17  1  0.830200  0.510639  0.828960  1
  Co  Co18  1  0.830200  0.828960  0.510639  1
  Co  Co19  1  0.828960  0.830200  0.830200  1
  Os  Os20  1  0.124896  0.624545  0.624545  1
  Os  Os21  1  0.624545  0.124896  0.626013  1
  Os  Os22  1  0.624545  0.626013  0.124896  1
  Os  Os23  1  0.626013  0.624545  0.624545  1
  N  N24  1  0.628402  0.122637  0.122637  1
  N  N25  1  0.122637  0.628402  0.126324  1
  N  N26  1  0.122637  0.126324  0.628402  1
  N  N27  1  0.126324  0.122637  0.122637  1
