# generated using pymatgen
data_Li4Al3Cu
_symmetry_space_group_name_H-M   'P 1'
_cell_length_a   4.35597369
_cell_length_b   4.38493049
_cell_length_c   7.63587462
_cell_angle_alpha   106.69908769
_cell_angle_beta   89.49107429
_cell_angle_gamma   59.81194264
_symmetry_Int_Tables_number   1
_chemical_formula_structural   Li4Al3Cu
_chemical_formula_sum   'Li4 Al3 Cu1'
_cell_volume   118.66312668
_cell_formula_units_Z   1
loop_
 _symmetry_equiv_pos_site_id
 _symmetry_equiv_pos_as_xyz
  1  'x, y, z'
loop_
 _atom_site_type_symbol
 _atom_site_label
 _atom_site_symmetry_multiplicity
 _atom_site_fract_x
 _atom_site_fract_y
 _atom_site_fract_z
 _atom_site_occupancy
  Li  Li0  1  0.798770  0.473431  0.110895  1
  Li  Li1  1  0.924153  0.224156  0.741528  1
  Li  Li2  1  0.420935  0.232431  0.248739  1
  Li  Li3  1  0.292968  0.484887  0.637496  1
  Al  Al4  1  0.053309  0.967541  0.354147  1
  Al  Al5  1  0.542209  0.987102  0.884684  1
  Al  Al6  1  0.669788  0.731355  0.499554  1
  Cu  Cu7  1  0.171523  0.727359  0.996451  1
