# generated using pymatgen
data_EuDyHo2(Si5Pt3)2
_symmetry_space_group_name_H-M   'P 1'
_cell_length_a   8.18069982
_cell_length_b   8.18287618
_cell_length_c   8.18287604
_cell_angle_alpha   136.63273231
_cell_angle_beta   104.30667819
_cell_angle_gamma   91.48948223
_symmetry_Int_Tables_number   1
_chemical_formula_structural   EuDyHo2(Si5Pt3)2
_chemical_formula_sum   'Eu1 Dy1 Ho2 Si10 Pt6'
_cell_volume   346.63391715
_cell_formula_units_Z   1
loop_
 _symmetry_equiv_pos_site_id
 _symmetry_equiv_pos_as_xyz
  1  'x, y, z'
loop_
 _atom_site_type_symbol
 _atom_site_label
 _atom_site_symmetry_multiplicity
 _atom_site_fract_x
 _atom_site_fract_y
 _atom_site_fract_z
 _atom_site_occupancy
  Eu  Eu0  1  0.361797  0.629175  0.732621  1
  Dy  Dy1  1  0.099926  0.871061  0.228864  1
  Ho  Ho2  1  0.899399  0.128804  0.770596  1
  Ho  Ho3  1  0.641378  0.371366  0.270012  1
  Si  Si4  1  0.001125  0.746230  0.746607  1
  Si  Si5  1  0.001125  0.254517  0.254895  1
  Si  Si6  1  0.271249  0.019585  0.748469  1
  Si  Si7  1  0.727879  0.479224  0.749157  1
  Si  Si8  1  0.727879  0.978722  0.248654  1
  Si  Si9  1  0.271249  0.522780  0.251663  1
  Si  Si10  1  0.760708  0.611290  0.149418  1
  Si  Si11  1  0.236310  0.386568  0.849743  1
  Si  Si12  1  0.459233  0.111596  0.347638  1
  Si  Si13  1  0.541646  0.889318  0.652328  1
  Pt  Pt14  1  0.500011  0.750287  0.252381  1
  Pt  Pt15  1  0.500011  0.247630  0.749724  1
  Pt  Pt16  1  0.021368  0.637970  0.383398  1
  Pt  Pt17  1  0.974203  0.359996  0.614206  1
  Pt  Pt18  1  0.249140  0.137472  0.111669  1
  Pt  Pt19  1  0.754366  0.866409  0.887956  1
