# generated using pymatgen
data_Sr8Dy3Y(GaO5)4
_symmetry_space_group_name_H-M   'P 1'
_cell_length_a   5.96411300
_cell_length_b   7.62884154
_cell_length_c   12.48922851
_cell_angle_alpha   91.42453757
_cell_angle_beta   90.00432217
_cell_angle_gamma   90.00071283
_symmetry_Int_Tables_number   1
_chemical_formula_structural   Sr8Dy3Y(GaO5)4
_chemical_formula_sum   'Sr8 Dy3 Y1 Ga4 O20'
_cell_volume   568.07518960
_cell_formula_units_Z   1
loop_
 _symmetry_equiv_pos_site_id
 _symmetry_equiv_pos_as_xyz
  1  'x, y, z'
loop_
 _atom_site_type_symbol
 _atom_site_label
 _atom_site_symmetry_multiplicity
 _atom_site_fract_x
 _atom_site_fract_y
 _atom_site_fract_z
 _atom_site_occupancy
  Sr  Sr0  1  0.772847  0.486326  0.330026  1
  Sr  Sr1  1  0.727135  0.986248  0.829980  1
  Sr  Sr2  1  0.227175  0.513705  0.669994  1
  Sr  Sr3  1  0.272846  0.013635  0.170025  1
  Sr  Sr4  1  0.772270  0.985558  0.367557  1
  Sr  Sr5  1  0.727688  0.485628  0.867524  1
  Sr  Sr6  1  0.227742  0.014418  0.632446  1
  Sr  Sr7  1  0.272267  0.514498  0.132487  1
  Dy  Dy8  1  0.754694  0.271151  0.619918  1
  Dy  Dy9  1  0.745311  0.771147  0.119955  1
  Dy  Dy10  1  0.245319  0.728853  0.380061  1
  Y  Y11  1  0.254590  0.228765  0.880138  1
  Ga  Ga12  1  0.719766  0.742196  0.580174  1
  Ga  Ga13  1  0.780167  0.242217  0.080248  1
  Ga  Ga14  1  0.280243  0.257805  0.419850  1
  Ga  Ga15  1  0.219715  0.757828  0.919880  1
  O  O16  1  0.789870  0.971076  0.628699  1
  O  O17  1  0.710160  0.471099  0.128698  1
  O  O18  1  0.210152  0.028890  0.371296  1
  O  O19  1  0.290016  0.529406  0.871249  1
  O  O20  1  0.716519  0.067818  0.177431  1
  O  O21  1  0.783508  0.567840  0.677434  1
  O  O22  1  0.283560  0.931776  0.822467  1
  O  O23  1  0.216506  0.432177  0.322565  1
  O  O24  1  0.541548  0.747402  0.275615  1
  O  O25  1  0.957992  0.247404  0.775535  1
  O  O26  1  0.458698  0.252589  0.724129  1
  O  O27  1  0.041551  0.752592  0.224376  1
  O  O28  1  0.597311  0.212530  0.960134  1
  O  O29  1  0.902954  0.712600  0.460086  1
  O  O30  1  0.402965  0.787435  0.039951  1
  O  O31  1  0.097069  0.287398  0.539901  1
  O  O32  1  0.089897  0.236965  0.047216  1
  O  O33  1  0.410002  0.736994  0.547041  1
  O  O34  1  0.909952  0.763026  0.952978  1
  O  O35  1  0.589996  0.263004  0.452941  1
