# generated using pymatgen
data_ThGa2CuNi2
_symmetry_space_group_name_H-M   'P 1'
_cell_length_a   8.91529000
_cell_length_b   8.91529033
_cell_length_c   4.17522600
_cell_angle_alpha   90.00000000
_cell_angle_beta   90.00000000
_cell_angle_gamma   119.99999879
_symmetry_Int_Tables_number   1
_chemical_formula_structural   ThGa2CuNi2
_chemical_formula_sum   'Th3 Ga6 Cu3 Ni6'
_cell_volume   287.39657654
_cell_formula_units_Z   3
loop_
 _symmetry_equiv_pos_site_id
 _symmetry_equiv_pos_as_xyz
  1  'x, y, z'
loop_
 _atom_site_type_symbol
 _atom_site_label
 _atom_site_symmetry_multiplicity
 _atom_site_fract_x
 _atom_site_fract_y
 _atom_site_fract_z
 _atom_site_occupancy
  Th  Th0  1  0.333333  0.666667  0.500000  1
  Th  Th1  1  0.666667  0.333333  0.500000  1
  Th  Th2  1  0.000000  0.000000  0.000000  1
  Ga  Ga3  1  0.479735  0.000000  0.000000  1
  Ga  Ga4  1  0.000000  0.479735  0.000000  1
  Ga  Ga5  1  0.520265  0.520265  0.000000  1
  Ga  Ga6  1  0.716910  0.000000  0.500000  1
  Ga  Ga7  1  0.000000  0.716910  0.500000  1
  Ga  Ga8  1  0.283090  0.283090  0.500000  1
  Cu  Cu9  1  0.291155  0.000000  0.500000  1
  Cu  Cu10  1  0.000000  0.291155  0.500000  1
  Cu  Cu11  1  0.708845  0.708845  0.500000  1
  Ni  Ni12  1  0.199819  0.371194  0.000000  1
  Ni  Ni13  1  0.628806  0.828625  0.000000  1
  Ni  Ni14  1  0.171375  0.800181  0.000000  1
  Ni  Ni15  1  0.828625  0.628806  0.000000  1
  Ni  Ni16  1  0.800181  0.171375  0.000000  1
  Ni  Ni17  1  0.371194  0.199819  0.000000  1
