# generated using pymatgen
data_Rb4Na2ScInSb4
_symmetry_space_group_name_H-M   'P 1'
_cell_length_a   9.94393632
_cell_length_b   9.94274881
_cell_length_c   9.94244842
_cell_angle_alpha   136.53907300
_cell_angle_beta   62.39612549
_cell_angle_gamma   137.52408207
_symmetry_Int_Tables_number   1
_chemical_formula_structural   Rb4Na2ScInSb4
_chemical_formula_sum   'Rb4 Na2 Sc1 In1 Sb4'
_cell_volume   451.08803152
_cell_formula_units_Z   1
loop_
 _symmetry_equiv_pos_site_id
 _symmetry_equiv_pos_as_xyz
  1  'x, y, z'
loop_
 _atom_site_type_symbol
 _atom_site_label
 _atom_site_symmetry_multiplicity
 _atom_site_fract_x
 _atom_site_fract_y
 _atom_site_fract_z
 _atom_site_occupancy
  Rb  Rb0  1  0.831513  0.239544  0.060946  1
  Rb  Rb1  1  0.668458  0.729465  0.407963  1
  Rb  Rb2  1  0.321464  0.260649  0.592122  1
  Rb  Rb3  1  0.178544  0.770754  0.939156  1
  Na  Na4  1  0.250005  0.250136  0.000036  1
  Na  Na5  1  0.749993  0.750109  0.000010  1
  Sc  Sc6  1  0.750248  0.249241  0.499687  1
  In  In7  1  0.249691  0.749890  0.500055  1
  Sb  Sb8  1  0.405090  0.785676  0.183478  1
  Sb  Sb9  1  0.095029  0.278451  0.380496  1
  Sb  Sb10  1  0.897825  0.714376  0.619483  1
  Sb  Sb11  1  0.602140  0.221710  0.816573  1
