# generated using pymatgen
data_Dy19Y(Ag3Ru)2
_symmetry_space_group_name_H-M   'P 1'
_cell_length_a   9.49922300
_cell_length_b   9.49953110
_cell_length_c   9.66147500
_cell_angle_alpha   90.00000000
_cell_angle_beta   90.00000000
_cell_angle_gamma   120.00107675
_symmetry_Int_Tables_number   1
_chemical_formula_structural   Dy19Y(Ag3Ru)2
_chemical_formula_sum   'Dy19 Y1 Ag6 Ru2'
_cell_volume   755.02199953
_cell_formula_units_Z   1
loop_
 _symmetry_equiv_pos_site_id
 _symmetry_equiv_pos_as_xyz
  1  'x, y, z'
loop_
 _atom_site_type_symbol
 _atom_site_label
 _atom_site_symmetry_multiplicity
 _atom_site_fract_x
 _atom_site_fract_y
 _atom_site_fract_z
 _atom_site_occupancy
  Dy  Dy0  1  0.999958  0.999979  0.500000  1
  Dy  Dy1  1  0.999958  0.999979  0.000000  1
  Dy  Dy2  1  0.209029  0.791278  0.440827  1
  Dy  Dy3  1  0.209029  0.417751  0.440827  1
  Dy  Dy4  1  0.582044  0.791022  0.440973  1
  Dy  Dy5  1  0.790954  0.208771  0.558894  1
  Dy  Dy6  1  0.790954  0.582182  0.558894  1
  Dy  Dy7  1  0.417789  0.208894  0.558964  1
  Dy  Dy8  1  0.790954  0.208771  0.941106  1
  Dy  Dy9  1  0.790954  0.582182  0.941106  1
  Dy  Dy10  1  0.417789  0.208894  0.941036  1
  Dy  Dy11  1  0.209029  0.791278  0.059173  1
  Dy  Dy12  1  0.209029  0.417751  0.059173  1
  Dy  Dy13  1  0.582044  0.791022  0.059027  1
  Dy  Dy14  1  0.541466  0.458626  0.250000  1
  Dy  Dy15  1  0.541466  0.082839  0.250000  1
  Dy  Dy16  1  0.917361  0.458680  0.250000  1
  Dy  Dy17  1  0.458872  0.541314  0.750000  1
  Dy  Dy18  1  0.458872  0.917559  0.750000  1
  Y  Y19  1  0.082973  0.541487  0.750000  1
  Ag  Ag20  1  0.883526  0.116383  0.250000  1
  Ag  Ag21  1  0.883526  0.767145  0.250000  1
  Ag  Ag22  1  0.232790  0.116396  0.250000  1
  Ag  Ag23  1  0.116435  0.884039  0.750000  1
  Ag  Ag24  1  0.116435  0.232394  0.750000  1
  Ag  Ag25  1  0.767142  0.883570  0.750000  1
  Ru  Ru26  1  0.333287  0.666644  0.250000  1
  Ru  Ru27  1  0.666337  0.333168  0.750000  1
