# generated using pymatgen
data_U2TcB8Ru
_symmetry_space_group_name_H-M   'P 1'
_cell_length_a   5.93893401
_cell_length_b   5.93893391
_cell_length_c   3.56470000
_cell_angle_alpha   90.00000000
_cell_angle_beta   90.00000000
_cell_angle_gamma   104.11050425
_symmetry_Int_Tables_number   1
_chemical_formula_structural   U2TcB8Ru
_chemical_formula_sum   'U2 Tc1 B8 Ru1'
_cell_volume   121.93668947
_cell_formula_units_Z   1
loop_
 _symmetry_equiv_pos_site_id
 _symmetry_equiv_pos_as_xyz
  1  'x, y, z'
loop_
 _atom_site_type_symbol
 _atom_site_label
 _atom_site_symmetry_multiplicity
 _atom_site_fract_x
 _atom_site_fract_y
 _atom_site_fract_z
 _atom_site_occupancy
  U  U0  1  0.299252  0.699603  0.000000  1
  U  U1  1  0.699603  0.299252  0.000000  1
  Tc  Tc2  1  0.185434  0.185434  0.000000  1
  B  B3  1  0.384566  0.064714  0.500000  1
  B  B4  1  0.616443  0.935425  0.500000  1
  B  B5  1  0.064714  0.384566  0.500000  1
  B  B6  1  0.935425  0.616443  0.500000  1
  B  B7  1  0.380461  0.380461  0.500000  1
  B  B8  1  0.620449  0.620449  0.500000  1
  B  B9  1  0.094159  0.908277  0.500000  1
  B  B10  1  0.908277  0.094159  0.500000  1
  Ru  Ru11  1  0.811217  0.811217  0.000000  1
