# generated using pymatgen
data_TbDy9Se10
_symmetry_space_group_name_H-M   'P 1'
_cell_length_a   7.04128272
_cell_length_b   8.10069194
_cell_length_c   9.17705791
_cell_angle_alpha   103.26389989
_cell_angle_beta   96.82649082
_cell_angle_gamma   106.68019481
_symmetry_Int_Tables_number   1
_chemical_formula_structural   TbDy9Se10
_chemical_formula_sum   'Tb1 Dy9 Se10'
_cell_volume   478.37644055
_cell_formula_units_Z   1
loop_
 _symmetry_equiv_pos_site_id
 _symmetry_equiv_pos_as_xyz
  1  'x, y, z'
loop_
 _atom_site_type_symbol
 _atom_site_label
 _atom_site_symmetry_multiplicity
 _atom_site_fract_x
 _atom_site_fract_y
 _atom_site_fract_z
 _atom_site_occupancy
  Tb  Tb0  1  0.000000  0.500000  0.000000  1
  Dy  Dy1  1  0.799779  0.600007  0.599576  1
  Dy  Dy2  1  0.599283  0.199683  0.200915  1
  Dy  Dy3  1  0.400717  0.800317  0.799085  1
  Dy  Dy4  1  0.600182  0.701223  0.201355  1
  Dy  Dy5  1  0.200221  0.399993  0.400424  1
  Dy  Dy6  1  0.399818  0.298777  0.798645  1
  Dy  Dy7  1  0.000000  0.000000  0.000000  1
  Dy  Dy8  1  0.201296  0.900743  0.401198  1
  Dy  Dy9  1  0.798704  0.099257  0.598802  1
  Se  Se10  1  0.698475  0.649866  0.900058  1
  Se  Se11  1  0.500258  0.250564  0.500023  1
  Se  Se12  1  0.699361  0.149264  0.900025  1
  Se  Se13  1  0.300639  0.850736  0.099975  1
  Se  Se14  1  0.499742  0.749436  0.499977  1
  Se  Se15  1  0.099803  0.449789  0.699369  1
  Se  Se16  1  0.301525  0.350134  0.099942  1
  Se  Se17  1  0.901148  0.050158  0.299857  1
  Se  Se18  1  0.098852  0.949842  0.700143  1
  Se  Se19  1  0.900197  0.550211  0.300631  1
