# generated using pymatgen
data_Dy3Ho3(SbO7)2
_symmetry_space_group_name_H-M   'P 1'
_cell_length_a   6.46591559
_cell_length_b   6.46232354
_cell_length_c   7.50421301
_cell_angle_alpha   90.00504384
_cell_angle_beta   90.00270585
_cell_angle_gamma   109.27555142
_symmetry_Int_Tables_number   1
_chemical_formula_structural   Dy3Ho3(SbO7)2
_chemical_formula_sum   'Dy3 Ho3 Sb2 O14'
_cell_volume   295.98461804
_cell_formula_units_Z   1
loop_
 _symmetry_equiv_pos_site_id
 _symmetry_equiv_pos_as_xyz
  1  'x, y, z'
loop_
 _atom_site_type_symbol
 _atom_site_label
 _atom_site_symmetry_multiplicity
 _atom_site_fract_x
 _atom_site_fract_y
 _atom_site_fract_z
 _atom_site_occupancy
  Dy  Dy0  1  0.468129  0.999858  0.252601  1
  Dy  Dy1  1  0.512743  0.512764  0.500205  1
  Dy  Dy2  1  0.487811  0.488148  0.999823  1
  Ho  Ho3  1  0.999594  0.468304  0.747416  1
  Ho  Ho4  1  0.000496  0.531580  0.247409  1
  Ho  Ho5  1  0.531762  0.000541  0.752594  1
  Sb  Sb6  1  0.999677  0.999613  0.500266  1
  Sb  Sb7  1  0.000316  0.000245  0.999725  1
  O  O8  1  0.638651  0.361719  0.749971  1
  O  O9  1  0.361415  0.637121  0.250054  1
  O  O10  1  0.928837  0.071638  0.749999  1
  O  O11  1  0.070456  0.928558  0.250005  1
  O  O12  1  0.922989  0.674957  0.528208  1
  O  O13  1  0.077078  0.324841  0.028163  1
  O  O14  1  0.324869  0.077947  0.971250  1
  O  O15  1  0.674843  0.921506  0.472858  1
  O  O16  1  0.369172  0.630690  0.750005  1
  O  O17  1  0.631537  0.370910  0.249893  1
  O  O18  1  0.935286  0.680613  0.966976  1
  O  O19  1  0.064684  0.319124  0.466995  1
  O  O20  1  0.319192  0.065678  0.533606  1
  O  O21  1  0.680464  0.933644  0.031979  1
