# generated using pymatgen
data_Nd3Y3Co16(P6W)2
_symmetry_space_group_name_H-M   'P 1'
_cell_length_a   3.77450900
_cell_length_b   10.67279966
_cell_length_c   12.40289340
_cell_angle_alpha   90.08753877
_cell_angle_beta   90.00000000
_cell_angle_gamma   90.00000000
_symmetry_Int_Tables_number   1
_chemical_formula_structural   Nd3Y3Co16(P6W)2
_chemical_formula_sum   'Nd3 Y3 Co16 P12 W2'
_cell_volume   499.64474795
_cell_formula_units_Z   1
loop_
 _symmetry_equiv_pos_site_id
 _symmetry_equiv_pos_as_xyz
  1  'x, y, z'
loop_
 _atom_site_type_symbol
 _atom_site_label
 _atom_site_symmetry_multiplicity
 _atom_site_fract_x
 _atom_site_fract_y
 _atom_site_fract_z
 _atom_site_occupancy
  Nd  Nd0  1  0.000000  0.499518  0.524492  1
  Nd  Nd1  1  0.500000  0.000587  0.476626  1
  Nd  Nd2  1  0.500000  0.819669  0.204800  1
  Y  Y3  1  0.500000  0.182063  0.203288  1
  Y  Y4  1  0.000000  0.680723  0.796661  1
  Y  Y5  1  0.000000  0.318977  0.795418  1
  Co  Co6  1  0.500000  0.499352  0.704081  1
  Co  Co7  1  0.000000  0.002812  0.296384  1
  Co  Co8  1  0.000000  0.498644  0.986279  1
  Co  Co9  1  0.500000  0.001824  0.011297  1
  Co  Co10  1  0.500000  0.332453  0.989729  1
  Co  Co11  1  0.500000  0.666062  0.989607  1
  Co  Co12  1  0.000000  0.168780  0.008142  1
  Co  Co13  1  0.000000  0.832964  0.007189  1
  Co  Co14  1  0.500000  0.295190  0.429972  1
  Co  Co15  1  0.500000  0.704324  0.432619  1
  Co  Co16  1  0.000000  0.205042  0.570081  1
  Co  Co17  1  0.000000  0.795181  0.572396  1
  Co  Co18  1  0.500000  0.878845  0.711801  1
  Co  Co19  1  0.500000  0.120736  0.710314  1
  Co  Co20  1  0.000000  0.618799  0.290845  1
  Co  Co21  1  0.000000  0.378546  0.288974  1
  P  P22  1  0.500000  0.499135  0.881452  1
  P  P23  1  0.000000  0.002896  0.115695  1
  P  P24  1  0.500000  0.500090  0.345018  1
  P  P25  1  0.000000  0.999702  0.655084  1
  P  P26  1  0.500000  0.307733  0.616781  1
  P  P27  1  0.500000  0.691497  0.618662  1
  P  P28  1  0.000000  0.192850  0.382937  1
  P  P29  1  0.000000  0.806775  0.387026  1
  P  P30  1  0.500000  0.844612  0.894541  1
  P  P31  1  0.500000  0.156120  0.893120  1
  P  P32  1  0.000000  0.653223  0.103956  1
  P  P33  1  0.000000  0.344707  0.105428  1
  W  W34  1  0.500000  0.498921  0.153209  1
  W  W35  1  0.000000  0.000650  0.846094  1
