# generated using pymatgen
data_Ta6Ti5Nb3P8
_symmetry_space_group_name_H-M   'P 1'
_cell_length_a   7.58819150
_cell_length_b   7.58819111
_cell_length_c   13.78246987
_cell_angle_alpha   76.35425090
_cell_angle_beta   76.35425120
_cell_angle_gamma   26.08544509
_symmetry_Int_Tables_number   1
_chemical_formula_structural   Ta6Ti5Nb3P8
_chemical_formula_sum   'Ta6 Ti5 Nb3 P8'
_cell_volume   338.56953103
_cell_formula_units_Z   1
loop_
 _symmetry_equiv_pos_site_id
 _symmetry_equiv_pos_as_xyz
  1  'x, y, z'
loop_
 _atom_site_type_symbol
 _atom_site_label
 _atom_site_symmetry_multiplicity
 _atom_site_fract_x
 _atom_site_fract_y
 _atom_site_fract_z
 _atom_site_occupancy
  Ta  Ta0  1  0.664250  0.664250  0.028943  1
  Ta  Ta1  1  0.335784  0.335784  0.970981  1
  Ta  Ta2  1  0.999582  0.999582  0.665175  1
  Ta  Ta3  1  0.000923  0.000923  0.334751  1
  Ta  Ta4  1  0.823240  0.823240  0.542219  1
  Ta  Ta5  1  0.999740  0.999740  0.000196  1
  Ti  Ti6  1  0.178235  0.178235  0.458172  1
  Ti  Ti7  1  0.208092  0.208092  0.202573  1
  Ti  Ti8  1  0.791218  0.791218  0.797323  1
  Ti  Ti9  1  0.197130  0.197130  0.691227  1
  Ti  Ti10  1  0.802136  0.802136  0.309086  1
  Nb  Nb11  1  0.427964  0.427964  0.173722  1
  Nb  Nb12  1  0.571414  0.571414  0.826863  1
  Nb  Nb13  1  0.500420  0.500420  0.499805  1
  P  P14  1  0.065374  0.065374  0.151427  1
  P  P15  1  0.934438  0.934438  0.848538  1
  P  P16  1  0.368843  0.368843  0.665448  1
  P  P17  1  0.631472  0.631472  0.336350  1
  P  P18  1  0.368110  0.368110  0.396435  1
  P  P19  1  0.632060  0.632060  0.600448  1
  P  P20  1  0.179200  0.179200  0.886409  1
  P  P21  1  0.820375  0.820375  0.113910  1
