# generated using pymatgen
data_Tb6Ho10Cd3NiAgIr3
_symmetry_space_group_name_H-M   'P 1'
_cell_length_a   9.58829654
_cell_length_b   9.58829680
_cell_length_c   9.58829700
_cell_angle_alpha   60.29087598
_cell_angle_beta   60.29088886
_cell_angle_gamma   60.29088127
_symmetry_Int_Tables_number   1
_chemical_formula_structural   Tb6Ho10Cd3NiAgIr3
_chemical_formula_sum   'Tb6 Ho10 Cd3 Ni1 Ag1 Ir3'
_cell_volume   627.42081107
_cell_formula_units_Z   1
loop_
 _symmetry_equiv_pos_site_id
 _symmetry_equiv_pos_as_xyz
  1  'x, y, z'
loop_
 _atom_site_type_symbol
 _atom_site_label
 _atom_site_symmetry_multiplicity
 _atom_site_fract_x
 _atom_site_fract_y
 _atom_site_fract_z
 _atom_site_occupancy
  Tb  Tb0  1  0.186614  0.811022  0.811022  1
  Tb  Tb1  1  0.813961  0.187247  0.187247  1
  Tb  Tb2  1  0.811022  0.186614  0.811022  1
  Tb  Tb3  1  0.187247  0.813961  0.187247  1
  Tb  Tb4  1  0.811022  0.811022  0.186614  1
  Tb  Tb5  1  0.187247  0.187247  0.813961  1
  Ho  Ho6  1  0.598341  0.598341  0.598341  1
  Ho  Ho7  1  0.597766  0.597766  0.203993  1
  Ho  Ho8  1  0.597766  0.203993  0.597766  1
  Ho  Ho9  1  0.203993  0.597766  0.597766  1
  Ho  Ho10  1  0.062449  0.439108  0.439108  1
  Ho  Ho11  1  0.437396  0.061149  0.061149  1
  Ho  Ho12  1  0.439108  0.062449  0.439108  1
  Ho  Ho13  1  0.061149  0.437396  0.061149  1
  Ho  Ho14  1  0.439108  0.439108  0.062449  1
  Ho  Ho15  1  0.061149  0.061149  0.437396  1
  Cd  Cd16  1  0.831619  0.831619  0.508568  1
  Cd  Cd17  1  0.831619  0.508568  0.831619  1
  Cd  Cd18  1  0.508568  0.831619  0.831619  1
  Ni  Ni19  1  0.391875  0.391875  0.391875  1
  Ag  Ag20  1  0.831861  0.831861  0.831861  1
  Ir  Ir21  1  0.392123  0.392123  0.824875  1
  Ir  Ir22  1  0.392123  0.824875  0.392123  1
  Ir  Ir23  1  0.824875  0.392123  0.392123  1
