# generated using pymatgen
data_PrNd15(CdPd)4
_symmetry_space_group_name_H-M   'P 1'
_cell_length_a   10.05367648
_cell_length_b   10.05364562
_cell_length_c   10.04167600
_cell_angle_alpha   60.03957037
_cell_angle_beta   60.03927519
_cell_angle_gamma   60.04932573
_symmetry_Int_Tables_number   1
_chemical_formula_structural   PrNd15(CdPd)4
_chemical_formula_sum   'Pr1 Nd15 Cd4 Pd4'
_cell_volume   718.38960750
_cell_formula_units_Z   1
loop_
 _symmetry_equiv_pos_site_id
 _symmetry_equiv_pos_as_xyz
  1  'x, y, z'
loop_
 _atom_site_type_symbol
 _atom_site_label
 _atom_site_symmetry_multiplicity
 _atom_site_fract_x
 _atom_site_fract_y
 _atom_site_fract_z
 _atom_site_occupancy
  Pr  Pr0  1  0.935024  0.935024  0.564976  1
  Nd  Nd1  1  0.350817  0.350819  0.351153  1
  Nd  Nd2  1  0.350819  0.350817  0.947212  1
  Nd  Nd3  1  0.352157  0.944314  0.351766  1
  Nd  Nd4  1  0.944314  0.352157  0.351765  1
  Nd  Nd5  1  0.808110  0.192459  0.192778  1
  Nd  Nd6  1  0.192459  0.808110  0.806653  1
  Nd  Nd7  1  0.192461  0.808108  0.192777  1
  Nd  Nd8  1  0.808108  0.192461  0.806653  1
  Nd  Nd9  1  0.192430  0.192430  0.807570  1
  Nd  Nd10  1  0.807292  0.807292  0.192708  1
  Nd  Nd11  1  0.936798  0.563408  0.565861  1
  Nd  Nd12  1  0.563408  0.936798  0.933933  1
  Nd  Nd13  1  0.563408  0.936800  0.565861  1
  Nd  Nd14  1  0.936800  0.563408  0.933931  1
  Nd  Nd15  1  0.564756  0.564756  0.935244  1
  Cd  Cd16  1  0.580272  0.580272  0.580254  1
  Cd  Cd17  1  0.580272  0.580272  0.259200  1
  Cd  Cd18  1  0.580006  0.259157  0.580418  1
  Cd  Cd19  1  0.259157  0.580006  0.580418  1
  Pd  Pd20  1  0.143800  0.143799  0.143225  1
  Pd  Pd21  1  0.143799  0.143800  0.569175  1
  Pd  Pd22  1  0.143316  0.570214  0.143237  1
  Pd  Pd23  1  0.570214  0.143316  0.143235  1
