# generated using pymatgen
data_Pr2Re2TcB6
_symmetry_space_group_name_H-M   'P 1'
_cell_length_a   6.32294786
_cell_length_b   6.32294753
_cell_length_c   7.67570177
_cell_angle_alpha   89.37015861
_cell_angle_beta   89.37015733
_cell_angle_gamma   114.53779940
_symmetry_Int_Tables_number   1
_chemical_formula_structural   Pr2Re2TcB6
_chemical_formula_sum   'Pr4 Re4 Tc2 B12'
_cell_volume   279.09992655
_cell_formula_units_Z   2
loop_
 _symmetry_equiv_pos_site_id
 _symmetry_equiv_pos_as_xyz
  1  'x, y, z'
loop_
 _atom_site_type_symbol
 _atom_site_label
 _atom_site_symmetry_multiplicity
 _atom_site_fract_x
 _atom_site_fract_y
 _atom_site_fract_z
 _atom_site_occupancy
  Pr  Pr0  1  0.906460  0.558632  0.326430  1
  Pr  Pr1  1  0.441368  0.093540  0.173570  1
  Pr  Pr2  1  0.093540  0.441368  0.673570  1
  Pr  Pr3  1  0.558632  0.906460  0.826430  1
  Re  Re4  1  0.010406  0.195712  0.088266  1
  Re  Re5  1  0.804288  0.989594  0.411734  1
  Re  Re6  1  0.989594  0.804288  0.911734  1
  Re  Re7  1  0.195712  0.010406  0.588266  1
  Tc  Tc8  1  0.416612  0.583388  0.250000  1
  Tc  Tc9  1  0.583388  0.416612  0.750000  1
  B  B10  1  0.758592  0.846647  0.132414  1
  B  B11  1  0.153353  0.241408  0.367586  1
  B  B12  1  0.241408  0.153353  0.867586  1
  B  B13  1  0.846647  0.758592  0.632414  1
  B  B14  1  0.416934  0.843321  0.481914  1
  B  B15  1  0.156679  0.583066  0.018086  1
  B  B16  1  0.583066  0.156679  0.518086  1
  B  B17  1  0.843321  0.416934  0.981914  1
  B  B18  1  0.559677  0.650421  0.532249  1
  B  B19  1  0.349579  0.440323  0.967751  1
  B  B20  1  0.440323  0.349579  0.467751  1
  B  B21  1  0.650421  0.559677  0.032249  1
