# generated using pymatgen
data_Mn2Tl(Sb6Pt)2
_symmetry_space_group_name_H-M   'P 1'
_cell_length_a   8.17174010
_cell_length_b   8.11552644
_cell_length_c   8.11541000
_cell_angle_alpha   109.29558443
_cell_angle_beta   109.41277543
_cell_angle_gamma   109.42270398
_symmetry_Int_Tables_number   1
_chemical_formula_structural   Mn2Tl(Sb6Pt)2
_chemical_formula_sum   'Mn2 Tl1 Sb12 Pt2'
_cell_volume   415.74285130
_cell_formula_units_Z   1
loop_
 _symmetry_equiv_pos_site_id
 _symmetry_equiv_pos_as_xyz
  1  'x, y, z'
loop_
 _atom_site_type_symbol
 _atom_site_label
 _atom_site_symmetry_multiplicity
 _atom_site_fract_x
 _atom_site_fract_y
 _atom_site_fract_z
 _atom_site_occupancy
  Mn  Mn0  1  0.500000  0.000000  0.000000  1
  Mn  Mn1  1  0.500000  0.500000  0.500000  1
  Tl  Tl2  1  0.000000  0.000000  0.000000  1
  Sb  Sb3  1  0.348419  0.184800  0.850718  1
  Sb  Sb4  1  0.651581  0.815200  0.149282  1
  Sb  Sb5  1  0.651106  0.503692  0.831906  1
  Sb  Sb6  1  0.348894  0.496308  0.168094  1
  Sb  Sb7  1  0.195748  0.848509  0.347528  1
  Sb  Sb8  1  0.804252  0.151491  0.652472  1
  Sb  Sb9  1  0.506723  0.834662  0.665311  1
  Sb  Sb10  1  0.493277  0.165338  0.334689  1
  Sb  Sb11  1  0.836381  0.332873  0.184783  1
  Sb  Sb12  1  0.163619  0.667127  0.815217  1
  Sb  Sb13  1  0.831948  0.651173  0.504781  1
  Sb  Sb14  1  0.168052  0.348827  0.495219  1
  Pt  Pt15  1  0.000000  0.000000  0.500000  1
  Pt  Pt16  1  0.000000  0.500000  0.000000  1
