# generated using pymatgen
data_Sc6Co15Si7Ir
_symmetry_space_group_name_H-M   'P 1'
_cell_length_a   8.08239550
_cell_length_b   8.08160432
_cell_length_c   8.11614006
_cell_angle_alpha   60.14870964
_cell_angle_beta   60.14522906
_cell_angle_gamma   60.00649427
_symmetry_Int_Tables_number   1
_chemical_formula_structural   Sc6Co15Si7Ir
_chemical_formula_sum   'Sc6 Co15 Si7 Ir1'
_cell_volume   375.71178427
_cell_formula_units_Z   1
loop_
 _symmetry_equiv_pos_site_id
 _symmetry_equiv_pos_as_xyz
  1  'x, y, z'
loop_
 _atom_site_type_symbol
 _atom_site_label
 _atom_site_symmetry_multiplicity
 _atom_site_fract_x
 _atom_site_fract_y
 _atom_site_fract_z
 _atom_site_occupancy
  Sc  Sc0  1  0.212971  0.788707  0.785448  1
  Sc  Sc1  1  0.790183  0.790170  0.213318  1
  Sc  Sc2  1  0.790092  0.206430  0.213291  1
  Sc  Sc3  1  0.212924  0.212926  0.785402  1
  Sc  Sc4  1  0.788751  0.212909  0.785521  1
  Sc  Sc5  1  0.206428  0.790069  0.213326  1
  Co  Co6  1  0.172981  0.479996  0.174036  1
  Co  Co7  1  0.860911  0.378214  0.382682  1
  Co  Co8  1  0.519040  0.829184  0.822566  1
  Co  Co9  1  0.479813  0.173053  0.174096  1
  Co  Co10  1  0.826435  0.826440  0.520661  1
  Co  Co11  1  0.173872  0.173881  0.478388  1
  Co  Co12  1  0.138452  0.620315  0.620858  1
  Co  Co13  1  0.172997  0.173019  0.174051  1
  Co  Co14  1  0.379023  0.379071  0.862861  1
  Co  Co15  1  0.620386  0.620336  0.620882  1
  Co  Co16  1  0.378214  0.860799  0.382738  1
  Co  Co17  1  0.378216  0.378277  0.382716  1
  Co  Co18  1  0.829168  0.829162  0.822541  1
  Co  Co19  1  0.620331  0.138484  0.620838  1
  Co  Co20  1  0.829195  0.518982  0.822608  1
  Si  Si21  1  0.499771  0.000776  0.498781  1
  Si  Si22  1  0.498992  0.499066  0.995874  1
  Si  Si23  1  0.495722  0.495823  0.512426  1
  Si  Si24  1  0.000794  0.000776  0.498666  1
  Si  Si25  1  0.006181  0.498948  0.995878  1
  Si  Si26  1  0.000837  0.499726  0.498718  1
  Si  Si27  1  0.498960  0.006141  0.995828  1
  Ir  Ir28  1  0.618360  0.618321  0.144997  1
