# generated using pymatgen
data_Pr4B20IrRh
_symmetry_space_group_name_H-M   'P 1'
_cell_length_a   4.23249400
_cell_length_b   5.77247657
_cell_length_c   11.49285912
_cell_angle_alpha   90.05067073
_cell_angle_beta   90.00000000
_cell_angle_gamma   90.00000000
_symmetry_Int_Tables_number   1
_chemical_formula_structural   Pr4B20IrRh
_chemical_formula_sum   'Pr4 B20 Ir1 Rh1'
_cell_volume   280.79310737
_cell_formula_units_Z   1
loop_
 _symmetry_equiv_pos_site_id
 _symmetry_equiv_pos_as_xyz
  1  'x, y, z'
loop_
 _atom_site_type_symbol
 _atom_site_label
 _atom_site_symmetry_multiplicity
 _atom_site_fract_x
 _atom_site_fract_y
 _atom_site_fract_z
 _atom_site_occupancy
  Pr  Pr0  1  0.500000  0.204157  0.365812  1
  Pr  Pr1  1  0.500000  0.795843  0.634188  1
  Pr  Pr2  1  0.500000  0.293970  0.864792  1
  Pr  Pr3  1  0.500000  0.706030  0.135208  1
  B  B4  1  0.000000  0.380508  0.043003  1
  B  B5  1  0.000000  0.619492  0.956997  1
  B  B6  1  0.000000  0.118680  0.543444  1
  B  B7  1  0.000000  0.881320  0.456556  1
  B  B8  1  0.000000  0.361561  0.197136  1
  B  B9  1  0.000000  0.638439  0.802864  1
  B  B10  1  0.000000  0.138108  0.696857  1
  B  B11  1  0.000000  0.861892  0.303143  1
  B  B12  1  0.000000  0.055918  0.192758  1
  B  B13  1  0.000000  0.944082  0.807242  1
  B  B14  1  0.000000  0.443506  0.692748  1
  B  B15  1  0.000000  0.556494  0.307252  1
  B  B16  1  0.299901  0.218425  0.118272  1
  B  B17  1  0.700099  0.781575  0.881728  1
  B  B18  1  0.299901  0.781575  0.881728  1
  B  B19  1  0.699903  0.281897  0.618538  1
  B  B20  1  0.700099  0.218425  0.118272  1
  B  B21  1  0.300097  0.718103  0.381462  1
  B  B22  1  0.699903  0.718103  0.381462  1
  B  B23  1  0.300097  0.281897  0.618538  1
  Ir  Ir24  1  0.000000  0.000000  0.000000  1
  Rh  Rh25  1  0.000000  0.500000  0.500000  1
