# generated using pymatgen
data_CsTiPSe5
_symmetry_space_group_name_H-M   'P 1'
_cell_length_a   10.60819035
_cell_length_b   10.60818998
_cell_length_c   17.40396313
_cell_angle_alpha   60.14280239
_cell_angle_beta   60.14280342
_cell_angle_gamma   41.72376587
_symmetry_Int_Tables_number   1
_chemical_formula_structural   CsTiPSe5
_chemical_formula_sum   'Cs4 Ti4 P4 Se20'
_cell_volume   1103.08661773
_cell_formula_units_Z   4
loop_
 _symmetry_equiv_pos_site_id
 _symmetry_equiv_pos_as_xyz
  1  'x, y, z'
loop_
 _atom_site_type_symbol
 _atom_site_label
 _atom_site_symmetry_multiplicity
 _atom_site_fract_x
 _atom_site_fract_y
 _atom_site_fract_z
 _atom_site_occupancy
  Cs  Cs0  1  0.665470  0.665470  0.136473  1
  Cs  Cs1  1  0.701494  0.701494  0.641193  1
  Cs  Cs2  1  0.298506  0.298506  0.358807  1
  Cs  Cs3  1  0.334530  0.334530  0.863527  1
  Ti  Ti4  1  0.724112  0.275888  0.000000  1
  Ti  Ti5  1  0.275888  0.724112  0.000000  1
  Ti  Ti6  1  0.778390  0.221610  0.500000  1
  Ti  Ti7  1  0.221610  0.778390  0.500000  1
  P  P8  1  0.333869  0.333869  0.593860  1
  P  P9  1  0.074896  0.074896  0.098326  1
  P  P10  1  0.925104  0.925104  0.901674  1
  P  P11  1  0.666131  0.666131  0.406140  1
  Se  Se12  1  0.173414  0.173414  0.117168  1
  Se  Se13  1  0.601301  0.124612  0.648361  1
  Se  Se14  1  0.124612  0.601301  0.648361  1
  Se  Se15  1  0.979543  0.979543  0.411698  1
  Se  Se16  1  0.441175  0.441175  0.448897  1
  Se  Se17  1  0.105609  0.105609  0.952452  1
  Se  Se18  1  0.755999  0.234699  0.149131  1
  Se  Se19  1  0.234699  0.755999  0.149131  1
  Se  Se20  1  0.603516  0.603516  0.910457  1
  Se  Se21  1  0.217718  0.217718  0.612681  1
  Se  Se22  1  0.782282  0.782282  0.387319  1
  Se  Se23  1  0.396484  0.396484  0.089543  1
  Se  Se24  1  0.244001  0.765301  0.850869  1
  Se  Se25  1  0.765301  0.244001  0.850869  1
  Se  Se26  1  0.894391  0.894391  0.047548  1
  Se  Se27  1  0.558825  0.558825  0.551103  1
  Se  Se28  1  0.020457  0.020457  0.588302  1
  Se  Se29  1  0.875388  0.398699  0.351639  1
  Se  Se30  1  0.398699  0.875388  0.351639  1
  Se  Se31  1  0.826586  0.826586  0.882832  1
