# generated using pymatgen
data_TbYLu2(B6Ru)2
_symmetry_space_group_name_H-M   'P 1'
_cell_length_a   3.62781300
_cell_length_b   9.08210501
_cell_length_c   11.47077801
_cell_angle_alpha   89.99457503
_cell_angle_beta   90.00000000
_cell_angle_gamma   90.00000000
_symmetry_Int_Tables_number   1
_chemical_formula_structural   TbYLu2(B6Ru)2
_chemical_formula_sum   'Tb2 Y2 Lu4 B24 Ru4'
_cell_volume   377.94124122
_cell_formula_units_Z   2
loop_
 _symmetry_equiv_pos_site_id
 _symmetry_equiv_pos_as_xyz
  1  'x, y, z'
loop_
 _atom_site_type_symbol
 _atom_site_label
 _atom_site_symmetry_multiplicity
 _atom_site_fract_x
 _atom_site_fract_y
 _atom_site_fract_z
 _atom_site_occupancy
  Tb  Tb0  1  0.000000  0.821757  0.085784  1
  Tb  Tb1  1  0.000000  0.178243  0.914216  1
  Y  Y2  1  0.000000  0.321473  0.414324  1
  Y  Y3  1  0.000000  0.678527  0.585676  1
  Lu  Lu4  1  0.000000  0.943981  0.372461  1
  Lu  Lu5  1  0.000000  0.056019  0.627539  1
  Lu  Lu6  1  0.000000  0.443983  0.127577  1
  Lu  Lu7  1  0.000000  0.556017  0.872423  1
  B  B8  1  0.500000  0.554721  0.432697  1
  B  B9  1  0.500000  0.445279  0.567303  1
  B  B10  1  0.500000  0.054845  0.067473  1
  B  B11  1  0.500000  0.945155  0.932527  1
  B  B12  1  0.500000  0.749983  0.419089  1
  B  B13  1  0.500000  0.250017  0.580911  1
  B  B14  1  0.500000  0.250015  0.080986  1
  B  B15  1  0.500000  0.749985  0.919014  1
  B  B16  1  0.500000  0.791881  0.265847  1
  B  B17  1  0.500000  0.208119  0.734153  1
  B  B18  1  0.500000  0.291983  0.234220  1
  B  B19  1  0.500000  0.708017  0.765780  1
  B  B20  1  0.500000  0.630594  0.184182  1
  B  B21  1  0.500000  0.369406  0.815818  1
  B  B22  1  0.500000  0.130619  0.315871  1
  B  B23  1  0.500000  0.869381  0.684129  1
  B  B24  1  0.500000  0.983106  0.213682  1
  B  B25  1  0.500000  0.016894  0.786318  1
  B  B26  1  0.500000  0.482969  0.286362  1
  B  B27  1  0.500000  0.517031  0.713638  1
  B  B28  1  0.500000  0.603632  0.028343  1
  B  B29  1  0.500000  0.396368  0.971657  1
  B  B30  1  0.500000  0.103868  0.471582  1
  B  B31  1  0.500000  0.896132  0.528418  1
  Ru  Ru32  1  0.000000  0.638702  0.319960  1
  Ru  Ru33  1  0.000000  0.361298  0.680040  1
  Ru  Ru34  1  0.000000  0.138823  0.180122  1
  Ru  Ru35  1  0.000000  0.861177  0.819878  1
