# generated using pymatgen
data_Nd2Gd3Ru2
_symmetry_space_group_name_H-M   'P 1'
_cell_length_a   6.56544529
_cell_length_b   7.26593298
_cell_length_c   8.78328100
_cell_angle_alpha   97.18610773
_cell_angle_beta   111.94686759
_cell_angle_gamma   89.99999702
_symmetry_Int_Tables_number   1
_chemical_formula_structural   Nd2Gd3Ru2
_chemical_formula_sum   'Nd4 Gd6 Ru4'
_cell_volume   385.08329193
_cell_formula_units_Z   2
loop_
 _symmetry_equiv_pos_site_id
 _symmetry_equiv_pos_as_xyz
  1  'x, y, z'
loop_
 _atom_site_type_symbol
 _atom_site_label
 _atom_site_symmetry_multiplicity
 _atom_site_fract_x
 _atom_site_fract_y
 _atom_site_fract_z
 _atom_site_occupancy
  Nd  Nd0  1  0.979478  0.916733  0.188789  1
  Nd  Nd1  1  0.790690  0.583267  0.811211  1
  Nd  Nd2  1  0.020522  0.083267  0.811211  1
  Nd  Nd3  1  0.209310  0.416733  0.188789  1
  Gd  Gd4  1  0.638344  0.812942  0.432400  1
  Gd  Gd5  1  0.205945  0.687058  0.567600  1
  Gd  Gd6  1  0.361656  0.187058  0.567600  1
  Gd  Gd7  1  0.794055  0.312942  0.432400  1
  Gd  Gd8  1  0.426058  0.750000  0.000000  1
  Gd  Gd9  1  0.573942  0.250000  0.000000  1
  Ru  Ru10  1  0.818147  0.572465  0.225055  1
  Ru  Ru11  1  0.593092  0.927535  0.774945  1
  Ru  Ru12  1  0.181853  0.427535  0.774945  1
  Ru  Ru13  1  0.406908  0.072465  0.225055  1
