# generated using pymatgen
data_Hf8V12Si15Sn
_symmetry_space_group_name_H-M   'P 1'
_cell_length_a   6.49229028
_cell_length_b   6.63344151
_cell_length_c   12.62229373
_cell_angle_alpha   90.11390460
_cell_angle_beta   89.81993005
_cell_angle_gamma   90.03007605
_symmetry_Int_Tables_number   1
_chemical_formula_structural   Hf8V12Si15Sn
_chemical_formula_sum   'Hf8 V12 Si15 Sn1'
_cell_volume   543.59074515
_cell_formula_units_Z   1
loop_
 _symmetry_equiv_pos_site_id
 _symmetry_equiv_pos_as_xyz
  1  'x, y, z'
loop_
 _atom_site_type_symbol
 _atom_site_label
 _atom_site_symmetry_multiplicity
 _atom_site_fract_x
 _atom_site_fract_y
 _atom_site_fract_z
 _atom_site_occupancy
  Hf  Hf0  1  0.994258  0.170747  0.092972  1
  Hf  Hf1  1  0.005157  0.829043  0.908072  1
  Hf  Hf2  1  0.506032  0.670689  0.907007  1
  Hf  Hf3  1  0.004176  0.839427  0.594486  1
  Hf  Hf4  1  0.493189  0.330187  0.093269  1
  Hf  Hf5  1  0.988444  0.165200  0.399792  1
  Hf  Hf6  1  0.502451  0.322918  0.398070  1
  Hf  Hf7  1  0.522224  0.681442  0.597685  1
  V  V8  1  0.164327  0.494851  0.758569  1
  V  V9  1  0.835572  0.504113  0.249081  1
  V  V10  1  0.334133  0.995081  0.249677  1
  V  V11  1  0.663355  0.005199  0.751073  1
  V  V12  1  0.348504  0.146116  0.631919  1
  V  V13  1  0.663587  0.836952  0.373365  1
  V  V14  1  0.156868  0.677425  0.369539  1
  V  V15  1  0.661905  0.832641  0.123366  1
  V  V16  1  0.823026  0.333214  0.626811  1
  V  V17  1  0.336019  0.164553  0.877707  1
  V  V18  1  0.835074  0.333126  0.877211  1
  V  V19  1  0.164301  0.667015  0.123269  1
  Si  Si20  1  0.036477  0.128582  0.751167  1
  Si  Si21  1  0.961057  0.873758  0.245830  1
  Si  Si22  1  0.462824  0.626715  0.249045  1
  Si  Si23  1  0.533741  0.375963  0.752605  1
  Si  Si24  1  0.300188  0.861238  0.753452  1
  Si  Si25  1  0.696505  0.130869  0.245051  1
  Si  Si26  1  0.196781  0.368293  0.248841  1
  Si  Si27  1  0.806995  0.633604  0.752006  1
  Si  Si28  1  0.822447  0.545876  0.456618  1
  Si  Si29  1  0.330367  0.956950  0.459343  1
  Si  Si30  1  0.831281  0.542421  0.041488  1
  Si  Si31  1  0.670350  0.046911  0.537794  1
  Si  Si32  1  0.169071  0.456818  0.960305  1
  Si  Si33  1  0.667756  0.042701  0.959170  1
  Si  Si34  1  0.331061  0.956824  0.041501  1
  Sn  Sn35  1  0.180498  0.452540  0.542847  1
