# generated using pymatgen
data_Ca5Pr15(Ga5Si)2
_symmetry_space_group_name_H-M   'P 1'
_cell_length_a   7.91175275
_cell_length_b   7.89542771
_cell_length_c   14.71714642
_cell_angle_alpha   89.91836180
_cell_angle_beta   89.85547589
_cell_angle_gamma   89.78040707
_symmetry_Int_Tables_number   1
_chemical_formula_structural   Ca5Pr15(Ga5Si)2
_chemical_formula_sum   'Ca5 Pr15 Ga10 Si2'
_cell_volume   919.32055921
_cell_formula_units_Z   1
loop_
 _symmetry_equiv_pos_site_id
 _symmetry_equiv_pos_as_xyz
  1  'x, y, z'
loop_
 _atom_site_type_symbol
 _atom_site_label
 _atom_site_symmetry_multiplicity
 _atom_site_fract_x
 _atom_site_fract_y
 _atom_site_fract_z
 _atom_site_occupancy
  Ca  Ca0  1  0.830383  0.834826  0.606027  1
  Ca  Ca1  1  0.999746  0.507303  0.744025  1
  Ca  Ca2  1  0.996529  0.498986  0.244314  1
  Ca  Ca3  1  0.500113  0.002066  0.253023  1
  Ca  Ca4  1  0.499943  0.997724  0.755554  1
  Pr  Pr5  1  0.174243  0.829398  0.101848  1
  Pr  Pr6  1  0.170869  0.821916  0.397243  1
  Pr  Pr7  1  0.823209  0.178400  0.395335  1
  Pr  Pr8  1  0.672431  0.665561  0.394936  1
  Pr  Pr9  1  0.676109  0.321831  0.602259  1
  Pr  Pr10  1  0.326534  0.681403  0.604358  1
  Pr  Pr11  1  0.670989  0.671724  0.102470  1
  Pr  Pr12  1  0.677401  0.327615  0.899908  1
  Pr  Pr13  1  0.833554  0.824430  0.895575  1
  Pr  Pr14  1  0.327139  0.327650  0.396441  1
  Pr  Pr15  1  0.177942  0.171244  0.606451  1
  Pr  Pr16  1  0.822335  0.171989  0.103274  1
  Pr  Pr17  1  0.322002  0.674307  0.897953  1
  Pr  Pr18  1  0.333047  0.324388  0.102840  1
  Pr  Pr19  1  0.172158  0.174754  0.895832  1
  Ga  Ga20  1  0.383594  0.383164  0.749348  1
  Ga  Ga21  1  0.382723  0.614952  0.248905  1
  Ga  Ga22  1  0.881452  0.882640  0.250012  1
  Ga  Ga23  1  0.614642  0.613354  0.752576  1
  Ga  Ga24  1  0.997954  0.498379  0.500468  1
  Ga  Ga25  1  0.886670  0.118971  0.751638  1
  Ga  Ga26  1  0.496668  0.997061  0.495803  1
  Ga  Ga27  1  0.499565  0.998684  0.997508  1
  Ga  Ga28  1  0.116414  0.116582  0.249451  1
  Ga  Ga29  1  0.999075  0.500015  0.003625  1
  Si  Si30  1  0.614546  0.382999  0.248835  1
  Si  Si31  1  0.120018  0.885683  0.752165  1
