# generated using pymatgen
data_Ho3GaHg2Pd3
_symmetry_space_group_name_H-M   'P 1'
_cell_length_a   7.71871281
_cell_length_b   7.71871190
_cell_length_c   3.68862000
_cell_angle_alpha   90.00000000
_cell_angle_beta   90.00000000
_cell_angle_gamma   120.42682049
_symmetry_Int_Tables_number   1
_chemical_formula_structural   Ho3GaHg2Pd3
_chemical_formula_sum   'Ho3 Ga1 Hg2 Pd3'
_cell_volume   189.49610178
_cell_formula_units_Z   1
loop_
 _symmetry_equiv_pos_site_id
 _symmetry_equiv_pos_as_xyz
  1  'x, y, z'
loop_
 _atom_site_type_symbol
 _atom_site_label
 _atom_site_symmetry_multiplicity
 _atom_site_fract_x
 _atom_site_fract_y
 _atom_site_fract_z
 _atom_site_occupancy
  Ho  Ho0  1  0.604696  0.000815  0.000000  1
  Ho  Ho1  1  0.000815  0.604696  0.000000  1
  Ho  Ho2  1  0.403566  0.403566  0.000000  1
  Ga  Ga3  1  0.730522  0.730522  0.500000  1
  Hg  Hg4  1  0.269066  0.003473  0.500000  1
  Hg  Hg5  1  0.003473  0.269066  0.500000  1
  Pd  Pd6  1  0.963585  0.963585  0.000000  1
  Pd  Pd7  1  0.351485  0.672792  0.500000  1
  Pd  Pd8  1  0.672792  0.351485  0.500000  1
