# generated using pymatgen
data_LaYb11(SiAg)12
_symmetry_space_group_name_H-M   'P 1'
_cell_length_a   4.51188400
_cell_length_b   7.71868785
_cell_length_c   21.42229099
_cell_angle_alpha   90.13165779
_cell_angle_beta   90.00000000
_cell_angle_gamma   90.00000000
_symmetry_Int_Tables_number   1
_chemical_formula_structural   LaYb11(SiAg)12
_chemical_formula_sum   'La1 Yb11 Si12 Ag12'
_cell_volume   746.04697044
_cell_formula_units_Z   1
loop_
 _symmetry_equiv_pos_site_id
 _symmetry_equiv_pos_as_xyz
  1  'x, y, z'
loop_
 _atom_site_type_symbol
 _atom_site_label
 _atom_site_symmetry_multiplicity
 _atom_site_fract_x
 _atom_site_fract_y
 _atom_site_fract_z
 _atom_site_occupancy
  La  La0  1  0.750000  0.705482  0.833296  1
  Yb  Yb1  1  0.250000  0.219525  0.001687  1
  Yb  Yb2  1  0.250000  0.280023  0.499369  1
  Yb  Yb3  1  0.750000  0.778425  0.002611  1
  Yb  Yb4  1  0.750000  0.718639  0.499614  1
  Yb  Yb5  1  0.250000  0.203500  0.333375  1
  Yb  Yb6  1  0.250000  0.290970  0.833603  1
  Yb  Yb7  1  0.750000  0.795307  0.664657  1
  Yb  Yb8  1  0.750000  0.704223  0.166909  1
  Yb  Yb9  1  0.250000  0.210141  0.665280  1
  Yb  Yb10  1  0.250000  0.292920  0.167568  1
  Yb  Yb11  1  0.750000  0.792581  0.332793  1
  Si  Si12  1  0.250000  0.583375  0.723874  1
  Si  Si13  1  0.250000  0.918778  0.223951  1
  Si  Si14  1  0.750000  0.418161  0.275864  1
  Si  Si15  1  0.750000  0.083440  0.775189  1
  Si  Si16  1  0.250000  0.912451  0.106824  1
  Si  Si17  1  0.250000  0.586733  0.605898  1
  Si  Si18  1  0.750000  0.089186  0.894005  1
  Si  Si19  1  0.750000  0.413182  0.393089  1
  Si  Si20  1  0.250000  0.591069  0.924081  1
  Si  Si21  1  0.250000  0.908603  0.428215  1
  Si  Si22  1  0.750000  0.408568  0.072585  1
  Si  Si23  1  0.750000  0.091285  0.571975  1
  Ag  Ag24  1  0.250000  0.919905  0.758742  1
  Ag  Ag25  1  0.250000  0.588037  0.262386  1
  Ag  Ag26  1  0.750000  0.088144  0.237859  1
  Ag  Ag27  1  0.750000  0.406340  0.735120  1
  Ag  Ag28  1  0.250000  0.925432  0.909195  1
  Ag  Ag29  1  0.250000  0.581300  0.405296  1
  Ag  Ag30  1  0.750000  0.081534  0.095015  1
  Ag  Ag31  1  0.750000  0.419030  0.593292  1
  Ag  Ag32  1  0.250000  0.915912  0.564941  1
  Ag  Ag33  1  0.250000  0.582454  0.067598  1
  Ag  Ag34  1  0.750000  0.083807  0.433631  1
  Ag  Ag35  1  0.750000  0.411535  0.940616  1
