# generated using pymatgen
data_CdI8
_symmetry_space_group_name_H-M   'P 1'
_cell_length_a   10.49732700
_cell_length_b   9.39816227
_cell_length_c   13.49297110
_cell_angle_alpha   84.03212681
_cell_angle_beta   90.00000000
_cell_angle_gamma   90.00000000
_symmetry_Int_Tables_number   1
_chemical_formula_structural   CdI8
_chemical_formula_sum   'Cd2 I16'
_cell_volume   1323.94251861
_cell_formula_units_Z   2
loop_
 _symmetry_equiv_pos_site_id
 _symmetry_equiv_pos_as_xyz
  1  'x, y, z'
loop_
 _atom_site_type_symbol
 _atom_site_label
 _atom_site_symmetry_multiplicity
 _atom_site_fract_x
 _atom_site_fract_y
 _atom_site_fract_z
 _atom_site_occupancy
  Cd  Cd0  1  0.982584  0.953703  0.701217  1
  Cd  Cd1  1  0.017416  0.953703  0.201217  1
  I  I2  1  0.649674  0.642579  0.807835  1
  I  I3  1  0.350326  0.642579  0.307835  1
  I  I4  1  0.744964  0.839551  0.641878  1
  I  I5  1  0.255036  0.839551  0.141878  1
  I  I6  1  0.550862  0.435250  0.967893  1
  I  I7  1  0.449138  0.435250  0.467893  1
  I  I8  1  0.361052  0.754651  0.695411  1
  I  I9  1  0.638948  0.754651  0.195411  1
  I  I10  1  0.067221  0.890959  0.893931  1
  I  I11  1  0.932779  0.890959  0.393931  1
  I  I12  1  0.204223  0.335092  0.552749  1
  I  I13  1  0.795777  0.335092  0.052749  1
  I  I14  1  0.953597  0.248603  0.633606  1
  I  I15  1  0.046403  0.248603  0.133606  1
  I  I16  1  0.161331  0.833310  0.561431  1
  I  I17  1  0.838669  0.833310  0.061431  1
