# generated using pymatgen
data_DyHo3Bi3Sb
_symmetry_space_group_name_H-M   'P 1'
_cell_length_a   7.69529483
_cell_length_b   7.69529476
_cell_length_c   7.69529401
_cell_angle_alpha   131.83224215
_cell_angle_beta   131.83451693
_cell_angle_gamma   70.49231063
_symmetry_Int_Tables_number   1
_chemical_formula_structural   DyHo3Bi3Sb
_chemical_formula_sum   'Dy1 Ho3 Bi3 Sb1'
_cell_volume   247.88230176
_cell_formula_units_Z   1
loop_
 _symmetry_equiv_pos_site_id
 _symmetry_equiv_pos_as_xyz
  1  'x, y, z'
loop_
 _atom_site_type_symbol
 _atom_site_label
 _atom_site_symmetry_multiplicity
 _atom_site_fract_x
 _atom_site_fract_y
 _atom_site_fract_z
 _atom_site_occupancy
  Dy  Dy0  1  0.500000  0.000000  0.500000  1
  Ho  Ho1  1  0.245854  0.245854  0.000000  1
  Ho  Ho2  1  0.754146  0.754146  0.000000  1
  Ho  Ho3  1  0.000000  0.500000  0.500000  1
  Bi  Bi4  1  0.500000  0.500000  0.000000  1
  Bi  Bi5  1  0.750074  0.250074  0.500000  1
  Bi  Bi6  1  0.249926  0.749926  0.500000  1
  Sb  Sb7  1  0.000000  0.000000  0.000000  1
