# generated using pymatgen
data_NdMgPaZnRh2
_symmetry_space_group_name_H-M   'P 1'
_cell_length_a   3.87477200
_cell_length_b   7.38662480
_cell_length_c   8.75563805
_cell_angle_alpha   93.67231830
_cell_angle_beta   90.00000000
_cell_angle_gamma   90.00000000
_symmetry_Int_Tables_number   1
_chemical_formula_structural   NdMgPaZnRh2
_chemical_formula_sum   'Nd2 Mg2 Pa2 Zn2 Rh4'
_cell_volume   250.08481952
_cell_formula_units_Z   2
loop_
 _symmetry_equiv_pos_site_id
 _symmetry_equiv_pos_as_xyz
  1  'x, y, z'
loop_
 _atom_site_type_symbol
 _atom_site_label
 _atom_site_symmetry_multiplicity
 _atom_site_fract_x
 _atom_site_fract_y
 _atom_site_fract_z
 _atom_site_occupancy
  Nd  Nd0  1  0.250000  0.554274  0.826177  1
  Nd  Nd1  1  0.750000  0.445726  0.173823  1
  Mg  Mg2  1  0.250000  0.637931  0.439781  1
  Mg  Mg3  1  0.750000  0.362069  0.560219  1
  Pa  Pa4  1  0.750000  0.963810  0.302429  1
  Pa  Pa5  1  0.250000  0.036190  0.697571  1
  Zn  Zn6  1  0.750000  0.872286  0.946729  1
  Zn  Zn7  1  0.250000  0.127714  0.053271  1
  Rh  Rh8  1  0.750000  0.788711  0.629690  1
  Rh  Rh9  1  0.250000  0.211289  0.370310  1
  Rh  Rh10  1  0.250000  0.770661  0.149710  1
  Rh  Rh11  1  0.750000  0.229339  0.850290  1
