# generated using pymatgen
data_CsU3Se5
_symmetry_space_group_name_H-M   'P 1'
_cell_length_a   4.11998500
_cell_length_b   12.67118300
_cell_length_c   22.10570900
_cell_angle_alpha   90.00000000
_cell_angle_beta   90.00000000
_cell_angle_gamma   90.00000000
_symmetry_Int_Tables_number   1
_chemical_formula_structural   CsU3Se5
_chemical_formula_sum   'Cs4 U12 Se20'
_cell_volume   1154.03039284
_cell_formula_units_Z   4
loop_
 _symmetry_equiv_pos_site_id
 _symmetry_equiv_pos_as_xyz
  1  'x, y, z'
loop_
 _atom_site_type_symbol
 _atom_site_label
 _atom_site_symmetry_multiplicity
 _atom_site_fract_x
 _atom_site_fract_y
 _atom_site_fract_z
 _atom_site_occupancy
  Cs  Cs0  1  0.250000  0.854218  0.093986  1
  Cs  Cs1  1  0.750000  0.145782  0.906014  1
  Cs  Cs2  1  0.750000  0.354218  0.406014  1
  Cs  Cs3  1  0.250000  0.645782  0.593986  1
  U  U4  1  0.750000  0.788463  0.826080  1
  U  U5  1  0.250000  0.211537  0.173920  1
  U  U6  1  0.250000  0.288463  0.673920  1
  U  U7  1  0.750000  0.711537  0.326080  1
  U  U8  1  0.250000  0.963046  0.699378  1
  U  U9  1  0.750000  0.036954  0.300622  1
  U  U10  1  0.750000  0.463046  0.800622  1
  U  U11  1  0.250000  0.536954  0.199378  1
  U  U12  1  0.750000  0.396735  0.057221  1
  U  U13  1  0.250000  0.603265  0.942779  1
  U  U14  1  0.250000  0.896735  0.442779  1
  U  U15  1  0.750000  0.103265  0.557221  1
  Se  Se16  1  0.250000  0.941799  0.569515  1
  Se  Se17  1  0.750000  0.058201  0.430485  1
  Se  Se18  1  0.750000  0.441799  0.930485  1
  Se  Se19  1  0.250000  0.558201  0.069515  1
  Se  Se20  1  0.750000  0.762344  0.956323  1
  Se  Se21  1  0.250000  0.237656  0.043677  1
  Se  Se22  1  0.250000  0.262344  0.543677  1
  Se  Se23  1  0.750000  0.737656  0.456323  1
  Se  Se24  1  0.250000  0.947995  0.829494  1
  Se  Se25  1  0.750000  0.052005  0.170506  1
  Se  Se26  1  0.750000  0.447995  0.670506  1
  Se  Se27  1  0.250000  0.552005  0.329494  1
  Se  Se28  1  0.750000  0.126216  0.690448  1
  Se  Se29  1  0.250000  0.873784  0.309552  1
  Se  Se30  1  0.250000  0.626216  0.809552  1
  Se  Se31  1  0.750000  0.373784  0.190448  1
  Se  Se32  1  0.750000  0.693541  0.196471  1
  Se  Se33  1  0.250000  0.306459  0.803529  1
  Se  Se34  1  0.250000  0.193541  0.303529  1
  Se  Se35  1  0.750000  0.806459  0.696471  1
