# generated using pymatgen
data_NdSc(NbSe2)8
_symmetry_space_group_name_H-M   'P 1'
_cell_length_a   7.01173600
_cell_length_b   7.01173507
_cell_length_c   14.32389300
_cell_angle_alpha   90.00000000
_cell_angle_beta   90.00000000
_cell_angle_gamma   119.99999497
_symmetry_Int_Tables_number   1
_chemical_formula_structural   NdSc(NbSe2)8
_chemical_formula_sum   'Nd1 Sc1 Nb8 Se16'
_cell_volume   609.87773135
_cell_formula_units_Z   1
loop_
 _symmetry_equiv_pos_site_id
 _symmetry_equiv_pos_as_xyz
  1  'x, y, z'
loop_
 _atom_site_type_symbol
 _atom_site_label
 _atom_site_symmetry_multiplicity
 _atom_site_fract_x
 _atom_site_fract_y
 _atom_site_fract_z
 _atom_site_occupancy
  Nd  Nd0  1  0.000000  0.000000  0.000000  1
  Sc  Sc1  1  0.000000  0.000000  0.500000  1
  Nb  Nb2  1  0.985583  0.492791  0.259904  1
  Nb  Nb3  1  0.014417  0.507209  0.740096  1
  Nb  Nb4  1  0.492791  0.507209  0.740096  1
  Nb  Nb5  1  0.507209  0.014417  0.259904  1
  Nb  Nb6  1  0.000000  0.000000  0.741382  1
  Nb  Nb7  1  0.000000  0.000000  0.258618  1
  Nb  Nb8  1  0.507209  0.492791  0.259904  1
  Nb  Nb9  1  0.492791  0.985583  0.740096  1
  Se  Se10  1  0.333333  0.666667  0.619771  1
  Se  Se11  1  0.666667  0.333333  0.138429  1
  Se  Se12  1  0.666667  0.333333  0.380229  1
  Se  Se13  1  0.333333  0.666667  0.861571  1
  Se  Se14  1  0.167891  0.335784  0.375905  1
  Se  Se15  1  0.829409  0.170591  0.856392  1
  Se  Se16  1  0.341182  0.170591  0.856392  1
  Se  Se17  1  0.664216  0.832109  0.375905  1
  Se  Se18  1  0.167891  0.832109  0.375905  1
  Se  Se19  1  0.829409  0.658818  0.856392  1
  Se  Se20  1  0.170591  0.341182  0.143608  1
  Se  Se21  1  0.832109  0.167891  0.624095  1
  Se  Se22  1  0.335784  0.167891  0.624095  1
  Se  Se23  1  0.658818  0.829409  0.143608  1
  Se  Se24  1  0.170591  0.829409  0.143608  1
  Se  Se25  1  0.832109  0.664216  0.624095  1
