# generated using pymatgen
data_Sm3Np(BRu)16
_symmetry_space_group_name_H-M   'P 1'
_cell_length_a   9.24247262
_cell_length_b   7.51093239
_cell_length_c   7.51093271
_cell_angle_alpha   89.90270637
_cell_angle_beta   114.01758143
_cell_angle_gamma   114.01758643
_symmetry_Int_Tables_number   1
_chemical_formula_structural   Sm3Np(BRu)16
_chemical_formula_sum   'Sm3 Np1 B16 Ru16'
_cell_volume   426.54506452
_cell_formula_units_Z   1
loop_
 _symmetry_equiv_pos_site_id
 _symmetry_equiv_pos_as_xyz
  1  'x, y, z'
loop_
 _atom_site_type_symbol
 _atom_site_label
 _atom_site_symmetry_multiplicity
 _atom_site_fract_x
 _atom_site_fract_y
 _atom_site_fract_z
 _atom_site_occupancy
  Sm  Sm0  1  0.250000  0.625000  0.375000  1
  Sm  Sm1  1  0.749999  0.375000  0.624999  1
  Sm  Sm2  1  0.250000  0.125000  0.875000  1
  Np  Np3  1  0.749999  0.875000  0.125000  1
  B  B4  1  0.918135  0.289870  0.072118  1
  B  B5  1  0.410279  0.561872  0.121926  1
  B  B6  1  0.089721  0.211645  0.151592  1
  B  B7  1  0.583323  0.149489  0.212457  1
  B  B8  1  0.412668  0.061957  0.292301  1
  B  B9  1  0.918135  0.628266  0.346017  1
  B  B10  1  0.581865  0.653984  0.371734  1
  B  B11  1  0.089721  0.878074  0.438128  1
  B  B12  1  0.916677  0.129134  0.566166  1
  B  B13  1  0.412668  0.350710  0.620367  1
  B  B14  1  0.087332  0.379633  0.649289  1
  B  B15  1  0.581865  0.927882  0.710130  1
  B  B16  1  0.410279  0.848408  0.788354  1
  B  B17  1  0.916677  0.787544  0.850511  1
  B  B18  1  0.583323  0.433834  0.870865  1
  B  B19  1  0.087332  0.707699  0.938043  1
  Ru  Ru20  1  0.868797  0.549210  0.035623  1
  Ru  Ru21  1  0.377449  0.831404  0.054012  1
  Ru  Ru22  1  0.122552  0.945989  0.168597  1
  Ru  Ru23  1  0.629584  0.475501  0.175170  1
  Ru  Ru24  1  0.375552  0.331521  0.320840  1
  Ru  Ru25  1  0.868797  0.319588  0.333174  1
  Ru  Ru26  1  0.631203  0.964377  0.450790  1
  Ru  Ru27  1  0.122552  0.176563  0.453955  1
  Ru  Ru28  1  0.870416  0.824831  0.524500  1
  Ru  Ru29  1  0.375552  0.044031  0.554712  1
  Ru  Ru30  1  0.124449  0.679160  0.668479  1
  Ru  Ru31  1  0.631203  0.666826  0.680413  1
  Ru  Ru32  1  0.377449  0.546045  0.823437  1
  Ru  Ru33  1  0.870416  0.045586  0.845916  1
  Ru  Ru34  1  0.629584  0.154084  0.954414  1
  Ru  Ru35  1  0.124449  0.445289  0.955969  1
