# generated using pymatgen
data_Tb16Ho4(Ir3Pt)3
_symmetry_space_group_name_H-M   'P 1'
_cell_length_a   11.00664162
_cell_length_b   11.00664220
_cell_length_c   6.35412204
_cell_angle_alpha   89.98603784
_cell_angle_beta   89.98603401
_cell_angle_gamma   90.19926350
_symmetry_Int_Tables_number   1
_chemical_formula_structural   Tb16Ho4(Ir3Pt)3
_chemical_formula_sum   'Tb16 Ho4 Ir9 Pt3'
_cell_volume   769.77282278
_cell_formula_units_Z   1
loop_
 _symmetry_equiv_pos_site_id
 _symmetry_equiv_pos_as_xyz
  1  'x, y, z'
loop_
 _atom_site_type_symbol
 _atom_site_label
 _atom_site_symmetry_multiplicity
 _atom_site_fract_x
 _atom_site_fract_y
 _atom_site_fract_z
 _atom_site_occupancy
  Tb  Tb0  1  0.293286  0.086838  0.371833  1
  Tb  Tb1  1  0.292606  0.908502  0.877001  1
  Tb  Tb2  1  0.705657  0.090027  0.873802  1
  Tb  Tb3  1  0.704725  0.909794  0.373289  1
  Tb  Tb4  1  0.585099  0.790471  0.878347  1
  Tb  Tb5  1  0.585477  0.209522  0.378350  1
  Tb  Tb6  1  0.410771  0.790727  0.378222  1
  Tb  Tb7  1  0.414211  0.209567  0.878227  1
  Tb  Tb8  1  0.209529  0.414901  0.621653  1
  Tb  Tb9  1  0.209273  0.589229  0.121778  1
  Tb  Tb10  1  0.790478  0.414523  0.121650  1
  Tb  Tb11  1  0.790433  0.585789  0.621773  1
  Tb  Tb12  1  0.913162  0.706714  0.128167  1
  Tb  Tb13  1  0.909973  0.294343  0.626198  1
  Tb  Tb14  1  0.091498  0.707394  0.622999  1
  Tb  Tb15  1  0.090206  0.295275  0.126711  1
  Ho  Ho16  1  0.001210  0.997997  0.499574  1
  Ho  Ho17  1  0.002003  0.998790  0.000426  1
  Ho  Ho18  1  0.499774  0.499879  0.000446  1
  Ho  Ho19  1  0.500121  0.500226  0.499554  1
  Ir  Ir20  1  0.151522  0.848478  0.250000  1
  Ir  Ir21  1  0.653715  0.346285  0.750000  1
  Ir  Ir22  1  0.654193  0.653757  0.249567  1
  Ir  Ir23  1  0.346243  0.345807  0.250433  1
  Ir  Ir24  1  0.347167  0.652833  0.750000  1
  Ir  Ir25  1  0.500484  0.000057  0.122214  1
  Ir  Ir26  1  0.500241  0.000291  0.623494  1
  Ir  Ir27  1  0.999709  0.499759  0.876506  1
  Ir  Ir28  1  0.999943  0.499516  0.377786  1
  Pt  Pt29  1  0.847745  0.152255  0.250000  1
  Pt  Pt30  1  0.846388  0.846840  0.749910  1
  Pt  Pt31  1  0.153160  0.153612  0.750090  1
