# generated using pymatgen
data_Tb5YbY4(In2Pt)4
_symmetry_space_group_name_H-M   'P 1'
_cell_length_a   3.63283700
_cell_length_b   8.20010383
_cell_length_c   18.36955551
_cell_angle_alpha   89.87254815
_cell_angle_beta   90.00000000
_cell_angle_gamma   90.00000000
_symmetry_Int_Tables_number   1
_chemical_formula_structural   Tb5YbY4(In2Pt)4
_chemical_formula_sum   'Tb5 Yb1 Y4 In8 Pt4'
_cell_volume   547.22110310
_cell_formula_units_Z   1
loop_
 _symmetry_equiv_pos_site_id
 _symmetry_equiv_pos_as_xyz
  1  'x, y, z'
loop_
 _atom_site_type_symbol
 _atom_site_label
 _atom_site_symmetry_multiplicity
 _atom_site_fract_x
 _atom_site_fract_y
 _atom_site_fract_z
 _atom_site_occupancy
  Tb  Tb0  1  0.000000  0.618793  0.085551  1
  Tb  Tb1  1  0.000000  0.242896  0.220664  1
  Tb  Tb2  1  0.000000  0.757053  0.779444  1
  Tb  Tb3  1  0.000000  0.257021  0.720435  1
  Tb  Tb4  1  0.000000  0.743160  0.279610  1
  Yb  Yb5  1  0.000000  0.999672  0.000066  1
  Y  Y6  1  0.000000  0.117423  0.414928  1
  Y  Y7  1  0.000000  0.882618  0.585099  1
  Y  Y8  1  0.000000  0.381069  0.914743  1
  Y  Y9  1  0.000000  0.500187  0.499922  1
  In  In10  1  0.500000  0.424259  0.351279  1
  In  In11  1  0.500000  0.575628  0.648765  1
  In  In12  1  0.500000  0.074540  0.851007  1
  In  In13  1  0.500000  0.925843  0.149070  1
  In  In14  1  0.500000  0.292394  0.067237  1
  In  In15  1  0.500000  0.707307  0.932538  1
  In  In16  1  0.500000  0.207889  0.566855  1
  In  In17  1  0.500000  0.792205  0.433077  1
  Pt  Pt18  1  0.500000  0.024094  0.303040  1
  Pt  Pt19  1  0.500000  0.975996  0.697040  1
  Pt  Pt20  1  0.500000  0.477178  0.802748  1
  Pt  Pt21  1  0.500000  0.522775  0.196885  1
