# generated using pymatgen
data_Ta4BeP
_symmetry_space_group_name_H-M   'P 1'
_cell_length_a   4.95985104
_cell_length_b   4.95985108
_cell_length_c   4.95985103
_cell_angle_alpha   104.35327441
_cell_angle_beta   104.35327479
_cell_angle_gamma   120.27827061
_symmetry_Int_Tables_number   1
_chemical_formula_structural   Ta4BeP
_chemical_formula_sum   'Ta4 Be1 P1'
_cell_volume   91.37970200
_cell_formula_units_Z   1
loop_
 _symmetry_equiv_pos_site_id
 _symmetry_equiv_pos_as_xyz
  1  'x, y, z'
loop_
 _atom_site_type_symbol
 _atom_site_label
 _atom_site_symmetry_multiplicity
 _atom_site_fract_x
 _atom_site_fract_y
 _atom_site_fract_z
 _atom_site_occupancy
  Ta  Ta0  1  0.163960  0.663960  0.827919  1
  Ta  Ta1  1  0.336040  0.163960  0.500000  1
  Ta  Ta2  1  0.663960  0.836040  0.500000  1
  Ta  Ta3  1  0.836040  0.336040  0.172081  1
  Be  Be4  1  0.750000  0.750000  0.000000  1
  P  P5  1  0.250000  0.250000  0.000000  1
