# generated using pymatgen
data_Sr3Eu(Th2Te5)4
_symmetry_space_group_name_H-M   'P 1'
_cell_length_a   8.53111102
_cell_length_b   9.36168786
_cell_length_c   13.63114678
_cell_angle_alpha   89.96078784
_cell_angle_beta   90.03067134
_cell_angle_gamma   90.04715123
_symmetry_Int_Tables_number   1
_chemical_formula_structural   Sr3Eu(Th2Te5)4
_chemical_formula_sum   'Sr3 Eu1 Th8 Te20'
_cell_volume   1088.65891712
_cell_formula_units_Z   1
loop_
 _symmetry_equiv_pos_site_id
 _symmetry_equiv_pos_as_xyz
  1  'x, y, z'
loop_
 _atom_site_type_symbol
 _atom_site_label
 _atom_site_symmetry_multiplicity
 _atom_site_fract_x
 _atom_site_fract_y
 _atom_site_fract_z
 _atom_site_occupancy
  Sr  Sr0  1  0.466150  0.496957  0.676010  1
  Sr  Sr1  1  0.033869  0.496709  0.175037  1
  Sr  Sr2  1  0.533751  0.503129  0.324287  1
  Eu  Eu3  1  0.967560  0.502743  0.823470  1
  Th  Th4  1  0.578107  0.251231  0.007936  1
  Th  Th5  1  0.922015  0.250999  0.508942  1
  Th  Th6  1  0.421426  0.748824  0.990934  1
  Th  Th7  1  0.078164  0.749226  0.491961  1
  Th  Th8  1  0.519619  0.003568  0.318686  1
  Th  Th9  1  0.019575  0.996517  0.180673  1
  Th  Th10  1  0.480982  0.996436  0.681957  1
  Th  Th11  1  0.980340  0.003330  0.818700  1
  Te  Te12  1  0.837028  0.954307  0.602153  1
  Te  Te13  1  0.824781  0.775645  0.318226  1
  Te  Te14  1  0.676606  0.773929  0.818328  1
  Te  Te15  1  0.174534  0.225594  0.682552  1
  Te  Te16  1  0.541808  0.222407  0.501748  1
  Te  Te17  1  0.041086  0.776088  0.997514  1
  Te  Te18  1  0.458251  0.777736  0.498809  1
  Te  Te19  1  0.958375  0.223996  0.000584  1
  Te  Te20  1  0.196713  0.761471  0.716848  1
  Te  Te21  1  0.699373  0.238905  0.784012  1
  Te  Te22  1  0.802251  0.236676  0.283927  1
  Te  Te23  1  0.662741  0.954624  0.101815  1
  Te  Te24  1  0.830433  0.543458  0.593051  1
  Te  Te25  1  0.325271  0.456204  0.909019  1
  Te  Te26  1  0.171243  0.456400  0.409494  1
  Te  Te27  1  0.670961  0.543990  0.090201  1
  Te  Te28  1  0.302039  0.763326  0.215749  1
  Te  Te29  1  0.337480  0.045696  0.897857  1
  Te  Te30  1  0.162600  0.045686  0.397903  1
  Te  Te31  1  0.324868  0.224193  0.181618  1
