# generated using pymatgen
data_Yb10Tl2Cu3Pd
_symmetry_space_group_name_H-M   'P 1'
_cell_length_a   9.03563472
_cell_length_b   9.03563502
_cell_length_c   9.03925400
_cell_angle_alpha   128.74877189
_cell_angle_beta   128.74871652
_cell_angle_gamma   75.38550317
_symmetry_Int_Tables_number   1
_chemical_formula_structural   Yb10Tl2Cu3Pd
_chemical_formula_sum   'Yb10 Tl2 Cu3 Pd1'
_cell_volume   436.91980653
_cell_formula_units_Z   1
loop_
 _symmetry_equiv_pos_site_id
 _symmetry_equiv_pos_as_xyz
  1  'x, y, z'
loop_
 _atom_site_type_symbol
 _atom_site_label
 _atom_site_symmetry_multiplicity
 _atom_site_fract_x
 _atom_site_fract_y
 _atom_site_fract_z
 _atom_site_occupancy
  Yb  Yb0  1  0.498427  0.500173  0.998600  1
  Yb  Yb1  1  0.000172  0.998427  0.998599  1
  Yb  Yb2  1  0.530665  0.030664  0.834663  1
  Yb  Yb3  1  0.194648  0.694648  0.162016  1
  Yb  Yb4  1  0.031400  0.197841  0.502113  1
  Yb  Yb5  1  0.697841  0.531400  0.502112  1
  Yb  Yb6  1  0.467369  0.967369  0.162016  1
  Yb  Yb7  1  0.803998  0.303997  0.834663  1
  Yb  Yb8  1  0.970712  0.804272  0.502112  1
  Yb  Yb9  1  0.304272  0.470712  0.502113  1
  Tl  Tl10  1  0.250306  0.250306  0.000613  1
  Tl  Tl11  1  0.750306  0.750306  0.000613  1
  Cu  Cu12  1  0.877565  0.377564  0.255128  1
  Cu  Cu13  1  0.617448  0.882611  0.500058  1
  Cu  Cu14  1  0.382609  0.117449  0.500058  1
  Pd  Pd15  1  0.122262  0.622261  0.744523  1
