# generated using pymatgen
data_NdDy9(TlBi)3
_symmetry_space_group_name_H-M   'P 1'
_cell_length_a   6.64749300
_cell_length_b   9.09641247
_cell_length_c   9.08307100
_cell_angle_alpha   119.98977280
_cell_angle_beta   89.99977590
_cell_angle_gamma   89.99996714
_symmetry_Int_Tables_number   1
_chemical_formula_structural   NdDy9(TlBi)3
_chemical_formula_sum   'Nd1 Dy9 Tl3 Bi3'
_cell_volume   475.70325321
_cell_formula_units_Z   1
loop_
 _symmetry_equiv_pos_site_id
 _symmetry_equiv_pos_as_xyz
  1  'x, y, z'
loop_
 _atom_site_type_symbol
 _atom_site_label
 _atom_site_symmetry_multiplicity
 _atom_site_fract_x
 _atom_site_fract_y
 _atom_site_fract_z
 _atom_site_occupancy
  Nd  Nd0  1  0.249991  0.006946  0.766951  1
  Dy  Dy1  1  0.502019  0.338974  0.672555  1
  Dy  Dy2  1  0.502098  0.656620  0.324429  1
  Dy  Dy3  1  0.997902  0.656623  0.324429  1
  Dy  Dy4  1  0.997981  0.338972  0.672555  1
  Dy  Dy5  1  0.749999  0.247094  0.010384  1
  Dy  Dy6  1  0.750000  0.752480  0.764062  1
  Dy  Dy7  1  0.750001  0.998514  0.232249  1
  Dy  Dy8  1  0.249999  0.756847  0.997539  1
  Dy  Dy9  1  0.250001  0.244137  0.233264  1
  Tl  Tl10  1  0.750001  0.605152  0.001262  1
  Tl  Tl11  1  0.750000  0.392583  0.397823  1
  Tl  Tl12  1  0.250001  0.401458  0.000025  1
  Bi  Bi13  1  0.749997  0.997184  0.608124  1
  Bi  Bi14  1  0.250001  0.604311  0.603322  1
  Bi  Bi15  1  0.250002  0.002107  0.391030  1
