# generated using pymatgen
data_Ho7Er5(BCl3)4
_symmetry_space_group_name_H-M   'P 1'
_cell_length_a   9.37540403
_cell_length_b   9.37374049
_cell_length_c   9.37711297
_cell_angle_alpha   109.55277059
_cell_angle_beta   109.51714317
_cell_angle_gamma   109.38601873
_symmetry_Int_Tables_number   1
_chemical_formula_structural   Ho7Er5(BCl3)4
_chemical_formula_sum   'Ho7 Er5 B4 Cl12'
_cell_volume   634.04873922
_cell_formula_units_Z   1
loop_
 _symmetry_equiv_pos_site_id
 _symmetry_equiv_pos_as_xyz
  1  'x, y, z'
loop_
 _atom_site_type_symbol
 _atom_site_label
 _atom_site_symmetry_multiplicity
 _atom_site_fract_x
 _atom_site_fract_y
 _atom_site_fract_z
 _atom_site_occupancy
  Ho  Ho0  1  0.468815  0.484428  0.234349  1
  Ho  Ho1  1  0.749815  0.234255  0.265490  1
  Ho  Ho2  1  0.750023  0.015538  0.484398  1
  Ho  Ho3  1  0.234508  0.468929  0.484558  1
  Ho  Ho4  1  0.265611  0.750115  0.234370  1
  Ho  Ho5  1  0.031195  0.265469  0.015246  1
  Ho  Ho6  1  0.015683  0.031008  0.265492  1
  Er  Er7  1  0.483565  0.749892  0.016120  1
  Er  Er8  1  0.484059  0.233941  0.467683  1
  Er  Er9  1  0.016305  0.484087  0.750135  1
  Er  Er10  1  0.266235  0.016059  0.032331  1
  Er  Er11  1  0.233992  0.266386  0.750183  1
  B  B12  1  0.250224  0.249808  0.249917  1
  B  B13  1  0.499674  0.000011  0.249770  1
  B  B14  1  0.000411  0.250263  0.500429  1
  B  B15  1  0.249953  0.499898  0.999640  1
  Cl  Cl16  1  0.249770  0.756020  0.745760  1
  Cl  Cl17  1  0.510930  0.504690  0.756176  1
  Cl  Cl18  1  0.988998  0.744152  0.992405  1
  Cl  Cl19  1  0.744375  0.251806  0.755252  1
  Cl  Cl20  1  0.996599  0.988914  0.744626  1
  Cl  Cl21  1  0.251834  0.996541  0.507379  1
  Cl  Cl22  1  0.755839  0.511151  0.507419  1
  Cl  Cl23  1  0.503476  0.248224  0.992512  1
  Cl  Cl24  1  0.754968  0.743581  0.248445  1
  Cl  Cl25  1  0.743050  0.992683  0.987886  1
  Cl  Cl26  1  0.994018  0.506013  0.249912  1
  Cl  Cl27  1  0.506078  0.756140  0.512120  1
