# generated using pymatgen
data_Sr3(NiO3)2
_symmetry_space_group_name_H-M   'P 1'
_cell_length_a   6.60691249
_cell_length_b   6.60684518
_cell_length_c   6.60685328
_cell_angle_alpha   92.78657692
_cell_angle_beta   92.78760537
_cell_angle_gamma   92.78504837
_symmetry_Int_Tables_number   1
_chemical_formula_structural   Sr3(NiO3)2
_chemical_formula_sum   'Sr6 Ni4 O12'
_cell_volume   287.33737148
_cell_formula_units_Z   2
loop_
 _symmetry_equiv_pos_site_id
 _symmetry_equiv_pos_as_xyz
  1  'x, y, z'
loop_
 _atom_site_type_symbol
 _atom_site_label
 _atom_site_symmetry_multiplicity
 _atom_site_fract_x
 _atom_site_fract_y
 _atom_site_fract_z
 _atom_site_occupancy
  Sr  Sr0  1  0.615677  0.884299  0.250020  1
  Sr  Sr1  1  0.884383  0.250002  0.615645  1
  Sr  Sr2  1  0.249941  0.615641  0.884343  1
  Sr  Sr3  1  0.115630  0.749965  0.384377  1
  Sr  Sr4  1  0.750039  0.384354  0.115673  1
  Sr  Sr5  1  0.384302  0.115655  0.749990  1
  Ni  Ni6  1  0.500001  0.499901  0.499945  1
  Ni  Ni7  1  0.999994  0.000077  0.000048  1
  Ni  Ni8  1  0.250209  0.249956  0.249843  1
  Ni  Ni9  1  0.749847  0.750142  0.750025  1
  O  O10  1  0.536292  0.222536  0.416302  1
  O  O11  1  0.222633  0.416276  0.536244  1
  O  O12  1  0.416338  0.536226  0.222547  1
  O  O13  1  0.036213  0.916332  0.722610  1
  O  O14  1  0.916281  0.722639  0.036273  1
  O  O15  1  0.722523  0.036281  0.916336  1
  O  O16  1  0.463755  0.777393  0.583692  1
  O  O17  1  0.777432  0.583681  0.463759  1
  O  O18  1  0.583679  0.463731  0.777422  1
  O  O19  1  0.963734  0.083702  0.277449  1
  O  O20  1  0.083691  0.277455  0.963762  1
  O  O21  1  0.277402  0.963758  0.083693  1
