# generated using pymatgen
data_Mn24Re4W
_symmetry_space_group_name_H-M   'P 1'
_cell_length_a   7.57596133
_cell_length_b   7.57596137
_cell_length_c   7.57596100
_cell_angle_alpha   109.47121696
_cell_angle_beta   109.47121707
_cell_angle_gamma   109.47122031
_symmetry_Int_Tables_number   1
_chemical_formula_structural   Mn24Re4W
_chemical_formula_sum   'Mn24 Re4 W1'
_cell_volume   334.72749021
_cell_formula_units_Z   1
loop_
 _symmetry_equiv_pos_site_id
 _symmetry_equiv_pos_as_xyz
  1  'x, y, z'
loop_
 _atom_site_type_symbol
 _atom_site_label
 _atom_site_symmetry_multiplicity
 _atom_site_fract_x
 _atom_site_fract_y
 _atom_site_fract_z
 _atom_site_occupancy
  Mn  Mn0  1  0.387928  0.676029  0.000000  1
  Mn  Mn1  1  0.711899  0.323971  0.323971  1
  Mn  Mn2  1  0.387928  0.000000  0.676029  1
  Mn  Mn3  1  0.676029  0.387928  0.000000  1
  Mn  Mn4  1  0.000000  0.387928  0.676029  1
  Mn  Mn5  1  0.323971  0.711899  0.323971  1
  Mn  Mn6  1  0.323971  0.323971  0.711899  1
  Mn  Mn7  1  0.000000  0.676029  0.387928  1
  Mn  Mn8  1  0.676029  0.000000  0.387928  1
  Mn  Mn9  1  0.612072  0.612072  0.288101  1
  Mn  Mn10  1  0.288101  0.612072  0.612072  1
  Mn  Mn11  1  0.612072  0.288101  0.612072  1
  Mn  Mn12  1  0.374437  0.195010  0.000000  1
  Mn  Mn13  1  0.179427  0.804990  0.804990  1
  Mn  Mn14  1  0.374437  0.000000  0.195010  1
  Mn  Mn15  1  0.195010  0.374437  0.000000  1
  Mn  Mn16  1  0.000000  0.374437  0.195010  1
  Mn  Mn17  1  0.804990  0.179427  0.804990  1
  Mn  Mn18  1  0.804990  0.804990  0.179427  1
  Mn  Mn19  1  0.000000  0.195010  0.374437  1
  Mn  Mn20  1  0.195010  0.000000  0.374437  1
  Mn  Mn21  1  0.625563  0.625563  0.820573  1
  Mn  Mn22  1  0.820573  0.625563  0.625563  1
  Mn  Mn23  1  0.625563  0.820573  0.625563  1
  Re  Re24  1  0.630573  0.000000  0.000000  1
  Re  Re25  1  0.000000  0.630573  0.000000  1
  Re  Re26  1  0.000000  0.000000  0.630573  1
  Re  Re27  1  0.369427  0.369427  0.369427  1
  W  W28  1  0.000000  0.000000  0.000000  1
