# generated using pymatgen
data_ThSc4Si7Pt7Rh2
_symmetry_space_group_name_H-M   'P 1'
_cell_length_a   10.05946213
_cell_length_b   10.03865931
_cell_length_c   3.95809400
_cell_angle_alpha   90.00000000
_cell_angle_beta   90.00000000
_cell_angle_gamma   119.79719578
_symmetry_Int_Tables_number   1
_chemical_formula_structural   ThSc4Si7Pt7Rh2
_chemical_formula_sum   'Th1 Sc4 Si7 Pt7 Rh2'
_cell_volume   346.85751522
_cell_formula_units_Z   1
loop_
 _symmetry_equiv_pos_site_id
 _symmetry_equiv_pos_as_xyz
  1  'x, y, z'
loop_
 _atom_site_type_symbol
 _atom_site_label
 _atom_site_symmetry_multiplicity
 _atom_site_fract_x
 _atom_site_fract_y
 _atom_site_fract_z
 _atom_site_occupancy
  Th  Th0  1  0.330958  0.666261  0.500000  1
  Sc  Sc1  1  0.003216  0.001719  0.000000  1
  Sc  Sc2  1  0.893870  0.457095  0.500000  1
  Sc  Sc3  1  0.562876  0.104428  0.500000  1
  Sc  Sc4  1  0.541215  0.434854  0.500000  1
  Si  Si5  1  0.236868  0.188778  0.500000  1
  Si  Si6  1  0.817099  0.053823  0.500000  1
  Si  Si7  1  0.956023  0.763336  0.500000  1
  Si  Si8  1  0.562763  0.646226  0.000000  1
  Si  Si9  1  0.348725  0.917234  0.000000  1
  Si  Si10  1  0.082443  0.433151  0.000000  1
  Si  Si11  1  0.666503  0.332180  0.000000  1
  Pt  Pt12  1  0.721196  0.784112  0.500000  1
  Pt  Pt13  1  0.313223  0.413538  0.000000  1
  Pt  Pt14  1  0.582387  0.898570  0.000000  1
  Pt  Pt15  1  0.098776  0.686439  0.000000  1
  Pt  Pt16  1  0.383413  0.175214  0.000000  1
  Pt  Pt17  1  0.824906  0.205620  0.000000  1
  Pt  Pt18  1  0.790781  0.615903  0.000000  1
  Rh  Rh19  1  0.219208  0.938724  0.500000  1
  Rh  Rh20  1  0.063550  0.282796  0.500000  1
