# generated using pymatgen
data_Lu2Zr3Re23Os
_symmetry_space_group_name_H-M   'P 1'
_cell_length_a   8.49845139
_cell_length_b   8.52486221
_cell_length_c   8.50541917
_cell_angle_alpha   109.56071368
_cell_angle_beta   109.43491481
_cell_angle_gamma   109.44778649
_symmetry_Int_Tables_number   1
_chemical_formula_structural   Lu2Zr3Re23Os
_chemical_formula_sum   'Lu2 Zr3 Re23 Os1'
_cell_volume   474.17750363
_cell_formula_units_Z   1
loop_
 _symmetry_equiv_pos_site_id
 _symmetry_equiv_pos_as_xyz
  1  'x, y, z'
loop_
 _atom_site_type_symbol
 _atom_site_label
 _atom_site_symmetry_multiplicity
 _atom_site_fract_x
 _atom_site_fract_y
 _atom_site_fract_z
 _atom_site_occupancy
  Lu  Lu0  1  0.998958  0.999756  0.000000  1
  Lu  Lu1  1  0.627936  0.999132  0.000000  1
  Zr  Zr2  1  0.000570  0.629151  0.000000  1
  Zr  Zr3  1  0.000171  0.000129  0.628838  1
  Zr  Zr4  1  0.371333  0.371292  0.371162  1
  Re  Re5  1  0.721541  0.327799  0.327403  1
  Re  Re6  1  0.394139  0.000397  0.672597  1
  Re  Re7  1  0.676323  0.395282  0.000000  1
  Re  Re8  1  0.999666  0.396085  0.676336  1
  Re  Re9  1  0.323331  0.719749  0.323664  1
  Re  Re10  1  0.322882  0.324466  0.720905  1
  Re  Re11  1  0.998555  0.675746  0.395526  1
  Re  Re12  1  0.675850  0.998237  0.394400  1
  Re  Re13  1  0.601976  0.603561  0.279095  1
  Re  Re14  1  0.281449  0.603837  0.605600  1
  Re  Re15  1  0.603029  0.280220  0.604474  1
  Re  Re16  1  0.376782  0.194258  0.000000  1
  Re  Re17  1  0.182702  0.805706  0.805264  1
  Re  Re18  1  0.377438  0.000442  0.194736  1
  Re  Re19  1  0.195440  0.376732  0.000000  1
  Re  Re20  1  0.001071  0.378123  0.194323  1
  Re  Re21  1  0.806748  0.183801  0.805677  1
  Re  Re22  1  0.807208  0.805405  0.184320  1
  Re  Re23  1  0.000673  0.194113  0.377543  1
  Re  Re24  1  0.195138  0.999394  0.376005  1
  Re  Re25  1  0.622889  0.621086  0.815680  1
  Re  Re26  1  0.819133  0.623389  0.623995  1
  Re  Re27  1  0.623130  0.816568  0.622457  1
  Os  Os28  1  0.393944  0.676145  0.000000  1
