# generated using pymatgen
data_LuZr3(Co3Os)2
_symmetry_space_group_name_H-M   'P 1'
_cell_length_a   4.97264000
_cell_length_b   4.97264074
_cell_length_c   8.26102900
_cell_angle_alpha   90.00000000
_cell_angle_beta   90.00000000
_cell_angle_gamma   119.99998175
_symmetry_Int_Tables_number   1
_chemical_formula_structural   LuZr3(Co3Os)2
_chemical_formula_sum   'Lu1 Zr3 Co6 Os2'
_cell_volume   176.90453304
_cell_formula_units_Z   1
loop_
 _symmetry_equiv_pos_site_id
 _symmetry_equiv_pos_as_xyz
  1  'x, y, z'
loop_
 _atom_site_type_symbol
 _atom_site_label
 _atom_site_symmetry_multiplicity
 _atom_site_fract_x
 _atom_site_fract_y
 _atom_site_fract_z
 _atom_site_occupancy
  Lu  Lu0  1  0.333333  0.666667  0.065397  1
  Zr  Zr1  1  0.333333  0.666667  0.433703  1
  Zr  Zr2  1  0.666667  0.333333  0.568824  1
  Zr  Zr3  1  0.666667  0.333333  0.932904  1
  Co  Co4  1  0.170038  0.340078  0.747816  1
  Co  Co5  1  0.170038  0.829962  0.747816  1
  Co  Co6  1  0.342115  0.171057  0.251897  1
  Co  Co7  1  0.828943  0.657885  0.251897  1
  Co  Co8  1  0.659922  0.829962  0.747816  1
  Co  Co9  1  0.828943  0.171057  0.251897  1
  Os  Os10  1  0.000000  0.000000  0.000454  1
  Os  Os11  1  0.000000  0.000000  0.499579  1
