# generated using pymatgen
data_Ac3Tl2HgPd3
_symmetry_space_group_name_H-M   'P 1'
_cell_length_a   8.09984400
_cell_length_b   8.04015254
_cell_length_c   4.19097500
_cell_angle_alpha   90.00000000
_cell_angle_beta   90.00000000
_cell_angle_gamma   120.24588669
_symmetry_Int_Tables_number   1
_chemical_formula_structural   Ac3Tl2HgPd3
_chemical_formula_sum   'Ac3 Tl2 Hg1 Pd3'
_cell_volume   235.77906707
_cell_formula_units_Z   1
loop_
 _symmetry_equiv_pos_site_id
 _symmetry_equiv_pos_as_xyz
  1  'x, y, z'
loop_
 _atom_site_type_symbol
 _atom_site_label
 _atom_site_symmetry_multiplicity
 _atom_site_fract_x
 _atom_site_fract_y
 _atom_site_fract_z
 _atom_site_occupancy
  Ac  Ac0  1  0.589100  0.000000  0.000000  1
  Ac  Ac1  1  0.004583  0.600498  0.000000  1
  Ac  Ac2  1  0.404085  0.399502  0.000000  1
  Tl  Tl3  1  0.998476  0.251183  0.500000  1
  Tl  Tl4  1  0.747294  0.748817  0.500000  1
  Hg  Hg5  1  0.254310  0.000000  0.500000  1
  Pd  Pd6  1  0.334657  0.660549  0.500000  1
  Pd  Pd7  1  0.674110  0.339451  0.500000  1
  Pd  Pd8  1  0.993383  0.000000  0.000000  1
