# generated using pymatgen
data_La2YHo(AsPt)4
_symmetry_space_group_name_H-M   'P 1'
_cell_length_a   4.32975600
_cell_length_b   4.32975577
_cell_length_c   15.99560800
_cell_angle_alpha   90.00000000
_cell_angle_beta   90.00000000
_cell_angle_gamma   119.99998648
_symmetry_Int_Tables_number   1
_chemical_formula_structural   La2YHo(AsPt)4
_chemical_formula_sum   'La2 Y1 Ho1 As4 Pt4'
_cell_volume   259.69181740
_cell_formula_units_Z   1
loop_
 _symmetry_equiv_pos_site_id
 _symmetry_equiv_pos_as_xyz
  1  'x, y, z'
loop_
 _atom_site_type_symbol
 _atom_site_label
 _atom_site_symmetry_multiplicity
 _atom_site_fract_x
 _atom_site_fract_y
 _atom_site_fract_z
 _atom_site_occupancy
  La  La0  1  0.000000  0.000000  0.500021  1
  La  La1  1  0.000000  0.000000  0.999979  1
  Y  Y2  1  0.000000  0.000000  0.250000  1
  Ho  Ho3  1  0.000000  0.000000  0.750000  1
  As  As4  1  0.333333  0.666667  0.878601  1
  As  As5  1  0.666667  0.333333  0.121190  1
  As  As6  1  0.666667  0.333333  0.378810  1
  As  As7  1  0.333333  0.666667  0.621399  1
  Pt  Pt8  1  0.333333  0.666667  0.357078  1
  Pt  Pt9  1  0.666667  0.333333  0.643688  1
  Pt  Pt10  1  0.666667  0.333333  0.856312  1
  Pt  Pt11  1  0.333333  0.666667  0.142922  1
