# generated using pymatgen
data_Ca4Al6SeO12
_symmetry_space_group_name_H-M   'P 1'
_cell_length_a   7.91242610
_cell_length_b   7.91242636
_cell_length_c   7.91242600
_cell_angle_alpha   109.47121715
_cell_angle_beta   109.47121781
_cell_angle_gamma   109.47122641
_symmetry_Int_Tables_number   1
_chemical_formula_structural   Ca4Al6SeO12
_chemical_formula_sum   'Ca4 Al6 Se1 O12'
_cell_volume   381.33539837
_cell_formula_units_Z   1
loop_
 _symmetry_equiv_pos_site_id
 _symmetry_equiv_pos_as_xyz
  1  'x, y, z'
loop_
 _atom_site_type_symbol
 _atom_site_label
 _atom_site_symmetry_multiplicity
 _atom_site_fract_x
 _atom_site_fract_y
 _atom_site_fract_z
 _atom_site_occupancy
  Ca  Ca0  1  0.633350  0.000000  0.000000  1
  Ca  Ca1  1  0.000000  0.000000  0.633350  1
  Ca  Ca2  1  0.000000  0.633350  0.000000  1
  Ca  Ca3  1  0.366650  0.366650  0.366650  1
  Al  Al4  1  0.250000  0.750000  0.500000  1
  Al  Al5  1  0.750000  0.250000  0.500000  1
  Al  Al6  1  0.750000  0.500000  0.250000  1
  Al  Al7  1  0.250000  0.500000  0.750000  1
  Al  Al8  1  0.500000  0.750000  0.250000  1
  Al  Al9  1  0.500000  0.250000  0.750000  1
  Se  Se10  1  0.000000  0.000000  0.000000  1
  O  O11  1  0.706460  0.280868  0.280868  1
  O  O12  1  0.280868  0.706460  0.280868  1
  O  O13  1  0.293540  0.574408  0.574408  1
  O  O14  1  0.574408  0.574408  0.293540  1
  O  O15  1  0.425592  0.719132  0.000000  1
  O  O16  1  0.000000  0.719132  0.425592  1
  O  O17  1  0.574408  0.293540  0.574408  1
  O  O18  1  0.719132  0.000000  0.425592  1
  O  O19  1  0.425592  0.000000  0.719132  1
  O  O20  1  0.719132  0.425592  0.000000  1
  O  O21  1  0.280868  0.280868  0.706460  1
  O  O22  1  0.000000  0.425592  0.719132  1
