# generated using pymatgen
data_Tb3Ho2Th3MgTlRu2
_symmetry_space_group_name_H-M   'P 1'
_cell_length_a   9.74173440
_cell_length_b   9.82842197
_cell_length_c   9.82842100
_cell_angle_alpha   59.41732206
_cell_angle_beta   60.29131759
_cell_angle_gamma   60.29132727
_symmetry_Int_Tables_number   1
_chemical_formula_structural   Tb3Ho2Th3MgTlRu2
_chemical_formula_sum   'Tb6 Ho4 Th6 Mg2 Tl2 Ru4'
_cell_volume   665.30645947
_cell_formula_units_Z   2
loop_
 _symmetry_equiv_pos_site_id
 _symmetry_equiv_pos_as_xyz
  1  'x, y, z'
loop_
 _atom_site_type_symbol
 _atom_site_label
 _atom_site_symmetry_multiplicity
 _atom_site_fract_x
 _atom_site_fract_y
 _atom_site_fract_z
 _atom_site_occupancy
  Tb  Tb0  1  0.185380  0.815318  0.814355  1
  Tb  Tb1  1  0.815318  0.185380  0.184947  1
  Tb  Tb2  1  0.812137  0.188286  0.811344  1
  Tb  Tb3  1  0.188286  0.812137  0.188234  1
  Tb  Tb4  1  0.811310  0.811310  0.188690  1
  Tb  Tb5  1  0.187687  0.187687  0.812313  1
  Ho  Ho6  1  0.438908  0.060220  0.439856  1
  Ho  Ho7  1  0.060220  0.438908  0.061016  1
  Ho  Ho8  1  0.438244  0.438244  0.061756  1
  Ho  Ho9  1  0.059147  0.059147  0.440853  1
  Th  Th10  1  0.592873  0.598990  0.599064  1
  Th  Th11  1  0.598990  0.592873  0.209074  1
  Th  Th12  1  0.598856  0.209396  0.592688  1
  Th  Th13  1  0.209396  0.598856  0.599061  1
  Th  Th14  1  0.066478  0.432699  0.434391  1
  Th  Th15  1  0.432699  0.066478  0.066433  1
  Mg  Mg16  1  0.828783  0.511425  0.831212  1
  Mg  Mg17  1  0.511425  0.828783  0.828581  1
  Tl  Tl18  1  0.833871  0.830666  0.834925  1
  Tl  Tl19  1  0.830666  0.833871  0.500539  1
  Ru  Ru20  1  0.378112  0.398318  0.398094  1
  Ru  Ru21  1  0.398318  0.378112  0.825478  1
  Ru  Ru22  1  0.398581  0.824319  0.378811  1
  Ru  Ru23  1  0.824319  0.398581  0.398290  1
