# generated using pymatgen
data_ErTh2Sn3IrRh2
_symmetry_space_group_name_H-M   'P 1'
_cell_length_a   7.56352201
_cell_length_b   7.56682824
_cell_length_c   4.05010700
_cell_angle_alpha   90.00000000
_cell_angle_beta   90.00000000
_cell_angle_gamma   120.23906720
_symmetry_Int_Tables_number   1
_chemical_formula_structural   ErTh2Sn3IrRh2
_chemical_formula_sum   'Er1 Th2 Sn3 Ir1 Rh2'
_cell_volume   200.25520609
_cell_formula_units_Z   1
loop_
 _symmetry_equiv_pos_site_id
 _symmetry_equiv_pos_as_xyz
  1  'x, y, z'
loop_
 _atom_site_type_symbol
 _atom_site_label
 _atom_site_symmetry_multiplicity
 _atom_site_fract_x
 _atom_site_fract_y
 _atom_site_fract_z
 _atom_site_occupancy
  Er  Er0  1  0.407532  0.406758  0.500000  1
  Th  Th1  1  0.586719  0.999969  0.500000  1
  Th  Th2  1  0.998718  0.586241  0.500000  1
  Sn  Sn3  1  0.737690  0.738150  0.000000  1
  Sn  Sn4  1  0.253857  0.010399  0.000000  1
  Sn  Sn5  1  0.011318  0.254278  0.000000  1
  Ir  Ir6  1  0.675228  0.332457  0.000000  1
  Rh  Rh7  1  0.332491  0.675175  0.000000  1
  Rh  Rh8  1  0.996446  0.996572  0.500000  1
