# generated using pymatgen
data_Sn4HRh6
_symmetry_space_group_name_H-M   'P 1'
_cell_length_a   5.64112500
_cell_length_b   5.64112563
_cell_length_c   13.50119600
_cell_angle_alpha   90.00000000
_cell_angle_beta   90.00000000
_cell_angle_gamma   120.00000214
_symmetry_Int_Tables_number   1
_chemical_formula_structural   Sn4HRh6
_chemical_formula_sum   'Sn8 H2 Rh12'
_cell_volume   372.07831496
_cell_formula_units_Z   2
loop_
 _symmetry_equiv_pos_site_id
 _symmetry_equiv_pos_as_xyz
  1  'x, y, z'
loop_
 _atom_site_type_symbol
 _atom_site_label
 _atom_site_symmetry_multiplicity
 _atom_site_fract_x
 _atom_site_fract_y
 _atom_site_fract_z
 _atom_site_occupancy
  Sn  Sn0  1  0.000000  0.000000  0.750000  1
  Sn  Sn1  1  0.000000  0.000000  0.250000  1
  Sn  Sn2  1  0.333333  0.666667  0.750000  1
  Sn  Sn3  1  0.666667  0.333333  0.250000  1
  Sn  Sn4  1  0.333333  0.666667  0.422614  1
  Sn  Sn5  1  0.666667  0.333333  0.922614  1
  Sn  Sn6  1  0.666667  0.333333  0.577386  1
  Sn  Sn7  1  0.333333  0.666667  0.077386  1
  H  H8  1  0.000000  0.000000  0.500000  1
  H  H9  1  0.000000  0.000000  0.000000  1
  Rh  Rh10  1  0.332487  0.166244  0.409275  1
  Rh  Rh11  1  0.833756  0.166244  0.409275  1
  Rh  Rh12  1  0.833756  0.667513  0.409275  1
  Rh  Rh13  1  0.166244  0.332487  0.909275  1
  Rh  Rh14  1  0.667513  0.833756  0.590725  1
  Rh  Rh15  1  0.667513  0.833756  0.909275  1
  Rh  Rh16  1  0.332487  0.166244  0.090725  1
  Rh  Rh17  1  0.166244  0.332487  0.590725  1
  Rh  Rh18  1  0.166244  0.833756  0.590725  1
  Rh  Rh19  1  0.833756  0.166244  0.090725  1
  Rh  Rh20  1  0.833756  0.667513  0.090725  1
  Rh  Rh21  1  0.166244  0.833756  0.909275  1
