# generated using pymatgen
data_Tb5Bi2P
_symmetry_space_group_name_H-M   'P 1'
_cell_length_a   8.05733100
_cell_length_b   8.99275900
_cell_length_c   12.26786400
_cell_angle_alpha   90.00000000
_cell_angle_beta   90.00000000
_cell_angle_gamma   90.00000000
_symmetry_Int_Tables_number   1
_chemical_formula_structural   Tb5Bi2P
_chemical_formula_sum   'Tb20 Bi8 P4'
_cell_volume   888.90042257
_cell_formula_units_Z   4
loop_
 _symmetry_equiv_pos_site_id
 _symmetry_equiv_pos_as_xyz
  1  'x, y, z'
loop_
 _atom_site_type_symbol
 _atom_site_label
 _atom_site_symmetry_multiplicity
 _atom_site_fract_x
 _atom_site_fract_y
 _atom_site_fract_z
 _atom_site_occupancy
  Tb  Tb0  1  0.851466  0.750000  0.795002  1
  Tb  Tb1  1  0.148534  0.250000  0.204998  1
  Tb  Tb2  1  0.351466  0.250000  0.704998  1
  Tb  Tb3  1  0.648534  0.750000  0.295002  1
  Tb  Tb4  1  0.375164  0.750000  0.698185  1
  Tb  Tb5  1  0.624836  0.250000  0.301815  1
  Tb  Tb6  1  0.875164  0.250000  0.801815  1
  Tb  Tb7  1  0.124836  0.750000  0.198185  1
  Tb  Tb8  1  0.960752  0.750000  0.502337  1
  Tb  Tb9  1  0.039248  0.250000  0.497663  1
  Tb  Tb10  1  0.460752  0.250000  0.997663  1
  Tb  Tb11  1  0.539248  0.750000  0.002337  1
  Tb  Tb12  1  0.684170  0.045799  0.564398  1
  Tb  Tb13  1  0.315830  0.954201  0.435602  1
  Tb  Tb14  1  0.184170  0.954201  0.935602  1
  Tb  Tb15  1  0.315830  0.545799  0.435602  1
  Tb  Tb16  1  0.815830  0.045799  0.064398  1
  Tb  Tb17  1  0.684170  0.454201  0.564398  1
  Tb  Tb18  1  0.815830  0.454201  0.064398  1
  Tb  Tb19  1  0.184170  0.545799  0.935602  1
  Bi  Bi20  1  0.576919  0.491691  0.825956  1
  Bi  Bi21  1  0.423081  0.508309  0.174044  1
  Bi  Bi22  1  0.076919  0.508309  0.674044  1
  Bi  Bi23  1  0.423081  0.991691  0.174044  1
  Bi  Bi24  1  0.923081  0.491691  0.325956  1
  Bi  Bi25  1  0.576919  0.008309  0.825956  1
  Bi  Bi26  1  0.923081  0.008309  0.325956  1
  Bi  Bi27  1  0.076919  0.991691  0.674044  1
  P  P28  1  0.567885  0.750000  0.510511  1
  P  P29  1  0.432115  0.250000  0.489489  1
  P  P30  1  0.067885  0.250000  0.989489  1
  P  P31  1  0.932115  0.750000  0.010511  1
