# generated using pymatgen
data_CeNd7(Si3Pt)4
_symmetry_space_group_name_H-M   'P 1'
_cell_length_a   8.21902400
_cell_length_b   8.21902350
_cell_length_c   8.52318800
_cell_angle_alpha   90.00000000
_cell_angle_beta   90.00000000
_cell_angle_gamma   120.00000202
_symmetry_Int_Tables_number   1
_chemical_formula_structural   CeNd7(Si3Pt)4
_chemical_formula_sum   'Ce1 Nd7 Si12 Pt4'
_cell_volume   498.62398082
_cell_formula_units_Z   1
loop_
 _symmetry_equiv_pos_site_id
 _symmetry_equiv_pos_as_xyz
  1  'x, y, z'
loop_
 _atom_site_type_symbol
 _atom_site_label
 _atom_site_symmetry_multiplicity
 _atom_site_fract_x
 _atom_site_fract_y
 _atom_site_fract_z
 _atom_site_occupancy
  Ce  Ce0  1  0.000000  0.000000  0.750000  1
  Nd  Nd1  1  0.000000  0.000000  0.250000  1
  Nd  Nd2  1  0.499620  0.500380  0.750000  1
  Nd  Nd3  1  0.499620  0.999241  0.750000  1
  Nd  Nd4  1  0.000759  0.500380  0.750000  1
  Nd  Nd5  1  0.500418  0.499582  0.250000  1
  Nd  Nd6  1  0.999165  0.499582  0.250000  1
  Nd  Nd7  1  0.500418  0.000835  0.250000  1
  Si  Si8  1  0.834595  0.165405  0.997551  1
  Si  Si9  1  0.834595  0.669191  0.997551  1
  Si  Si10  1  0.330809  0.165405  0.997551  1
  Si  Si11  1  0.834595  0.165405  0.502449  1
  Si  Si12  1  0.834595  0.669191  0.502449  1
  Si  Si13  1  0.330809  0.165405  0.502449  1
  Si  Si14  1  0.165433  0.834567  0.502183  1
  Si  Si15  1  0.669133  0.834567  0.502183  1
  Si  Si16  1  0.165433  0.330867  0.502183  1
  Si  Si17  1  0.165433  0.834567  0.997817  1
  Si  Si18  1  0.669133  0.834567  0.997817  1
  Si  Si19  1  0.165433  0.330867  0.997817  1
  Pt  Pt20  1  0.666667  0.333333  0.000821  1
  Pt  Pt21  1  0.666667  0.333333  0.499179  1
  Pt  Pt22  1  0.333333  0.666667  0.496303  1
  Pt  Pt23  1  0.333333  0.666667  0.003697  1
