# generated using pymatgen
data_Dy12HoTm7(CoBi2)4
_symmetry_space_group_name_H-M   'P 1'
_cell_length_a   7.96507818
_cell_length_b   8.89727261
_cell_length_c   12.42740020
_cell_angle_alpha   89.97173306
_cell_angle_beta   90.03995654
_cell_angle_gamma   90.02970105
_symmetry_Int_Tables_number   1
_chemical_formula_structural   Dy12HoTm7(CoBi2)4
_chemical_formula_sum   'Dy12 Ho1 Tm7 Co4 Bi8'
_cell_volume   880.69799565
_cell_formula_units_Z   1
loop_
 _symmetry_equiv_pos_site_id
 _symmetry_equiv_pos_as_xyz
  1  'x, y, z'
loop_
 _atom_site_type_symbol
 _atom_site_label
 _atom_site_symmetry_multiplicity
 _atom_site_fract_x
 _atom_site_fract_y
 _atom_site_fract_z
 _atom_site_occupancy
  Dy  Dy0  1  0.348031  0.749974  0.699394  1
  Dy  Dy1  1  0.651979  0.249993  0.300475  1
  Dy  Dy2  1  0.847529  0.250303  0.800455  1
  Dy  Dy3  1  0.152213  0.749866  0.199454  1
  Dy  Dy4  1  0.884027  0.749584  0.811944  1
  Dy  Dy5  1  0.114980  0.250617  0.188254  1
  Dy  Dy6  1  0.384625  0.249833  0.687749  1
  Dy  Dy7  1  0.615450  0.750060  0.312145  1
  Dy  Dy8  1  0.175864  0.037384  0.937210  1
  Dy  Dy9  1  0.053688  0.749973  0.497650  1
  Dy  Dy10  1  0.946209  0.250080  0.502295  1
  Dy  Dy11  1  0.554281  0.250343  0.002337  1
  Ho  Ho12  1  0.447456  0.749444  0.997765  1
  Tm  Tm13  1  0.673088  0.537845  0.562589  1
  Tm  Tm14  1  0.326813  0.462091  0.437324  1
  Tm  Tm15  1  0.173240  0.462400  0.937511  1
  Tm  Tm16  1  0.326789  0.037938  0.437380  1
  Tm  Tm17  1  0.826799  0.538509  0.062841  1
  Tm  Tm18  1  0.673169  0.962209  0.562566  1
  Tm  Tm19  1  0.826382  0.961781  0.062829  1
  Co  Co20  1  0.064096  0.749364  0.992479  1
  Co  Co21  1  0.933698  0.250782  0.008014  1
  Co  Co22  1  0.564449  0.250015  0.507432  1
  Co  Co23  1  0.435633  0.750001  0.492480  1
  Bi  Bi24  1  0.570268  0.509201  0.826892  1
  Bi  Bi25  1  0.429244  0.491167  0.173013  1
  Bi  Bi26  1  0.070587  0.490999  0.673226  1
  Bi  Bi27  1  0.428990  0.008792  0.172878  1
  Bi  Bi28  1  0.929184  0.509176  0.326983  1
  Bi  Bi29  1  0.571601  0.990485  0.826696  1
  Bi  Bi30  1  0.929345  0.990880  0.326828  1
  Bi  Bi31  1  0.070293  0.008910  0.672914  1
