# generated using pymatgen
data_Dy3Zr4BiF28
_symmetry_space_group_name_H-M   'P 1'
_cell_length_a   5.78647322
_cell_length_b   9.18006837
_cell_length_c   12.31370181
_cell_angle_alpha   62.26406778
_cell_angle_beta   90.00168767
_cell_angle_gamma   90.00992212
_symmetry_Int_Tables_number   1
_chemical_formula_structural   Dy3Zr4BiF28
_chemical_formula_sum   'Dy3 Zr4 Bi1 F28'
_cell_volume   578.95095869
_cell_formula_units_Z   1
loop_
 _symmetry_equiv_pos_site_id
 _symmetry_equiv_pos_as_xyz
  1  'x, y, z'
loop_
 _atom_site_type_symbol
 _atom_site_label
 _atom_site_symmetry_multiplicity
 _atom_site_fract_x
 _atom_site_fract_y
 _atom_site_fract_z
 _atom_site_occupancy
  Dy  Dy0  1  0.743941  0.817783  0.265713  1
  Dy  Dy1  1  0.243303  0.184563  0.233772  1
  Dy  Dy2  1  0.256296  0.189285  0.733727  1
  Zr  Zr3  1  0.743752  0.278070  0.452807  1
  Zr  Zr4  1  0.244770  0.725456  0.048533  1
  Zr  Zr5  1  0.255521  0.726010  0.541158  1
  Zr  Zr6  1  0.755077  0.270911  0.956942  1
  Bi  Bi7  1  0.757927  0.820570  0.764656  1
  F  F8  1  0.461015  0.708926  0.925267  1
  F  F9  1  0.966345  0.287943  0.577649  1
  F  F10  1  0.531595  0.285694  0.079219  1
  F  F11  1  0.031314  0.711619  0.419025  1
  F  F12  1  0.456286  0.280564  0.550345  1
  F  F13  1  0.954839  0.716342  0.956548  1
  F  F14  1  0.546366  0.719453  0.447629  1
  F  F15  1  0.043962  0.277785  0.051938  1
  F  F16  1  0.769035  0.518028  0.860174  1
  F  F17  1  0.267303  0.474907  0.639561  1
  F  F18  1  0.234620  0.474286  0.143592  1
  F  F19  1  0.733131  0.526855  0.357196  1
  F  F20  1  0.759445  0.021006  0.059991  1
  F  F21  1  0.259263  0.975457  0.439747  1
  F  F22  1  0.240349  0.974534  0.941681  1
  F  F23  1  0.740003  0.027052  0.554767  1
  F  F24  1  0.985473  0.731882  0.644581  1
  F  F25  1  0.485988  0.264363  0.851141  1
  F  F26  1  0.011816  0.264932  0.349607  1
  F  F27  1  0.514018  0.735280  0.152365  1
  F  F28  1  0.032154  0.747246  0.174416  1
  F  F29  1  0.530757  0.253556  0.328164  1
  F  F30  1  0.967339  0.250790  0.829442  1
  F  F31  1  0.459740  0.744595  0.669889  1
  F  F32  1  0.431941  0.975796  0.235670  1
  F  F33  1  0.933031  0.025843  0.264438  1
  F  F34  1  0.571816  0.034688  0.765620  1
  F  F35  1  0.080471  0.977932  0.733031  1
