# generated using pymatgen
data_La10CuOs3
_symmetry_space_group_name_H-M   'P 1'
_cell_length_a   9.13590579
_cell_length_b   9.18648131
_cell_length_c   7.44582488
_cell_angle_alpha   83.83240313
_cell_angle_beta   83.84326788
_cell_angle_gamma   43.18502349
_symmetry_Int_Tables_number   1
_chemical_formula_structural   La10CuOs3
_chemical_formula_sum   'La10 Cu1 Os3'
_cell_volume   424.79810904
_cell_formula_units_Z   1
loop_
 _symmetry_equiv_pos_site_id
 _symmetry_equiv_pos_as_xyz
  1  'x, y, z'
loop_
 _atom_site_type_symbol
 _atom_site_label
 _atom_site_symmetry_multiplicity
 _atom_site_fract_x
 _atom_site_fract_y
 _atom_site_fract_z
 _atom_site_occupancy
  La  La0  1  0.006505  0.811358  0.930076  1
  La  La1  1  0.195730  0.992828  0.591865  1
  La  La2  1  0.987722  0.196111  0.091840  1
  La  La3  1  0.789336  0.030648  0.406301  1
  La  La4  1  0.370714  0.194448  0.820085  1
  La  La5  1  0.781707  0.640066  0.681327  1
  La  La6  1  0.652232  0.780757  0.182801  1
  La  La7  1  0.215466  0.346130  0.309504  1
  La  La8  1  0.570167  0.430288  0.750779  1
  La  La9  1  0.429359  0.578949  0.241299  1
  Cu  Cu10  1  0.183385  0.597195  0.569450  1
  Os  Os11  1  0.403761  0.822934  0.920521  1
  Os  Os12  1  0.816976  0.398271  0.427606  1
  Os  Os13  1  0.596941  0.180018  0.076546  1
