# generated using pymatgen
data_CdFeCo2(SiO4)2
_symmetry_space_group_name_H-M   'P 1'
_cell_length_a   4.84886800
_cell_length_b   6.23606400
_cell_length_c   10.90138800
_cell_angle_alpha   90.00000000
_cell_angle_beta   90.00000000
_cell_angle_gamma   90.00000000
_symmetry_Int_Tables_number   1
_chemical_formula_structural   CdFeCo2(SiO4)2
_chemical_formula_sum   'Cd2 Fe2 Co4 Si4 O16'
_cell_volume   329.63454795
_cell_formula_units_Z   2
loop_
 _symmetry_equiv_pos_site_id
 _symmetry_equiv_pos_as_xyz
  1  'x, y, z'
loop_
 _atom_site_type_symbol
 _atom_site_label
 _atom_site_symmetry_multiplicity
 _atom_site_fract_x
 _atom_site_fract_y
 _atom_site_fract_z
 _atom_site_occupancy
  Cd  Cd0  1  0.011411  0.000000  0.721482  1
  Cd  Cd1  1  0.511409  0.500000  0.778516  1
  Fe  Fe2  1  0.479974  0.000000  0.223561  1
  Fe  Fe3  1  0.979974  0.500000  0.276441  1
  Co  Co4  1  0.000311  0.248889  0.010045  1
  Co  Co5  1  0.000311  0.751111  0.010045  1
  Co  Co6  1  0.500311  0.251113  0.489954  1
  Co  Co7  1  0.500311  0.748887  0.489954  1
  Si  Si8  1  0.421349  0.500000  0.098472  1
  Si  Si9  1  0.921347  0.000000  0.401528  1
  Si  Si10  1  0.079824  0.500000  0.578844  1
  Si  Si11  1  0.579822  0.000000  0.921156  1
  O  O12  1  0.725098  0.000000  0.059816  1
  O  O13  1  0.759911  0.500000  0.094290  1
  O  O14  1  0.282145  0.287202  0.165698  1
  O  O15  1  0.282145  0.712798  0.165698  1
  O  O16  1  0.782145  0.212799  0.334302  1
  O  O17  1  0.782145  0.787200  0.334302  1
  O  O18  1  0.259911  0.000000  0.405710  1
  O  O19  1  0.225100  0.500000  0.440183  1
  O  O20  1  0.767485  0.000000  0.539015  1
  O  O21  1  0.741847  0.500000  0.575909  1
  O  O22  1  0.224095  0.289499  0.646106  1
  O  O23  1  0.224095  0.710501  0.646106  1
  O  O24  1  0.724093  0.210502  0.853895  1
  O  O25  1  0.724093  0.789497  0.853895  1
  O  O26  1  0.241847  0.000000  0.924092  1
  O  O27  1  0.267487  0.500000  0.960986  1
