# generated using pymatgen
data_Sr6DyY(CoO6)2
_symmetry_space_group_name_H-M   'P 1'
_cell_length_a   6.77775695
_cell_length_b   6.77649587
_cell_length_c   6.77688612
_cell_angle_alpha   92.48626644
_cell_angle_beta   92.52003872
_cell_angle_gamma   92.50843102
_symmetry_Int_Tables_number   1
_chemical_formula_structural   Sr6DyY(CoO6)2
_chemical_formula_sum   'Sr6 Dy1 Y1 Co2 O12'
_cell_volume   310.33941272
_cell_formula_units_Z   1
loop_
 _symmetry_equiv_pos_site_id
 _symmetry_equiv_pos_as_xyz
  1  'x, y, z'
loop_
 _atom_site_type_symbol
 _atom_site_label
 _atom_site_symmetry_multiplicity
 _atom_site_fract_x
 _atom_site_fract_y
 _atom_site_fract_z
 _atom_site_occupancy
  Sr  Sr0  1  0.881884  0.249814  0.618092  1
  Sr  Sr1  1  0.249842  0.618834  0.881138  1
  Sr  Sr2  1  0.618267  0.881580  0.250206  1
  Sr  Sr3  1  0.750213  0.381341  0.118499  1
  Sr  Sr4  1  0.381731  0.118385  0.749596  1
  Sr  Sr5  1  0.118163  0.750413  0.381647  1
  Dy  Dy6  1  0.749770  0.749417  0.750692  1
  Y  Y7  1  0.250229  0.250565  0.249247  1
  Co  Co8  1  0.999522  0.999883  0.999924  1
  Co  Co9  1  0.500516  0.500001  0.500472  1
  O  O10  1  0.219201  0.414079  0.544976  1
  O  O11  1  0.414652  0.546217  0.218762  1
  O  O12  1  0.545535  0.218734  0.413763  1
  O  O13  1  0.913776  0.718819  0.045736  1
  O  O14  1  0.718142  0.044420  0.914421  1
  O  O15  1  0.044377  0.913599  0.718697  1
  O  O16  1  0.781689  0.585956  0.455747  1
  O  O17  1  0.586323  0.454201  0.781382  1
  O  O18  1  0.454921  0.780888  0.586915  1
  O  O19  1  0.085299  0.281486  0.953810  1
  O  O20  1  0.281005  0.955027  0.085284  1
  O  O21  1  0.954947  0.086343  0.280992  1
