# generated using pymatgen
data_Er3Tm5Si12PtRh3
_symmetry_space_group_name_H-M   'P 1'
_cell_length_a   8.13078400
_cell_length_b   8.13195578
_cell_length_c   7.79401100
_cell_angle_alpha   90.00139600
_cell_angle_beta   89.99929481
_cell_angle_gamma   119.99428243
_symmetry_Int_Tables_number   1
_chemical_formula_structural   Er3Tm5Si12PtRh3
_chemical_formula_sum   'Er3 Tm5 Si12 Pt1 Rh3'
_cell_volume   446.31768616
_cell_formula_units_Z   1
loop_
 _symmetry_equiv_pos_site_id
 _symmetry_equiv_pos_as_xyz
  1  'x, y, z'
loop_
 _atom_site_type_symbol
 _atom_site_label
 _atom_site_symmetry_multiplicity
 _atom_site_fract_x
 _atom_site_fract_y
 _atom_site_fract_z
 _atom_site_occupancy
  Er  Er0  1  0.510402  0.020822  0.251843  1
  Er  Er1  1  0.999982  0.999976  0.749015  1
  Er  Er2  1  0.999974  0.999943  0.250337  1
  Tm  Tm3  1  0.979609  0.489871  0.251939  1
  Tm  Tm4  1  0.510261  0.489868  0.251934  1
  Tm  Tm5  1  0.491391  0.982777  0.748182  1
  Tm  Tm6  1  0.017217  0.508605  0.748150  1
  Tm  Tm7  1  0.491390  0.508609  0.748156  1
  Si  Si8  1  0.166818  0.833075  0.499956  1
  Si  Si9  1  0.166832  0.333668  0.499871  1
  Si  Si10  1  0.666260  0.833073  0.499954  1
  Si  Si11  1  0.335315  0.167749  0.999840  1
  Si  Si12  1  0.833096  0.666192  0.500272  1
  Si  Si13  1  0.832434  0.167750  0.999841  1
  Si  Si14  1  0.832328  0.664649  0.000141  1
  Si  Si15  1  0.164351  0.328704  0.999707  1
  Si  Si16  1  0.671195  0.835561  0.999676  1
  Si  Si17  1  0.333763  0.166979  0.500553  1
  Si  Si18  1  0.833220  0.166984  0.500552  1
  Si  Si19  1  0.164365  0.835557  0.999673  1
  Pt  Pt20  1  0.333124  0.666254  0.034821  1
  Rh  Rh21  1  0.666761  0.333519  0.963766  1
  Rh  Rh22  1  0.666775  0.333539  0.536193  1
  Rh  Rh23  1  0.333137  0.666274  0.465630  1
