# generated using pymatgen
data_LaTb2Y(WO6)2
_symmetry_space_group_name_H-M   'P 1'
_cell_length_a   5.48758500
_cell_length_b   7.82602639
_cell_length_c   11.63303977
_cell_angle_alpha   75.75402618
_cell_angle_beta   90.00000000
_cell_angle_gamma   90.00000000
_symmetry_Int_Tables_number   1
_chemical_formula_structural   LaTb2Y(WO6)2
_chemical_formula_sum   'La2 Tb4 Y2 W4 O24'
_cell_volume   484.22899022
_cell_formula_units_Z   2
loop_
 _symmetry_equiv_pos_site_id
 _symmetry_equiv_pos_as_xyz
  1  'x, y, z'
loop_
 _atom_site_type_symbol
 _atom_site_label
 _atom_site_symmetry_multiplicity
 _atom_site_fract_x
 _atom_site_fract_y
 _atom_site_fract_z
 _atom_site_occupancy
  La  La0  1  0.313948  0.500000  0.750000  1
  La  La1  1  0.686147  0.500000  0.250000  1
  Tb  Tb2  1  0.187280  0.797901  0.076108  1
  Tb  Tb3  1  0.258493  0.000000  0.750000  1
  Tb  Tb4  1  0.741536  0.000000  0.250000  1
  Tb  Tb5  1  0.187280  0.202099  0.423892  1
  Y  Y6  1  0.812500  0.202760  0.923538  1
  Y  Y7  1  0.812500  0.797240  0.576462  1
  W  W8  1  0.747417  0.728700  0.883796  1
  W  W9  1  0.252735  0.728813  0.384033  1
  W  W10  1  0.747417  0.271300  0.616204  1
  W  W11  1  0.252735  0.271187  0.115967  1
  O  O12  1  0.855356  0.356713  0.456456  1
  O  O13  1  0.469076  0.845506  0.930101  1
  O  O14  1  0.855356  0.643287  0.043544  1
  O  O15  1  0.013219  0.279317  0.730098  1
  O  O16  1  0.987122  0.279553  0.230103  1
  O  O17  1  0.144060  0.356539  0.956340  1
  O  O18  1  0.653299  0.495701  0.887086  1
  O  O19  1  0.531165  0.154314  0.069218  1
  O  O20  1  0.144060  0.643461  0.543660  1
  O  O21  1  0.013219  0.720683  0.769902  1
  O  O22  1  0.453473  0.204827  0.271775  1
  O  O23  1  0.042475  0.941013  0.395788  1
  O  O24  1  0.469076  0.154494  0.569899  1
  O  O25  1  0.987122  0.720447  0.269897  1
  O  O26  1  0.956976  0.058475  0.604177  1
  O  O27  1  0.546900  0.204851  0.772278  1
  O  O28  1  0.546900  0.795149  0.727722  1
  O  O29  1  0.042475  0.058987  0.104212  1
  O  O30  1  0.653299  0.504299  0.612914  1
  O  O31  1  0.346886  0.504080  0.112746  1
  O  O32  1  0.453473  0.795173  0.228225  1
  O  O33  1  0.346886  0.495920  0.387254  1
  O  O34  1  0.531165  0.845686  0.430782  1
  O  O35  1  0.956976  0.941525  0.895823  1
