# generated using pymatgen
data_DyYPa2(ReB6)2
_symmetry_space_group_name_H-M   'P 1'
_cell_length_a   3.70534500
_cell_length_b   9.23419847
_cell_length_c   11.54708736
_cell_angle_alpha   90.04969512
_cell_angle_beta   90.00000000
_cell_angle_gamma   90.00000000
_symmetry_Int_Tables_number   1
_chemical_formula_structural   DyYPa2(ReB6)2
_chemical_formula_sum   'Dy2 Y2 Pa4 Re4 B24'
_cell_volume   395.09373529
_cell_formula_units_Z   2
loop_
 _symmetry_equiv_pos_site_id
 _symmetry_equiv_pos_as_xyz
  1  'x, y, z'
loop_
 _atom_site_type_symbol
 _atom_site_label
 _atom_site_symmetry_multiplicity
 _atom_site_fract_x
 _atom_site_fract_y
 _atom_site_fract_z
 _atom_site_occupancy
  Dy  Dy0  1  0.000000  0.445902  0.124492  1
  Dy  Dy1  1  0.000000  0.554098  0.875508  1
  Y  Y2  1  0.000000  0.945974  0.375383  1
  Y  Y3  1  0.000000  0.054026  0.624617  1
  Pa  Pa4  1  0.000000  0.325935  0.411556  1
  Pa  Pa5  1  0.000000  0.674065  0.588444  1
  Pa  Pa6  1  0.000000  0.824579  0.087901  1
  Pa  Pa7  1  0.000000  0.175421  0.912099  1
  Re  Re8  1  0.000000  0.638636  0.323077  1
  Re  Re9  1  0.000000  0.361364  0.676923  1
  Re  Re10  1  0.000000  0.139412  0.177668  1
  Re  Re11  1  0.000000  0.860588  0.822332  1
  B  B12  1  0.500000  0.552296  0.432961  1
  B  B13  1  0.500000  0.447704  0.567039  1
  B  B14  1  0.500000  0.052595  0.067251  1
  B  B15  1  0.500000  0.947405  0.932749  1
  B  B16  1  0.500000  0.745999  0.420974  1
  B  B17  1  0.500000  0.254001  0.579026  1
  B  B18  1  0.500000  0.246844  0.079286  1
  B  B19  1  0.500000  0.753156  0.920714  1
  B  B20  1  0.500000  0.794350  0.267596  1
  B  B21  1  0.500000  0.205650  0.732404  1
  B  B22  1  0.500000  0.294386  0.232461  1
  B  B23  1  0.500000  0.705614  0.767539  1
  B  B24  1  0.500000  0.636079  0.186379  1
  B  B25  1  0.500000  0.363921  0.813621  1
  B  B26  1  0.500000  0.136556  0.313565  1
  B  B27  1  0.500000  0.863444  0.686435  1
  B  B28  1  0.500000  0.983788  0.214284  1
  B  B29  1  0.500000  0.016212  0.785716  1
  B  B30  1  0.500000  0.483995  0.286253  1
  B  B31  1  0.500000  0.516005  0.713747  1
  B  B32  1  0.500000  0.618758  0.033285  1
  B  B33  1  0.500000  0.381242  0.966715  1
  B  B34  1  0.500000  0.123088  0.465726  1
  B  B35  1  0.500000  0.876912  0.534274  1
