# generated using pymatgen
data_Na6Al7Ag16
_symmetry_space_group_name_H-M   'P 1'
_cell_length_a   9.28082146
_cell_length_b   9.28082096
_cell_length_c   9.28082100
_cell_angle_alpha   59.99999631
_cell_angle_beta   59.99999809
_cell_angle_gamma   59.99999283
_symmetry_Int_Tables_number   1
_chemical_formula_structural   Na6Al7Ag16
_chemical_formula_sum   'Na6 Al7 Ag16'
_cell_volume   565.25468379
_cell_formula_units_Z   1
loop_
 _symmetry_equiv_pos_site_id
 _symmetry_equiv_pos_as_xyz
  1  'x, y, z'
loop_
 _atom_site_type_symbol
 _atom_site_label
 _atom_site_symmetry_multiplicity
 _atom_site_fract_x
 _atom_site_fract_y
 _atom_site_fract_z
 _atom_site_occupancy
  Na  Na0  1  0.707345  0.292655  0.292655  1
  Na  Na1  1  0.292655  0.707345  0.707345  1
  Na  Na2  1  0.292655  0.707345  0.292655  1
  Na  Na3  1  0.292655  0.292655  0.707345  1
  Na  Na4  1  0.707345  0.292655  0.707345  1
  Na  Na5  1  0.707345  0.707345  0.292655  1
  Al  Al6  1  0.500000  0.000000  0.000000  1
  Al  Al7  1  0.000000  0.500000  0.500000  1
  Al  Al8  1  0.000000  0.500000  0.000000  1
  Al  Al9  1  0.000000  0.000000  0.500000  1
  Al  Al10  1  0.500000  0.000000  0.500000  1
  Al  Al11  1  0.500000  0.500000  0.000000  1
  Al  Al12  1  0.000000  0.000000  0.000000  1
  Ag  Ag13  1  0.331842  0.331842  0.331842  1
  Ag  Ag14  1  0.331842  0.331842  0.004474  1
  Ag  Ag15  1  0.004474  0.331842  0.331842  1
  Ag  Ag16  1  0.331842  0.004474  0.331842  1
  Ag  Ag17  1  0.668158  0.668158  0.668158  1
  Ag  Ag18  1  0.668158  0.668158  0.995526  1
  Ag  Ag19  1  0.668158  0.995526  0.668158  1
  Ag  Ag20  1  0.995526  0.668158  0.668158  1
  Ag  Ag21  1  0.117465  0.117465  0.117465  1
  Ag  Ag22  1  0.117465  0.117465  0.647605  1
  Ag  Ag23  1  0.647605  0.117465  0.117465  1
  Ag  Ag24  1  0.117465  0.647605  0.117465  1
  Ag  Ag25  1  0.882535  0.882535  0.882535  1
  Ag  Ag26  1  0.882535  0.882535  0.352395  1
  Ag  Ag27  1  0.882535  0.352395  0.882535  1
  Ag  Ag28  1  0.352395  0.882535  0.882535  1
