# generated using pymatgen
data_Er2ThAl7Pd2
_symmetry_space_group_name_H-M   'P 1'
_cell_length_a   9.26577062
_cell_length_b   9.26577069
_cell_length_c   9.26577028
_cell_angle_alpha   34.69531423
_cell_angle_beta   34.69531679
_cell_angle_gamma   34.69531284
_symmetry_Int_Tables_number   1
_chemical_formula_structural   Er2ThAl7Pd2
_chemical_formula_sum   'Er2 Th1 Al7 Pd2'
_cell_volume   230.01777001
_cell_formula_units_Z   1
loop_
 _symmetry_equiv_pos_site_id
 _symmetry_equiv_pos_as_xyz
  1  'x, y, z'
loop_
 _atom_site_type_symbol
 _atom_site_label
 _atom_site_symmetry_multiplicity
 _atom_site_fract_x
 _atom_site_fract_y
 _atom_site_fract_z
 _atom_site_occupancy
  Er  Er0  1  0.142728  0.142728  0.142728  1
  Er  Er1  1  0.857272  0.857272  0.857272  1
  Th  Th2  1  0.000000  0.000000  0.000000  1
  Al  Al3  1  0.584143  0.584143  0.075164  1
  Al  Al4  1  0.924837  0.415856  0.415858  1
  Al  Al5  1  0.415856  0.924837  0.415858  1
  Al  Al6  1  0.500000  0.500000  0.500000  1
  Al  Al7  1  0.584144  0.075163  0.584142  1
  Al  Al8  1  0.075163  0.584144  0.584142  1
  Al  Al9  1  0.415857  0.415857  0.924836  1
  Pd  Pd10  1  0.335388  0.335388  0.335388  1
  Pd  Pd11  1  0.664613  0.664613  0.664613  1
