# generated using pymatgen
data_Ho13Er3In4(PdRh)2
_symmetry_space_group_name_H-M   'P 1'
_cell_length_a   9.66149180
_cell_length_b   9.65597765
_cell_length_c   9.65651997
_cell_angle_alpha   59.79717503
_cell_angle_beta   59.84137212
_cell_angle_gamma   59.86371280
_symmetry_Int_Tables_number   1
_chemical_formula_structural   Ho13Er3In4(PdRh)2
_chemical_formula_sum   'Ho13 Er3 In4 Pd2 Rh2'
_cell_volume   634.61060504
_cell_formula_units_Z   1
loop_
 _symmetry_equiv_pos_site_id
 _symmetry_equiv_pos_as_xyz
  1  'x, y, z'
loop_
 _atom_site_type_symbol
 _atom_site_label
 _atom_site_symmetry_multiplicity
 _atom_site_fract_x
 _atom_site_fract_y
 _atom_site_fract_z
 _atom_site_occupancy
  Ho  Ho0  1  0.193379  0.185004  0.810671  1
  Ho  Ho1  1  0.437858  0.062375  0.062228  1
  Ho  Ho2  1  0.435155  0.065543  0.437330  1
  Ho  Ho3  1  0.062447  0.438815  0.063180  1
  Ho  Ho4  1  0.646566  0.052527  0.652349  1
  Ho  Ho5  1  0.188718  0.811187  0.811469  1
  Ho  Ho6  1  0.062135  0.062984  0.439017  1
  Ho  Ho7  1  0.809835  0.189906  0.189888  1
  Ho  Ho8  1  0.810813  0.810838  0.185045  1
  Ho  Ho9  1  0.646345  0.652331  0.052507  1
  Ho  Ho10  1  0.644955  0.650777  0.650949  1
  Ho  Ho11  1  0.064838  0.436482  0.436296  1
  Ho  Ho12  1  0.056593  0.649193  0.649074  1
  Er  Er13  1  0.810529  0.185304  0.810805  1
  Er  Er14  1  0.435374  0.437873  0.064960  1
  Er  Er15  1  0.193676  0.810277  0.185219  1
  In  In16  1  0.416844  0.749562  0.416662  1
  In  In17  1  0.416852  0.416640  0.749926  1
  In  In18  1  0.749518  0.416816  0.416840  1
  In  In19  1  0.416299  0.416166  0.415982  1
  Pd  Pd20  1  0.856965  0.430005  0.855988  1
  Pd  Pd21  1  0.857732  0.855922  0.429928  1
  Rh  Rh22  1  0.429152  0.856657  0.857372  1
  Rh  Rh23  1  0.857419  0.856818  0.856318  1
