# generated using pymatgen
data_Er2UFe2
_symmetry_space_group_name_H-M   'P 1'
_cell_length_a   5.74848250
_cell_length_b   5.74848441
_cell_length_c   5.74848408
_cell_angle_alpha   140.33197115
_cell_angle_beta   122.56007512
_cell_angle_gamma   72.06490561
_symmetry_Int_Tables_number   1
_chemical_formula_structural   Er2UFe2
_chemical_formula_sum   'Er2 U1 Fe2'
_cell_volume   100.18383915
_cell_formula_units_Z   1
loop_
 _symmetry_equiv_pos_site_id
 _symmetry_equiv_pos_as_xyz
  1  'x, y, z'
loop_
 _atom_site_type_symbol
 _atom_site_label
 _atom_site_symmetry_multiplicity
 _atom_site_fract_x
 _atom_site_fract_y
 _atom_site_fract_z
 _atom_site_occupancy
  Er  Er0  1  0.695849  0.195850  0.500000  1
  Er  Er1  1  0.304150  0.804150  0.500000  1
  U  U2  1  0.000000  0.000000  0.000000  1
  Fe  Fe3  1  0.766871  0.500000  0.266871  1
  Fe  Fe4  1  0.233128  0.500000  0.733128  1
