# generated using pymatgen
data_PrZn(GaNi)2
_symmetry_space_group_name_H-M   'P 1'
_cell_length_a   9.06310800
_cell_length_b   9.06310907
_cell_length_c   4.19191200
_cell_angle_alpha   90.00000000
_cell_angle_beta   90.00000000
_cell_angle_gamma   119.99999610
_symmetry_Int_Tables_number   1
_chemical_formula_structural   PrZn(GaNi)2
_chemical_formula_sum   'Pr3 Zn3 Ga6 Ni6'
_cell_volume   298.19281000
_cell_formula_units_Z   3
loop_
 _symmetry_equiv_pos_site_id
 _symmetry_equiv_pos_as_xyz
  1  'x, y, z'
loop_
 _atom_site_type_symbol
 _atom_site_label
 _atom_site_symmetry_multiplicity
 _atom_site_fract_x
 _atom_site_fract_y
 _atom_site_fract_z
 _atom_site_occupancy
  Pr  Pr0  1  0.333333  0.666667  0.500000  1
  Pr  Pr1  1  0.666667  0.333333  0.500000  1
  Pr  Pr2  1  0.000000  0.000000  0.000000  1
  Zn  Zn3  1  0.708642  0.000000  0.500000  1
  Zn  Zn4  1  0.000000  0.708642  0.500000  1
  Zn  Zn5  1  0.291358  0.291358  0.500000  1
  Ga  Ga6  1  0.289759  0.000000  0.500000  1
  Ga  Ga7  1  0.000000  0.289759  0.500000  1
  Ga  Ga8  1  0.710241  0.710241  0.500000  1
  Ga  Ga9  1  0.515855  0.000000  0.000000  1
  Ga  Ga10  1  0.000000  0.515855  0.000000  1
  Ga  Ga11  1  0.484145  0.484145  0.000000  1
  Ni  Ni12  1  0.172420  0.370248  0.000000  1
  Ni  Ni13  1  0.629752  0.802173  0.000000  1
  Ni  Ni14  1  0.197827  0.827580  0.000000  1
  Ni  Ni15  1  0.802173  0.629752  0.000000  1
  Ni  Ni16  1  0.827580  0.197827  0.000000  1
  Ni  Ni17  1  0.370248  0.172420  0.000000  1
