# generated using pymatgen
data_Tm2Ga4PdAu
_symmetry_space_group_name_H-M   'P 1'
_cell_length_a   5.55522396
_cell_length_b   5.55522424
_cell_length_c   6.62529300
_cell_angle_alpha   90.00000000
_cell_angle_beta   90.00000000
_cell_angle_gamma   132.67502123
_symmetry_Int_Tables_number   1
_chemical_formula_structural   Tm2Ga4PdAu
_chemical_formula_sum   'Tm2 Ga4 Pd1 Au1'
_cell_volume   150.32103800
_cell_formula_units_Z   1
loop_
 _symmetry_equiv_pos_site_id
 _symmetry_equiv_pos_as_xyz
  1  'x, y, z'
loop_
 _atom_site_type_symbol
 _atom_site_label
 _atom_site_symmetry_multiplicity
 _atom_site_fract_x
 _atom_site_fract_y
 _atom_site_fract_z
 _atom_site_occupancy
  Tm  Tm0  1  0.910575  0.089425  0.750000  1
  Tm  Tm1  1  0.086422  0.913578  0.250000  1
  Ga  Ga2  1  0.625022  0.374978  0.955229  1
  Ga  Ga3  1  0.376128  0.623872  0.054714  1
  Ga  Ga4  1  0.376128  0.623872  0.445286  1
  Ga  Ga5  1  0.625022  0.374978  0.544771  1
  Pd  Pd6  1  0.799508  0.200492  0.250000  1
  Au  Au7  1  0.201194  0.798806  0.750000  1
