# generated using pymatgen
data_Er7ThAlPd24
_symmetry_space_group_name_H-M   'P 1'
_cell_length_a   8.33634203
_cell_length_b   8.33634179
_cell_length_c   8.33634226
_cell_angle_alpha   89.98364695
_cell_angle_beta   90.01635271
_cell_angle_gamma   90.01634945
_symmetry_Int_Tables_number   1
_chemical_formula_structural   Er7ThAlPd24
_chemical_formula_sum   'Er7 Th1 Al1 Pd24'
_cell_volume   579.33067036
_cell_formula_units_Z   1
loop_
 _symmetry_equiv_pos_site_id
 _symmetry_equiv_pos_as_xyz
  1  'x, y, z'
loop_
 _atom_site_type_symbol
 _atom_site_label
 _atom_site_symmetry_multiplicity
 _atom_site_fract_x
 _atom_site_fract_y
 _atom_site_fract_z
 _atom_site_occupancy
  Er  Er0  1  0.251612  0.252002  0.252002  1
  Er  Er1  1  0.747910  0.747761  0.747761  1
  Er  Er2  1  0.747998  0.748388  0.252002  1
  Er  Er3  1  0.747998  0.252002  0.748388  1
  Er  Er4  1  0.252239  0.252090  0.747761  1
  Er  Er5  1  0.252239  0.747761  0.252090  1
  Er  Er6  1  0.252257  0.747743  0.747743  1
  Th  Th7  1  0.746280  0.253720  0.253720  1
  Al  Al8  1  0.000728  0.999272  0.999272  1
  Pd  Pd9  1  0.259658  0.500111  0.999722  1
  Pd  Pd10  1  0.740564  0.500816  0.999213  1
  Pd  Pd11  1  0.000787  0.259436  0.500816  1
  Pd  Pd12  1  0.499184  0.259436  0.999213  1
  Pd  Pd13  1  0.000278  0.740342  0.500111  1
  Pd  Pd14  1  0.499889  0.740342  0.999722  1
  Pd  Pd15  1  0.499184  0.999213  0.259436  1
  Pd  Pd16  1  0.259658  0.999722  0.500111  1
  Pd  Pd17  1  0.499889  0.999722  0.740342  1
  Pd  Pd18  1  0.740564  0.999213  0.500816  1
  Pd  Pd19  1  0.000787  0.500816  0.259436  1
  Pd  Pd20  1  0.000278  0.500111  0.740342  1
  Pd  Pd21  1  0.252921  0.500051  0.500051  1
  Pd  Pd22  1  0.746912  0.501493  0.501493  1
  Pd  Pd23  1  0.498507  0.253088  0.501493  1
  Pd  Pd24  1  0.499949  0.747079  0.500051  1
  Pd  Pd25  1  0.498507  0.501493  0.253088  1
  Pd  Pd26  1  0.499949  0.500051  0.747079  1
  Pd  Pd27  1  0.288498  0.999754  0.999754  1
  Pd  Pd28  1  0.711412  0.998563  0.998563  1
  Pd  Pd29  1  0.001437  0.288588  0.998563  1
  Pd  Pd30  1  0.000246  0.711502  0.999754  1
  Pd  Pd31  1  0.001437  0.998563  0.288588  1
  Pd  Pd32  1  0.000246  0.999754  0.711502  1
