# generated using pymatgen
data_La6Al24Ru3Rh5
_symmetry_space_group_name_H-M   'P 1'
_cell_length_a   8.97221600
_cell_length_b   8.98545348
_cell_length_c   9.69387757
_cell_angle_alpha   90.12833655
_cell_angle_beta   90.00000000
_cell_angle_gamma   119.95127111
_symmetry_Int_Tables_number   1
_chemical_formula_structural   La6Al24Ru3Rh5
_chemical_formula_sum   'La6 Al24 Ru3 Rh5'
_cell_volume   677.14156298
_cell_formula_units_Z   1
loop_
 _symmetry_equiv_pos_site_id
 _symmetry_equiv_pos_as_xyz
  1  'x, y, z'
loop_
 _atom_site_type_symbol
 _atom_site_label
 _atom_site_symmetry_multiplicity
 _atom_site_fract_x
 _atom_site_fract_y
 _atom_site_fract_z
 _atom_site_occupancy
  La  La0  1  0.190430  0.380861  0.250559  1
  La  La1  1  0.809570  0.619139  0.749441  1
  La  La2  1  0.618013  0.810454  0.250885  1
  La  La3  1  0.381987  0.189546  0.749115  1
  La  La4  1  0.192442  0.810454  0.250885  1
  La  La5  1  0.807558  0.189546  0.749115  1
  Al  Al6  1  0.333271  0.666544  0.005736  1
  Al  Al7  1  0.666729  0.333456  0.994264  1
  Al  Al8  1  0.665736  0.331472  0.505230  1
  Al  Al9  1  0.334264  0.668528  0.494770  1
  Al  Al10  1  0.162161  0.324321  0.576416  1
  Al  Al11  1  0.837839  0.675679  0.423584  1
  Al  Al12  1  0.675134  0.838786  0.576065  1
  Al  Al13  1  0.838040  0.676081  0.076205  1
  Al  Al14  1  0.324866  0.161214  0.423935  1
  Al  Al15  1  0.161960  0.323919  0.923795  1
  Al  Al16  1  0.163653  0.838786  0.576065  1
  Al  Al17  1  0.324475  0.162227  0.076575  1
  Al  Al18  1  0.836347  0.161214  0.423935  1
  Al  Al19  1  0.675525  0.837773  0.923425  1
  Al  Al20  1  0.837752  0.162227  0.076575  1
  Al  Al21  1  0.162248  0.837773  0.923425  1
  Al  Al22  1  0.564449  0.128897  0.250900  1
  Al  Al23  1  0.435551  0.871103  0.749100  1
  Al  Al24  1  0.871616  0.436144  0.249629  1
  Al  Al25  1  0.128384  0.563856  0.750371  1
  Al  Al26  1  0.564528  0.436144  0.249629  1
  Al  Al27  1  0.435472  0.563856  0.750371  1
  Al  Al28  1  0.000100  0.000199  0.250146  1
  Al  Al29  1  0.999900  0.999801  0.749854  1
  Ru  Ru30  1  0.500000  0.000000  0.500000  1
  Ru  Ru31  1  0.000000  0.000000  0.000000  1
  Ru  Ru32  1  0.000000  0.000000  0.500000  1
  Rh  Rh33  1  0.500000  0.000000  0.000000  1
  Rh  Rh34  1  0.000000  0.500000  0.000000  1
  Rh  Rh35  1  0.500000  0.500000  0.000000  1
  Rh  Rh36  1  0.000000  0.500000  0.500000  1
  Rh  Rh37  1  0.500000  0.500000  0.500000  1
