# generated using pymatgen
data_SrLi2La2Al7
_symmetry_space_group_name_H-M   'P 1'
_cell_length_a   9.70103931
_cell_length_b   9.70104056
_cell_length_c   9.70103841
_cell_angle_alpha   34.37893906
_cell_angle_beta   34.37893803
_cell_angle_gamma   34.37893146
_symmetry_Int_Tables_number   1
_chemical_formula_structural   SrLi2La2Al7
_chemical_formula_sum   'Sr1 Li2 La2 Al7'
_cell_volume   259.63946860
_cell_formula_units_Z   1
loop_
 _symmetry_equiv_pos_site_id
 _symmetry_equiv_pos_as_xyz
  1  'x, y, z'
loop_
 _atom_site_type_symbol
 _atom_site_label
 _atom_site_symmetry_multiplicity
 _atom_site_fract_x
 _atom_site_fract_y
 _atom_site_fract_z
 _atom_site_occupancy
  Sr  Sr0  1  0.000000  0.000000  0.000000  1
  Li  Li1  1  0.664548  0.664548  0.664548  1
  Li  Li2  1  0.335452  0.335452  0.335452  1
  La  La3  1  0.142140  0.142140  0.142140  1
  La  La4  1  0.857860  0.857860  0.857860  1
  Al  Al5  1  0.413414  0.413414  0.921881  1
  Al  Al6  1  0.921881  0.413414  0.413414  1
  Al  Al7  1  0.500000  0.500000  0.500000  1
  Al  Al8  1  0.586586  0.586586  0.078119  1
  Al  Al9  1  0.413414  0.921881  0.413414  1
  Al  Al10  1  0.078119  0.586586  0.586586  1
  Al  Al11  1  0.586586  0.078119  0.586586  1
