# generated using pymatgen
data_Nd17Y3Si15Pt
_symmetry_space_group_name_H-M   'P 1'
_cell_length_a   7.95844105
_cell_length_b   7.90994291
_cell_length_c   15.17068600
_cell_angle_alpha   90.05319637
_cell_angle_beta   89.69868329
_cell_angle_gamma   90.18361811
_symmetry_Int_Tables_number   1
_chemical_formula_structural   Nd17Y3Si15Pt
_chemical_formula_sum   'Nd17 Y3 Si15 Pt1'
_cell_volume   954.98853075
_cell_formula_units_Z   1
loop_
 _symmetry_equiv_pos_site_id
 _symmetry_equiv_pos_as_xyz
  1  'x, y, z'
loop_
 _atom_site_type_symbol
 _atom_site_label
 _atom_site_symmetry_multiplicity
 _atom_site_fract_x
 _atom_site_fract_y
 _atom_site_fract_z
 _atom_site_occupancy
  Nd  Nd0  1  0.693016  0.685826  0.499689  1
  Nd  Nd1  1  0.375589  0.008416  0.447488  1
  Nd  Nd2  1  0.492786  0.875107  0.700062  1
  Nd  Nd3  1  0.509671  0.123522  0.197161  1
  Nd  Nd4  1  0.876097  0.488835  0.299839  1
  Nd  Nd5  1  0.121309  0.508315  0.800743  1
  Nd  Nd6  1  0.626012  0.989948  0.949510  1
  Nd  Nd7  1  0.002878  0.373660  0.551753  1
  Nd  Nd8  1  0.990853  0.626034  0.052070  1
  Nd  Nd9  1  0.135998  0.985978  0.874536  1
  Nd  Nd10  1  0.517756  0.634087  0.124727  1
  Nd  Nd11  1  0.473607  0.363619  0.628481  1
  Nd  Nd12  1  0.630488  0.517708  0.875030  1
  Nd  Nd13  1  0.371247  0.481237  0.372849  1
  Nd  Nd14  1  0.871609  0.020222  0.375774  1
  Nd  Nd15  1  0.982159  0.127940  0.123839  1
  Nd  Nd16  1  0.021395  0.876089  0.623571  1
  Y  Y17  1  0.310046  0.309767  0.999662  1
  Y  Y18  1  0.187814  0.809680  0.250049  1
  Y  Y19  1  0.814206  0.187965  0.750588  1
  Si  Si20  1  0.331957  0.692082  0.951014  1
  Si  Si21  1  0.663108  0.303204  0.451233  1
  Si  Si22  1  0.695319  0.333693  0.049638  1
  Si  Si23  1  0.306902  0.669880  0.547727  1
  Si  Si24  1  0.808584  0.831620  0.202455  1
  Si  Si25  1  0.169394  0.192738  0.296850  1
  Si  Si26  1  0.833148  0.807712  0.798646  1
  Si  Si27  1  0.287701  0.925274  0.061589  1
  Si  Si28  1  0.574260  0.787290  0.309234  1
  Si  Si29  1  0.435083  0.207280  0.815016  1
  Si  Si30  1  0.785228  0.576500  0.690883  1
  Si  Si31  1  0.213236  0.425776  0.187459  1
  Si  Si32  1  0.707152  0.074931  0.561144  1
  Si  Si33  1  0.922612  0.286704  0.939745  1
  Si  Si34  1  0.080693  0.715159  0.437337  1
  Pt  Pt35  1  0.181088  0.176200  0.702608  1
