# generated using pymatgen
data_K2NbAgSe4
_symmetry_space_group_name_H-M   'P 1'
_cell_length_a   13.90942067
_cell_length_b   12.40161434
_cell_length_c   7.63962165
_cell_angle_alpha   84.33889003
_cell_angle_beta   62.52964486
_cell_angle_gamma   33.13147281
_symmetry_Int_Tables_number   1
_chemical_formula_structural   K2NbAgSe4
_chemical_formula_sum   'K4 Nb2 Ag2 Se8'
_cell_volume   514.49775950
_cell_formula_units_Z   2
loop_
 _symmetry_equiv_pos_site_id
 _symmetry_equiv_pos_as_xyz
  1  'x, y, z'
loop_
 _atom_site_type_symbol
 _atom_site_label
 _atom_site_symmetry_multiplicity
 _atom_site_fract_x
 _atom_site_fract_y
 _atom_site_fract_z
 _atom_site_occupancy
  K  K0  1  0.681833  0.681833  0.318167  1
  K  K1  1  0.318167  0.318167  0.681833  1
  K  K2  1  0.568167  0.568167  0.931833  1
  K  K3  1  0.931833  0.931833  0.568167  1
  Nb  Nb4  1  0.500000  0.500000  0.500000  1
  Nb  Nb5  1  0.750000  0.750000  0.750000  1
  Ag  Ag6  1  0.000000  0.000000  0.000000  1
  Ag  Ag7  1  0.250000  0.250000  0.250000  1
  Se  Se8  1  0.367242  0.014103  0.924036  1
  Se  Se9  1  0.235897  0.882758  0.555381  1
  Se  Se10  1  0.014103  0.367242  0.694619  1
  Se  Se11  1  0.694619  0.924036  0.014103  1
  Se  Se12  1  0.924036  0.694619  0.367242  1
  Se  Se13  1  0.555381  0.325964  0.235897  1
  Se  Se14  1  0.882758  0.235897  0.325964  1
  Se  Se15  1  0.325964  0.555381  0.882758  1
