# generated using pymatgen
data_LiHf4Zr3(Si4Mo3)4
_symmetry_space_group_name_H-M   'P 1'
_cell_length_a   6.56134289
_cell_length_b   6.75579257
_cell_length_c   12.67011005
_cell_angle_alpha   90.00290644
_cell_angle_beta   89.87818637
_cell_angle_gamma   90.10008439
_symmetry_Int_Tables_number   1
_chemical_formula_structural   LiHf4Zr3(Si4Mo3)4
_chemical_formula_sum   'Li1 Hf4 Zr3 Si16 Mo12'
_cell_volume   561.62674860
_cell_formula_units_Z   1
loop_
 _symmetry_equiv_pos_site_id
 _symmetry_equiv_pos_as_xyz
  1  'x, y, z'
loop_
 _atom_site_type_symbol
 _atom_site_label
 _atom_site_symmetry_multiplicity
 _atom_site_fract_x
 _atom_site_fract_y
 _atom_site_fract_z
 _atom_site_occupancy
  Li  Li0  1  0.976681  0.163550  0.086401  1
  Hf  Hf1  1  0.499042  0.329388  0.095104  1
  Hf  Hf2  1  0.997566  0.170968  0.407828  1
  Hf  Hf3  1  0.493560  0.329471  0.405290  1
  Hf  Hf4  1  0.507041  0.669890  0.591754  1
  Zr  Zr5  1  0.006167  0.826883  0.908151  1
  Zr  Zr6  1  0.503027  0.671003  0.909811  1
  Zr  Zr7  1  0.004174  0.830970  0.593171  1
  Si  Si8  1  0.034411  0.127149  0.751867  1
  Si  Si9  1  0.970165  0.880975  0.246991  1
  Si  Si10  1  0.465435  0.622491  0.250564  1
  Si  Si11  1  0.533712  0.377793  0.749668  1
  Si  Si12  1  0.303061  0.862491  0.749645  1
  Si  Si13  1  0.708182  0.138914  0.246242  1
  Si  Si14  1  0.188785  0.353487  0.243051  1
  Si  Si15  1  0.800411  0.638430  0.751629  1
  Si  Si16  1  0.168558  0.459068  0.542470  1
  Si  Si17  1  0.833307  0.540753  0.457131  1
  Si  Si18  1  0.333710  0.958751  0.456585  1
  Si  Si19  1  0.838546  0.531586  0.047296  1
  Si  Si20  1  0.667964  0.042389  0.541874  1
  Si  Si21  1  0.164798  0.453497  0.958954  1
  Si  Si22  1  0.665794  0.040900  0.959183  1
  Si  Si23  1  0.323140  0.970511  0.046399  1
  Mo  Mo24  1  0.168897  0.513433  0.751837  1
  Mo  Mo25  1  0.831527  0.492985  0.251916  1
  Mo  Mo26  1  0.336978  0.011717  0.251267  1
  Mo  Mo27  1  0.668785  0.990841  0.749895  1
  Mo  Mo28  1  0.334478  0.164321  0.622021  1
  Mo  Mo29  1  0.669281  0.836715  0.376384  1
  Mo  Mo30  1  0.169157  0.662145  0.375481  1
  Mo  Mo31  1  0.664272  0.831933  0.123938  1
  Mo  Mo32  1  0.832183  0.338110  0.623468  1
  Mo  Mo33  1  0.336798  0.163692  0.875416  1
  Mo  Mo34  1  0.828584  0.336804  0.876985  1
  Mo  Mo35  1  0.171824  0.665994  0.124335  1
