# generated using pymatgen
data_Ca11La7(SmSn8)2
_symmetry_space_group_name_H-M   'P 1'
_cell_length_a   7.99604302
_cell_length_b   8.56718141
_cell_length_c   16.15439500
_cell_angle_alpha   89.96400614
_cell_angle_beta   89.99608046
_cell_angle_gamma   90.11653291
_symmetry_Int_Tables_number   1
_chemical_formula_structural   Ca11La7(SmSn8)2
_chemical_formula_sum   'Ca11 La7 Sm2 Sn16'
_cell_volume   1106.63091362
_cell_formula_units_Z   1
loop_
 _symmetry_equiv_pos_site_id
 _symmetry_equiv_pos_as_xyz
  1  'x, y, z'
loop_
 _atom_site_type_symbol
 _atom_site_label
 _atom_site_symmetry_multiplicity
 _atom_site_fract_x
 _atom_site_fract_y
 _atom_site_fract_z
 _atom_site_occupancy
  Ca  Ca0  1  0.331151  0.827285  0.877678  1
  Ca  Ca1  1  0.830748  0.671994  0.623548  1
  Ca  Ca2  1  0.669075  0.171906  0.376330  1
  Ca  Ca3  1  0.171079  0.328014  0.123535  1
  Ca  Ca4  1  0.667770  0.172959  0.123260  1
  Ca  Ca5  1  0.168860  0.327799  0.376420  1
  Ca  Ca6  1  0.329978  0.827214  0.623415  1
  Ca  Ca7  1  0.160890  0.500301  0.749526  1
  Ca  Ca8  1  0.658802  0.999260  0.749212  1
  Ca  Ca9  1  0.840246  0.496952  0.249959  1
  Ca  Ca10  1  0.339890  0.004033  0.250305  1
  La  La11  1  0.993459  0.184769  0.595885  1
  La  La12  1  0.506757  0.685676  0.403969  1
  La  La13  1  0.009099  0.815379  0.096861  1
  La  La14  1  0.506589  0.684443  0.095970  1
  La  La15  1  0.006275  0.814478  0.403523  1
  La  La16  1  0.492745  0.314928  0.593906  1
  La  La17  1  0.993964  0.183629  0.904078  1
  Sm  Sm18  1  0.832392  0.674533  0.875607  1
  Sm  Sm19  1  0.491743  0.310954  0.904485  1
  Sn  Sn20  1  0.331192  0.036561  0.037872  1
  Sn  Sn21  1  0.830610  0.465846  0.461491  1
  Sn  Sn22  1  0.669114  0.965802  0.538740  1
  Sn  Sn23  1  0.169891  0.532058  0.959352  1
  Sn  Sn24  1  0.670678  0.965514  0.960533  1
  Sn  Sn25  1  0.168163  0.533483  0.538614  1
  Sn  Sn26  1  0.329965  0.034129  0.461608  1
  Sn  Sn27  1  0.828838  0.465994  0.036867  1
  Sn  Sn28  1  0.532533  0.603446  0.753118  1
  Sn  Sn29  1  0.031792  0.896418  0.751413  1
  Sn  Sn30  1  0.468321  0.397733  0.250671  1
  Sn  Sn31  1  0.967963  0.103742  0.249706  1
  Sn  Sn32  1  0.288376  0.142101  0.750599  1
  Sn  Sn33  1  0.783835  0.359799  0.752698  1
  Sn  Sn34  1  0.712934  0.859306  0.249461  1
  Sn  Sn35  1  0.214280  0.641559  0.249779  1
