# generated using pymatgen
data_Yb3Y(OsO4)4
_symmetry_space_group_name_H-M   'P 1'
_cell_length_a   5.35990983
_cell_length_b   7.70138379
_cell_length_c   7.44647343
_cell_angle_alpha   78.58522683
_cell_angle_beta   90.86760466
_cell_angle_gamma   94.41249587
_symmetry_Int_Tables_number   1
_chemical_formula_structural   Yb3Y(OsO4)4
_chemical_formula_sum   'Yb3 Y1 Os4 O16'
_cell_volume   300.40791404
_cell_formula_units_Z   1
loop_
 _symmetry_equiv_pos_site_id
 _symmetry_equiv_pos_as_xyz
  1  'x, y, z'
loop_
 _atom_site_type_symbol
 _atom_site_label
 _atom_site_symmetry_multiplicity
 _atom_site_fract_x
 _atom_site_fract_y
 _atom_site_fract_z
 _atom_site_occupancy
  Yb  Yb0  1  0.264696  0.117864  0.603261  1
  Yb  Yb1  1  0.741654  0.885401  0.393338  1
  Yb  Yb2  1  0.189080  0.173212  0.103458  1
  Y  Y3  1  0.812773  0.833481  0.896922  1
  Os  Os4  1  0.249459  0.667425  0.207600  1
  Os  Os5  1  0.749491  0.330060  0.794485  1
  Os  Os6  1  0.716557  0.325072  0.297859  1
  Os  Os7  1  0.285160  0.669417  0.700913  1
  O  O8  1  0.050781  0.469143  0.717797  1
  O  O9  1  0.950245  0.526101  0.283194  1
  O  O10  1  0.635067  0.328849  0.547734  1
  O  O11  1  0.358776  0.674321  0.451452  1
  O  O12  1  0.829574  0.326372  0.050034  1
  O  O13  1  0.161191  0.671435  0.949289  1
  O  O14  1  0.420415  0.448351  0.209494  1
  O  O15  1  0.587315  0.557020  0.797187  1
  O  O16  1  0.055908  0.876594  0.174317  1
  O  O17  1  0.940289  0.119014  0.819460  1
  O  O18  1  0.494970  0.115527  0.317157  1
  O  O19  1  0.507385  0.884680  0.684105  1
  O  O20  1  0.454745  0.198706  0.867136  1
  O  O21  1  0.546353  0.802659  0.129636  1
  O  O22  1  0.973631  0.167280  0.376277  1
  O  O23  1  0.024485  0.832018  0.627893  1
