# generated using pymatgen
data_CaLaHg2(Ru2O7)2
_symmetry_space_group_name_H-M   'P 1'
_cell_length_a   7.33806068
_cell_length_b   7.46649905
_cell_length_c   7.33806098
_cell_angle_alpha   59.43348157
_cell_angle_beta   59.31417814
_cell_angle_gamma   59.43349205
_symmetry_Int_Tables_number   1
_chemical_formula_structural   CaLaHg2(Ru2O7)2
_chemical_formula_sum   'Ca1 La1 Hg2 Ru4 O14'
_cell_volume   280.36869316
_cell_formula_units_Z   1
loop_
 _symmetry_equiv_pos_site_id
 _symmetry_equiv_pos_as_xyz
  1  'x, y, z'
loop_
 _atom_site_type_symbol
 _atom_site_label
 _atom_site_symmetry_multiplicity
 _atom_site_fract_x
 _atom_site_fract_y
 _atom_site_fract_z
 _atom_site_occupancy
  Ca  Ca0  1  0.625000  0.625000  0.625000  1
  La  La1  1  0.625000  0.125000  0.625000  1
  Hg  Hg2  1  0.625000  0.625000  0.125000  1
  Hg  Hg3  1  0.125000  0.625000  0.625000  1
  Ru  Ru4  1  0.625000  0.125000  0.125000  1
  Ru  Ru5  1  0.125000  0.625000  0.125000  1
  Ru  Ru6  1  0.125000  0.125000  0.625000  1
  Ru  Ru7  1  0.125000  0.125000  0.125000  1
  O  O8  1  0.196413  0.192678  0.804140  1
  O  O9  1  0.187002  0.813925  0.187002  1
  O  O10  1  0.445860  0.057322  0.053587  1
  O  O11  1  0.192245  0.811828  0.807602  1
  O  O12  1  0.057755  0.438172  0.442398  1
  O  O13  1  0.807602  0.811828  0.192245  1
  O  O14  1  0.442398  0.438172  0.057755  1
  O  O15  1  0.487194  0.519340  0.487194  1
  O  O16  1  0.053587  0.057322  0.445860  1
  O  O17  1  0.457805  0.039933  0.457805  1
  O  O18  1  0.062998  0.436075  0.062998  1
  O  O19  1  0.762806  0.730660  0.762806  1
  O  O20  1  0.792195  0.210067  0.792195  1
  O  O21  1  0.804140  0.192678  0.196413  1
