# generated using pymatgen
data_La9Nd(Sn3O)2
_symmetry_space_group_name_H-M   'P 1'
_cell_length_a   9.51049181
_cell_length_b   9.51050892
_cell_length_c   9.51052100
_cell_angle_alpha   125.90439902
_cell_angle_beta   125.90420590
_cell_angle_gamma   80.04537321
_symmetry_Int_Tables_number   1
_chemical_formula_structural   La9Nd(Sn3O)2
_chemical_formula_sum   'La9 Nd1 Sn6 O2'
_cell_volume   544.87431887
_cell_formula_units_Z   1
loop_
 _symmetry_equiv_pos_site_id
 _symmetry_equiv_pos_as_xyz
  1  'x, y, z'
loop_
 _atom_site_type_symbol
 _atom_site_label
 _atom_site_symmetry_multiplicity
 _atom_site_fract_x
 _atom_site_fract_y
 _atom_site_fract_z
 _atom_site_occupancy
  La  La0  1  0.498324  0.305955  0.500473  1
  La  La1  1  0.805464  0.997846  0.499488  1
  La  La2  1  0.997833  0.498307  0.192364  1
  La  La3  1  0.305960  0.805454  0.807651  1
  La  La4  1  0.503964  0.696192  0.499359  1
  La  La5  1  0.196800  0.004605  0.500600  1
  La  La6  1  0.004662  0.504013  0.807811  1
  La  La7  1  0.696218  0.196814  0.192195  1
  La  La8  1  0.002069  0.002070  0.000009  1
  Nd  Nd9  1  0.502073  0.502081  0.000001  1
  Sn  Sn10  1  0.143035  0.361214  0.502095  1
  Sn  Sn11  1  0.859131  0.640937  0.497900  1
  Sn  Sn12  1  0.640924  0.143026  0.781782  1
  Sn  Sn13  1  0.361247  0.859151  0.218228  1
  Sn  Sn14  1  0.750566  0.750496  0.000037  1
  Sn  Sn15  1  0.252430  0.252497  0.999999  1
  O  O16  1  0.751072  0.251113  0.499988  1
  O  O17  1  0.251071  0.751074  0.500022  1
