# generated using pymatgen
data_BaTm(ZnSn)2
_symmetry_space_group_name_H-M   'P 1'
_cell_length_a   4.54881600
_cell_length_b   4.54881582
_cell_length_c   18.38241700
_cell_angle_alpha   90.00000000
_cell_angle_beta   90.00000000
_cell_angle_gamma   120.00000134
_symmetry_Int_Tables_number   1
_chemical_formula_structural   BaTm(ZnSn)2
_chemical_formula_sum   'Ba2 Tm2 Zn4 Sn4'
_cell_volume   329.40482920
_cell_formula_units_Z   2
loop_
 _symmetry_equiv_pos_site_id
 _symmetry_equiv_pos_as_xyz
  1  'x, y, z'
loop_
 _atom_site_type_symbol
 _atom_site_label
 _atom_site_symmetry_multiplicity
 _atom_site_fract_x
 _atom_site_fract_y
 _atom_site_fract_z
 _atom_site_occupancy
  Ba  Ba0  1  0.000000  0.000000  0.000000  1
  Ba  Ba1  1  0.000000  0.000000  0.500000  1
  Tm  Tm2  1  0.000000  0.000000  0.250000  1
  Tm  Tm3  1  0.000000  0.000000  0.750000  1
  Zn  Zn4  1  0.333333  0.666667  0.170538  1
  Zn  Zn5  1  0.666667  0.333333  0.829462  1
  Zn  Zn6  1  0.666667  0.333333  0.670538  1
  Zn  Zn7  1  0.333333  0.666667  0.329462  1
  Sn  Sn8  1  0.333333  0.666667  0.634378  1
  Sn  Sn9  1  0.666667  0.333333  0.365622  1
  Sn  Sn10  1  0.666667  0.333333  0.134378  1
  Sn  Sn11  1  0.333333  0.666667  0.865622  1
