# generated using pymatgen
data_Dy8CdSn2HgAu8
_symmetry_space_group_name_H-M   'P 1'
_cell_length_a   8.03149700
_cell_length_b   8.03149700
_cell_length_c   7.35875300
_cell_angle_alpha   90.00000000
_cell_angle_beta   90.00000000
_cell_angle_gamma   90.00000000
_symmetry_Int_Tables_number   1
_chemical_formula_structural   Dy8CdSn2HgAu8
_chemical_formula_sum   'Dy8 Cd1 Sn2 Hg1 Au8'
_cell_volume   474.67595062
_cell_formula_units_Z   1
loop_
 _symmetry_equiv_pos_site_id
 _symmetry_equiv_pos_as_xyz
  1  'x, y, z'
loop_
 _atom_site_type_symbol
 _atom_site_label
 _atom_site_symmetry_multiplicity
 _atom_site_fract_x
 _atom_site_fract_y
 _atom_site_fract_z
 _atom_site_occupancy
  Dy  Dy0  1  0.838463  0.159660  0.499990  1
  Dy  Dy1  1  0.161537  0.840340  0.499990  1
  Dy  Dy2  1  0.340340  0.338463  0.000010  1
  Dy  Dy3  1  0.659660  0.661537  0.000010  1
  Dy  Dy4  1  0.680045  0.682854  0.499162  1
  Dy  Dy5  1  0.319955  0.317146  0.499162  1
  Dy  Dy6  1  0.182854  0.819955  0.000838  1
  Dy  Dy7  1  0.817146  0.180045  0.000838  1
  Cd  Cd8  1  0.000000  0.500000  0.750000  1
  Sn  Sn9  1  0.500000  0.000000  0.750000  1
  Sn  Sn10  1  0.000000  0.500000  0.250000  1
  Hg  Hg11  1  0.500000  0.000000  0.250000  1
  Au  Au12  1  0.627455  0.373401  0.271379  1
  Au  Au13  1  0.372545  0.626599  0.271379  1
  Au  Au14  1  0.124193  0.131883  0.770867  1
  Au  Au15  1  0.875807  0.868117  0.770867  1
  Au  Au16  1  0.368117  0.624193  0.729133  1
  Au  Au17  1  0.631883  0.375807  0.729133  1
  Au  Au18  1  0.873401  0.872545  0.228621  1
  Au  Au19  1  0.126599  0.127455  0.228621  1
