# generated using pymatgen
data_TbHo3(Al3Ir)6
_symmetry_space_group_name_H-M   'P 1'
_cell_length_a   7.55502158
_cell_length_b   7.55630759
_cell_length_c   9.47306300
_cell_angle_alpha   90.00000000
_cell_angle_beta   90.00000000
_cell_angle_gamma   119.60358388
_symmetry_Int_Tables_number   1
_chemical_formula_structural   TbHo3(Al3Ir)6
_chemical_formula_sum   'Tb1 Ho3 Al18 Ir6'
_cell_volume   470.20515212
_cell_formula_units_Z   1
loop_
 _symmetry_equiv_pos_site_id
 _symmetry_equiv_pos_as_xyz
  1  'x, y, z'
loop_
 _atom_site_type_symbol
 _atom_site_label
 _atom_site_symmetry_multiplicity
 _atom_site_fract_x
 _atom_site_fract_y
 _atom_site_fract_z
 _atom_site_occupancy
  Tb  Tb0  1  0.994787  0.670578  0.250000  1
  Ho  Ho1  1  0.005230  0.329391  0.750000  1
  Ho  Ho2  1  0.670538  0.994826  0.250000  1
  Ho  Ho3  1  0.329423  0.005288  0.750000  1
  Al  Al4  1  0.128524  0.128868  0.250000  1
  Al  Al5  1  0.871594  0.871727  0.750000  1
  Al  Al6  1  0.000960  0.334570  0.073479  1
  Al  Al7  1  0.999050  0.665073  0.925569  1
  Al  Al8  1  0.999050  0.665073  0.574431  1
  Al  Al9  1  0.335227  0.001273  0.426490  1
  Al  Al10  1  0.000960  0.334570  0.426521  1
  Al  Al11  1  0.665086  0.999073  0.573979  1
  Al  Al12  1  0.665086  0.999073  0.926021  1
  Al  Al13  1  0.335227  0.001273  0.073510  1
  Al  Al14  1  0.333356  0.333373  0.552532  1
  Al  Al15  1  0.666362  0.666642  0.448190  1
  Al  Al16  1  0.666362  0.666642  0.051810  1
  Al  Al17  1  0.333356  0.333373  0.947468  1
  Al  Al18  1  0.339433  0.547960  0.250000  1
  Al  Al19  1  0.660856  0.451861  0.750000  1
  Al  Al20  1  0.547498  0.338500  0.250000  1
  Al  Al21  1  0.451997  0.661029  0.750000  1
  Ir  Ir22  1  0.671878  0.327737  0.999780  1
  Ir  Ir23  1  0.328055  0.672013  0.999803  1
  Ir  Ir24  1  0.328055  0.672013  0.500197  1
  Ir  Ir25  1  0.671878  0.327737  0.500220  1
  Ir  Ir26  1  0.000087  0.000232  0.999777  1
  Ir  Ir27  1  0.000087  0.000232  0.500223  1
