# generated using pymatgen
data_Ti8ZnMo3Ir4
_symmetry_space_group_name_H-M   'P 1'
_cell_length_a   6.26918200
_cell_length_b   4.41736100
_cell_length_c   8.82779200
_cell_angle_alpha   90.00000000
_cell_angle_beta   89.99974873
_cell_angle_gamma   90.00000000
_symmetry_Int_Tables_number   1
_chemical_formula_structural   Ti8ZnMo3Ir4
_chemical_formula_sum   'Ti8 Zn1 Mo3 Ir4'
_cell_volume   244.47016313
_cell_formula_units_Z   1
loop_
 _symmetry_equiv_pos_site_id
 _symmetry_equiv_pos_as_xyz
  1  'x, y, z'
loop_
 _atom_site_type_symbol
 _atom_site_label
 _atom_site_symmetry_multiplicity
 _atom_site_fract_x
 _atom_site_fract_y
 _atom_site_fract_z
 _atom_site_occupancy
  Ti  Ti0  1  0.007431  0.749999  0.124999  1
  Ti  Ti1  1  0.492531  0.749999  0.125001  1
  Ti  Ti2  1  0.003180  0.249999  0.378583  1
  Ti  Ti3  1  0.496829  0.249999  0.378594  1
  Ti  Ti4  1  0.498844  0.749999  0.625003  1
  Ti  Ti5  1  0.001152  0.749999  0.625006  1
  Ti  Ti6  1  0.496848  0.249999  0.871399  1
  Ti  Ti7  1  0.003180  0.249999  0.871411  1
  Zn  Zn8  1  0.749978  0.249999  0.124998  1
  Mo  Mo9  1  0.250017  0.749999  0.373454  1
  Mo  Mo10  1  0.749982  0.249999  0.625003  1
  Mo  Mo11  1  0.250029  0.749999  0.876554  1
  Ir  Ir12  1  0.250008  0.249999  0.124997  1
  Ir  Ir13  1  0.749991  0.749999  0.370408  1
  Ir  Ir14  1  0.249998  0.249999  0.624999  1
  Ir  Ir15  1  0.750002  0.749999  0.879590  1
