# generated using pymatgen
data_Lu16In4CuRu3
_symmetry_space_group_name_H-M   'P 1'
_cell_length_a   9.48938093
_cell_length_b   9.48938166
_cell_length_c   9.48938168
_cell_angle_alpha   59.57091928
_cell_angle_beta   59.57091961
_cell_angle_gamma   59.57091976
_symmetry_Int_Tables_number   1
_chemical_formula_structural   Lu16In4CuRu3
_chemical_formula_sum   'Lu16 In4 Cu1 Ru3'
_cell_volume   598.33127971
_cell_formula_units_Z   1
loop_
 _symmetry_equiv_pos_site_id
 _symmetry_equiv_pos_as_xyz
  1  'x, y, z'
loop_
 _atom_site_type_symbol
 _atom_site_label
 _atom_site_symmetry_multiplicity
 _atom_site_fract_x
 _atom_site_fract_y
 _atom_site_fract_z
 _atom_site_occupancy
  Lu  Lu0  1  0.599019  0.599019  0.599019  1
  Lu  Lu1  1  0.601865  0.601865  0.201354  1
  Lu  Lu2  1  0.601865  0.201354  0.601865  1
  Lu  Lu3  1  0.201354  0.601865  0.601865  1
  Lu  Lu4  1  0.052869  0.441376  0.441376  1
  Lu  Lu5  1  0.441622  0.058260  0.058260  1
  Lu  Lu6  1  0.441376  0.052869  0.441376  1
  Lu  Lu7  1  0.058260  0.441622  0.058260  1
  Lu  Lu8  1  0.441376  0.441376  0.052869  1
  Lu  Lu9  1  0.058260  0.058260  0.441622  1
  Lu  Lu10  1  0.193477  0.807181  0.807181  1
  Lu  Lu11  1  0.814853  0.189275  0.189275  1
  Lu  Lu12  1  0.807181  0.193477  0.807181  1
  Lu  Lu13  1  0.189275  0.814853  0.189275  1
  Lu  Lu14  1  0.807181  0.807181  0.193477  1
  Lu  Lu15  1  0.189275  0.189275  0.814853  1
  In  In16  1  0.833751  0.833751  0.833751  1
  In  In17  1  0.833516  0.833516  0.499640  1
  In  In18  1  0.833516  0.499640  0.833516  1
  In  In19  1  0.499640  0.833516  0.833516  1
  Cu  Cu20  1  0.389757  0.389757  0.389757  1
  Ru  Ru21  1  0.391284  0.391284  0.828142  1
  Ru  Ru22  1  0.391284  0.828142  0.391284  1
  Ru  Ru23  1  0.828142  0.391284  0.391284  1
