# generated using pymatgen
data_PrEr3Pu2O12
_symmetry_space_group_name_H-M   'P 1'
_cell_length_a   5.56714000
_cell_length_b   7.94771824
_cell_length_c   11.80410800
_cell_angle_alpha   75.43777565
_cell_angle_beta   90.00000000
_cell_angle_gamma   90.00000000
_symmetry_Int_Tables_number   1
_chemical_formula_structural   PrEr3Pu2O12
_chemical_formula_sum   'Pr2 Er6 Pu4 O24'
_cell_volume   505.50693730
_cell_formula_units_Z   2
loop_
 _symmetry_equiv_pos_site_id
 _symmetry_equiv_pos_as_xyz
  1  'x, y, z'
loop_
 _atom_site_type_symbol
 _atom_site_label
 _atom_site_symmetry_multiplicity
 _atom_site_fract_x
 _atom_site_fract_y
 _atom_site_fract_z
 _atom_site_occupancy
  Pr  Pr0  1  0.689731  0.500000  0.250000  1
  Pr  Pr1  1  0.310269  0.500000  0.750000  1
  Er  Er2  1  0.184779  0.203746  0.421326  1
  Er  Er3  1  0.184779  0.796254  0.078674  1
  Er  Er4  1  0.815221  0.796254  0.578674  1
  Er  Er5  1  0.815221  0.203746  0.921326  1
  Er  Er6  1  0.744624  0.000000  0.250000  1
  Er  Er7  1  0.255376  0.000000  0.750000  1
  Pu  Pu8  1  0.254539  0.268495  0.117011  1
  Pu  Pu9  1  0.254539  0.731505  0.382989  1
  Pu  Pu10  1  0.745461  0.731505  0.882989  1
  Pu  Pu11  1  0.745461  0.268495  0.617011  1
  O  O12  1  0.453406  0.197782  0.276448  1
  O  O13  1  0.453406  0.802218  0.223552  1
  O  O14  1  0.546594  0.802218  0.723552  1
  O  O15  1  0.546594  0.197782  0.776448  1
  O  O16  1  0.039460  0.049008  0.104449  1
  O  O17  1  0.039460  0.950992  0.395551  1
  O  O18  1  0.960540  0.950992  0.895551  1
  O  O19  1  0.960540  0.049008  0.604449  1
  O  O20  1  0.970208  0.278252  0.235061  1
  O  O21  1  0.970208  0.721748  0.264939  1
  O  O22  1  0.029792  0.721748  0.764939  1
  O  O23  1  0.029792  0.278252  0.735061  1
  O  O24  1  0.867755  0.356664  0.450581  1
  O  O25  1  0.867755  0.643336  0.049419  1
  O  O26  1  0.132245  0.643336  0.549419  1
  O  O27  1  0.132245  0.356664  0.950581  1
  O  O28  1  0.639243  0.512686  0.616682  1
  O  O29  1  0.639243  0.487314  0.883318  1
  O  O30  1  0.360757  0.487314  0.383318  1
  O  O31  1  0.360757  0.512686  0.116682  1
  O  O32  1  0.443616  0.150865  0.567639  1
  O  O33  1  0.443616  0.849135  0.932361  1
  O  O34  1  0.556384  0.849135  0.432361  1
  O  O35  1  0.556384  0.150865  0.067639  1
