# generated using pymatgen
data_Lu4B16OsRu3
_symmetry_space_group_name_H-M   'P 1'
_cell_length_a   3.52302900
_cell_length_b   5.90336007
_cell_length_c   11.41963913
_cell_angle_alpha   89.98269777
_cell_angle_beta   90.00000000
_cell_angle_gamma   90.00000000
_symmetry_Int_Tables_number   1
_chemical_formula_structural   Lu4B16OsRu3
_chemical_formula_sum   'Lu4 B16 Os1 Ru3'
_cell_volume   237.50231743
_cell_formula_units_Z   1
loop_
 _symmetry_equiv_pos_site_id
 _symmetry_equiv_pos_as_xyz
  1  'x, y, z'
loop_
 _atom_site_type_symbol
 _atom_site_label
 _atom_site_symmetry_multiplicity
 _atom_site_fract_x
 _atom_site_fract_y
 _atom_site_fract_z
 _atom_site_occupancy
  Lu  Lu0  1  0.000000  0.629338  0.350612  1
  Lu  Lu1  1  0.000000  0.370652  0.649407  1
  Lu  Lu2  1  0.000000  0.129393  0.150076  1
  Lu  Lu3  1  0.000000  0.870477  0.850043  1
  B  B4  1  0.500000  0.791518  0.186486  1
  B  B5  1  0.500000  0.208612  0.813598  1
  B  B6  1  0.500000  0.291235  0.313873  1
  B  B7  1  0.500000  0.708589  0.686025  1
  B  B8  1  0.500000  0.865043  0.029385  1
  B  B9  1  0.500000  0.135025  0.970366  1
  B  B10  1  0.500000  0.365048  0.470278  1
  B  B11  1  0.500000  0.634881  0.529831  1
  B  B12  1  0.500000  0.887080  0.452622  1
  B  B13  1  0.500000  0.112975  0.547484  1
  B  B14  1  0.500000  0.386947  0.047571  1
  B  B15  1  0.500000  0.612990  0.952391  1
  B  B16  1  0.500000  0.977684  0.307241  1
  B  B17  1  0.500000  0.022815  0.692838  1
  B  B18  1  0.500000  0.476609  0.192810  1
  B  B19  1  0.500000  0.523083  0.807143  1
  Os  Os20  1  0.000000  0.642570  0.093644  1
  Ru  Ru21  1  0.000000  0.357314  0.906300  1
  Ru  Ru22  1  0.000000  0.141714  0.406423  1
  Ru  Ru23  1  0.000000  0.858407  0.593550  1
