# generated using pymatgen
data_Cs2NaNdBi2
_symmetry_space_group_name_H-M   'P 1'
_cell_length_a   11.96885233
_cell_length_b   11.96885274
_cell_length_c   7.83086200
_cell_angle_alpha   90.00000000
_cell_angle_beta   90.00000000
_cell_angle_gamma   98.57431837
_symmetry_Int_Tables_number   1
_chemical_formula_structural   Cs2NaNdBi2
_chemical_formula_sum   'Cs8 Na4 Nd4 Bi8'
_cell_volume   1109.25985997
_cell_formula_units_Z   4
loop_
 _symmetry_equiv_pos_site_id
 _symmetry_equiv_pos_as_xyz
  1  'x, y, z'
loop_
 _atom_site_type_symbol
 _atom_site_label
 _atom_site_symmetry_multiplicity
 _atom_site_fract_x
 _atom_site_fract_y
 _atom_site_fract_z
 _atom_site_occupancy
  Cs  Cs0  1  0.071785  0.428215  0.250000  1
  Cs  Cs1  1  0.428215  0.071785  0.750000  1
  Cs  Cs2  1  0.928215  0.571785  0.750000  1
  Cs  Cs3  1  0.571785  0.928215  0.250000  1
  Cs  Cs4  1  0.676045  0.323955  0.213611  1
  Cs  Cs5  1  0.823955  0.176045  0.713611  1
  Cs  Cs6  1  0.323955  0.676045  0.786389  1
  Cs  Cs7  1  0.176045  0.823955  0.286389  1
  Na  Na8  1  0.381617  0.381617  0.000000  1
  Na  Na9  1  0.118383  0.118383  0.500000  1
  Na  Na10  1  0.618383  0.618383  0.000000  1
  Na  Na11  1  0.881617  0.881617  0.500000  1
  Nd  Nd12  1  0.132045  0.132045  0.000000  1
  Nd  Nd13  1  0.367955  0.367955  0.500000  1
  Nd  Nd14  1  0.867955  0.867955  0.000000  1
  Nd  Nd15  1  0.632045  0.632045  0.500000  1
  Bi  Bi16  1  0.846104  0.653895  0.250000  1
  Bi  Bi17  1  0.653895  0.846104  0.750000  1
  Bi  Bi18  1  0.153895  0.346104  0.750000  1
  Bi  Bi19  1  0.346104  0.153895  0.250000  1
  Bi  Bi20  1  0.902936  0.097064  0.219939  1
  Bi  Bi21  1  0.597064  0.402936  0.719939  1
  Bi  Bi22  1  0.097064  0.902936  0.780061  1
  Bi  Bi23  1  0.402936  0.597064  0.280061  1
