# generated using pymatgen
data_Ti2Be8ReOs
_symmetry_space_group_name_H-M   'P 1'
_cell_length_a   4.41641300
_cell_length_b   4.41641338
_cell_length_c   7.21301800
_cell_angle_alpha   90.00000000
_cell_angle_beta   90.00000000
_cell_angle_gamma   120.00000466
_symmetry_Int_Tables_number   1
_chemical_formula_structural   Ti2Be8ReOs
_chemical_formula_sum   'Ti2 Be8 Re1 Os1'
_cell_volume   121.83919577
_cell_formula_units_Z   1
loop_
 _symmetry_equiv_pos_site_id
 _symmetry_equiv_pos_as_xyz
  1  'x, y, z'
loop_
 _atom_site_type_symbol
 _atom_site_label
 _atom_site_symmetry_multiplicity
 _atom_site_fract_x
 _atom_site_fract_y
 _atom_site_fract_z
 _atom_site_occupancy
  Ti  Ti0  1  0.333333  0.666667  0.063711  1
  Ti  Ti1  1  0.666667  0.333333  0.565475  1
  Be  Be2  1  0.000000  0.000000  0.996298  1
  Be  Be3  1  0.000000  0.000000  0.497112  1
  Be  Be4  1  0.830176  0.660351  0.250651  1
  Be  Be5  1  0.169950  0.830050  0.750165  1
  Be  Be6  1  0.660101  0.830050  0.750165  1
  Be  Be7  1  0.339649  0.169824  0.250651  1
  Be  Be8  1  0.830176  0.169824  0.250651  1
  Be  Be9  1  0.169950  0.339899  0.750165  1
  Re  Re10  1  0.333333  0.666667  0.437346  1
  Os  Os11  1  0.666667  0.333333  0.937606  1
