# generated using pymatgen
data_Nd2Lu4Bi2Os
_symmetry_space_group_name_H-M   'P 1'
_cell_length_a   8.27015104
_cell_length_b   8.27014883
_cell_length_c   4.29979100
_cell_angle_alpha   90.00000000
_cell_angle_beta   90.00000000
_cell_angle_gamma   119.85110151
_symmetry_Int_Tables_number   1
_chemical_formula_structural   Nd2Lu4Bi2Os
_chemical_formula_sum   'Nd2 Lu4 Bi2 Os1'
_cell_volume   255.06707764
_cell_formula_units_Z   1
loop_
 _symmetry_equiv_pos_site_id
 _symmetry_equiv_pos_as_xyz
  1  'x, y, z'
loop_
 _atom_site_type_symbol
 _atom_site_label
 _atom_site_symmetry_multiplicity
 _atom_site_fract_x
 _atom_site_fract_y
 _atom_site_fract_z
 _atom_site_occupancy
  Nd  Nd0  1  0.607723  0.997042  0.000000  1
  Nd  Nd1  1  0.997042  0.607723  0.000000  1
  Lu  Lu2  1  0.230647  0.999808  0.500000  1
  Lu  Lu3  1  0.999808  0.230647  0.500000  1
  Lu  Lu4  1  0.778987  0.778987  0.500000  1
  Lu  Lu5  1  0.378463  0.378463  0.000000  1
  Bi  Bi6  1  0.334284  0.657476  0.500000  1
  Bi  Bi7  1  0.657476  0.334284  0.500000  1
  Os  Os8  1  0.015571  0.015571  0.000000  1
