# generated using pymatgen
data_DyRuI18
_symmetry_space_group_name_H-M   'P 1'
_cell_length_a   10.28721053
_cell_length_b   10.28720717
_cell_length_c   10.28720860
_cell_angle_alpha   94.83985548
_cell_angle_beta   94.83985604
_cell_angle_gamma   94.83985380
_symmetry_Int_Tables_number   1
_chemical_formula_structural   DyRuI18
_chemical_formula_sum   'Dy1 Ru1 I18'
_cell_volume   1076.31272640
_cell_formula_units_Z   1
loop_
 _symmetry_equiv_pos_site_id
 _symmetry_equiv_pos_as_xyz
  1  'x, y, z'
loop_
 _atom_site_type_symbol
 _atom_site_label
 _atom_site_symmetry_multiplicity
 _atom_site_fract_x
 _atom_site_fract_y
 _atom_site_fract_z
 _atom_site_occupancy
  Dy  Dy0  1  0.500000  0.500000  0.500000  1
  Ru  Ru1  1  0.000000  0.000000  0.000000  1
  I  I2  1  0.264255  0.012792  0.024318  1
  I  I3  1  0.024318  0.264255  0.012792  1
  I  I4  1  0.012792  0.024318  0.264255  1
  I  I5  1  0.735745  0.987208  0.975682  1
  I  I6  1  0.975682  0.735745  0.987208  1
  I  I7  1  0.987208  0.975682  0.735745  1
  I  I8  1  0.640958  0.218359  0.105539  1
  I  I9  1  0.105539  0.640958  0.218359  1
  I  I10  1  0.218359  0.105539  0.640958  1
  I  I11  1  0.359042  0.781641  0.894461  1
  I  I12  1  0.894461  0.359042  0.781641  1
  I  I13  1  0.781641  0.894461  0.359042  1
  I  I14  1  0.461264  0.207670  0.529483  1
  I  I15  1  0.529483  0.461264  0.207670  1
  I  I16  1  0.207670  0.529483  0.461264  1
  I  I17  1  0.538736  0.792330  0.470517  1
  I  I18  1  0.470517  0.538736  0.792330  1
  I  I19  1  0.792330  0.470517  0.538736  1
