# generated using pymatgen
data_Er10Bi5Os
_symmetry_space_group_name_H-M   'P 1'
_cell_length_a   7.97822700
_cell_length_b   9.43123400
_cell_length_c   12.10753500
_cell_angle_alpha   90.00000000
_cell_angle_beta   90.00000000
_cell_angle_gamma   90.00000000
_symmetry_Int_Tables_number   1
_chemical_formula_structural   Er10Bi5Os
_chemical_formula_sum   'Er20 Bi10 Os2'
_cell_volume   911.02572898
_cell_formula_units_Z   2
loop_
 _symmetry_equiv_pos_site_id
 _symmetry_equiv_pos_as_xyz
  1  'x, y, z'
loop_
 _atom_site_type_symbol
 _atom_site_label
 _atom_site_symmetry_multiplicity
 _atom_site_fract_x
 _atom_site_fract_y
 _atom_site_fract_z
 _atom_site_occupancy
  Er  Er0  1  0.429847  0.178616  0.562409  1
  Er  Er1  1  0.570153  0.821384  0.062409  1
  Er  Er2  1  0.071013  0.723084  0.435345  1
  Er  Er3  1  0.928987  0.276916  0.935345  1
  Er  Er4  1  0.071013  0.276916  0.435345  1
  Er  Er5  1  0.928987  0.723084  0.935345  1
  Er  Er6  1  0.429847  0.821384  0.562409  1
  Er  Er7  1  0.570153  0.178616  0.062409  1
  Er  Er8  1  0.574438  0.500000  0.773082  1
  Er  Er9  1  0.425562  0.500000  0.273082  1
  Er  Er10  1  0.910352  0.000000  0.208240  1
  Er  Er11  1  0.089648  0.000000  0.708240  1
  Er  Er12  1  0.259431  0.500000  0.993731  1
  Er  Er13  1  0.740569  0.500000  0.493731  1
  Er  Er14  1  0.194264  0.000000  0.996279  1
  Er  Er15  1  0.805736  0.000000  0.496279  1
  Er  Er16  1  0.089409  0.500000  0.718427  1
  Er  Er17  1  0.910591  0.500000  0.218427  1
  Er  Er18  1  0.374932  0.000000  0.304415  1
  Er  Er19  1  0.625068  0.000000  0.804415  1
  Bi  Bi20  1  0.814265  0.739682  0.671486  1
  Bi  Bi21  1  0.185735  0.260318  0.171486  1
  Bi  Bi22  1  0.680430  0.243380  0.325855  1
  Bi  Bi23  1  0.319570  0.756620  0.825855  1
  Bi  Bi24  1  0.680430  0.756620  0.325855  1
  Bi  Bi25  1  0.319570  0.243380  0.825855  1
  Bi  Bi26  1  0.814265  0.260318  0.671486  1
  Bi  Bi27  1  0.185735  0.739682  0.171486  1
  Bi  Bi28  1  0.348435  0.500000  0.528810  1
  Bi  Bi29  1  0.651565  0.500000  0.028810  1
  Os  Os30  1  0.169020  0.000000  0.486829  1
  Os  Os31  1  0.830980  0.000000  0.986829  1
