# generated using pymatgen
data_Th2Al9Os2Rh
_symmetry_space_group_name_H-M   'P 1'
_cell_length_a   7.70722300
_cell_length_b   7.70722311
_cell_length_c   9.76208300
_cell_angle_alpha   90.00000000
_cell_angle_beta   90.00000000
_cell_angle_gamma   119.81476013
_symmetry_Int_Tables_number   1
_chemical_formula_structural   Th2Al9Os2Rh
_chemical_formula_sum   'Th4 Al18 Os4 Rh2'
_cell_volume   503.12583092
_cell_formula_units_Z   2
loop_
 _symmetry_equiv_pos_site_id
 _symmetry_equiv_pos_as_xyz
  1  'x, y, z'
loop_
 _atom_site_type_symbol
 _atom_site_label
 _atom_site_symmetry_multiplicity
 _atom_site_fract_x
 _atom_site_fract_y
 _atom_site_fract_z
 _atom_site_occupancy
  Th  Th0  1  0.996624  0.666569  0.250000  1
  Th  Th1  1  0.003376  0.333431  0.750000  1
  Th  Th2  1  0.666569  0.996624  0.250000  1
  Th  Th3  1  0.333431  0.003376  0.750000  1
  Al  Al4  1  0.129926  0.129926  0.250000  1
  Al  Al5  1  0.870074  0.870074  0.750000  1
  Al  Al6  1  0.006664  0.335331  0.071253  1
  Al  Al7  1  0.993336  0.664669  0.928747  1
  Al  Al8  1  0.993336  0.664669  0.571253  1
  Al  Al9  1  0.335331  0.006664  0.428747  1
  Al  Al10  1  0.006664  0.335331  0.428747  1
  Al  Al11  1  0.664669  0.993336  0.571253  1
  Al  Al12  1  0.664669  0.993336  0.928747  1
  Al  Al13  1  0.335331  0.006664  0.071253  1
  Al  Al14  1  0.339090  0.339090  0.548303  1
  Al  Al15  1  0.660910  0.660910  0.451697  1
  Al  Al16  1  0.660910  0.660910  0.048303  1
  Al  Al17  1  0.339090  0.339090  0.951697  1
  Al  Al18  1  0.337281  0.542510  0.250000  1
  Al  Al19  1  0.662719  0.457490  0.750000  1
  Al  Al20  1  0.542510  0.337281  0.250000  1
  Al  Al21  1  0.457490  0.662719  0.750000  1
  Os  Os22  1  0.673498  0.326502  0.000000  1
  Os  Os23  1  0.326502  0.673498  0.000000  1
  Os  Os24  1  0.326502  0.673498  0.500000  1
  Os  Os25  1  0.673498  0.326502  0.500000  1
  Rh  Rh26  1  0.000000  0.000000  0.000000  1
  Rh  Rh27  1  0.000000  0.000000  0.500000  1
