# generated using pymatgen
data_ScPa2(GaNi)3
_symmetry_space_group_name_H-M   'P 1'
_cell_length_a   6.72633418
_cell_length_b   6.72633308
_cell_length_c   3.96446700
_cell_angle_alpha   90.00000000
_cell_angle_beta   90.00000000
_cell_angle_gamma   121.02869644
_symmetry_Int_Tables_number   1
_chemical_formula_structural   ScPa2(GaNi)3
_chemical_formula_sum   'Sc1 Pa2 Ga3 Ni3'
_cell_volume   153.70091110
_cell_formula_units_Z   1
loop_
 _symmetry_equiv_pos_site_id
 _symmetry_equiv_pos_as_xyz
  1  'x, y, z'
loop_
 _atom_site_type_symbol
 _atom_site_label
 _atom_site_symmetry_multiplicity
 _atom_site_fract_x
 _atom_site_fract_y
 _atom_site_fract_z
 _atom_site_occupancy
  Sc  Sc0  1  0.586125  0.586125  0.500000  1
  Pa  Pa1  1  0.421738  0.999914  0.500000  1
  Pa  Pa2  1  0.999914  0.421738  0.500000  1
  Ga  Ga3  1  0.755625  0.987402  0.000000  1
  Ga  Ga4  1  0.987402  0.755625  0.000000  1
  Ga  Ga5  1  0.255291  0.255291  0.000000  1
  Ni  Ni6  1  0.322007  0.667177  0.000000  1
  Ni  Ni7  1  0.667177  0.322007  0.000000  1
  Ni  Ni8  1  0.004722  0.004722  0.500000  1
