# generated using pymatgen
data_Ca8Si3Ge
_symmetry_space_group_name_H-M   'P 1'
_cell_length_a   4.82752500
_cell_length_b   7.62138802
_cell_length_c   9.05792602
_cell_angle_alpha   89.99196883
_cell_angle_beta   90.00000000
_cell_angle_gamma   90.00000000
_symmetry_Int_Tables_number   1
_chemical_formula_structural   Ca8Si3Ge
_chemical_formula_sum   'Ca8 Si3 Ge1'
_cell_volume   333.26320725
_cell_formula_units_Z   1
loop_
 _symmetry_equiv_pos_site_id
 _symmetry_equiv_pos_as_xyz
  1  'x, y, z'
loop_
 _atom_site_type_symbol
 _atom_site_label
 _atom_site_symmetry_multiplicity
 _atom_site_fract_x
 _atom_site_fract_y
 _atom_site_fract_z
 _atom_site_occupancy
  Ca  Ca0  1  0.750000  0.346255  0.074011  1
  Ca  Ca1  1  0.250000  0.653643  0.926303  1
  Ca  Ca2  1  0.750000  0.846508  0.425533  1
  Ca  Ca3  1  0.250000  0.154198  0.573959  1
  Ca  Ca4  1  0.250000  0.019847  0.177502  1
  Ca  Ca5  1  0.750000  0.980429  0.822797  1
  Ca  Ca6  1  0.250000  0.519613  0.322176  1
  Ca  Ca7  1  0.750000  0.479612  0.677643  1
  Si  Si8  1  0.750000  0.247544  0.394471  1
  Si  Si9  1  0.250000  0.252470  0.894466  1
  Si  Si10  1  0.750000  0.747525  0.105516  1
  Ge  Ge11  1  0.250000  0.752356  0.605623  1
