# generated using pymatgen
data_Nd4Ho6Sn7Bi
_symmetry_space_group_name_H-M   'P 1'
_cell_length_a   8.18520900
_cell_length_b   8.25916551
_cell_length_c   15.61008700
_cell_angle_alpha   89.80565990
_cell_angle_beta   90.00000000
_cell_angle_gamma   90.00000000
_symmetry_Int_Tables_number   1
_chemical_formula_structural   Nd4Ho6Sn7Bi
_chemical_formula_sum   'Nd8 Ho12 Sn14 Bi2'
_cell_volume   1055.28257647
_cell_formula_units_Z   2
loop_
 _symmetry_equiv_pos_site_id
 _symmetry_equiv_pos_as_xyz
  1  'x, y, z'
loop_
 _atom_site_type_symbol
 _atom_site_label
 _atom_site_symmetry_multiplicity
 _atom_site_fract_x
 _atom_site_fract_y
 _atom_site_fract_z
 _atom_site_occupancy
  Nd  Nd0  1  0.473145  0.818853  0.898059  1
  Nd  Nd1  1  0.973145  0.681147  0.601941  1
  Nd  Nd2  1  0.530872  0.172215  0.399197  1
  Nd  Nd3  1  0.030872  0.327785  0.100803  1
  Nd  Nd4  1  0.536292  0.179069  0.101685  1
  Nd  Nd5  1  0.036292  0.320931  0.398315  1
  Nd  Nd6  1  0.467258  0.825935  0.601753  1
  Nd  Nd7  1  0.967258  0.674065  0.898247  1
  Ho  Ho8  1  0.623245  0.337189  0.878520  1
  Ho  Ho9  1  0.123245  0.162811  0.621480  1
  Ho  Ho10  1  0.371670  0.662931  0.378569  1
  Ho  Ho11  1  0.871670  0.837069  0.121431  1
  Ho  Ho12  1  0.379099  0.658407  0.122298  1
  Ho  Ho13  1  0.879099  0.841593  0.377702  1
  Ho  Ho14  1  0.620105  0.334155  0.622108  1
  Ho  Ho15  1  0.120105  0.165845  0.877892  1
  Ho  Ho16  1  0.291171  0.496819  0.749695  1
  Ho  Ho17  1  0.791171  0.003181  0.750305  1
  Ho  Ho18  1  0.709100  0.502801  0.247307  1
  Ho  Ho19  1  0.209100  0.997199  0.252693  1
  Sn  Sn20  1  0.787490  0.034678  0.543232  1
  Sn  Sn21  1  0.287490  0.465322  0.956768  1
  Sn  Sn22  1  0.784737  0.033879  0.956161  1
  Sn  Sn23  1  0.284737  0.466121  0.543839  1
  Sn  Sn24  1  0.211867  0.964713  0.457117  1
  Sn  Sn25  1  0.711867  0.535287  0.042883  1
  Sn  Sn26  1  0.660709  0.640789  0.748665  1
  Sn  Sn27  1  0.160709  0.859211  0.751335  1
  Sn  Sn28  1  0.342493  0.357182  0.250267  1
  Sn  Sn29  1  0.842493  0.142818  0.249733  1
  Sn  Sn30  1  0.422447  0.126641  0.751472  1
  Sn  Sn31  1  0.922447  0.373359  0.748528  1
  Sn  Sn32  1  0.575215  0.871851  0.250423  1
  Sn  Sn33  1  0.075215  0.628149  0.249577  1
  Bi  Bi34  1  0.213082  0.964797  0.043500  1
  Bi  Bi35  1  0.713082  0.535203  0.456500  1
