# generated using pymatgen
data_Er10In8CuPd2Au
_symmetry_space_group_name_H-M   'P 1'
_cell_length_a   3.61761800
_cell_length_b   8.10400503
_cell_length_c   18.16696667
_cell_angle_alpha   90.02276772
_cell_angle_beta   90.00000000
_cell_angle_gamma   90.00000000
_symmetry_Int_Tables_number   1
_chemical_formula_structural   Er10In8CuPd2Au
_chemical_formula_sum   'Er10 In8 Cu1 Pd2 Au1'
_cell_volume   532.60445285
_cell_formula_units_Z   1
loop_
 _symmetry_equiv_pos_site_id
 _symmetry_equiv_pos_as_xyz
  1  'x, y, z'
loop_
 _atom_site_type_symbol
 _atom_site_label
 _atom_site_symmetry_multiplicity
 _atom_site_fract_x
 _atom_site_fract_y
 _atom_site_fract_z
 _atom_site_occupancy
  Er  Er0  1  0.000000  0.500661  0.500934  1
  Er  Er1  1  0.000000  0.000196  0.999237  1
  Er  Er2  1  0.000000  0.745638  0.282841  1
  Er  Er3  1  0.000000  0.259158  0.719986  1
  Er  Er4  1  0.000000  0.760598  0.780166  1
  Er  Er5  1  0.000000  0.232831  0.220095  1
  Er  Er6  1  0.000000  0.618380  0.078937  1
  Er  Er7  1  0.000000  0.383851  0.915337  1
  Er  Er8  1  0.000000  0.884541  0.583401  1
  Er  Er9  1  0.000000  0.114863  0.417960  1
  In  In10  1  0.500000  0.709704  0.930327  1
  In  In11  1  0.500000  0.288059  0.066414  1
  In  In12  1  0.500000  0.789878  0.433218  1
  In  In13  1  0.500000  0.210410  0.568315  1
  In  In14  1  0.500000  0.579844  0.650927  1
  In  In15  1  0.500000  0.416952  0.352903  1
  In  In16  1  0.500000  0.920947  0.147860  1
  In  In17  1  0.500000  0.080800  0.851033  1
  Cu  Cu18  1  0.500000  0.475614  0.802660  1
  Pd  Pd19  1  0.500000  0.975100  0.696963  1
  Pd  Pd20  1  0.500000  0.025298  0.303858  1
  Au  Au21  1  0.500000  0.526677  0.196628  1
