# generated using pymatgen
data_LuMgBi2(Rh2O7)2
_symmetry_space_group_name_H-M   'P 1'
_cell_length_a   7.12485941
_cell_length_b   7.12485970
_cell_length_c   7.07654340
_cell_angle_alpha   61.26266974
_cell_angle_beta   61.26267027
_cell_angle_gamma   61.51526678
_symmetry_Int_Tables_number   1
_chemical_formula_structural   LuMgBi2(Rh2O7)2
_chemical_formula_sum   'Lu1 Mg1 Bi2 Rh4 O14'
_cell_volume   261.69942247
_cell_formula_units_Z   1
loop_
 _symmetry_equiv_pos_site_id
 _symmetry_equiv_pos_as_xyz
  1  'x, y, z'
loop_
 _atom_site_type_symbol
 _atom_site_label
 _atom_site_symmetry_multiplicity
 _atom_site_fract_x
 _atom_site_fract_y
 _atom_site_fract_z
 _atom_site_occupancy
  Lu  Lu0  1  0.125000  0.125000  0.625000  1
  Mg  Mg1  1  0.125000  0.125000  0.125000  1
  Bi  Bi2  1  0.125000  0.625000  0.125000  1
  Bi  Bi3  1  0.625000  0.125000  0.125000  1
  Rh  Rh4  1  0.625000  0.625000  0.625000  1
  Rh  Rh5  1  0.625000  0.625000  0.125000  1
  Rh  Rh6  1  0.125000  0.625000  0.625000  1
  Rh  Rh7  1  0.625000  0.125000  0.625000  1
  O  O8  1  0.239725  0.239725  0.250256  1
  O  O9  1  0.288390  0.715850  0.289002  1
  O  O10  1  0.957144  0.957144  0.552556  1
  O  O11  1  0.528997  0.963606  0.539411  1
  O  O12  1  0.712070  0.712070  0.289492  1
  O  O13  1  0.963606  0.528997  0.539411  1
  O  O14  1  0.721003  0.286394  0.710589  1
  O  O15  1  0.292856  0.292856  0.697444  1
  O  O16  1  0.715850  0.288390  0.289002  1
  O  O17  1  0.286394  0.721003  0.710589  1
  O  O18  1  0.961610  0.534150  0.960998  1
  O  O19  1  0.537930  0.537930  0.960508  1
  O  O20  1  0.010275  0.010275  0.999744  1
  O  O21  1  0.534150  0.961610  0.960998  1
