# generated using pymatgen
data_Nd4Al18(OsPt)3
_symmetry_space_group_name_H-M   'P 1'
_cell_length_a   7.64398143
_cell_length_b   7.64398207
_cell_length_c   9.64880370
_cell_angle_alpha   89.97415794
_cell_angle_beta   89.97416019
_cell_angle_gamma   119.24453374
_symmetry_Int_Tables_number   1
_chemical_formula_structural   Nd4Al18(OsPt)3
_chemical_formula_sum   'Nd4 Al18 Os3 Pt3'
_cell_volume   491.92538059
_cell_formula_units_Z   1
loop_
 _symmetry_equiv_pos_site_id
 _symmetry_equiv_pos_as_xyz
  1  'x, y, z'
loop_
 _atom_site_type_symbol
 _atom_site_label
 _atom_site_symmetry_multiplicity
 _atom_site_fract_x
 _atom_site_fract_y
 _atom_site_fract_z
 _atom_site_occupancy
  Nd  Nd0  1  0.993489  0.671374  0.250902  1
  Nd  Nd1  1  0.006313  0.328812  0.749342  1
  Nd  Nd2  1  0.671188  0.993687  0.250658  1
  Nd  Nd3  1  0.328626  0.006511  0.749098  1
  Al  Al4  1  0.128121  0.129508  0.250138  1
  Al  Al5  1  0.870492  0.871879  0.749862  1
  Al  Al6  1  0.002205  0.331167  0.073610  1
  Al  Al7  1  0.996954  0.669786  0.925416  1
  Al  Al8  1  0.992684  0.663644  0.572210  1
  Al  Al9  1  0.336356  0.007316  0.427790  1
  Al  Al10  1  0.997913  0.330476  0.427968  1
  Al  Al11  1  0.669524  0.002087  0.572032  1
  Al  Al12  1  0.668833  0.997795  0.926390  1
  Al  Al13  1  0.330214  0.003046  0.074584  1
  Al  Al14  1  0.334114  0.328349  0.545166  1
  Al  Al15  1  0.671651  0.665886  0.454834  1
  Al  Al16  1  0.669985  0.670240  0.049740  1
  Al  Al17  1  0.329760  0.330015  0.950260  1
  Al  Al18  1  0.340106  0.543438  0.250112  1
  Al  Al19  1  0.658742  0.453404  0.746073  1
  Al  Al20  1  0.546596  0.341258  0.253927  1
  Al  Al21  1  0.456562  0.659894  0.749888  1
  Os  Os22  1  0.671104  0.328896  0.500000  1
  Os  Os23  1  0.999541  0.000459  0.000000  1
  Os  Os24  1  0.000391  0.999609  0.500000  1
  Pt  Pt25  1  0.670671  0.329329  0.000000  1
  Pt  Pt26  1  0.328628  0.671372  0.000000  1
  Pt  Pt27  1  0.329238  0.670762  0.500000  1
