# generated using pymatgen
data_Zr3Tc2Hg
_symmetry_space_group_name_H-M   'P 1'
_cell_length_a   3.34413900
_cell_length_b   3.34413900
_cell_length_c   10.46122600
_cell_angle_alpha   90.00000000
_cell_angle_beta   90.00000000
_cell_angle_gamma   90.00000000
_symmetry_Int_Tables_number   1
_chemical_formula_structural   Zr3Tc2Hg
_chemical_formula_sum   'Zr3 Tc2 Hg1'
_cell_volume   116.99066940
_cell_formula_units_Z   1
loop_
 _symmetry_equiv_pos_site_id
 _symmetry_equiv_pos_as_xyz
  1  'x, y, z'
loop_
 _atom_site_type_symbol
 _atom_site_label
 _atom_site_symmetry_multiplicity
 _atom_site_fract_x
 _atom_site_fract_y
 _atom_site_fract_z
 _atom_site_occupancy
  Zr  Zr0  1  0.000000  0.000000  0.000000  1
  Zr  Zr1  1  0.000000  0.000000  0.305280  1
  Zr  Zr2  1  0.000000  0.000000  0.694719  1
  Tc  Tc3  1  0.500001  0.500001  0.161530  1
  Tc  Tc4  1  0.500001  0.500001  0.838470  1
  Hg  Hg5  1  0.500001  0.500001  0.500000  1
