# generated using pymatgen
data_Dy3Y7Si6
_symmetry_space_group_name_H-M   'P 1'
_cell_length_a   8.45565700
_cell_length_b   8.45565782
_cell_length_c   6.38084000
_cell_angle_alpha   90.00000000
_cell_angle_beta   90.00000000
_cell_angle_gamma   119.99999289
_symmetry_Int_Tables_number   1
_chemical_formula_structural   Dy3Y7Si6
_chemical_formula_sum   'Dy3 Y7 Si6'
_cell_volume   395.09658415
_cell_formula_units_Z   1
loop_
 _symmetry_equiv_pos_site_id
 _symmetry_equiv_pos_as_xyz
  1  'x, y, z'
loop_
 _atom_site_type_symbol
 _atom_site_label
 _atom_site_symmetry_multiplicity
 _atom_site_fract_x
 _atom_site_fract_y
 _atom_site_fract_z
 _atom_site_occupancy
  Dy  Dy0  1  0.333333  0.666667  0.500000  1
  Dy  Dy1  1  0.666667  0.333333  0.000000  1
  Dy  Dy2  1  0.666667  0.333333  0.500000  1
  Y  Y3  1  0.000005  0.756602  0.749998  1
  Y  Y4  1  0.000005  0.243403  0.250002  1
  Y  Y5  1  0.756597  0.756602  0.250002  1
  Y  Y6  1  0.756597  0.999995  0.749998  1
  Y  Y7  1  0.243398  0.243403  0.749998  1
  Y  Y8  1  0.243398  0.999995  0.250002  1
  Y  Y9  1  0.333333  0.666667  0.000000  1
  Si  Si10  1  0.394358  0.000019  0.749968  1
  Si  Si11  1  0.394358  0.394339  0.250032  1
  Si  Si12  1  0.999981  0.605642  0.250032  1
  Si  Si13  1  0.999981  0.394339  0.749968  1
  Si  Si14  1  0.605661  0.605642  0.749968  1
  Si  Si15  1  0.605661  0.000019  0.250032  1
