# generated using pymatgen
data_La6Pr2Cd2OsPt
_symmetry_space_group_name_H-M   'P 1'
_cell_length_a   10.11698701
_cell_length_b   10.11077881
_cell_length_c   10.20837590
_cell_angle_alpha   59.72053548
_cell_angle_beta   59.66037244
_cell_angle_gamma   59.78917369
_symmetry_Int_Tables_number   1
_chemical_formula_structural   La6Pr2Cd2OsPt
_chemical_formula_sum   'La12 Pr4 Cd4 Os2 Pt2'
_cell_volume   733.73476835
_cell_formula_units_Z   2
loop_
 _symmetry_equiv_pos_site_id
 _symmetry_equiv_pos_as_xyz
  1  'x, y, z'
loop_
 _atom_site_type_symbol
 _atom_site_label
 _atom_site_symmetry_multiplicity
 _atom_site_fract_x
 _atom_site_fract_y
 _atom_site_fract_z
 _atom_site_occupancy
  La  La0  1  0.346898  0.346237  0.353581  1
  La  La1  1  0.346237  0.346898  0.953284  1
  La  La2  1  0.342833  0.959821  0.349071  1
  La  La3  1  0.959821  0.342833  0.348274  1
  La  La4  1  0.815349  0.189795  0.191821  1
  La  La5  1  0.189795  0.815349  0.803035  1
  La  La6  1  0.189443  0.815637  0.191609  1
  La  La7  1  0.815637  0.189443  0.803311  1
  La  La8  1  0.188905  0.188905  0.811095  1
  La  La9  1  0.804507  0.804507  0.195493  1
  La  La10  1  0.937883  0.557405  0.566057  1
  La  La11  1  0.557405  0.937883  0.938655  1
  Pr  Pr12  1  0.558126  0.938404  0.565386  1
  Pr  Pr13  1  0.938404  0.558126  0.938083  1
  Pr  Pr14  1  0.563108  0.563108  0.936892  1
  Pr  Pr15  1  0.938568  0.938568  0.561432  1
  Cd  Cd16  1  0.579099  0.579829  0.580249  1
  Cd  Cd17  1  0.579829  0.579099  0.260823  1
  Cd  Cd18  1  0.580578  0.259219  0.579743  1
  Cd  Cd19  1  0.259219  0.580578  0.580459  1
  Os  Os20  1  0.143195  0.142448  0.136251  1
  Os  Os21  1  0.142448  0.143195  0.578107  1
  Pt  Pt22  1  0.146204  0.576507  0.138503  1
  Pt  Pt23  1  0.576507  0.146204  0.138785  1
