# generated using pymatgen
data_ErTm15(In3Os)2
_symmetry_space_group_name_H-M   'P 1'
_cell_length_a   10.25348700
_cell_length_b   10.25348656
_cell_length_c   6.97943700
_cell_angle_alpha   90.00000000
_cell_angle_beta   90.00000000
_cell_angle_gamma   119.99999819
_symmetry_Int_Tables_number   1
_chemical_formula_structural   ErTm15(In3Os)2
_chemical_formula_sum   'Er1 Tm15 In6 Os2'
_cell_volume   635.46872695
_cell_formula_units_Z   1
loop_
 _symmetry_equiv_pos_site_id
 _symmetry_equiv_pos_as_xyz
  1  'x, y, z'
loop_
 _atom_site_type_symbol
 _atom_site_label
 _atom_site_symmetry_multiplicity
 _atom_site_fract_x
 _atom_site_fract_y
 _atom_site_fract_z
 _atom_site_occupancy
  Er  Er0  1  0.000000  0.000000  0.006918  1
  Tm  Tm1  1  0.532293  0.064584  0.523336  1
  Tm  Tm2  1  0.935416  0.467707  0.523336  1
  Tm  Tm3  1  0.532293  0.467707  0.523336  1
  Tm  Tm4  1  0.467722  0.935443  0.023320  1
  Tm  Tm5  1  0.064557  0.532278  0.023320  1
  Tm  Tm6  1  0.467722  0.532278  0.023320  1
  Tm  Tm7  1  0.177262  0.354522  0.729238  1
  Tm  Tm8  1  0.645478  0.822738  0.729238  1
  Tm  Tm9  1  0.177262  0.822738  0.729238  1
  Tm  Tm10  1  0.822724  0.645449  0.229038  1
  Tm  Tm11  1  0.354551  0.177276  0.229038  1
  Tm  Tm12  1  0.822724  0.177276  0.229038  1
  Tm  Tm13  1  0.666667  0.333333  0.901044  1
  Tm  Tm14  1  0.333333  0.666667  0.401021  1
  Tm  Tm15  1  0.000000  0.000000  0.506915  1
  In  In16  1  0.836649  0.673296  0.770814  1
  In  In17  1  0.326704  0.163351  0.770814  1
  In  In18  1  0.836649  0.163351  0.770814  1
  In  In19  1  0.163376  0.326753  0.270791  1
  In  In20  1  0.673247  0.836624  0.270791  1
  In  In21  1  0.163376  0.836624  0.270791  1
  Os  Os22  1  0.666667  0.333333  0.300169  1
  Os  Os23  1  0.333333  0.666667  0.799994  1
