# generated using pymatgen
data_Y4TmIr2Os
_symmetry_space_group_name_H-M   'P 1'
_cell_length_a   10.87117300
_cell_length_b   10.87117300
_cell_length_c   6.41440800
_cell_angle_alpha   90.00000000
_cell_angle_beta   90.00000000
_cell_angle_gamma   90.00000000
_symmetry_Int_Tables_number   1
_chemical_formula_structural   Y4TmIr2Os
_chemical_formula_sum   'Y16 Tm4 Ir8 Os4'
_cell_volume   758.07014739
_cell_formula_units_Z   4
loop_
 _symmetry_equiv_pos_site_id
 _symmetry_equiv_pos_as_xyz
  1  'x, y, z'
loop_
 _atom_site_type_symbol
 _atom_site_label
 _atom_site_symmetry_multiplicity
 _atom_site_fract_x
 _atom_site_fract_y
 _atom_site_fract_z
 _atom_site_occupancy
  Y  Y0  1  0.292926  0.086304  0.376661  1
  Y  Y1  1  0.292926  0.913696  0.876661  1
  Y  Y2  1  0.707074  0.086304  0.876661  1
  Y  Y3  1  0.707074  0.913696  0.376661  1
  Y  Y4  1  0.586304  0.792926  0.876661  1
  Y  Y5  1  0.586304  0.207074  0.376661  1
  Y  Y6  1  0.413696  0.792926  0.376661  1
  Y  Y7  1  0.413696  0.207074  0.876661  1
  Y  Y8  1  0.207074  0.413696  0.623339  1
  Y  Y9  1  0.207074  0.586304  0.123339  1
  Y  Y10  1  0.792926  0.413696  0.123339  1
  Y  Y11  1  0.792926  0.586304  0.623339  1
  Y  Y12  1  0.913696  0.707074  0.123339  1
  Y  Y13  1  0.913696  0.292926  0.623339  1
  Y  Y14  1  0.086304  0.707074  0.623339  1
  Y  Y15  1  0.086304  0.292926  0.123339  1
  Tm  Tm16  1  0.000000  0.000000  0.500000  1
  Tm  Tm17  1  0.000000  0.000000  0.000000  1
  Tm  Tm18  1  0.500000  0.500000  0.000000  1
  Tm  Tm19  1  0.500000  0.500000  0.500000  1
  Ir  Ir20  1  0.849853  0.150147  0.250000  1
  Ir  Ir21  1  0.849853  0.849853  0.750000  1
  Ir  Ir22  1  0.150147  0.150147  0.750000  1
  Ir  Ir23  1  0.150147  0.849853  0.250000  1
  Ir  Ir24  1  0.650147  0.349853  0.750000  1
  Ir  Ir25  1  0.650147  0.650147  0.250000  1
  Ir  Ir26  1  0.349853  0.349853  0.250000  1
  Ir  Ir27  1  0.349853  0.650147  0.750000  1
  Os  Os28  1  0.500000  0.000000  0.123203  1
  Os  Os29  1  0.500000  0.000000  0.623203  1
  Os  Os30  1  0.000000  0.500000  0.876797  1
  Os  Os31  1  0.000000  0.500000  0.376797  1
