# generated using pymatgen
data_PaIrSe4
_symmetry_space_group_name_H-M   'P 1'
_cell_length_a   3.90783700
_cell_length_b   12.34384800
_cell_length_c   13.84262200
_cell_angle_alpha   90.00000000
_cell_angle_beta   90.00000000
_cell_angle_gamma   90.00000000
_symmetry_Int_Tables_number   1
_chemical_formula_structural   PaIrSe4
_chemical_formula_sum   'Pa4 Ir4 Se16'
_cell_volume   667.73688313
_cell_formula_units_Z   4
loop_
 _symmetry_equiv_pos_site_id
 _symmetry_equiv_pos_as_xyz
  1  'x, y, z'
loop_
 _atom_site_type_symbol
 _atom_site_label
 _atom_site_symmetry_multiplicity
 _atom_site_fract_x
 _atom_site_fract_y
 _atom_site_fract_z
 _atom_site_occupancy
  Pa  Pa0  1  0.000000  0.048447  0.001745  1
  Pa  Pa1  1  0.000000  0.262624  0.494219  1
  Pa  Pa2  1  0.500001  0.951554  0.501746  1
  Pa  Pa3  1  0.500001  0.737376  0.994219  1
  Ir  Ir4  1  0.000000  0.524749  0.999704  1
  Ir  Ir5  1  0.000000  0.739470  0.493891  1
  Ir  Ir6  1  0.500001  0.475251  0.499705  1
  Ir  Ir7  1  0.500001  0.260530  0.993891  1
  Se  Se8  1  0.000000  0.345459  0.086311  1
  Se  Se9  1  0.000000  0.845881  0.108306  1
  Se  Se10  1  0.500001  0.567236  0.115925  1
  Se  Se11  1  0.500001  0.118456  0.128829  1
  Se  Se12  1  0.500001  0.331055  0.366593  1
  Se  Se13  1  0.500001  0.782925  0.377968  1
  Se  Se14  1  0.000000  0.059725  0.387922  1
  Se  Se15  1  0.000000  0.559904  0.406784  1
  Se  Se16  1  0.500001  0.654541  0.586311  1
  Se  Se17  1  0.500001  0.154120  0.608306  1
  Se  Se18  1  0.000000  0.432764  0.615925  1
  Se  Se19  1  0.000000  0.881544  0.628830  1
  Se  Se20  1  0.000000  0.668945  0.866593  1
  Se  Se21  1  0.000000  0.217076  0.877968  1
  Se  Se22  1  0.500001  0.940275  0.887922  1
  Se  Se23  1  0.500001  0.440096  0.906785  1
