# generated using pymatgen
data_La3NdPtSe7
_symmetry_space_group_name_H-M   'P 1'
_cell_length_a   4.10342012
_cell_length_b   8.46294957
_cell_length_c   8.77970832
_cell_angle_alpha   90.03719837
_cell_angle_beta   89.98855301
_cell_angle_gamma   89.99541246
_symmetry_Int_Tables_number   1
_chemical_formula_structural   La3NdPtSe7
_chemical_formula_sum   'La3 Nd1 Pt1 Se7'
_cell_volume   304.89318902
_cell_formula_units_Z   1
loop_
 _symmetry_equiv_pos_site_id
 _symmetry_equiv_pos_as_xyz
  1  'x, y, z'
loop_
 _atom_site_type_symbol
 _atom_site_label
 _atom_site_symmetry_multiplicity
 _atom_site_fract_x
 _atom_site_fract_y
 _atom_site_fract_z
 _atom_site_occupancy
  La  La0  1  0.250813  0.625609  0.749927  1
  La  La1  1  0.749925  0.868596  0.272950  1
  La  La2  1  0.749704  0.380670  0.273911  1
  Nd  Nd3  1  0.250327  0.125451  0.700589  1
  Pt  Pt4  1  0.749183  0.125114  0.999097  1
  Se  Se5  1  0.249176  0.315645  0.996113  1
  Se  Se6  1  0.750305  0.623989  0.006747  1
  Se  Se7  1  0.750829  0.875335  0.634599  1
  Se  Se8  1  0.249967  0.624960  0.373379  1
  Se  Se9  1  0.249362  0.934654  0.995522  1
  Se  Se10  1  0.750441  0.375422  0.635042  1
  Se  Se11  1  0.249967  0.124556  0.362124  1
