# generated using pymatgen
data_Y6OsPd
_symmetry_space_group_name_H-M   'P 1'
_cell_length_a   6.47072231
_cell_length_b   7.33213394
_cell_length_c   9.31664400
_cell_angle_alpha   90.00000000
_cell_angle_beta   90.00000000
_cell_angle_gamma   90.56022011
_symmetry_Int_Tables_number   1
_chemical_formula_structural   Y6OsPd
_chemical_formula_sum   'Y12 Os2 Pd2'
_cell_volume   441.99961686
_cell_formula_units_Z   2
loop_
 _symmetry_equiv_pos_site_id
 _symmetry_equiv_pos_as_xyz
  1  'x, y, z'
loop_
 _atom_site_type_symbol
 _atom_site_label
 _atom_site_symmetry_multiplicity
 _atom_site_fract_x
 _atom_site_fract_y
 _atom_site_fract_z
 _atom_site_occupancy
  Y  Y0  1  0.624370  0.042867  0.250000  1
  Y  Y1  1  0.375630  0.957133  0.750000  1
  Y  Y2  1  0.125039  0.474610  0.750000  1
  Y  Y3  1  0.874961  0.525390  0.250000  1
  Y  Y4  1  0.178216  0.184422  0.062462  1
  Y  Y5  1  0.821784  0.815578  0.937538  1
  Y  Y6  1  0.662966  0.325701  0.940851  1
  Y  Y7  1  0.821784  0.815578  0.562462  1
  Y  Y8  1  0.337034  0.674299  0.059149  1
  Y  Y9  1  0.178216  0.184422  0.437538  1
  Y  Y10  1  0.337034  0.674299  0.440851  1
  Y  Y11  1  0.662966  0.325701  0.559149  1
  Os  Os12  1  0.460707  0.385658  0.250000  1
  Os  Os13  1  0.539293  0.614342  0.750000  1
  Pd  Pd14  1  0.953506  0.113758  0.750000  1
  Pd  Pd15  1  0.046494  0.886242  0.250000  1
