# generated using pymatgen
data_Ti3MnGa3Pd2
_symmetry_space_group_name_H-M   'P 1'
_cell_length_a   7.22848800
_cell_length_b   7.22848679
_cell_length_c   6.07353500
_cell_angle_alpha   90.00000000
_cell_angle_beta   90.00000000
_cell_angle_gamma   120.00000307
_symmetry_Int_Tables_number   1
_chemical_formula_structural   Ti3MnGa3Pd2
_chemical_formula_sum   'Ti6 Mn2 Ga6 Pd4'
_cell_volume   274.83181949
_cell_formula_units_Z   2
loop_
 _symmetry_equiv_pos_site_id
 _symmetry_equiv_pos_as_xyz
  1  'x, y, z'
loop_
 _atom_site_type_symbol
 _atom_site_label
 _atom_site_symmetry_multiplicity
 _atom_site_fract_x
 _atom_site_fract_y
 _atom_site_fract_z
 _atom_site_occupancy
  Ti  Ti0  1  0.746583  0.040277  0.000000  1
  Ti  Ti1  1  0.293693  0.253417  0.000000  1
  Ti  Ti2  1  0.959723  0.706307  0.000000  1
  Ti  Ti3  1  0.293981  0.253653  0.500000  1
  Ti  Ti4  1  0.746347  0.040329  0.500000  1
  Ti  Ti5  1  0.959671  0.706019  0.500000  1
  Mn  Mn6  1  0.000000  0.000000  0.249782  1
  Mn  Mn7  1  0.000000  0.000000  0.750218  1
  Ga  Ga8  1  0.618287  0.660425  0.750226  1
  Ga  Ga9  1  0.042140  0.381713  0.750226  1
  Ga  Ga10  1  0.339575  0.957860  0.750226  1
  Ga  Ga11  1  0.618287  0.660425  0.249774  1
  Ga  Ga12  1  0.042140  0.381713  0.249774  1
  Ga  Ga13  1  0.339575  0.957860  0.249774  1
  Pd  Pd14  1  0.333333  0.666667  0.000000  1
  Pd  Pd15  1  0.333333  0.666667  0.500000  1
  Pd  Pd16  1  0.666667  0.333333  0.750182  1
  Pd  Pd17  1  0.666667  0.333333  0.249818  1
