# generated using pymatgen
data_Hf4Zr3Nb3Si8
_symmetry_space_group_name_H-M   'P 1'
_cell_length_a   6.99578871
_cell_length_b   6.99404542
_cell_length_c   12.83358551
_cell_angle_alpha   90.27058079
_cell_angle_beta   89.98909430
_cell_angle_gamma   89.94958063
_symmetry_Int_Tables_number   1
_chemical_formula_structural   Hf4Zr3Nb3Si8
_chemical_formula_sum   'Hf8 Zr6 Nb6 Si16'
_cell_volume   627.92550303
_cell_formula_units_Z   2
loop_
 _symmetry_equiv_pos_site_id
 _symmetry_equiv_pos_as_xyz
  1  'x, y, z'
loop_
 _atom_site_type_symbol
 _atom_site_label
 _atom_site_symmetry_multiplicity
 _atom_site_fract_x
 _atom_site_fract_y
 _atom_site_fract_z
 _atom_site_occupancy
  Hf  Hf0  1  0.004073  0.147546  0.126624  1
  Hf  Hf1  1  0.998409  0.853436  0.626222  1
  Hf  Hf2  1  0.646377  0.497436  0.876397  1
  Hf  Hf3  1  0.503735  0.352164  0.623398  1
  Hf  Hf4  1  0.499214  0.646938  0.123925  1
  Hf  Hf5  1  0.146033  0.003432  0.873362  1
  Hf  Hf6  1  0.000985  0.654622  0.034069  1
  Hf  Hf7  1  0.000482  0.344912  0.528826  1
  Zr  Zr8  1  0.654862  0.998899  0.969620  1
  Zr  Zr9  1  0.152521  0.501402  0.781017  1
  Zr  Zr10  1  0.846223  0.498049  0.283052  1
  Zr  Zr11  1  0.503304  0.153664  0.219939  1
  Zr  Zr12  1  0.500102  0.846207  0.715284  1
  Zr  Zr13  1  0.345528  0.001793  0.467623  1
  Nb  Nb14  1  0.352788  0.504918  0.376298  1
  Nb  Nb15  1  0.854063  0.994943  0.373974  1
  Nb  Nb16  1  0.673345  0.672117  0.498530  1
  Nb  Nb17  1  0.826267  0.175048  0.749029  1
  Nb  Nb18  1  0.173470  0.826580  0.251556  1
  Nb  Nb19  1  0.326522  0.325723  0.001311  1
  Si  Si20  1  0.047796  0.699761  0.435644  1
  Si  Si21  1  0.953072  0.303231  0.936287  1
  Si  Si22  1  0.702601  0.048975  0.561864  1
  Si  Si23  1  0.201020  0.452810  0.187377  1
  Si  Si24  1  0.801337  0.547254  0.684220  1
  Si  Si25  1  0.452867  0.198051  0.814579  1
  Si  Si26  1  0.548156  0.798919  0.315057  1
  Si  Si27  1  0.299820  0.950804  0.064975  1
  Si  Si28  1  0.854065  0.796042  0.821538  1
  Si  Si29  1  0.139701  0.208568  0.324977  1
  Si  Si30  1  0.796261  0.856790  0.179374  1
  Si  Si31  1  0.294362  0.641916  0.569777  1
  Si  Si32  1  0.704941  0.355024  0.072390  1
  Si  Si33  1  0.640515  0.292151  0.425703  1
  Si  Si34  1  0.352411  0.702801  0.929566  1
  Si  Si35  1  0.202774  0.147075  0.676617  1
