# generated using pymatgen
data_YPbF7
_symmetry_space_group_name_H-M   'P 1'
_cell_length_a   5.82048000
_cell_length_b   9.23057200
_cell_length_c   12.43118936
_cell_angle_alpha   62.50092203
_cell_angle_beta   90.00000000
_cell_angle_gamma   90.00000000
_symmetry_Int_Tables_number   1
_chemical_formula_structural   YPbF7
_chemical_formula_sum   'Y4 Pb4 F28'
_cell_volume   592.42402085
_cell_formula_units_Z   4
loop_
 _symmetry_equiv_pos_site_id
 _symmetry_equiv_pos_as_xyz
  1  'x, y, z'
loop_
 _atom_site_type_symbol
 _atom_site_label
 _atom_site_symmetry_multiplicity
 _atom_site_fract_x
 _atom_site_fract_y
 _atom_site_fract_z
 _atom_site_occupancy
  Y  Y0  1  0.756991  0.817939  0.765044  1
  Y  Y1  1  0.256991  0.182061  0.734956  1
  Y  Y2  1  0.243009  0.182061  0.234956  1
  Y  Y3  1  0.743009  0.817939  0.265044  1
  Pb  Pb4  1  0.756294  0.273194  0.956449  1
  Pb  Pb5  1  0.256294  0.726806  0.543551  1
  Pb  Pb6  1  0.243706  0.726806  0.043551  1
  Pb  Pb7  1  0.743706  0.273194  0.456449  1
  F  F8  1  0.463624  0.708355  0.916380  1
  F  F9  1  0.963624  0.291645  0.583620  1
  F  F10  1  0.536376  0.291645  0.083620  1
  F  F11  1  0.036376  0.708355  0.416380  1
  F  F12  1  0.442582  0.277929  0.550627  1
  F  F13  1  0.942582  0.722071  0.949373  1
  F  F14  1  0.557418  0.722071  0.449373  1
  F  F15  1  0.057418  0.277929  0.050627  1
  F  F16  1  0.772585  0.527234  0.856193  1
  F  F17  1  0.272585  0.472766  0.643807  1
  F  F18  1  0.227415  0.472766  0.143807  1
  F  F19  1  0.727415  0.527234  0.356193  1
  F  F20  1  0.758533  0.018419  0.057373  1
  F  F21  1  0.258533  0.981581  0.442627  1
  F  F22  1  0.241467  0.981581  0.942627  1
  F  F23  1  0.741467  0.018419  0.557373  1
  F  F24  1  0.977170  0.732401  0.649984  1
  F  F25  1  0.477170  0.267599  0.850016  1
  F  F26  1  0.022830  0.267599  0.350016  1
  F  F27  1  0.522830  0.732401  0.149984  1
  F  F28  1  0.034535  0.747834  0.175285  1
  F  F29  1  0.534535  0.252166  0.324715  1
  F  F30  1  0.965465  0.252166  0.824715  1
  F  F31  1  0.465465  0.747834  0.675285  1
  F  F32  1  0.434560  0.975266  0.237156  1
  F  F33  1  0.934560  0.024734  0.262844  1
  F  F34  1  0.565440  0.024734  0.762844  1
  F  F35  1  0.065440  0.975266  0.737156  1
