# generated using pymatgen
data_Ho5Lu3(P3Ir4)4
_symmetry_space_group_name_H-M   'P 1'
_cell_length_a   12.93134900
_cell_length_b   12.93134811
_cell_length_c   3.98835400
_cell_angle_alpha   90.00000000
_cell_angle_beta   90.00000000
_cell_angle_gamma   119.99999972
_symmetry_Int_Tables_number   1
_chemical_formula_structural   Ho5Lu3(P3Ir4)4
_chemical_formula_sum   'Ho5 Lu3 P12 Ir16'
_cell_volume   577.57976203
_cell_formula_units_Z   1
loop_
 _symmetry_equiv_pos_site_id
 _symmetry_equiv_pos_as_xyz
  1  'x, y, z'
loop_
 _atom_site_type_symbol
 _atom_site_label
 _atom_site_symmetry_multiplicity
 _atom_site_fract_x
 _atom_site_fract_y
 _atom_site_fract_z
 _atom_site_occupancy
  Ho  Ho0  1  0.333333  0.666667  0.500000  1
  Ho  Ho1  1  0.666667  0.333333  0.500000  1
  Ho  Ho2  1  0.000000  0.814298  0.000000  1
  Ho  Ho3  1  0.185702  0.185702  0.000000  1
  Ho  Ho4  1  0.814298  0.000000  0.000000  1
  Lu  Lu5  1  0.000000  0.446647  0.500000  1
  Lu  Lu6  1  0.553353  0.553353  0.500000  1
  Lu  Lu7  1  0.446647  0.000000  0.500000  1
  P  P8  1  0.000000  0.651905  0.500000  1
  P  P9  1  0.348095  0.348095  0.500000  1
  P  P10  1  0.651905  0.000000  0.500000  1
  P  P11  1  0.516482  0.687660  0.000000  1
  P  P12  1  0.312340  0.828823  0.000000  1
  P  P13  1  0.171177  0.483518  0.000000  1
  P  P14  1  0.483518  0.171177  0.000000  1
  P  P15  1  0.687660  0.516482  0.000000  1
  P  P16  1  0.828823  0.312340  0.000000  1
  P  P17  1  0.000000  0.176616  0.500000  1
  P  P18  1  0.823384  0.823384  0.500000  1
  P  P19  1  0.176616  0.000000  0.500000  1
  Ir  Ir20  1  0.509377  0.866091  0.000000  1
  Ir  Ir21  1  0.133909  0.643287  0.000000  1
  Ir  Ir22  1  0.356713  0.490623  0.000000  1
  Ir  Ir23  1  0.490623  0.356713  0.000000  1
  Ir  Ir24  1  0.866091  0.509377  0.000000  1
  Ir  Ir25  1  0.643287  0.133909  0.000000  1
  Ir  Ir26  1  0.000000  0.276067  0.000000  1
  Ir  Ir27  1  0.723933  0.723933  0.000000  1
  Ir  Ir28  1  0.276067  0.000000  0.000000  1
  Ir  Ir29  1  0.629702  0.808311  0.500000  1
  Ir  Ir30  1  0.191689  0.821392  0.500000  1
  Ir  Ir31  1  0.178608  0.370298  0.500000  1
  Ir  Ir32  1  0.370298  0.178608  0.500000  1
  Ir  Ir33  1  0.808311  0.629702  0.500000  1
  Ir  Ir34  1  0.821392  0.191689  0.500000  1
  Ir  Ir35  1  0.000000  0.000000  0.500000  1
