# generated using pymatgen
data_Er2GaSiPd4
_symmetry_space_group_name_H-M   'P 1'
_cell_length_a   5.53312303
_cell_length_b   7.12572403
_cell_length_c   7.29855500
_cell_angle_alpha   90.00247875
_cell_angle_beta   90.00283966
_cell_angle_gamma   89.98922808
_symmetry_Int_Tables_number   1
_chemical_formula_structural   Er2GaSiPd4
_chemical_formula_sum   'Er4 Ga2 Si2 Pd8'
_cell_volume   287.76382810
_cell_formula_units_Z   2
loop_
 _symmetry_equiv_pos_site_id
 _symmetry_equiv_pos_as_xyz
  1  'x, y, z'
loop_
 _atom_site_type_symbol
 _atom_site_label
 _atom_site_symmetry_multiplicity
 _atom_site_fract_x
 _atom_site_fract_y
 _atom_site_fract_z
 _atom_site_occupancy
  Er  Er0  1  0.141390  0.750005  0.527730  1
  Er  Er1  1  0.641327  0.250063  0.972237  1
  Er  Er2  1  0.857673  0.250002  0.472178  1
  Er  Er3  1  0.357717  0.749982  0.027839  1
  Ga  Ga4  1  0.860280  0.750029  0.883184  1
  Ga  Ga5  1  0.360230  0.250067  0.616799  1
  Si  Si6  1  0.137737  0.249966  0.121249  1
  Si  Si7  1  0.637746  0.749957  0.378772  1
  Pd  Pd8  1  0.907087  0.949209  0.187797  1
  Pd  Pd9  1  0.407031  0.050770  0.312154  1
  Pd  Pd10  1  0.094426  0.446214  0.825912  1
  Pd  Pd11  1  0.594411  0.553746  0.674158  1
  Pd  Pd12  1  0.094426  0.053743  0.825869  1
  Pd  Pd13  1  0.594389  0.946216  0.674120  1
  Pd  Pd14  1  0.907045  0.550807  0.187793  1
  Pd  Pd15  1  0.407087  0.449226  0.312209  1
