# generated using pymatgen
data_Pr2NdPa(Al3Ir)6
_symmetry_space_group_name_H-M   'P 1'
_cell_length_a   7.63207937
_cell_length_b   7.62206841
_cell_length_c   9.53915400
_cell_angle_alpha   90.00000000
_cell_angle_beta   90.00000000
_cell_angle_gamma   119.54537072
_symmetry_Int_Tables_number   1
_chemical_formula_structural   Pr2NdPa(Al3Ir)6
_chemical_formula_sum   'Pr2 Nd1 Pa1 Al18 Ir6'
_cell_volume   482.75591617
_cell_formula_units_Z   1
loop_
 _symmetry_equiv_pos_site_id
 _symmetry_equiv_pos_as_xyz
  1  'x, y, z'
loop_
 _atom_site_type_symbol
 _atom_site_label
 _atom_site_symmetry_multiplicity
 _atom_site_fract_x
 _atom_site_fract_y
 _atom_site_fract_z
 _atom_site_occupancy
  Pr  Pr0  1  0.004986  0.329899  0.750000  1
  Pr  Pr1  1  0.330148  0.004459  0.750000  1
  Nd  Nd2  1  0.671393  0.994921  0.250000  1
  Pa  Pa3  1  0.996437  0.671619  0.250000  1
  Al  Al4  1  0.132661  0.130042  0.250000  1
  Al  Al5  1  0.870091  0.870562  0.750000  1
  Al  Al6  1  0.002096  0.333856  0.075570  1
  Al  Al7  1  0.997026  0.664861  0.926081  1
  Al  Al8  1  0.997026  0.664861  0.573919  1
  Al  Al9  1  0.336971  0.003737  0.424382  1
  Al  Al10  1  0.002096  0.333856  0.424430  1
  Al  Al11  1  0.665320  0.997621  0.573069  1
  Al  Al12  1  0.665320  0.997621  0.926931  1
  Al  Al13  1  0.336971  0.003737  0.075618  1
  Al  Al14  1  0.334135  0.334134  0.548948  1
  Al  Al15  1  0.663695  0.664969  0.449399  1
  Al  Al16  1  0.663695  0.664969  0.050601  1
  Al  Al17  1  0.334135  0.334134  0.951052  1
  Al  Al18  1  0.337351  0.545328  0.250000  1
  Al  Al19  1  0.659859  0.453392  0.750000  1
  Al  Al20  1  0.547663  0.344386  0.250000  1
  Al  Al21  1  0.453726  0.660363  0.750000  1
  Ir  Ir22  1  0.673621  0.331464  0.003539  1
  Ir  Ir23  1  0.326328  0.671232  0.003637  1
  Ir  Ir24  1  0.326328  0.671232  0.496363  1
  Ir  Ir25  1  0.673621  0.331464  0.496461  1
  Ir  Ir26  1  0.998654  0.995641  0.004739  1
  Ir  Ir27  1  0.998654  0.995641  0.495261  1
