# generated using pymatgen
data_HoTm2Co2P6Ir7
_symmetry_space_group_name_H-M   'P 1'
_cell_length_a   3.87472100
_cell_length_b   11.02188800
_cell_length_c   12.70698400
_cell_angle_alpha   90.00000000
_cell_angle_beta   90.00000000
_cell_angle_gamma   90.00000000
_symmetry_Int_Tables_number   1
_chemical_formula_structural   HoTm2Co2P6Ir7
_chemical_formula_sum   'Ho2 Tm4 Co4 P12 Ir14'
_cell_volume   542.67387322
_cell_formula_units_Z   2
loop_
 _symmetry_equiv_pos_site_id
 _symmetry_equiv_pos_as_xyz
  1  'x, y, z'
loop_
 _atom_site_type_symbol
 _atom_site_label
 _atom_site_symmetry_multiplicity
 _atom_site_fract_x
 _atom_site_fract_y
 _atom_site_fract_z
 _atom_site_occupancy
  Ho  Ho0  1  0.000000  0.500000  0.522936  1
  Ho  Ho1  1  0.500000  0.000000  0.477328  1
  Tm  Tm2  1  0.500000  0.820990  0.198966  1
  Tm  Tm3  1  0.500000  0.179010  0.198966  1
  Tm  Tm4  1  0.000000  0.684988  0.801091  1
  Tm  Tm5  1  0.000000  0.315012  0.801091  1
  Co  Co6  1  0.000000  0.500000  0.985831  1
  Co  Co7  1  0.500000  0.000000  0.016462  1
  Co  Co8  1  0.000000  0.159246  0.003654  1
  Co  Co9  1  0.000000  0.840754  0.003654  1
  P  P10  1  0.500000  0.316370  0.620531  1
  P  P11  1  0.500000  0.683630  0.620531  1
  P  P12  1  0.000000  0.183026  0.379246  1
  P  P13  1  0.000000  0.816974  0.379246  1
  P  P14  1  0.500000  0.500000  0.883087  1
  P  P15  1  0.000000  0.000000  0.111689  1
  P  P16  1  0.500000  0.850899  0.900180  1
  P  P17  1  0.500000  0.149101  0.900180  1
  P  P18  1  0.000000  0.660509  0.101973  1
  P  P19  1  0.000000  0.339491  0.101973  1
  P  P20  1  0.500000  0.500000  0.354700  1
  P  P21  1  0.000000  0.000000  0.645746  1
  Ir  Ir22  1  0.500000  0.294535  0.428900  1
  Ir  Ir23  1  0.500000  0.705465  0.428900  1
  Ir  Ir24  1  0.000000  0.203848  0.570438  1
  Ir  Ir25  1  0.000000  0.796152  0.570438  1
  Ir  Ir26  1  0.500000  0.870609  0.717005  1
  Ir  Ir27  1  0.500000  0.129391  0.717005  1
  Ir  Ir28  1  0.000000  0.630344  0.282895  1
  Ir  Ir29  1  0.000000  0.369656  0.282895  1
  Ir  Ir30  1  0.500000  0.332624  0.995712  1
  Ir  Ir31  1  0.500000  0.667376  0.995712  1
  Ir  Ir32  1  0.500000  0.500000  0.171279  1
  Ir  Ir33  1  0.000000  0.000000  0.831219  1
  Ir  Ir34  1  0.500000  0.500000  0.705068  1
  Ir  Ir35  1  0.000000  0.000000  0.293476  1
