# generated using pymatgen
data_SmDyRe4(SiC)2
_symmetry_space_group_name_H-M   'P 1'
_cell_length_a   5.80955308
_cell_length_b   5.80955396
_cell_length_c   7.33584900
_cell_angle_alpha   90.00000000
_cell_angle_beta   90.00000000
_cell_angle_gamma   140.13413142
_symmetry_Int_Tables_number   1
_chemical_formula_structural   SmDyRe4(SiC)2
_chemical_formula_sum   'Sm1 Dy1 Re4 Si2 C2'
_cell_volume   158.70435868
_cell_formula_units_Z   1
loop_
 _symmetry_equiv_pos_site_id
 _symmetry_equiv_pos_as_xyz
  1  'x, y, z'
loop_
 _atom_site_type_symbol
 _atom_site_label
 _atom_site_symmetry_multiplicity
 _atom_site_fract_x
 _atom_site_fract_y
 _atom_site_fract_z
 _atom_site_occupancy
  Sm  Sm0  1  0.542457  0.457543  0.250000  1
  Dy  Dy1  1  0.457805  0.542195  0.750000  1
  Re  Re2  1  0.826367  0.173633  0.060286  1
  Re  Re3  1  0.173748  0.826252  0.937245  1
  Re  Re4  1  0.173748  0.826252  0.562755  1
  Re  Re5  1  0.826367  0.173633  0.439714  1
  Si  Si6  1  0.263517  0.736483  0.250000  1
  Si  Si7  1  0.736824  0.263176  0.750000  1
  C  C8  1  0.999584  0.000416  0.996288  1
  C  C9  1  0.999584  0.000416  0.503712  1
