# generated using pymatgen
data_Ho2Fe5Co3B8
_symmetry_space_group_name_H-M   'P 1'
_cell_length_a   6.92590252
_cell_length_b   6.92206631
_cell_length_c   3.81097890
_cell_angle_alpha   90.02665942
_cell_angle_beta   90.07417904
_cell_angle_gamma   90.21417265
_symmetry_Int_Tables_number   1
_chemical_formula_structural   Ho2Fe5Co3B8
_chemical_formula_sum   'Ho2 Fe5 Co3 B8'
_cell_volume   182.70281061
_cell_formula_units_Z   1
loop_
 _symmetry_equiv_pos_site_id
 _symmetry_equiv_pos_as_xyz
  1  'x, y, z'
loop_
 _atom_site_type_symbol
 _atom_site_label
 _atom_site_symmetry_multiplicity
 _atom_site_fract_x
 _atom_site_fract_y
 _atom_site_fract_z
 _atom_site_occupancy
  Ho  Ho0  1  0.000051  0.000922  0.999343  1
  Ho  Ho1  1  0.501205  0.498959  0.498195  1
  Fe  Fe2  1  0.116873  0.367887  0.609857  1
  Fe  Fe3  1  0.633874  0.115395  0.391903  1
  Fe  Fe4  1  0.367042  0.883844  0.392575  1
  Fe  Fe5  1  0.615807  0.866480  0.892024  1
  Fe  Fe6  1  0.384800  0.132264  0.892669  1
  Co  Co7  1  0.863023  0.384786  0.110141  1
  Co  Co8  1  0.134593  0.618291  0.109662  1
  Co  Co9  1  0.883150  0.635609  0.609963  1
  B  B10  1  0.333287  0.803983  0.892668  1
  B  B11  1  0.665541  0.198273  0.892798  1
  B  B12  1  0.299626  0.166935  0.394453  1
  B  B13  1  0.697384  0.834282  0.393445  1
  B  B14  1  0.166988  0.698018  0.605089  1
  B  B15  1  0.838313  0.295308  0.604840  1
  B  B16  1  0.200768  0.333282  0.105925  1
  B  B17  1  0.797675  0.665480  0.104449  1
