# generated using pymatgen
data_La4NdDyTa2O14
_symmetry_space_group_name_H-M   'P 1'
_cell_length_a   6.72080075
_cell_length_b   6.70193806
_cell_length_c   7.75763100
_cell_angle_alpha   90.00000000
_cell_angle_beta   90.00000000
_cell_angle_gamma   108.73102200
_symmetry_Int_Tables_number   1
_chemical_formula_structural   La4NdDyTa2O14
_chemical_formula_sum   'La4 Nd1 Dy1 Ta2 O14'
_cell_volume   330.91563525
_cell_formula_units_Z   1
loop_
 _symmetry_equiv_pos_site_id
 _symmetry_equiv_pos_as_xyz
  1  'x, y, z'
loop_
 _atom_site_type_symbol
 _atom_site_label
 _atom_site_symmetry_multiplicity
 _atom_site_fract_x
 _atom_site_fract_y
 _atom_site_fract_z
 _atom_site_occupancy
  La  La0  1  0.531669  0.525630  0.498949  1
  La  La1  1  0.531669  0.525630  0.001051  1
  La  La2  1  0.008002  0.465463  0.750000  1
  La  La3  1  0.466142  0.004390  0.250000  1
  Nd  Nd4  1  0.532676  0.003656  0.750000  1
  Dy  Dy5  1  0.003727  0.530623  0.250000  1
  Ta  Ta6  1  0.000700  0.001040  0.497851  1
  Ta  Ta7  1  0.000700  0.001040  0.002149  1
  O  O8  1  0.945694  0.052678  0.750000  1
  O  O9  1  0.055364  0.936609  0.250000  1
  O  O10  1  0.354114  0.635726  0.250000  1
  O  O11  1  0.644333  0.368477  0.750000  1
  O  O12  1  0.375758  0.634562  0.750000  1
  O  O13  1  0.646696  0.380808  0.250000  1
  O  O14  1  0.305557  0.068563  0.966699  1
  O  O15  1  0.679542  0.919793  0.476289  1
  O  O16  1  0.305557  0.068563  0.533301  1
  O  O17  1  0.679542  0.919793  0.023711  1
  O  O18  1  0.033826  0.296784  0.455532  1
  O  O19  1  0.932453  0.681695  0.979275  1
  O  O20  1  0.932453  0.681695  0.520725  1
  O  O21  1  0.033826  0.296784  0.044468  1
