# generated using pymatgen
data_Er3Lu17(Bi2Sb)4
_symmetry_space_group_name_H-M   'P 1'
_cell_length_a   8.06233002
_cell_length_b   9.33068200
_cell_length_c   11.73917812
_cell_angle_alpha   90.00000000
_cell_angle_beta   90.04885600
_cell_angle_gamma   90.00000000
_symmetry_Int_Tables_number   1
_chemical_formula_structural   Er3Lu17(Bi2Sb)4
_chemical_formula_sum   'Er3 Lu17 Bi8 Sb4'
_cell_volume   883.10327326
_cell_formula_units_Z   1
loop_
 _symmetry_equiv_pos_site_id
 _symmetry_equiv_pos_as_xyz
  1  'x, y, z'
loop_
 _atom_site_type_symbol
 _atom_site_label
 _atom_site_symmetry_multiplicity
 _atom_site_fract_x
 _atom_site_fract_y
 _atom_site_fract_z
 _atom_site_occupancy
  Er  Er0  1  0.814723  0.250000  0.283319  1
  Er  Er1  1  0.685052  0.750000  0.783133  1
  Er  Er2  1  0.184982  0.750000  0.716716  1
  Lu  Lu3  1  0.352906  0.750000  0.215718  1
  Lu  Lu4  1  0.852705  0.750000  0.284277  1
  Lu  Lu5  1  0.647152  0.250000  0.784518  1
  Lu  Lu6  1  0.147401  0.250000  0.715742  1
  Lu  Lu7  1  0.689044  0.565910  0.058363  1
  Lu  Lu8  1  0.188708  0.934115  0.441659  1
  Lu  Lu9  1  0.311073  0.065850  0.941830  1
  Lu  Lu10  1  0.811372  0.434153  0.558181  1
  Lu  Lu11  1  0.311073  0.434150  0.941830  1
  Lu  Lu12  1  0.811372  0.065847  0.558181  1
  Lu  Lu13  1  0.689044  0.934090  0.058363  1
  Lu  Lu14  1  0.188708  0.565885  0.441659  1
  Lu  Lu15  1  0.474493  0.250000  0.488705  1
  Lu  Lu16  1  0.974615  0.250000  0.011144  1
  Lu  Lu17  1  0.525298  0.750000  0.510824  1
  Lu  Lu18  1  0.025500  0.750000  0.989270  1
  Lu  Lu19  1  0.314616  0.250000  0.216319  1
  Bi  Bi20  1  0.564642  0.995844  0.324846  1
  Bi  Bi21  1  0.066192  0.504141  0.174803  1
  Bi  Bi22  1  0.434782  0.495428  0.674829  1
  Bi  Bi23  1  0.934517  0.004697  0.825387  1
  Bi  Bi24  1  0.434782  0.004572  0.674829  1
  Bi  Bi25  1  0.934517  0.495303  0.825387  1
  Bi  Bi26  1  0.564642  0.504156  0.324846  1
  Bi  Bi27  1  0.066192  0.995859  0.174803  1
  Sb  Sb28  1  0.403167  0.750000  0.958649  1
  Sb  Sb29  1  0.902862  0.750000  0.541299  1
  Sb  Sb30  1  0.596366  0.250000  0.042108  1
  Sb  Sb31  1  0.097505  0.250000  0.458469  1
