# generated using pymatgen
data_Tb3Yb(SiIr2)4
_symmetry_space_group_name_H-M   'P 1'
_cell_length_a   17.83025017
_cell_length_b   4.06798002
_cell_length_c   4.06715600
_cell_angle_alpha   90.00428171
_cell_angle_beta   96.54127769
_cell_angle_gamma   96.54484637
_symmetry_Int_Tables_number   1
_chemical_formula_structural   Tb3Yb(SiIr2)4
_chemical_formula_sum   'Tb3 Yb1 Si4 Ir8'
_cell_volume   291.14745315
_cell_formula_units_Z   1
loop_
 _symmetry_equiv_pos_site_id
 _symmetry_equiv_pos_as_xyz
  1  'x, y, z'
loop_
 _atom_site_type_symbol
 _atom_site_label
 _atom_site_symmetry_multiplicity
 _atom_site_fract_x
 _atom_site_fract_y
 _atom_site_fract_z
 _atom_site_occupancy
  Tb  Tb0  1  0.903346  0.452130  0.200877  1
  Tb  Tb1  1  0.401098  0.200313  0.451312  1
  Tb  Tb2  1  0.599781  0.800375  0.549236  1
  Yb  Yb3  1  0.097546  0.548536  0.799329  1
  Si  Si4  1  0.676322  0.337715  0.087915  1
  Si  Si5  1  0.175437  0.087290  0.337386  1
  Si  Si6  1  0.824136  0.912431  0.662613  1
  Si  Si7  1  0.323456  0.662151  0.911927  1
  Ir  Ir8  1  0.542697  0.273233  0.021728  1
  Ir  Ir9  1  0.749980  0.874675  0.125435  1
  Ir  Ir10  1  0.041135  0.020749  0.272923  1
  Ir  Ir11  1  0.250400  0.624985  0.375373  1
  Ir  Ir12  1  0.749957  0.375171  0.624778  1
  Ir  Ir13  1  0.957084  0.978527  0.726085  1
  Ir  Ir14  1  0.250175  0.125285  0.874856  1
  Ir  Ir15  1  0.457449  0.726445  0.978226  1
