# generated using pymatgen
data_Er2InGa2
_symmetry_space_group_name_H-M   'P 1'
_cell_length_a   7.19544500
_cell_length_b   7.19544500
_cell_length_c   4.38523800
_cell_angle_alpha   90.00000000
_cell_angle_beta   90.00000000
_cell_angle_gamma   90.00000000
_symmetry_Int_Tables_number   1
_chemical_formula_structural   Er2InGa2
_chemical_formula_sum   'Er4 In2 Ga4'
_cell_volume   227.04319237
_cell_formula_units_Z   2
loop_
 _symmetry_equiv_pos_site_id
 _symmetry_equiv_pos_as_xyz
  1  'x, y, z'
loop_
 _atom_site_type_symbol
 _atom_site_label
 _atom_site_symmetry_multiplicity
 _atom_site_fract_x
 _atom_site_fract_y
 _atom_site_fract_z
 _atom_site_occupancy
  Er  Er0  1  0.327060  0.172939  0.500000  1
  Er  Er1  1  0.827061  0.327060  0.500000  1
  Er  Er2  1  0.172939  0.672940  0.500000  1
  Er  Er3  1  0.672940  0.827061  0.500000  1
  In  In4  1  0.000000  0.000000  0.000000  1
  In  In5  1  0.500000  0.500000  0.000000  1
  Ga  Ga6  1  0.625632  0.125632  0.000000  1
  Ga  Ga7  1  0.125632  0.374368  0.000000  1
  Ga  Ga8  1  0.874368  0.625632  0.000000  1
  Ga  Ga9  1  0.374368  0.874368  0.000000  1
