# generated using pymatgen
data_YEr3Al18CuRh5
_symmetry_space_group_name_H-M   'P 1'
_cell_length_a   7.55207042
_cell_length_b   7.55336620
_cell_length_c   9.41808005
_cell_angle_alpha   90.06533559
_cell_angle_beta   90.08330974
_cell_angle_gamma   119.59883495
_symmetry_Int_Tables_number   1
_chemical_formula_structural   YEr3Al18CuRh5
_chemical_formula_sum   'Y1 Er3 Al18 Cu1 Rh5'
_cell_volume   467.13194499
_cell_formula_units_Z   1
loop_
 _symmetry_equiv_pos_site_id
 _symmetry_equiv_pos_as_xyz
  1  'x, y, z'
loop_
 _atom_site_type_symbol
 _atom_site_label
 _atom_site_symmetry_multiplicity
 _atom_site_fract_x
 _atom_site_fract_y
 _atom_site_fract_z
 _atom_site_occupancy
  Y  Y0  1  0.994757  0.672385  0.749637  1
  Er  Er1  1  0.005160  0.327481  0.250169  1
  Er  Er2  1  0.672337  0.994855  0.749834  1
  Er  Er3  1  0.327665  0.005282  0.250181  1
  Al  Al4  1  0.128744  0.129173  0.751180  1
  Al  Al5  1  0.871348  0.871469  0.248925  1
  Al  Al6  1  0.000199  0.337720  0.577191  1
  Al  Al7  1  0.999825  0.661602  0.421714  1
  Al  Al8  1  0.000544  0.665124  0.075519  1
  Al  Al9  1  0.335336  0.999951  0.925493  1
  Al  Al10  1  0.999458  0.334410  0.925497  1
  Al  Al11  1  0.665116  0.000518  0.075033  1
  Al  Al12  1  0.661743  0.999825  0.422220  1
  Al  Al13  1  0.338889  0.000699  0.577259  1
  Al  Al14  1  0.332717  0.332736  0.051755  1
  Al  Al15  1  0.666913  0.667313  0.948914  1
  Al  Al16  1  0.664073  0.664526  0.552738  1
  Al  Al17  1  0.335357  0.335370  0.446545  1
  Al  Al18  1  0.339675  0.550180  0.750464  1
  Al  Al19  1  0.660695  0.449713  0.249538  1
  Al  Al20  1  0.549602  0.338618  0.750446  1
  Al  Al21  1  0.449749  0.660791  0.249544  1
  Cu  Cu22  1  0.000043  0.000240  0.499812  1
  Rh  Rh23  1  0.672040  0.327440  0.499700  1
  Rh  Rh24  1  0.327904  0.672313  0.499712  1
  Rh  Rh25  1  0.328091  0.672032  0.000250  1
  Rh  Rh26  1  0.671842  0.327740  0.000296  1
  Rh  Rh27  1  0.000177  0.000495  0.000433  1
