# generated using pymatgen
data_Nd7TmSc12Si15Rh
_symmetry_space_group_name_H-M   'P 1'
_cell_length_a   7.22874681
_cell_length_b   7.46689532
_cell_length_c   14.17557615
_cell_angle_alpha   89.86275617
_cell_angle_beta   89.85426241
_cell_angle_gamma   90.25651977
_symmetry_Int_Tables_number   1
_chemical_formula_structural   Nd7TmSc12Si15Rh
_chemical_formula_sum   'Nd7 Tm1 Sc12 Si15 Rh1'
_cell_volume   765.13273081
_cell_formula_units_Z   1
loop_
 _symmetry_equiv_pos_site_id
 _symmetry_equiv_pos_as_xyz
  1  'x, y, z'
loop_
 _atom_site_type_symbol
 _atom_site_label
 _atom_site_symmetry_multiplicity
 _atom_site_fract_x
 _atom_site_fract_y
 _atom_site_fract_z
 _atom_site_occupancy
  Nd  Nd0  1  0.012822  0.172230  0.097611  1
  Nd  Nd1  1  0.987603  0.827014  0.900687  1
  Nd  Nd2  1  0.485968  0.673591  0.902535  1
  Nd  Nd3  1  0.991126  0.823169  0.595843  1
  Nd  Nd4  1  0.512519  0.327941  0.096370  1
  Nd  Nd5  1  0.011885  0.177323  0.404653  1
  Nd  Nd6  1  0.508675  0.325893  0.403998  1
  Tm  Tm7  1  0.485925  0.669915  0.600180  1
  Sc  Sc8  1  0.162762  0.499854  0.743408  1
  Sc  Sc9  1  0.838481  0.499913  0.252277  1
  Sc  Sc10  1  0.339689  0.996500  0.250929  1
  Sc  Sc11  1  0.661803  0.999541  0.748017  1
  Sc  Sc12  1  0.332008  0.187688  0.621602  1
  Sc  Sc13  1  0.668426  0.823175  0.374815  1
  Sc  Sc14  1  0.169918  0.665444  0.378218  1
  Sc  Sc15  1  0.672064  0.824981  0.126543  1
  Sc  Sc16  1  0.831628  0.328371  0.622682  1
  Sc  Sc17  1  0.328529  0.176561  0.874356  1
  Sc  Sc18  1  0.830741  0.323130  0.874195  1
  Sc  Sc19  1  0.170235  0.676697  0.125333  1
  Si  Si20  1  0.035755  0.122654  0.748805  1
  Si  Si21  1  0.968415  0.876076  0.252071  1
  Si  Si22  1  0.465634  0.621955  0.249017  1
  Si  Si23  1  0.538336  0.380308  0.751153  1
  Si  Si24  1  0.290503  0.882330  0.747924  1
  Si  Si25  1  0.711870  0.121439  0.250110  1
  Si  Si26  1  0.213549  0.377970  0.249210  1
  Si  Si27  1  0.781917  0.620702  0.749618  1
  Si  Si28  1  0.838852  0.538522  0.459894  1
  Si  Si29  1  0.349068  0.956964  0.462712  1
  Si  Si30  1  0.848872  0.537771  0.038966  1
  Si  Si31  1  0.650016  0.030746  0.540929  1
  Si  Si32  1  0.150250  0.463598  0.960677  1
  Si  Si33  1  0.652399  0.036318  0.960726  1
  Si  Si34  1  0.349119  0.963393  0.039367  1
  Rh  Rh35  1  0.152639  0.470325  0.544568  1
