# generated using pymatgen
data_Dy2Ho2ReTcB12
_symmetry_space_group_name_H-M   'P 1'
_cell_length_a   3.67873700
_cell_length_b   9.15821855
_cell_length_c   11.54397400
_cell_angle_alpha   90.05560912
_cell_angle_beta   90.00000000
_cell_angle_gamma   90.00000000
_symmetry_Int_Tables_number   1
_chemical_formula_structural   Dy2Ho2ReTcB12
_chemical_formula_sum   'Dy4 Ho4 Re2 Tc2 B24'
_cell_volume   388.92412129
_cell_formula_units_Z   2
loop_
 _symmetry_equiv_pos_site_id
 _symmetry_equiv_pos_as_xyz
  1  'x, y, z'
loop_
 _atom_site_type_symbol
 _atom_site_label
 _atom_site_symmetry_multiplicity
 _atom_site_fract_x
 _atom_site_fract_y
 _atom_site_fract_z
 _atom_site_occupancy
  Dy  Dy0  1  0.000000  0.323929  0.414021  1
  Dy  Dy1  1  0.000000  0.676071  0.585979  1
  Dy  Dy2  1  0.000000  0.823548  0.086001  1
  Dy  Dy3  1  0.000000  0.176452  0.913999  1
  Ho  Ho4  1  0.000000  0.942265  0.369859  1
  Ho  Ho5  1  0.000000  0.057735  0.630141  1
  Ho  Ho6  1  0.000000  0.443755  0.130537  1
  Ho  Ho7  1  0.000000  0.556245  0.869463  1
  Re  Re8  1  0.000000  0.138808  0.179392  1
  Re  Re9  1  0.000000  0.861192  0.820608  1
  Tc  Tc10  1  0.000000  0.638908  0.320627  1
  Tc  Tc11  1  0.000000  0.361092  0.679373  1
  B  B12  1  0.500000  0.553550  0.432805  1
  B  B13  1  0.500000  0.446450  0.567195  1
  B  B14  1  0.500000  0.053462  0.067061  1
  B  B15  1  0.500000  0.946538  0.932939  1
  B  B16  1  0.500000  0.748995  0.418557  1
  B  B17  1  0.500000  0.251005  0.581443  1
  B  B18  1  0.500000  0.249467  0.081368  1
  B  B19  1  0.500000  0.750533  0.918632  1
  B  B20  1  0.500000  0.792000  0.265551  1
  B  B21  1  0.500000  0.208000  0.734449  1
  B  B22  1  0.500000  0.292339  0.234553  1
  B  B23  1  0.500000  0.707661  0.765447  1
  B  B24  1  0.500000  0.631069  0.185783  1
  B  B25  1  0.500000  0.368931  0.814217  1
  B  B26  1  0.500000  0.130792  0.314494  1
  B  B27  1  0.500000  0.869208  0.685506  1
  B  B28  1  0.500000  0.982305  0.211955  1
  B  B29  1  0.500000  0.017695  0.788045  1
  B  B30  1  0.500000  0.482689  0.288133  1
  B  B31  1  0.500000  0.517311  0.711867  1
  B  B32  1  0.500000  0.600135  0.027884  1
  B  B33  1  0.500000  0.399865  0.972116  1
  B  B34  1  0.500000  0.099955  0.471942  1
  B  B35  1  0.500000  0.900045  0.528058  1
