# generated using pymatgen
data_AgSnPt2O7
_symmetry_space_group_name_H-M   'P 1'
_cell_length_a   7.30099411
_cell_length_b   7.18688092
_cell_length_c   7.18688127
_cell_angle_alpha   58.55610625
_cell_angle_beta   59.47336423
_cell_angle_gamma   59.47336963
_symmetry_Int_Tables_number   1
_chemical_formula_structural   AgSnPt2O7
_chemical_formula_sum   'Ag2 Sn2 Pt4 O14'
_cell_volume   261.55031856
_cell_formula_units_Z   2
loop_
 _symmetry_equiv_pos_site_id
 _symmetry_equiv_pos_as_xyz
  1  'x, y, z'
loop_
 _atom_site_type_symbol
 _atom_site_label
 _atom_site_symmetry_multiplicity
 _atom_site_fract_x
 _atom_site_fract_y
 _atom_site_fract_z
 _atom_site_occupancy
  Ag  Ag0  1  0.625000  0.625000  0.125000  1
  Ag  Ag1  1  0.625000  0.125000  0.625000  1
  Sn  Sn2  1  0.625000  0.625000  0.625000  1
  Sn  Sn3  1  0.125000  0.625000  0.625000  1
  Pt  Pt4  1  0.625000  0.125000  0.125000  1
  Pt  Pt5  1  0.125000  0.125000  0.125000  1
  Pt  Pt6  1  0.125000  0.625000  0.125000  1
  Pt  Pt7  1  0.125000  0.125000  0.625000  1
  O  O8  1  0.034179  0.465821  0.465821  1
  O  O9  1  0.788278  0.781806  0.231760  1
  O  O10  1  0.789845  0.210155  0.210155  1
  O  O11  1  0.763264  0.736736  0.736736  1
  O  O12  1  0.051843  0.468194  0.018240  1
  O  O13  1  0.461722  0.018240  0.468194  1
  O  O14  1  0.051843  0.018240  0.468194  1
  O  O15  1  0.486736  0.513264  0.513264  1
  O  O16  1  0.198157  0.231760  0.781806  1
  O  O17  1  0.198157  0.781806  0.231760  1
  O  O18  1  0.788278  0.231760  0.781806  1
  O  O19  1  0.460155  0.039845  0.039845  1
  O  O20  1  0.461722  0.468194  0.018240  1
  O  O21  1  0.215821  0.784179  0.784179  1
