# generated using pymatgen
data_Tm3Lu9ZnGaCo4
_symmetry_space_group_name_H-M   'P 1'
_cell_length_a   8.08581277
_cell_length_b   8.08139218
_cell_length_c   8.08139435
_cell_angle_alpha   111.47421630
_cell_angle_beta   110.33449494
_cell_angle_gamma   106.62286884
_symmetry_Int_Tables_number   1
_chemical_formula_structural   Tm3Lu9ZnGaCo4
_chemical_formula_sum   'Tm3 Lu9 Zn1 Ga1 Co4'
_cell_volume   405.83100721
_cell_formula_units_Z   1
loop_
 _symmetry_equiv_pos_site_id
 _symmetry_equiv_pos_as_xyz
  1  'x, y, z'
loop_
 _atom_site_type_symbol
 _atom_site_label
 _atom_site_symmetry_multiplicity
 _atom_site_fract_x
 _atom_site_fract_y
 _atom_site_fract_z
 _atom_site_occupancy
  Tm  Tm0  1  0.816796  0.217853  0.034423  1
  Tm  Tm1  1  0.816796  0.782371  0.598943  1
  Tm  Tm2  1  0.432476  0.733072  0.699405  1
  Lu  Lu3  1  0.566505  0.266404  0.300101  1
  Lu  Lu4  1  0.183509  0.217202  0.400906  1
  Lu  Lu5  1  0.183509  0.782602  0.966308  1
  Lu  Lu6  1  0.680581  0.484648  0.804302  1
  Lu  Lu7  1  0.680581  0.876280  0.195933  1
  Lu  Lu8  1  0.966622  0.267071  0.699552  1
  Lu  Lu9  1  0.033556  0.733656  0.299900  1
  Lu  Lu10  1  0.319231  0.124085  0.804247  1
  Lu  Lu11  1  0.319231  0.514984  0.195145  1
  Zn  Zn12  1  0.999534  0.499586  0.499948  1
  Ga  Ga13  1  0.500090  0.000175  0.499915  1
  Co  Co14  1  0.885277  0.884559  0.000718  1
  Co  Co15  1  0.365556  0.499729  0.865827  1
  Co  Co16  1  0.634266  0.500136  0.134130  1
  Co  Co17  1  0.115884  0.115588  0.000296  1
