# generated using pymatgen
data_HoErGa2IrPt
_symmetry_space_group_name_H-M   'P 1'
_cell_length_a   4.41016400
_cell_length_b   6.77920900
_cell_length_c   7.70018600
_cell_angle_alpha   90.00000000
_cell_angle_beta   90.00000000
_cell_angle_gamma   90.00000000
_symmetry_Int_Tables_number   1
_chemical_formula_structural   HoErGa2IrPt
_chemical_formula_sum   'Ho2 Er2 Ga4 Ir2 Pt2'
_cell_volume   230.21572172
_cell_formula_units_Z   2
loop_
 _symmetry_equiv_pos_site_id
 _symmetry_equiv_pos_as_xyz
  1  'x, y, z'
loop_
 _atom_site_type_symbol
 _atom_site_label
 _atom_site_symmetry_multiplicity
 _atom_site_fract_x
 _atom_site_fract_y
 _atom_site_fract_z
 _atom_site_occupancy
  Ho  Ho0  1  0.750000  0.020975  0.689895  1
  Ho  Ho1  1  0.750000  0.520975  0.810105  1
  Er  Er2  1  0.250000  0.985303  0.304349  1
  Er  Er3  1  0.250000  0.485303  0.195651  1
  Ga  Ga4  1  0.250000  0.332620  0.568851  1
  Ga  Ga5  1  0.250000  0.832620  0.931149  1
  Ga  Ga6  1  0.750000  0.662375  0.425568  1
  Ga  Ga7  1  0.750000  0.162375  0.074432  1
  Ir  Ir8  1  0.750000  0.771133  0.104158  1
  Ir  Ir9  1  0.750000  0.271133  0.395842  1
  Pt  Pt10  1  0.250000  0.227595  0.895742  1
  Pt  Pt11  1  0.250000  0.727595  0.604258  1
