# generated using pymatgen
data_PaCrO4
_symmetry_space_group_name_H-M   'P 1'
_cell_length_a   4.96490300
_cell_length_b   5.17393500
_cell_length_c   12.05674100
_cell_angle_alpha   90.00000000
_cell_angle_beta   90.00000000
_cell_angle_gamma   90.00176297
_symmetry_Int_Tables_number   1
_chemical_formula_structural   PaCrO4
_chemical_formula_sum   'Pa4 Cr4 O16'
_cell_volume   309.71459242
_cell_formula_units_Z   4
loop_
 _symmetry_equiv_pos_site_id
 _symmetry_equiv_pos_as_xyz
  1  'x, y, z'
loop_
 _atom_site_type_symbol
 _atom_site_label
 _atom_site_symmetry_multiplicity
 _atom_site_fract_x
 _atom_site_fract_y
 _atom_site_fract_z
 _atom_site_occupancy
  Pa  Pa0  1  0.500000  0.750000  0.332723  1
  Pa  Pa1  1  0.500000  0.250000  0.667277  1
  Pa  Pa2  1  0.000000  0.750000  0.832741  1
  Pa  Pa3  1  0.000000  0.250000  0.167259  1
  Cr  Cr4  1  0.000000  0.750000  0.562784  1
  Cr  Cr5  1  0.500000  0.750000  0.062805  1
  Cr  Cr6  1  0.500000  0.250000  0.937195  1
  Cr  Cr7  1  0.000000  0.250000  0.437216  1
  O  O8  1  0.718635  0.092170  0.811291  1
  O  O9  1  0.225633  0.428445  0.553000  1
  O  O10  1  0.781363  0.092163  0.311307  1
  O  O11  1  0.781363  0.592163  0.688693  1
  O  O12  1  0.281365  0.407830  0.811291  1
  O  O13  1  0.725635  0.071570  0.053004  1
  O  O14  1  0.725635  0.571570  0.946996  1
  O  O15  1  0.274365  0.928430  0.946996  1
  O  O16  1  0.281365  0.907830  0.188709  1
  O  O17  1  0.274365  0.428430  0.053004  1
  O  O18  1  0.774367  0.071555  0.553000  1
  O  O19  1  0.218637  0.407837  0.311307  1
  O  O20  1  0.225633  0.928445  0.447000  1
  O  O21  1  0.218637  0.907837  0.688693  1
  O  O22  1  0.718635  0.592170  0.188709  1
  O  O23  1  0.774367  0.571555  0.447000  1
