# generated using pymatgen
data_Dy3Er5(TmRu2)2
_symmetry_space_group_name_H-M   'P 1'
_cell_length_a   6.28836888
_cell_length_b   7.26373528
_cell_length_c   8.40926207
_cell_angle_alpha   96.77769402
_cell_angle_beta   112.03017195
_cell_angle_gamma   89.99536226
_symmetry_Int_Tables_number   1
_chemical_formula_structural   Dy3Er5(TmRu2)2
_chemical_formula_sum   'Dy3 Er5 Tm2 Ru4'
_cell_volume   353.16905836
_cell_formula_units_Z   1
loop_
 _symmetry_equiv_pos_site_id
 _symmetry_equiv_pos_as_xyz
  1  'x, y, z'
loop_
 _atom_site_type_symbol
 _atom_site_label
 _atom_site_symmetry_multiplicity
 _atom_site_fract_x
 _atom_site_fract_y
 _atom_site_fract_z
 _atom_site_occupancy
  Dy  Dy0  1  0.790693  0.083835  0.813051  1
  Dy  Dy1  1  0.977191  0.416198  0.186459  1
  Dy  Dy2  1  0.209504  0.916054  0.186681  1
  Er  Er3  1  0.022530  0.584139  0.813590  1
  Er  Er4  1  0.205853  0.184337  0.565853  1
  Er  Er5  1  0.640278  0.315723  0.434577  1
  Er  Er6  1  0.794246  0.815539  0.434363  1
  Er  Er7  1  0.359699  0.684471  0.565858  1
  Tm  Tm8  1  0.419390  0.249923  0.999791  1
  Tm  Tm9  1  0.580255  0.750017  0.999906  1
  Ru  Ru10  1  0.602518  0.424448  0.780037  1
  Ru  Ru11  1  0.821822  0.076243  0.219859  1
  Ru  Ru12  1  0.398043  0.575718  0.219737  1
  Ru  Ru13  1  0.177976  0.923354  0.780238  1
