# generated using pymatgen
data_ThZn9Cu2
_symmetry_space_group_name_H-M   'P 1'
_cell_length_a   8.16148439
_cell_length_b   8.16148368
_cell_length_c   8.16144797
_cell_angle_alpha   99.87031678
_cell_angle_beta   99.86709104
_cell_angle_gamma   131.08837205
_symmetry_Int_Tables_number   1
_chemical_formula_structural   ThZn9Cu2
_chemical_formula_sum   'Th2 Zn18 Cu4'
_cell_volume   372.97216120
_cell_formula_units_Z   2
loop_
 _symmetry_equiv_pos_site_id
 _symmetry_equiv_pos_as_xyz
  1  'x, y, z'
loop_
 _atom_site_type_symbol
 _atom_site_label
 _atom_site_symmetry_multiplicity
 _atom_site_fract_x
 _atom_site_fract_y
 _atom_site_fract_z
 _atom_site_occupancy
  Th  Th0  1  0.250001  0.750002  0.500000  1
  Th  Th1  1  0.999999  0.999998  0.000001  1
  Zn  Zn2  1  0.428937  0.103103  0.917629  1
  Zn  Zn3  1  0.185473  0.511305  0.082369  1
  Zn  Zn4  1  0.500002  0.500002  0.999998  1
  Zn  Zn5  1  0.749998  0.249998  0.500002  1
  Zn  Zn6  1  0.185475  0.103105  0.674168  1
  Zn  Zn7  1  0.761306  0.935472  0.582369  1
  Zn  Zn8  1  0.353103  0.178937  0.417633  1
  Zn  Zn9  1  0.428937  0.511306  0.325833  1
  Zn  Zn10  1  0.896897  0.814529  0.325833  1
  Zn  Zn11  1  0.488696  0.571063  0.674168  1
  Zn  Zn12  1  0.064527  0.238694  0.417631  1
  Zn  Zn13  1  0.821063  0.646897  0.582371  1
  Zn  Zn14  1  0.064525  0.646895  0.825832  1
  Zn  Zn15  1  0.488695  0.814528  0.917631  1
  Zn  Zn16  1  0.896897  0.571064  0.082367  1
  Zn  Zn17  1  0.821063  0.238693  0.174167  1
  Zn  Zn18  1  0.353103  0.935471  0.174166  1
  Zn  Zn19  1  0.761305  0.178937  0.825832  1
  Cu  Cu20  1  0.625000  0.375000  0.750000  1
  Cu  Cu21  1  0.125001  0.375001  0.750001  1
  Cu  Cu22  1  0.624999  0.374999  0.250000  1
  Cu  Cu23  1  0.624999  0.874999  0.249999  1
