# generated using pymatgen
data_NbCoP3Ru4
_symmetry_space_group_name_H-M   'P 1'
_cell_length_a   3.79499400
_cell_length_b   10.52057600
_cell_length_c   12.13760400
_cell_angle_alpha   90.00000000
_cell_angle_beta   90.00000000
_cell_angle_gamma   90.00000000
_symmetry_Int_Tables_number   1
_chemical_formula_structural   NbCoP3Ru4
_chemical_formula_sum   'Nb4 Co4 P12 Ru16'
_cell_volume   484.60018520
_cell_formula_units_Z   4
loop_
 _symmetry_equiv_pos_site_id
 _symmetry_equiv_pos_as_xyz
  1  'x, y, z'
loop_
 _atom_site_type_symbol
 _atom_site_label
 _atom_site_symmetry_multiplicity
 _atom_site_fract_x
 _atom_site_fract_y
 _atom_site_fract_z
 _atom_site_occupancy
  Nb  Nb0  1  0.250000  0.584863  0.705985  1
  Nb  Nb1  1  0.250000  0.915137  0.205985  1
  Nb  Nb2  1  0.750000  0.415137  0.294015  1
  Nb  Nb3  1  0.750000  0.084863  0.794015  1
  Co  Co4  1  0.250000  0.463513  0.932752  1
  Co  Co5  1  0.250000  0.036487  0.432752  1
  Co  Co6  1  0.750000  0.536487  0.067248  1
  Co  Co7  1  0.750000  0.963513  0.567248  1
  P  P8  1  0.250000  0.425736  0.108835  1
  P  P9  1  0.250000  0.074264  0.608835  1
  P  P10  1  0.750000  0.574264  0.891165  1
  P  P11  1  0.750000  0.925736  0.391165  1
  P  P12  1  0.250000  0.267407  0.867628  1
  P  P13  1  0.250000  0.232593  0.367628  1
  P  P14  1  0.750000  0.732593  0.132372  1
  P  P15  1  0.750000  0.767407  0.632372  1
  P  P16  1  0.250000  0.598450  0.390771  1
  P  P17  1  0.250000  0.901550  0.890771  1
  P  P18  1  0.750000  0.401550  0.609229  1
  P  P19  1  0.750000  0.098450  0.109229  1
  Ru  Ru20  1  0.250000  0.714481  0.991688  1
  Ru  Ru21  1  0.250000  0.785519  0.491688  1
  Ru  Ru22  1  0.750000  0.285519  0.008312  1
  Ru  Ru23  1  0.750000  0.214481  0.508312  1
  Ru  Ru24  1  0.250000  0.406684  0.480259  1
  Ru  Ru25  1  0.250000  0.093316  0.980259  1
  Ru  Ru26  1  0.750000  0.593316  0.519741  1
  Ru  Ru27  1  0.750000  0.906684  0.019741  1
  Ru  Ru28  1  0.250000  0.232517  0.177759  1
  Ru  Ru29  1  0.250000  0.267483  0.677759  1
  Ru  Ru30  1  0.750000  0.767483  0.822241  1
  Ru  Ru31  1  0.750000  0.732517  0.322241  1
  Ru  Ru32  1  0.250000  0.891136  0.703953  1
  Ru  Ru33  1  0.250000  0.608864  0.203953  1
  Ru  Ru34  1  0.750000  0.108864  0.296047  1
  Ru  Ru35  1  0.750000  0.391136  0.796047  1
