# generated using pymatgen
data_Dy3Y2Er7Os4
_symmetry_space_group_name_H-M   'P 1'
_cell_length_a   6.30057216
_cell_length_b   7.39452631
_cell_length_c   9.01215812
_cell_angle_alpha   90.00581931
_cell_angle_beta   90.11163079
_cell_angle_gamma   90.02434357
_symmetry_Int_Tables_number   1
_chemical_formula_structural   Dy3Y2Er7Os4
_chemical_formula_sum   'Dy3 Y2 Er7 Os4'
_cell_volume   419.87332601
_cell_formula_units_Z   1
loop_
 _symmetry_equiv_pos_site_id
 _symmetry_equiv_pos_as_xyz
  1  'x, y, z'
loop_
 _atom_site_type_symbol
 _atom_site_label
 _atom_site_symmetry_multiplicity
 _atom_site_fract_x
 _atom_site_fract_y
 _atom_site_fract_z
 _atom_site_occupancy
  Dy  Dy0  1  0.332743  0.675521  0.063062  1
  Dy  Dy1  1  0.869648  0.538728  0.250496  1
  Dy  Dy2  1  0.630122  0.039034  0.250213  1
  Y  Y3  1  0.129256  0.461477  0.749553  1
  Y  Y4  1  0.370860  0.961788  0.749476  1
  Er  Er5  1  0.166934  0.175351  0.436845  1
  Er  Er6  1  0.667244  0.324686  0.562600  1
  Er  Er7  1  0.832797  0.825160  0.937009  1
  Er  Er8  1  0.667626  0.324421  0.937025  1
  Er  Er9  1  0.833026  0.824953  0.562488  1
  Er  Er10  1  0.332898  0.674893  0.437422  1
  Er  Er11  1  0.166758  0.175099  0.063120  1
  Os  Os12  1  0.040942  0.883060  0.250713  1
  Os  Os13  1  0.458480  0.382413  0.250547  1
  Os  Os14  1  0.956145  0.116827  0.750417  1
  Os  Os15  1  0.544519  0.616592  0.749014  1
