# generated using pymatgen
data_Eu6Sn8HgP
_symmetry_space_group_name_H-M   'P 1'
_cell_length_a   8.71401340
_cell_length_b   8.71401319
_cell_length_c   8.71401300
_cell_angle_alpha   120.09743748
_cell_angle_beta   120.09744428
_cell_angle_gamma   89.83130478
_symmetry_Int_Tables_number   1
_chemical_formula_structural   Eu6Sn8HgP
_chemical_formula_sum   'Eu6 Sn8 Hg1 P1'
_cell_volume   467.19427751
_cell_formula_units_Z   1
loop_
 _symmetry_equiv_pos_site_id
 _symmetry_equiv_pos_as_xyz
  1  'x, y, z'
loop_
 _atom_site_type_symbol
 _atom_site_label
 _atom_site_symmetry_multiplicity
 _atom_site_fract_x
 _atom_site_fract_y
 _atom_site_fract_z
 _atom_site_occupancy
  Eu  Eu0  1  0.269318  0.269318  0.000000  1
  Eu  Eu1  1  0.730682  0.730682  0.000000  1
  Eu  Eu2  1  0.184420  0.642719  0.827139  1
  Eu  Eu3  1  0.815580  0.357281  0.172861  1
  Eu  Eu4  1  0.642719  0.815580  0.458299  1
  Eu  Eu5  1  0.357281  0.184420  0.541701  1
  Sn  Sn6  1  0.838211  0.320339  0.789720  1
  Sn  Sn7  1  0.161789  0.679661  0.210280  1
  Sn  Sn8  1  0.530620  0.048491  0.210280  1
  Sn  Sn9  1  0.320339  0.530620  0.482129  1
  Sn  Sn10  1  0.951509  0.161789  0.482129  1
  Sn  Sn11  1  0.469380  0.951509  0.789720  1
  Sn  Sn12  1  0.679661  0.469380  0.517871  1
  Sn  Sn13  1  0.048491  0.838211  0.517871  1
  Hg  Hg14  1  0.000000  0.000000  0.000000  1
  P  P15  1  0.500000  0.500000  0.000000  1
