# generated using pymatgen
data_Tm8Mn(B8Os)3
_symmetry_space_group_name_H-M   'P 1'
_cell_length_a   3.59677500
_cell_length_b   9.05976664
_cell_length_c   11.43092605
_cell_angle_alpha   90.02928830
_cell_angle_beta   90.00000000
_cell_angle_gamma   90.00000000
_symmetry_Int_Tables_number   1
_chemical_formula_structural   Tm8Mn(B8Os)3
_chemical_formula_sum   'Tm8 Mn1 B24 Os3'
_cell_volume   372.48744646
_cell_formula_units_Z   1
loop_
 _symmetry_equiv_pos_site_id
 _symmetry_equiv_pos_as_xyz
  1  'x, y, z'
loop_
 _atom_site_type_symbol
 _atom_site_label
 _atom_site_symmetry_multiplicity
 _atom_site_fract_x
 _atom_site_fract_y
 _atom_site_fract_z
 _atom_site_occupancy
  Tm  Tm0  1  0.000000  0.324801  0.412464  1
  Tm  Tm1  1  0.000000  0.677338  0.581909  1
  Tm  Tm2  1  0.000000  0.819077  0.088812  1
  Tm  Tm3  1  0.000000  0.179044  0.915100  1
  Tm  Tm4  1  0.000000  0.939504  0.371731  1
  Tm  Tm5  1  0.000000  0.056764  0.626769  1
  Tm  Tm6  1  0.000000  0.446021  0.130397  1
  Tm  Tm7  1  0.000000  0.556976  0.872688  1
  Mn  Mn8  1  0.000000  0.637228  0.320945  1
  B  B9  1  0.500000  0.553856  0.431867  1
  B  B10  1  0.500000  0.447141  0.565793  1
  B  B11  1  0.500000  0.053431  0.066910  1
  B  B12  1  0.500000  0.947020  0.933660  1
  B  B13  1  0.500000  0.746244  0.417881  1
  B  B14  1  0.500000  0.251610  0.579453  1
  B  B15  1  0.500000  0.249445  0.080830  1
  B  B16  1  0.500000  0.751689  0.920303  1
  B  B17  1  0.500000  0.789180  0.266355  1
  B  B18  1  0.500000  0.208923  0.734083  1
  B  B19  1  0.500000  0.291838  0.234757  1
  B  B20  1  0.500000  0.708897  0.765585  1
  B  B21  1  0.500000  0.631079  0.186877  1
  B  B22  1  0.500000  0.369157  0.815206  1
  B  B23  1  0.500000  0.130422  0.314940  1
  B  B24  1  0.500000  0.868813  0.684469  1
  B  B25  1  0.500000  0.980975  0.212804  1
  B  B26  1  0.500000  0.018434  0.787352  1
  B  B27  1  0.500000  0.484331  0.288342  1
  B  B28  1  0.500000  0.518409  0.712376  1
  B  B29  1  0.500000  0.606034  0.029908  1
  B  B30  1  0.500000  0.394862  0.971391  1
  B  B31  1  0.500000  0.104971  0.470283  1
  B  B32  1  0.500000  0.893804  0.528715  1
  Os  Os33  1  0.000000  0.362311  0.679235  1
  Os  Os34  1  0.000000  0.137478  0.178503  1
  Os  Os35  1  0.000000  0.862896  0.821303  1
