# generated using pymatgen
data_Pr8AlPd23Pt
_symmetry_space_group_name_H-M   'P 1'
_cell_length_a   8.48386200
_cell_length_b   8.49278100
_cell_length_c   8.49278100
_cell_angle_alpha   90.00000000
_cell_angle_beta   90.00000000
_cell_angle_gamma   90.00000000
_symmetry_Int_Tables_number   1
_chemical_formula_structural   Pr8AlPd23Pt
_chemical_formula_sum   'Pr8 Al1 Pd23 Pt1'
_cell_volume   611.91830663
_cell_formula_units_Z   1
loop_
 _symmetry_equiv_pos_site_id
 _symmetry_equiv_pos_as_xyz
  1  'x, y, z'
loop_
 _atom_site_type_symbol
 _atom_site_label
 _atom_site_symmetry_multiplicity
 _atom_site_fract_x
 _atom_site_fract_y
 _atom_site_fract_z
 _atom_site_occupancy
  Pr  Pr0  1  0.251384  0.251195  0.251195  1
  Pr  Pr1  1  0.748077  0.748000  0.748000  1
  Pr  Pr2  1  0.748077  0.748000  0.252000  1
  Pr  Pr3  1  0.748077  0.252000  0.748000  1
  Pr  Pr4  1  0.251384  0.251195  0.748805  1
  Pr  Pr5  1  0.251384  0.748805  0.251195  1
  Pr  Pr6  1  0.251384  0.748805  0.748805  1
  Pr  Pr7  1  0.748077  0.252000  0.252000  1
  Al  Al8  1  0.002894  0.000000  0.000000  1
  Pd  Pd9  1  0.260142  0.500000  0.000000  1
  Pd  Pd10  1  0.739081  0.500000  0.000000  1
  Pd  Pd11  1  0.999923  0.260594  0.500000  1
  Pd  Pd12  1  0.500075  0.260290  0.000000  1
  Pd  Pd13  1  0.999923  0.739406  0.500000  1
  Pd  Pd14  1  0.500075  0.739710  0.000000  1
  Pd  Pd15  1  0.500075  0.000000  0.260290  1
  Pd  Pd16  1  0.260142  0.000000  0.500000  1
  Pd  Pd17  1  0.500075  0.000000  0.739710  1
  Pd  Pd18  1  0.739081  0.000000  0.500000  1
  Pd  Pd19  1  0.999923  0.500000  0.260594  1
  Pd  Pd20  1  0.999923  0.500000  0.739406  1
  Pd  Pd21  1  0.252894  0.500000  0.500000  1
  Pd  Pd22  1  0.747280  0.500000  0.500000  1
  Pd  Pd23  1  0.500016  0.252951  0.500000  1
  Pd  Pd24  1  0.500016  0.747049  0.500000  1
  Pd  Pd25  1  0.500016  0.500000  0.252951  1
  Pd  Pd26  1  0.500016  0.500000  0.747049  1
  Pd  Pd27  1  0.711216  0.000000  0.000000  1
  Pd  Pd28  1  0.999182  0.292151  0.000000  1
  Pd  Pd29  1  0.999182  0.707849  0.000000  1
  Pd  Pd30  1  0.999182  0.000000  0.292151  1
  Pd  Pd31  1  0.999182  0.000000  0.707849  1
  Pt  Pt32  1  0.292639  0.000000  0.000000  1
