# generated using pymatgen
data_Ho6Sn5HgPd6
_symmetry_space_group_name_H-M   'P 1'
_cell_length_a   7.69708900
_cell_length_b   7.68551796
_cell_length_c   7.65254707
_cell_angle_alpha   90.03495336
_cell_angle_beta   90.00000000
_cell_angle_gamma   120.04981185
_symmetry_Int_Tables_number   1
_chemical_formula_structural   Ho6Sn5HgPd6
_chemical_formula_sum   'Ho6 Sn5 Hg1 Pd6'
_cell_volume   391.84830849
_cell_formula_units_Z   1
loop_
 _symmetry_equiv_pos_site_id
 _symmetry_equiv_pos_as_xyz
  1  'x, y, z'
loop_
 _atom_site_type_symbol
 _atom_site_label
 _atom_site_symmetry_multiplicity
 _atom_site_fract_x
 _atom_site_fract_y
 _atom_site_fract_z
 _atom_site_occupancy
  Ho  Ho0  1  0.407893  0.005140  0.246998  1
  Ho  Ho1  1  0.603446  0.601761  0.246556  1
  Ho  Ho2  1  0.990438  0.392828  0.246812  1
  Ho  Ho3  1  0.402753  0.994860  0.753002  1
  Ho  Ho4  1  0.597610  0.607172  0.753188  1
  Ho  Ho5  1  0.001685  0.398239  0.753444  1
  Sn  Sn6  1  0.271795  0.269571  0.499625  1
  Sn  Sn7  1  0.002224  0.730429  0.500375  1
  Sn  Sn8  1  0.000172  0.741701  0.999879  1
  Sn  Sn9  1  0.258471  0.258299  0.000121  1
  Sn  Sn10  1  0.735444  0.000000  0.500000  1
  Hg  Hg11  1  0.725001  0.000000  0.000000  1
  Pd  Pd12  1  0.320496  0.655194  0.010244  1
  Pd  Pd13  1  0.333686  0.665798  0.489076  1
  Pd  Pd14  1  0.665302  0.344806  0.989756  1
  Pd  Pd15  1  0.667888  0.334202  0.510924  1
  Pd  Pd16  1  0.007676  0.999655  0.257723  1
  Pd  Pd17  1  0.008021  0.000345  0.742277  1
