# generated using pymatgen
data_Y4AlPd
_symmetry_space_group_name_H-M   'P 1'
_cell_length_a   9.64524595
_cell_length_b   9.64524660
_cell_length_c   9.64524600
_cell_angle_alpha   60.00000204
_cell_angle_beta   59.99999982
_cell_angle_gamma   60.00000012
_symmetry_Int_Tables_number   1
_chemical_formula_structural   Y4AlPd
_chemical_formula_sum   'Y16 Al4 Pd4'
_cell_volume   634.49025934
_cell_formula_units_Z   4
loop_
 _symmetry_equiv_pos_site_id
 _symmetry_equiv_pos_as_xyz
  1  'x, y, z'
loop_
 _atom_site_type_symbol
 _atom_site_label
 _atom_site_symmetry_multiplicity
 _atom_site_fract_x
 _atom_site_fract_y
 _atom_site_fract_z
 _atom_site_occupancy
  Y  Y0  1  0.355860  0.355860  0.355860  1
  Y  Y1  1  0.355860  0.355860  0.932419  1
  Y  Y2  1  0.355860  0.932419  0.355860  1
  Y  Y3  1  0.932419  0.355860  0.355860  1
  Y  Y4  1  0.806843  0.193157  0.193157  1
  Y  Y5  1  0.193157  0.806843  0.806843  1
  Y  Y6  1  0.193157  0.806843  0.193157  1
  Y  Y7  1  0.806843  0.193157  0.806843  1
  Y  Y8  1  0.193157  0.193157  0.806843  1
  Y  Y9  1  0.806843  0.806843  0.193157  1
  Y  Y10  1  0.934980  0.565020  0.565020  1
  Y  Y11  1  0.565020  0.934980  0.934980  1
  Y  Y12  1  0.565020  0.934980  0.565020  1
  Y  Y13  1  0.934980  0.565020  0.934980  1
  Y  Y14  1  0.565020  0.565020  0.934980  1
  Y  Y15  1  0.934980  0.934980  0.565020  1
  Al  Al16  1  0.577849  0.577849  0.577849  1
  Al  Al17  1  0.577849  0.577849  0.266455  1
  Al  Al18  1  0.577849  0.266455  0.577849  1
  Al  Al19  1  0.266455  0.577849  0.577849  1
  Pd  Pd20  1  0.144865  0.144865  0.144865  1
  Pd  Pd21  1  0.144865  0.144865  0.565405  1
  Pd  Pd22  1  0.144865  0.565405  0.144865  1
  Pd  Pd23  1  0.565405  0.144865  0.144865  1
