# generated using pymatgen
data_Hf5ZrSi5(Ni5P2)4
_symmetry_space_group_name_H-M   'P 1'
_cell_length_a   12.49551883
_cell_length_b   12.54286296
_cell_length_c   3.62243400
_cell_angle_alpha   90.00000000
_cell_angle_beta   90.00000000
_cell_angle_gamma   119.92314779
_symmetry_Int_Tables_number   1
_chemical_formula_structural   Hf5ZrSi5(Ni5P2)4
_chemical_formula_sum   'Hf5 Zr1 Si5 Ni20 P8'
_cell_volume   492.05980128
_cell_formula_units_Z   1
loop_
 _symmetry_equiv_pos_site_id
 _symmetry_equiv_pos_as_xyz
  1  'x, y, z'
loop_
 _atom_site_type_symbol
 _atom_site_label
 _atom_site_symmetry_multiplicity
 _atom_site_fract_x
 _atom_site_fract_y
 _atom_site_fract_z
 _atom_site_occupancy
  Hf  Hf0  1  0.806433  0.282571  0.500000  1
  Hf  Hf1  1  0.717096  0.521422  0.500000  1
  Hf  Hf2  1  0.476555  0.194937  0.500000  1
  Hf  Hf3  1  0.193993  0.716483  0.000000  1
  Hf  Hf4  1  0.282850  0.479523  0.000000  1
  Zr  Zr5  1  0.521584  0.805653  0.000000  1
  Si  Si6  1  0.002067  0.000277  0.000000  1
  Si  Si7  1  0.232762  0.286122  0.500000  1
  Si  Si8  1  0.715967  0.948862  0.500000  1
  Si  Si9  1  0.770010  0.715090  0.000000  1
  Si  Si10  1  0.282415  0.054345  0.000000  1
  Ni  Ni11  1  0.416812  0.980369  0.000000  1
  Ni  Ni12  1  0.018709  0.438366  0.000000  1
  Ni  Ni13  1  0.584196  0.023674  0.500000  1
  Ni  Ni14  1  0.561706  0.580103  0.000000  1
  Ni  Ni15  1  0.980603  0.563529  0.500000  1
  Ni  Ni16  1  0.929354  0.082423  0.500000  1
  Ni  Ni17  1  0.157752  0.073786  0.500000  1
  Ni  Ni18  1  0.918028  0.839304  0.500000  1
  Ni  Ni19  1  0.091855  0.886344  0.000000  1
  Ni  Ni20  1  0.798912  0.906585  0.000000  1
  Ni  Ni21  1  0.105577  0.204221  0.000000  1
  Ni  Ni22  1  0.331595  0.666563  0.500000  1
  Ni  Ni23  1  0.666856  0.332462  0.000000  1
  Ni  Ni24  1  0.674034  0.746087  0.500000  1
  Ni  Ni25  1  0.249795  0.923434  0.500000  1
  Ni  Ni26  1  0.921666  0.670533  0.000000  1
  Ni  Ni27  1  0.327723  0.250341  0.000000  1
  Ni  Ni28  1  0.756410  0.083668  0.000000  1
  Ni  Ni29  1  0.438796  0.419021  0.500000  1
  Ni  Ni30  1  0.070183  0.325586  0.500000  1
  P  P31  1  0.053241  0.764662  0.500000  1
  P  P32  1  0.471445  0.612450  0.500000  1
  P  P33  1  0.387823  0.860490  0.500000  1
  P  P34  1  0.858458  0.471533  0.000000  1
  P  P35  1  0.527881  0.386405  0.000000  1
  P  P36  1  0.612298  0.140282  0.000000  1
  P  P37  1  0.946137  0.234771  0.000000  1
  P  P38  1  0.140425  0.527724  0.500000  1
