# generated using pymatgen
data_CaTh(TaSe2)8
_symmetry_space_group_name_H-M   'P 1'
_cell_length_a   6.99192200
_cell_length_b   6.99192107
_cell_length_c   14.91873100
_cell_angle_alpha   90.00000000
_cell_angle_beta   90.00000000
_cell_angle_gamma   120.00000440
_symmetry_Int_Tables_number   1
_chemical_formula_structural   CaTh(TaSe2)8
_chemical_formula_sum   'Ca1 Th1 Ta8 Se16'
_cell_volume   631.61958436
_cell_formula_units_Z   1
loop_
 _symmetry_equiv_pos_site_id
 _symmetry_equiv_pos_as_xyz
  1  'x, y, z'
loop_
 _atom_site_type_symbol
 _atom_site_label
 _atom_site_symmetry_multiplicity
 _atom_site_fract_x
 _atom_site_fract_y
 _atom_site_fract_z
 _atom_site_occupancy
  Ca  Ca0  1  0.000000  0.000000  0.000000  1
  Th  Th1  1  0.000000  0.000000  0.500000  1
  Ta  Ta2  1  0.507579  0.492421  0.749735  1
  Ta  Ta3  1  0.015156  0.507579  0.250265  1
  Ta  Ta4  1  0.492421  0.984844  0.250265  1
  Ta  Ta5  1  0.507579  0.015156  0.749735  1
  Ta  Ta6  1  0.984844  0.492421  0.749735  1
  Ta  Ta7  1  0.492421  0.507579  0.250265  1
  Ta  Ta8  1  0.000000  0.000000  0.748344  1
  Ta  Ta9  1  0.000000  0.000000  0.251656  1
  Se  Se10  1  0.829903  0.170097  0.361740  1
  Se  Se11  1  0.829903  0.659805  0.361740  1
  Se  Se12  1  0.340195  0.170097  0.361740  1
  Se  Se13  1  0.662494  0.831247  0.859790  1
  Se  Se14  1  0.170097  0.340195  0.638260  1
  Se  Se15  1  0.168753  0.831247  0.859790  1
  Se  Se16  1  0.168753  0.337506  0.859790  1
  Se  Se17  1  0.831247  0.168753  0.140210  1
  Se  Se18  1  0.337506  0.168753  0.140210  1
  Se  Se19  1  0.659805  0.829903  0.638260  1
  Se  Se20  1  0.333333  0.666667  0.134088  1
  Se  Se21  1  0.666667  0.333333  0.632952  1
  Se  Se22  1  0.666667  0.333333  0.865912  1
  Se  Se23  1  0.333333  0.666667  0.367048  1
  Se  Se24  1  0.831247  0.662494  0.140210  1
  Se  Se25  1  0.170097  0.829903  0.638260  1
