# generated using pymatgen
data_Ho5Er(BBr3)2
_symmetry_space_group_name_H-M   'P 1'
_cell_length_a   9.69825474
_cell_length_b   9.69970435
_cell_length_c   9.69929101
_cell_angle_alpha   109.50667852
_cell_angle_beta   109.48111675
_cell_angle_gamma   109.43393564
_symmetry_Int_Tables_number   1
_chemical_formula_structural   Ho5Er(BBr3)2
_chemical_formula_sum   'Ho10 Er2 B4 Br12'
_cell_volume   702.30666938
_cell_formula_units_Z   2
loop_
 _symmetry_equiv_pos_site_id
 _symmetry_equiv_pos_as_xyz
  1  'x, y, z'
loop_
 _atom_site_type_symbol
 _atom_site_label
 _atom_site_symmetry_multiplicity
 _atom_site_fract_x
 _atom_site_fract_y
 _atom_site_fract_z
 _atom_site_occupancy
  Ho  Ho0  1  0.458705  0.479132  0.229261  1
  Ho  Ho1  1  0.749906  0.229364  0.270812  1
  Ho  Ho2  1  0.750171  0.020907  0.479524  1
  Ho  Ho3  1  0.229480  0.458652  0.479747  1
  Ho  Ho4  1  0.270503  0.750154  0.229074  1
  Ho  Ho5  1  0.041270  0.270597  0.020351  1
  Ho  Ho6  1  0.020948  0.041236  0.270627  1
  Ho  Ho7  1  0.478993  0.749576  0.020233  1
  Ho  Ho8  1  0.479232  0.229463  0.458775  1
  Ho  Ho9  1  0.020813  0.479494  0.750240  1
  Er  Er10  1  0.270663  0.020649  0.041581  1
  Er  Er11  1  0.229323  0.271064  0.750043  1
  B  B12  1  0.249783  0.249833  0.249763  1
  B  B13  1  0.500030  0.999833  0.249791  1
  B  B14  1  0.999938  0.249744  0.499754  1
  B  B15  1  0.250238  0.500022  0.000104  1
  Br  Br16  1  0.250075  0.757846  0.742305  1
  Br  Br17  1  0.515880  0.508216  0.757705  1
  Br  Br18  1  0.984120  0.741806  0.992294  1
  Br  Br19  1  0.742238  0.249938  0.757671  1
  Br  Br20  1  0.991796  0.984147  0.742315  1
  Br  Br21  1  0.249969  0.992171  0.507868  1
  Br  Br22  1  0.757829  0.515572  0.507784  1
  Br  Br23  1  0.508189  0.250495  0.992350  1
  Br  Br24  1  0.757653  0.742379  0.250030  1
  Br  Br25  1  0.742226  0.992256  0.984546  1
  Br  Br26  1  0.992311  0.507702  0.250033  1
  Br  Br27  1  0.507720  0.757752  0.515417  1
