# generated using pymatgen
data_CePr3(Al3Co)6
_symmetry_space_group_name_H-M   'P 1'
_cell_length_a   7.47138855
_cell_length_b   7.48257627
_cell_length_c   9.43783700
_cell_angle_alpha   90.00000000
_cell_angle_beta   90.00000000
_cell_angle_gamma   119.19045015
_symmetry_Int_Tables_number   1
_chemical_formula_structural   CePr3(Al3Co)6
_chemical_formula_sum   'Ce1 Pr3 Al18 Co6'
_cell_volume   460.61796527
_cell_formula_units_Z   1
loop_
 _symmetry_equiv_pos_site_id
 _symmetry_equiv_pos_as_xyz
  1  'x, y, z'
loop_
 _atom_site_type_symbol
 _atom_site_label
 _atom_site_symmetry_multiplicity
 _atom_site_fract_x
 _atom_site_fract_y
 _atom_site_fract_z
 _atom_site_occupancy
  Ce  Ce0  1  0.327565  0.006064  0.750000  1
  Pr  Pr1  1  0.994413  0.672003  0.250000  1
  Pr  Pr2  1  0.006302  0.327349  0.750000  1
  Pr  Pr3  1  0.670939  0.993911  0.250000  1
  Al  Al4  1  0.128284  0.127960  0.250000  1
  Al  Al5  1  0.872041  0.869991  0.750000  1
  Al  Al6  1  0.334034  0.333896  0.540046  1
  Al  Al7  1  0.666571  0.666460  0.037542  1
  Al  Al8  1  0.334034  0.333896  0.959954  1
  Al  Al9  1  0.666571  0.666460  0.462458  1
  Al  Al10  1  0.339261  0.549902  0.250000  1
  Al  Al11  1  0.657524  0.448106  0.750000  1
  Al  Al12  1  0.550231  0.338973  0.250000  1
  Al  Al13  1  0.449745  0.662226  0.750000  1
  Al  Al14  1  0.000911  0.335320  0.070234  1
  Al  Al15  1  0.999921  0.664843  0.572001  1
  Al  Al16  1  0.335406  0.001262  0.431046  1
  Al  Al17  1  0.663723  0.999006  0.927888  1
  Al  Al18  1  0.999921  0.664843  0.927999  1
  Al  Al19  1  0.000911  0.335320  0.429766  1
  Al  Al20  1  0.663723  0.999006  0.572112  1
  Al  Al21  1  0.335406  0.001262  0.068954  1
  Co  Co22  1  0.002243  0.000581  0.997192  1
  Co  Co23  1  0.002243  0.000581  0.502808  1
  Co  Co24  1  0.668867  0.328720  0.998144  1
  Co  Co25  1  0.330171  0.671668  0.501683  1
  Co  Co26  1  0.330171  0.671668  0.998317  1
  Co  Co27  1  0.668867  0.328720  0.501856  1
