# generated using pymatgen
data_Tb3Y3Al23VOs8
_symmetry_space_group_name_H-M   'P 1'
_cell_length_a   8.84801701
_cell_length_b   8.85011217
_cell_length_c   9.54887602
_cell_angle_alpha   90.00629120
_cell_angle_beta   89.99966349
_cell_angle_gamma   119.99651634
_symmetry_Int_Tables_number   1
_chemical_formula_structural   Tb3Y3Al23VOs8
_chemical_formula_sum   'Tb3 Y3 Al23 V1 Os8'
_cell_volume   647.57914029
_cell_formula_units_Z   1
loop_
 _symmetry_equiv_pos_site_id
 _symmetry_equiv_pos_as_xyz
  1  'x, y, z'
loop_
 _atom_site_type_symbol
 _atom_site_label
 _atom_site_symmetry_multiplicity
 _atom_site_fract_x
 _atom_site_fract_y
 _atom_site_fract_z
 _atom_site_occupancy
  Tb  Tb0  1  0.195055  0.390089  0.247032  1
  Tb  Tb1  1  0.807561  0.615075  0.750539  1
  Tb  Tb2  1  0.609826  0.804941  0.247022  1
  Y  Y3  1  0.385135  0.192529  0.750554  1
  Y  Y4  1  0.195148  0.804922  0.247073  1
  Y  Y5  1  0.807408  0.192546  0.750582  1
  Al  Al6  1  0.666637  0.333218  0.978032  1
  Al  Al7  1  0.666641  0.333246  0.518899  1
  Al  Al8  1  0.333342  0.666731  0.483694  1
  Al  Al9  1  0.162232  0.324482  0.575331  1
  Al  Al10  1  0.837016  0.674006  0.425321  1
  Al  Al11  1  0.675488  0.837754  0.575337  1
  Al  Al12  1  0.835565  0.671095  0.075957  1
  Al  Al13  1  0.326020  0.163008  0.425343  1
  Al  Al14  1  0.160569  0.321142  0.926027  1
  Al  Al15  1  0.162242  0.837749  0.575350  1
  Al  Al16  1  0.328923  0.164451  0.075940  1
  Al  Al17  1  0.836996  0.163017  0.425338  1
  Al  Al18  1  0.678821  0.839429  0.926012  1
  Al  Al19  1  0.835537  0.164480  0.075949  1
  Al  Al20  1  0.160595  0.839435  0.926019  1
  Al  Al21  1  0.562035  0.124102  0.252988  1
  Al  Al22  1  0.441531  0.883069  0.750888  1
  Al  Al23  1  0.875882  0.437954  0.252995  1
  Al  Al24  1  0.117014  0.558501  0.750873  1
  Al  Al25  1  0.562079  0.437913  0.253002  1
  Al  Al26  1  0.441471  0.558498  0.750872  1
  Al  Al27  1  0.999983  0.999995  0.250306  1
  Al  Al28  1  0.999988  0.999979  0.749515  1
  V  V29  1  0.333339  0.666563  0.982653  1
  Os  Os30  1  0.495270  0.990584  0.004941  1
  Os  Os31  1  0.009433  0.504741  0.004942  1
  Os  Os32  1  0.499272  0.998600  0.503185  1
  Os  Os33  1  0.495240  0.504741  0.004999  1
  Os  Os34  1  0.001397  0.500702  0.503196  1
  Os  Os35  1  0.499271  0.500683  0.503184  1
  Os  Os36  1  0.000010  0.000019  0.000865  1
  Os  Os37  1  0.000023  0.000014  0.499241  1
