# generated using pymatgen
data_TbHo2HfIn2Ir3
_symmetry_space_group_name_H-M   'P 1'
_cell_length_a   7.42668216
_cell_length_b   7.26270683
_cell_length_c   4.15991700
_cell_angle_alpha   90.00000000
_cell_angle_beta   90.00000000
_cell_angle_gamma   119.43183692
_symmetry_Int_Tables_number   1
_chemical_formula_structural   TbHo2HfIn2Ir3
_chemical_formula_sum   'Tb1 Ho2 Hf1 In2 Ir3'
_cell_volume   195.41896262
_cell_formula_units_Z   1
loop_
 _symmetry_equiv_pos_site_id
 _symmetry_equiv_pos_as_xyz
  1  'x, y, z'
loop_
 _atom_site_type_symbol
 _atom_site_label
 _atom_site_symmetry_multiplicity
 _atom_site_fract_x
 _atom_site_fract_y
 _atom_site_fract_z
 _atom_site_occupancy
  Tb  Tb0  1  0.581366  0.586215  0.000000  1
  Ho  Ho1  1  0.417083  0.003612  0.000000  1
  Ho  Ho2  1  0.999813  0.395374  0.000000  1
  Hf  Hf3  1  0.999839  0.754214  0.500000  1
  In  In4  1  0.255511  0.253717  0.500000  1
  In  In5  1  0.745553  0.999222  0.500000  1
  Ir  Ir6  1  0.001682  0.980646  0.000000  1
  Ir  Ir7  1  0.684411  0.354460  0.500000  1
  Ir  Ir8  1  0.314742  0.672541  0.500000  1
