# generated using pymatgen
data_Er3Zr4Sn23Ru6
_symmetry_space_group_name_H-M   'P 1'
_cell_length_a   9.74227571
_cell_length_b   9.75841413
_cell_length_c   9.91683331
_cell_angle_alpha   89.99999750
_cell_angle_beta   89.97438863
_cell_angle_gamma   120.05481778
_symmetry_Int_Tables_number   1
_chemical_formula_structural   Er3Zr4Sn23Ru6
_chemical_formula_sum   'Er3 Zr4 Sn23 Ru6'
_cell_volume   816.02429262
_cell_formula_units_Z   1
loop_
 _symmetry_equiv_pos_site_id
 _symmetry_equiv_pos_as_xyz
  1  'x, y, z'
loop_
 _atom_site_type_symbol
 _atom_site_label
 _atom_site_symmetry_multiplicity
 _atom_site_fract_x
 _atom_site_fract_y
 _atom_site_fract_z
 _atom_site_occupancy
  Er  Er0  1  0.032469  0.516235  0.306221  1
  Er  Er1  1  0.967531  0.483765  0.693779  1
  Er  Er2  1  0.000000  0.000000  0.000000  1
  Zr  Zr3  1  0.485304  0.513837  0.305676  1
  Zr  Zr4  1  0.514696  0.486163  0.694324  1
  Zr  Zr5  1  0.485304  0.971468  0.305676  1
  Zr  Zr6  1  0.514696  0.028532  0.694324  1
  Sn  Sn7  1  0.120389  0.881311  0.278388  1
  Sn  Sn8  1  0.879611  0.118689  0.721612  1
  Sn  Sn9  1  0.120389  0.239079  0.278388  1
  Sn  Sn10  1  0.879611  0.760921  0.721612  1
  Sn  Sn11  1  0.758190  0.879095  0.279239  1
  Sn  Sn12  1  0.241810  0.120905  0.720761  1
  Sn  Sn13  1  0.774083  0.216991  0.462951  1
  Sn  Sn14  1  0.225917  0.783009  0.537049  1
  Sn  Sn15  1  0.774083  0.557093  0.462951  1
  Sn  Sn16  1  0.225917  0.442907  0.537049  1
  Sn  Sn17  1  0.444906  0.222453  0.464534  1
  Sn  Sn18  1  0.555094  0.777547  0.535466  1
  Sn  Sn19  1  0.350858  0.000729  0.000708  1
  Sn  Sn20  1  0.649142  0.999271  0.999292  1
  Sn  Sn21  1  0.000000  0.349811  0.000000  1
  Sn  Sn22  1  0.000000  0.650189  0.000000  1
  Sn  Sn23  1  0.649142  0.649871  0.999292  1
  Sn  Sn24  1  0.350858  0.350129  0.000708  1
  Sn  Sn25  1  0.340402  0.670201  0.132448  1
  Sn  Sn26  1  0.659598  0.329799  0.867552  1
  Sn  Sn27  1  0.332851  0.666426  0.826202  1
  Sn  Sn28  1  0.667149  0.333574  0.173798  1
  Sn  Sn29  1  0.000000  0.000000  0.500000  1
  Ru  Ru30  1  0.827085  0.168222  0.202424  1
  Ru  Ru31  1  0.172915  0.831778  0.797576  1
  Ru  Ru32  1  0.827085  0.658864  0.202424  1
  Ru  Ru33  1  0.172915  0.341136  0.797576  1
  Ru  Ru34  1  0.344089  0.172045  0.204398  1
  Ru  Ru35  1  0.655911  0.827955  0.795602  1
