# generated using pymatgen
data_Y6CuIr17
_symmetry_space_group_name_H-M   'P 1'
_cell_length_a   5.32027211
_cell_length_b   5.32053480
_cell_length_c   17.38229100
_cell_angle_alpha   90.00000000
_cell_angle_beta   90.00000000
_cell_angle_gamma   119.99530777
_symmetry_Int_Tables_number   1
_chemical_formula_structural   Y6CuIr17
_chemical_formula_sum   'Y6 Cu1 Ir17'
_cell_volume   426.13510642
_cell_formula_units_Z   1
loop_
 _symmetry_equiv_pos_site_id
 _symmetry_equiv_pos_as_xyz
  1  'x, y, z'
loop_
 _atom_site_type_symbol
 _atom_site_label
 _atom_site_symmetry_multiplicity
 _atom_site_fract_x
 _atom_site_fract_y
 _atom_site_fract_z
 _atom_site_occupancy
  Y  Y0  1  0.333331  0.666675  0.958654  1
  Y  Y1  1  0.666668  0.333337  0.040669  1
  Y  Y2  1  0.666668  0.333337  0.459331  1
  Y  Y3  1  0.333331  0.666675  0.541346  1
  Y  Y4  1  0.333336  0.666666  0.750000  1
  Y  Y5  1  0.666676  0.333332  0.250000  1
  Cu  Cu6  1  0.333359  0.666677  0.250000  1
  Ir  Ir7  1  0.169204  0.830788  0.373011  1
  Ir  Ir8  1  0.169191  0.338378  0.373002  1
  Ir  Ir9  1  0.661599  0.830790  0.373011  1
  Ir  Ir10  1  0.833073  0.166920  0.625376  1
  Ir  Ir11  1  0.833076  0.666172  0.625402  1
  Ir  Ir12  1  0.333833  0.166922  0.625389  1
  Ir  Ir13  1  0.833073  0.166920  0.874624  1
  Ir  Ir14  1  0.833076  0.666172  0.874598  1
  Ir  Ir15  1  0.333833  0.166922  0.874611  1
  Ir  Ir16  1  0.169204  0.830788  0.126989  1
  Ir  Ir17  1  0.169191  0.338378  0.126998  1
  Ir  Ir18  1  0.661599  0.830790  0.126989  1
  Ir  Ir19  1  0.666671  0.333267  0.750000  1
  Ir  Ir20  1  0.999989  0.999963  0.250000  1
  Ir  Ir21  1  0.000004  0.000117  0.750000  1
  Ir  Ir22  1  0.000007  0.000007  0.497195  1
  Ir  Ir23  1  0.000007  0.000007  0.002805  1
