# generated using pymatgen
data_YbFe3Sb12Pt
_symmetry_space_group_name_H-M   'P 1'
_cell_length_a   8.00320497
_cell_length_b   8.00714077
_cell_length_c   8.00714112
_cell_angle_alpha   109.48117879
_cell_angle_beta   109.46126015
_cell_angle_gamma   109.46125807
_symmetry_Int_Tables_number   1
_chemical_formula_structural   YbFe3Sb12Pt
_chemical_formula_sum   'Yb1 Fe3 Sb12 Pt1'
_cell_volume   395.04846632
_cell_formula_units_Z   1
loop_
 _symmetry_equiv_pos_site_id
 _symmetry_equiv_pos_as_xyz
  1  'x, y, z'
loop_
 _atom_site_type_symbol
 _atom_site_label
 _atom_site_symmetry_multiplicity
 _atom_site_fract_x
 _atom_site_fract_y
 _atom_site_fract_z
 _atom_site_occupancy
  Yb  Yb0  1  0.000000  0.000000  0.000000  1
  Fe  Fe1  1  0.500000  0.500000  0.500000  1
  Fe  Fe2  1  0.000000  0.500000  0.000000  1
  Fe  Fe3  1  0.000000  0.000000  0.500000  1
  Sb  Sb4  1  0.836807  0.667704  0.505676  1
  Sb  Sb5  1  0.163193  0.332296  0.494324  1
  Sb  Sb6  1  0.146045  0.649252  0.815564  1
  Sb  Sb7  1  0.853955  0.350748  0.184436  1
  Sb  Sb8  1  0.668869  0.505676  0.837972  1
  Sb  Sb9  1  0.331131  0.494324  0.162028  1
  Sb  Sb10  1  0.669520  0.815564  0.166313  1
  Sb  Sb11  1  0.330480  0.184436  0.833687  1
  Sb  Sb12  1  0.503206  0.833687  0.649252  1
  Sb  Sb13  1  0.496794  0.166313  0.350748  1
  Sb  Sb14  1  0.169104  0.837972  0.332296  1
  Sb  Sb15  1  0.830896  0.162028  0.667704  1
  Pt  Pt16  1  0.500000  0.000000  0.000000  1
