# generated using pymatgen
data_Pr2Zn14Pd3
_symmetry_space_group_name_H-M   'P 1'
_cell_length_a   6.90120388
_cell_length_b   6.90120440
_cell_length_c   6.90120529
_cell_angle_alpha   82.92992588
_cell_angle_beta   82.92992101
_cell_angle_gamma   82.92993859
_symmetry_Int_Tables_number   1
_chemical_formula_structural   Pr2Zn14Pd3
_chemical_formula_sum   'Pr2 Zn14 Pd3'
_cell_volume   321.75189756
_cell_formula_units_Z   1
loop_
 _symmetry_equiv_pos_site_id
 _symmetry_equiv_pos_as_xyz
  1  'x, y, z'
loop_
 _atom_site_type_symbol
 _atom_site_label
 _atom_site_symmetry_multiplicity
 _atom_site_fract_x
 _atom_site_fract_y
 _atom_site_fract_z
 _atom_site_occupancy
  Pr  Pr0  1  0.662055  0.662055  0.662055  1
  Pr  Pr1  1  0.337945  0.337945  0.337945  1
  Zn  Zn2  1  0.348406  0.348406  0.841153  1
  Zn  Zn3  1  0.841153  0.348406  0.348406  1
  Zn  Zn4  1  0.101688  0.101688  0.101688  1
  Zn  Zn5  1  0.898312  0.898312  0.898312  1
  Zn  Zn6  1  0.294480  0.705520  0.000000  1
  Zn  Zn7  1  0.705520  0.000000  0.294480  1
  Zn  Zn8  1  0.000000  0.294480  0.705520  1
  Zn  Zn9  1  0.705520  0.294480  0.000000  1
  Zn  Zn10  1  0.294480  0.000000  0.705520  1
  Zn  Zn11  1  0.000000  0.705520  0.294480  1
  Zn  Zn12  1  0.158847  0.651594  0.651594  1
  Zn  Zn13  1  0.651594  0.651594  0.158847  1
  Zn  Zn14  1  0.651594  0.158847  0.651594  1
  Zn  Zn15  1  0.348406  0.841153  0.348406  1
  Pd  Pd16  1  0.000000  0.000000  0.500000  1
  Pd  Pd17  1  0.000000  0.500000  0.000000  1
  Pd  Pd18  1  0.500000  0.000000  0.000000  1
