# generated using pymatgen
data_TbSm7GaPd24
_symmetry_space_group_name_H-M   'P 1'
_cell_length_a   8.42430700
_cell_length_b   8.42430700
_cell_length_c   8.42430700
_cell_angle_alpha   89.99782358
_cell_angle_beta   89.99782358
_cell_angle_gamma   89.99782358
_symmetry_Int_Tables_number   1
_chemical_formula_structural   TbSm7GaPd24
_chemical_formula_sum   'Tb1 Sm7 Ga1 Pd24'
_cell_volume   597.86420840
_cell_formula_units_Z   1
loop_
 _symmetry_equiv_pos_site_id
 _symmetry_equiv_pos_as_xyz
  1  'x, y, z'
loop_
 _atom_site_type_symbol
 _atom_site_label
 _atom_site_symmetry_multiplicity
 _atom_site_fract_x
 _atom_site_fract_y
 _atom_site_fract_z
 _atom_site_occupancy
  Tb  Tb0  1  0.252105  0.252105  0.252105  1
  Sm  Sm1  1  0.252003  0.252003  0.748036  1
  Sm  Sm2  1  0.252003  0.748036  0.252003  1
  Sm  Sm3  1  0.748036  0.252003  0.252003  1
  Sm  Sm4  1  0.748074  0.748074  0.748074  1
  Sm  Sm5  1  0.748023  0.748023  0.251925  1
  Sm  Sm6  1  0.748023  0.251925  0.748023  1
  Sm  Sm7  1  0.251925  0.748023  0.748023  1
  Ga  Ga8  1  0.000015  0.000015  0.000015  1
  Pd  Pd9  1  0.500137  0.500137  0.746953  1
  Pd  Pd10  1  0.498910  0.253043  0.498910  1
  Pd  Pd11  1  0.253043  0.498910  0.498910  1
  Pd  Pd12  1  0.498910  0.498910  0.253043  1
  Pd  Pd13  1  0.500137  0.746953  0.500137  1
  Pd  Pd14  1  0.746953  0.500137  0.500137  1
  Pd  Pd15  1  0.999915  0.999915  0.707506  1
  Pd  Pd16  1  0.000917  0.292314  0.000917  1
  Pd  Pd17  1  0.292314  0.000917  0.000917  1
  Pd  Pd18  1  0.000917  0.000917  0.292314  1
  Pd  Pd19  1  0.999915  0.707506  0.999915  1
  Pd  Pd20  1  0.707506  0.999915  0.999915  1
  Pd  Pd21  1  0.999873  0.500117  0.739733  1
  Pd  Pd22  1  0.499062  0.260268  0.001055  1
  Pd  Pd23  1  0.260268  0.001055  0.499062  1
  Pd  Pd24  1  0.001055  0.260268  0.499062  1
  Pd  Pd25  1  0.500117  0.999873  0.739733  1
  Pd  Pd26  1  0.260268  0.499062  0.001055  1
  Pd  Pd27  1  0.001055  0.499062  0.260268  1
  Pd  Pd28  1  0.500117  0.739733  0.999873  1
  Pd  Pd29  1  0.999873  0.739733  0.500117  1
  Pd  Pd30  1  0.499062  0.001055  0.260268  1
  Pd  Pd31  1  0.739733  0.999873  0.500117  1
  Pd  Pd32  1  0.739733  0.500117  0.999873  1
