# generated using pymatgen
data_Zr8VSn6MoN2
_symmetry_space_group_name_H-M   'P 1'
_cell_length_a   8.35733700
_cell_length_b   8.35733662
_cell_length_c   5.67073600
_cell_angle_alpha   90.00000000
_cell_angle_beta   90.00000000
_cell_angle_gamma   119.99999755
_symmetry_Int_Tables_number   1
_chemical_formula_structural   Zr8VSn6MoN2
_chemical_formula_sum   'Zr8 V1 Sn6 Mo1 N2'
_cell_volume   343.00928944
_cell_formula_units_Z   1
loop_
 _symmetry_equiv_pos_site_id
 _symmetry_equiv_pos_as_xyz
  1  'x, y, z'
loop_
 _atom_site_type_symbol
 _atom_site_label
 _atom_site_symmetry_multiplicity
 _atom_site_fract_x
 _atom_site_fract_y
 _atom_site_fract_z
 _atom_site_occupancy
  Zr  Zr0  1  0.333333  0.666667  0.500000  1
  Zr  Zr1  1  0.666667  0.333333  0.500000  1
  Zr  Zr2  1  0.778646  0.777480  0.749081  1
  Zr  Zr3  1  0.222520  0.001166  0.749081  1
  Zr  Zr4  1  0.998834  0.221354  0.749081  1
  Zr  Zr5  1  0.222520  0.221354  0.250919  1
  Zr  Zr6  1  0.778646  0.001166  0.250919  1
  Zr  Zr7  1  0.998834  0.777480  0.250919  1
  V  V8  1  0.333333  0.666667  0.000000  1
  Sn  Sn9  1  0.408024  0.410039  0.764540  1
  Sn  Sn10  1  0.589961  0.997985  0.764540  1
  Sn  Sn11  1  0.002015  0.591976  0.764540  1
  Sn  Sn12  1  0.589961  0.591976  0.235460  1
  Sn  Sn13  1  0.408024  0.997985  0.235460  1
  Sn  Sn14  1  0.002015  0.410039  0.235460  1
  Mo  Mo15  1  0.666667  0.333333  0.000000  1
  N  N16  1  0.000000  0.000000  0.000000  1
  N  N17  1  0.000000  0.000000  0.500000  1
