# generated using pymatgen
data_CsMo2Br11
_symmetry_space_group_name_H-M   'P 1'
_cell_length_a   7.59150044
_cell_length_b   7.66485018
_cell_length_c   18.68627048
_cell_angle_alpha   78.76178586
_cell_angle_beta   78.35581331
_cell_angle_gamma   88.11306970
_symmetry_Int_Tables_number   1
_chemical_formula_structural   CsMo2Br11
_chemical_formula_sum   'Cs2 Mo4 Br22'
_cell_volume   1044.49142402
_cell_formula_units_Z   2
loop_
 _symmetry_equiv_pos_site_id
 _symmetry_equiv_pos_as_xyz
  1  'x, y, z'
loop_
 _atom_site_type_symbol
 _atom_site_label
 _atom_site_symmetry_multiplicity
 _atom_site_fract_x
 _atom_site_fract_y
 _atom_site_fract_z
 _atom_site_occupancy
  Cs  Cs0  1  0.749873  0.748085  0.502483  1
  Cs  Cs1  1  0.250127  0.251915  0.497517  1
  Mo  Mo2  1  0.328718  0.822251  0.336119  1
  Mo  Mo3  1  0.671282  0.177749  0.663881  1
  Mo  Mo4  1  0.836999  0.333542  0.085943  1
  Mo  Mo5  1  0.163001  0.666458  0.914057  1
  Br  Br6  1  0.257699  0.763280  0.483951  1
  Br  Br7  1  0.742301  0.236720  0.516049  1
  Br  Br8  1  0.567092  0.036832  0.339144  1
  Br  Br9  1  0.432908  0.963168  0.660856  1
  Br  Br10  1  0.550543  0.571489  0.345712  1
  Br  Br11  1  0.449457  0.428511  0.654288  1
  Br  Br12  1  0.394711  0.874195  0.200777  1
  Br  Br13  1  0.605289  0.125805  0.799223  1
  Br  Br14  1  0.081481  0.599530  0.347349  1
  Br  Br15  1  0.918519  0.400470  0.652651  1
  Br  Br16  1  0.098545  0.065145  0.339764  1
  Br  Br17  1  0.901455  0.934855  0.660236  1
  Br  Br18  1  0.882494  0.037757  0.152635  1
  Br  Br19  1  0.117506  0.962243  0.847365  1
  Br  Br20  1  0.534623  0.368373  0.153433  1
  Br  Br21  1  0.465377  0.631627  0.846567  1
  Br  Br22  1  0.735345  0.230774  0.984345  1
  Br  Br23  1  0.264655  0.769226  0.015655  1
  Br  Br24  1  0.977956  0.483079  0.164683  1
  Br  Br25  1  0.022044  0.516921  0.835317  1
  Br  Br26  1  0.169812  0.336746  0.999590  1
  Br  Br27  1  0.830188  0.663254  0.000410  1
