# generated using pymatgen
data_Sm2Al(SiRh2)3
_symmetry_space_group_name_H-M   'P 1'
_cell_length_a   6.68697936
_cell_length_b   6.69400634
_cell_length_c   6.68697937
_cell_angle_alpha   130.13078575
_cell_angle_beta   114.42545929
_cell_angle_gamma   86.63714221
_symmetry_Int_Tables_number   1
_chemical_formula_structural   Sm2Al(SiRh2)3
_chemical_formula_sum   'Sm2 Al1 Si3 Rh6'
_cell_volume   198.86958003
_cell_formula_units_Z   1
loop_
 _symmetry_equiv_pos_site_id
 _symmetry_equiv_pos_as_xyz
  1  'x, y, z'
loop_
 _atom_site_type_symbol
 _atom_site_label
 _atom_site_symmetry_multiplicity
 _atom_site_fract_x
 _atom_site_fract_y
 _atom_site_fract_z
 _atom_site_occupancy
  Sm  Sm0  1  0.251054  0.550614  0.299560  1
  Sm  Sm1  1  0.750454  0.468377  0.717922  1
  Al  Al2  1  0.093027  0.892312  0.799285  1
  Si  Si3  1  0.936083  0.131171  0.195088  1
  Si  Si4  1  0.568996  0.766060  0.197064  1
  Si  Si5  1  0.403150  0.198044  0.794894  1
  Rh  Rh6  1  0.713999  0.004773  0.717150  1
  Rh  Rh7  1  0.221628  0.496393  0.725035  1
  Rh  Rh8  1  0.287623  0.004773  0.290773  1
  Rh  Rh9  1  0.771359  0.496393  0.274766  1
  Rh  Rh10  1  0.974144  0.995544  0.467064  1
  Rh  Rh11  1  0.528480  0.995544  0.021401  1
