# generated using pymatgen
data_HoEr12Th3(CdIr)4
_symmetry_space_group_name_H-M   'P 1'
_cell_length_a   9.66689551
_cell_length_b   9.66083869
_cell_length_c   9.66084000
_cell_angle_alpha   60.00000236
_cell_angle_beta   60.02072639
_cell_angle_gamma   60.02072865
_symmetry_Int_Tables_number   1
_chemical_formula_structural   HoEr12Th3(CdIr)4
_chemical_formula_sum   'Ho1 Er12 Th3 Cd4 Ir4'
_cell_volume   638.17200087
_cell_formula_units_Z   1
loop_
 _symmetry_equiv_pos_site_id
 _symmetry_equiv_pos_as_xyz
  1  'x, y, z'
loop_
 _atom_site_type_symbol
 _atom_site_label
 _atom_site_symmetry_multiplicity
 _atom_site_fract_x
 _atom_site_fract_y
 _atom_site_fract_z
 _atom_site_occupancy
  Ho  Ho0  1  0.197306  0.600898  0.600898  1
  Er  Er1  1  0.061722  0.439323  0.439323  1
  Er  Er2  1  0.437507  0.062616  0.062616  1
  Er  Er3  1  0.437507  0.062616  0.437261  1
  Er  Er4  1  0.061722  0.439323  0.059632  1
  Er  Er5  1  0.437507  0.437261  0.062616  1
  Er  Er6  1  0.061722  0.059632  0.439323  1
  Er  Er7  1  0.185757  0.814053  0.814053  1
  Er  Er8  1  0.815778  0.184290  0.184290  1
  Er  Er9  1  0.815778  0.184290  0.815643  1
  Er  Er10  1  0.185757  0.814053  0.186138  1
  Er  Er11  1  0.815778  0.815643  0.184290  1
  Er  Er12  1  0.185757  0.186138  0.814053  1
  Th  Th13  1  0.598149  0.600584  0.600584  1
  Th  Th14  1  0.598149  0.600584  0.200682  1
  Th  Th15  1  0.598149  0.200682  0.600584  1
  Cd  Cd16  1  0.835624  0.831440  0.831440  1
  Cd  Cd17  1  0.835624  0.831440  0.501495  1
  Cd  Cd18  1  0.835624  0.501495  0.831440  1
  Cd  Cd19  1  0.498877  0.833707  0.833707  1
  Ir  Ir20  1  0.392461  0.392005  0.392005  1
  Ir  Ir21  1  0.392461  0.392005  0.823529  1
  Ir  Ir22  1  0.392461  0.823529  0.392005  1
  Ir  Ir23  1  0.822827  0.392391  0.392391  1
