# generated using pymatgen
data_HoPa3(GaNi2)2
_symmetry_space_group_name_H-M   'P 1'
_cell_length_a   7.21339063
_cell_length_b   7.21339045
_cell_length_c   3.55545700
_cell_angle_alpha   90.00000000
_cell_angle_beta   90.00000000
_cell_angle_gamma   91.57031119
_symmetry_Int_Tables_number   1
_chemical_formula_structural   HoPa3(GaNi2)2
_chemical_formula_sum   'Ho1 Pa3 Ga2 Ni4'
_cell_volume   184.93162786
_cell_formula_units_Z   1
loop_
 _symmetry_equiv_pos_site_id
 _symmetry_equiv_pos_as_xyz
  1  'x, y, z'
loop_
 _atom_site_type_symbol
 _atom_site_label
 _atom_site_symmetry_multiplicity
 _atom_site_fract_x
 _atom_site_fract_y
 _atom_site_fract_z
 _atom_site_occupancy
  Ho  Ho0  1  0.820099  0.679901  0.500000  1
  Pa  Pa1  1  0.679391  0.178463  0.500000  1
  Pa  Pa2  1  0.321537  0.820609  0.500000  1
  Pa  Pa3  1  0.176953  0.323047  0.500000  1
  Ga  Ga4  1  0.502526  0.502931  0.000000  1
  Ga  Ga5  1  0.997069  0.997474  0.000000  1
  Ni  Ni6  1  0.883696  0.358607  0.000000  1
  Ni  Ni7  1  0.141393  0.616304  0.000000  1
  Ni  Ni8  1  0.367169  0.132831  0.000000  1
  Ni  Ni9  1  0.610166  0.889834  0.000000  1
