# generated using pymatgen
data_Er2Tm3Ga4P8Ir19
_symmetry_space_group_name_H-M   'P 1'
_cell_length_a   12.89530267
_cell_length_b   12.87586714
_cell_length_c   3.94928800
_cell_angle_alpha   90.00000000
_cell_angle_beta   90.00000000
_cell_angle_gamma   120.04400507
_symmetry_Int_Tables_number   1
_chemical_formula_structural   Er2Tm3Ga4P8Ir19
_chemical_formula_sum   'Er2 Tm3 Ga4 P8 Ir19'
_cell_volume   567.62918474
_cell_formula_units_Z   1
loop_
 _symmetry_equiv_pos_site_id
 _symmetry_equiv_pos_as_xyz
  1  'x, y, z'
loop_
 _atom_site_type_symbol
 _atom_site_label
 _atom_site_symmetry_multiplicity
 _atom_site_fract_x
 _atom_site_fract_y
 _atom_site_fract_z
 _atom_site_occupancy
  Er  Er0  1  0.180196  0.180325  0.000000  1
  Er  Er1  1  0.818533  0.999239  0.000000  1
  Tm  Tm2  1  0.335170  0.669035  0.500000  1
  Tm  Tm3  1  0.665904  0.331739  0.500000  1
  Tm  Tm4  1  0.002606  0.817343  0.000000  1
  Ga  Ga5  1  0.318153  0.834178  0.000000  1
  Ga  Ga6  1  0.356337  0.357360  0.500000  1
  Ga  Ga7  1  0.642014  0.000882  0.500000  1
  Ga  Ga8  1  0.996888  0.638995  0.500000  1
  P  P9  1  0.173534  0.484851  0.000000  1
  P  P10  1  0.520776  0.690253  0.000000  1
  P  P11  1  0.823763  0.306541  0.000000  1
  P  P12  1  0.482594  0.175024  0.000000  1
  P  P13  1  0.691394  0.514688  0.000000  1
  P  P14  1  0.823293  0.819303  0.500000  1
  P  P15  1  0.178019  0.000928  0.500000  1
  P  P16  1  0.000061  0.179499  0.500000  1
  Ir  Ir17  1  0.190376  0.825364  0.500000  1
  Ir  Ir18  1  0.174706  0.381846  0.500000  1
  Ir  Ir19  1  0.626002  0.795419  0.500000  1
  Ir  Ir20  1  0.825541  0.205076  0.500000  1
  Ir  Ir21  1  0.385244  0.178399  0.500000  1
  Ir  Ir22  1  0.791224  0.615287  0.500000  1
  Ir  Ir23  1  0.129045  0.633562  0.000000  1
  Ir  Ir24  1  0.362698  0.497983  0.000000  1
  Ir  Ir25  1  0.521553  0.870638  0.000000  1
  Ir  Ir26  1  0.634103  0.132944  0.000000  1
  Ir  Ir27  1  0.497266  0.365729  0.000000  1
  Ir  Ir28  1  0.865441  0.500434  0.000000  1
  Ir  Ir29  1  0.547554  0.550265  0.500000  1
  Ir  Ir30  1  0.443970  0.993257  0.500000  1
  Ir  Ir31  1  0.997727  0.447440  0.500000  1
  Ir  Ir32  1  0.719951  0.716460  0.000000  1
  Ir  Ir33  1  0.279424  0.007867  0.000000  1
  Ir  Ir34  1  0.000139  0.281447  0.000000  1
  Ir  Ir35  1  0.998803  0.000400  0.500000  1
