# generated using pymatgen
data_ErLu7In3Fe
_symmetry_space_group_name_H-M   'P 1'
_cell_length_a   10.13394300
_cell_length_b   10.13394368
_cell_length_c   6.96487200
_cell_angle_alpha   90.00000000
_cell_angle_beta   90.00000000
_cell_angle_gamma   120.00000757
_symmetry_Int_Tables_number   1
_chemical_formula_structural   ErLu7In3Fe
_chemical_formula_sum   'Er2 Lu14 In6 Fe2'
_cell_volume   619.44204727
_cell_formula_units_Z   2
loop_
 _symmetry_equiv_pos_site_id
 _symmetry_equiv_pos_as_xyz
  1  'x, y, z'
loop_
 _atom_site_type_symbol
 _atom_site_label
 _atom_site_symmetry_multiplicity
 _atom_site_fract_x
 _atom_site_fract_y
 _atom_site_fract_z
 _atom_site_occupancy
  Er  Er0  1  0.000000  0.000000  0.496152  1
  Er  Er1  1  0.000000  0.000000  0.996152  1
  Lu  Lu2  1  0.464679  0.535321  0.481764  1
  Lu  Lu3  1  0.070642  0.535321  0.481764  1
  Lu  Lu4  1  0.464679  0.929358  0.481764  1
  Lu  Lu5  1  0.535321  0.464679  0.981764  1
  Lu  Lu6  1  0.929358  0.464679  0.981764  1
  Lu  Lu7  1  0.535321  0.070642  0.981764  1
  Lu  Lu8  1  0.819612  0.180388  0.278101  1
  Lu  Lu9  1  0.360774  0.180388  0.278101  1
  Lu  Lu10  1  0.819612  0.639226  0.278101  1
  Lu  Lu11  1  0.180388  0.819612  0.778101  1
  Lu  Lu12  1  0.639226  0.819612  0.778101  1
  Lu  Lu13  1  0.180388  0.360774  0.778101  1
  Lu  Lu14  1  0.333333  0.666667  0.090441  1
  Lu  Lu15  1  0.666667  0.333333  0.590441  1
  In  In16  1  0.163656  0.836344  0.233412  1
  In  In17  1  0.672686  0.836344  0.233412  1
  In  In18  1  0.163656  0.327314  0.233412  1
  In  In19  1  0.836344  0.163656  0.733412  1
  In  In20  1  0.327314  0.163656  0.733412  1
  In  In21  1  0.836344  0.672686  0.733412  1
  Fe  Fe22  1  0.333333  0.666667  0.705852  1
  Fe  Fe23  1  0.666667  0.333333  0.205852  1
