# generated using pymatgen
data_Dy3Tm2Sc(AlAu)6
_symmetry_space_group_name_H-M   'P 1'
_cell_length_a   7.34311402
_cell_length_b   7.34138277
_cell_length_c   7.91429900
_cell_angle_alpha   90.00000000
_cell_angle_beta   90.00000000
_cell_angle_gamma   119.97537090
_symmetry_Int_Tables_number   1
_chemical_formula_structural   Dy3Tm2Sc(AlAu)6
_chemical_formula_sum   'Dy3 Tm2 Sc1 Al6 Au6'
_cell_volume   369.58042014
_cell_formula_units_Z   1
loop_
 _symmetry_equiv_pos_site_id
 _symmetry_equiv_pos_as_xyz
  1  'x, y, z'
loop_
 _atom_site_type_symbol
 _atom_site_label
 _atom_site_symmetry_multiplicity
 _atom_site_fract_x
 _atom_site_fract_y
 _atom_site_fract_z
 _atom_site_occupancy
  Dy  Dy0  1  0.584996  0.997445  0.750000  1
  Dy  Dy1  1  0.002549  0.587536  0.750000  1
  Dy  Dy2  1  0.413002  0.415687  0.750000  1
  Tm  Tm3  1  0.996722  0.587915  0.250000  1
  Tm  Tm4  1  0.590835  0.002956  0.250000  1
  Sc  Sc5  1  0.408201  0.405223  0.250000  1
  Al  Al6  1  0.749880  0.750257  0.006374  1
  Al  Al7  1  0.249306  0.002198  0.003306  1
  Al  Al8  1  0.002416  0.249362  0.003284  1
  Al  Al9  1  0.749880  0.750257  0.493626  1
  Al  Al10  1  0.249306  0.002198  0.496694  1
  Al  Al11  1  0.002416  0.249362  0.496716  1
  Au  Au12  1  0.999143  0.999138  0.750000  1
  Au  Au13  1  0.004200  0.004178  0.250000  1
  Au  Au14  1  0.663817  0.334679  0.006756  1
  Au  Au15  1  0.663817  0.334679  0.493244  1
  Au  Au16  1  0.334758  0.663465  0.485816  1
  Au  Au17  1  0.334758  0.663465  0.014184  1
