# generated using pymatgen
data_Nd7Ho9Cd4Os3Pt
_symmetry_space_group_name_H-M   'P 1'
_cell_length_a   9.75190366
_cell_length_b   9.83831831
_cell_length_c   9.82263502
_cell_angle_alpha   59.65484385
_cell_angle_beta   59.40907434
_cell_angle_gamma   59.55036198
_symmetry_Int_Tables_number   1
_chemical_formula_structural   Nd7Ho9Cd4Os3Pt
_chemical_formula_sum   'Nd7 Ho9 Cd4 Os3 Pt1'
_cell_volume   659.37712075
_cell_formula_units_Z   1
loop_
 _symmetry_equiv_pos_site_id
 _symmetry_equiv_pos_as_xyz
  1  'x, y, z'
loop_
 _atom_site_type_symbol
 _atom_site_label
 _atom_site_symmetry_multiplicity
 _atom_site_fract_x
 _atom_site_fract_y
 _atom_site_fract_z
 _atom_site_occupancy
  Nd  Nd0  1  0.817313  0.805983  0.186754  1
  Nd  Nd1  1  0.938622  0.557116  0.560227  1
  Nd  Nd2  1  0.551023  0.943973  0.941607  1
  Nd  Nd3  1  0.553515  0.940434  0.565301  1
  Nd  Nd4  1  0.943679  0.553028  0.942935  1
  Nd  Nd5  1  0.553060  0.564284  0.940462  1
  Nd  Nd6  1  0.942169  0.943460  0.556623  1
  Ho  Ho7  1  0.343278  0.348372  0.350111  1
  Ho  Ho8  1  0.345429  0.349575  0.958997  1
  Ho  Ho9  1  0.343610  0.962448  0.349288  1
  Ho  Ho10  1  0.969629  0.342160  0.345787  1
  Ho  Ho11  1  0.815646  0.189587  0.187440  1
  Ho  Ho12  1  0.187281  0.812316  0.810459  1
  Ho  Ho13  1  0.188491  0.812279  0.187469  1
  Ho  Ho14  1  0.815379  0.189936  0.805439  1
  Ho  Ho15  1  0.185391  0.186483  0.813252  1
  Cd  Cd16  1  0.577968  0.577582  0.579295  1
  Cd  Cd17  1  0.578402  0.577984  0.261748  1
  Cd  Cd18  1  0.578511  0.261573  0.579072  1
  Cd  Cd19  1  0.259856  0.579772  0.579149  1
  Os  Os20  1  0.143716  0.138763  0.139532  1
  Os  Os21  1  0.143896  0.137980  0.580407  1
  Os  Os22  1  0.148760  0.577563  0.138194  1
  Pt  Pt23  1  0.575380  0.147351  0.140455  1
