# generated using pymatgen
data_CeSmEr4Ta2O14
_symmetry_space_group_name_H-M   'P 1'
_cell_length_a   6.46750202
_cell_length_b   6.46750137
_cell_length_c   7.54967905
_cell_angle_alpha   89.98921637
_cell_angle_beta   90.01078486
_cell_angle_gamma   109.10328798
_symmetry_Int_Tables_number   1
_chemical_formula_structural   CeSmEr4Ta2O14
_chemical_formula_sum   'Ce1 Sm1 Er4 Ta2 O14'
_cell_volume   298.40169021
_cell_formula_units_Z   1
loop_
 _symmetry_equiv_pos_site_id
 _symmetry_equiv_pos_as_xyz
  1  'x, y, z'
loop_
 _atom_site_type_symbol
 _atom_site_label
 _atom_site_symmetry_multiplicity
 _atom_site_fract_x
 _atom_site_fract_y
 _atom_site_fract_z
 _atom_site_occupancy
  Ce  Ce0  1  0.500000  0.500000  0.500000  1
  Sm  Sm1  1  0.500000  0.500000  0.000000  1
  Er  Er2  1  0.533423  0.001391  0.750773  1
  Er  Er3  1  0.001391  0.533423  0.249227  1
  Er  Er4  1  0.466577  0.998609  0.249227  1
  Er  Er5  1  0.998609  0.466577  0.750773  1
  Ta  Ta6  1  0.000000  0.000000  0.500000  1
  Ta  Ta7  1  0.000000  0.000000  0.000000  1
  O  O8  1  0.679013  0.932821  0.466412  1
  O  O9  1  0.932821  0.679013  0.533588  1
  O  O10  1  0.678675  0.930153  0.033139  1
  O  O11  1  0.930153  0.678675  0.966861  1
  O  O12  1  0.320987  0.067179  0.533588  1
  O  O13  1  0.067179  0.320987  0.466412  1
  O  O14  1  0.321325  0.069847  0.966861  1
  O  O15  1  0.069847  0.321325  0.033139  1
  O  O16  1  0.933438  0.066562  0.750168  1
  O  O17  1  0.066562  0.933438  0.249832  1
  O  O18  1  0.363778  0.636221  0.752861  1
  O  O19  1  0.636221  0.363778  0.247139  1
  O  O20  1  0.643225  0.356775  0.752381  1
  O  O21  1  0.356775  0.643225  0.247619  1
