# generated using pymatgen
data_Dy3Cd3CuHg2
_symmetry_space_group_name_H-M   'P 1'
_cell_length_a   7.66175400
_cell_length_b   7.66175348
_cell_length_c   4.16109100
_cell_angle_alpha   90.00000000
_cell_angle_beta   90.00000000
_cell_angle_gamma   120.00000225
_symmetry_Int_Tables_number   1
_chemical_formula_structural   Dy3Cd3CuHg2
_chemical_formula_sum   'Dy3 Cd3 Cu1 Hg2'
_cell_volume   211.54083458
_cell_formula_units_Z   1
loop_
 _symmetry_equiv_pos_site_id
 _symmetry_equiv_pos_as_xyz
  1  'x, y, z'
loop_
 _atom_site_type_symbol
 _atom_site_label
 _atom_site_symmetry_multiplicity
 _atom_site_fract_x
 _atom_site_fract_y
 _atom_site_fract_z
 _atom_site_occupancy
  Dy  Dy0  1  0.000000  0.398748  0.500000  1
  Dy  Dy1  1  0.601252  0.601252  0.500000  1
  Dy  Dy2  1  0.398748  0.000000  0.500000  1
  Cd  Cd3  1  0.000000  0.762066  0.000000  1
  Cd  Cd4  1  0.237934  0.237934  0.000000  1
  Cd  Cd5  1  0.762066  0.000000  0.000000  1
  Cu  Cu6  1  0.000000  0.000000  0.500000  1
  Hg  Hg7  1  0.333333  0.666667  0.000000  1
  Hg  Hg8  1  0.666667  0.333333  0.000000  1
