# generated using pymatgen
data_LiB2Ir2Pd
_symmetry_space_group_name_H-M   'P 1'
_cell_length_a   6.84439428
_cell_length_b   6.05707690
_cell_length_c   5.50722558
_cell_angle_alpha   72.40066945
_cell_angle_beta   57.51660910
_cell_angle_gamma   51.76005623
_symmetry_Int_Tables_number   1
_chemical_formula_structural   LiB2Ir2Pd
_chemical_formula_sum   'Li2 B4 Ir4 Pd2'
_cell_volume   151.11169679
_cell_formula_units_Z   2
loop_
 _symmetry_equiv_pos_site_id
 _symmetry_equiv_pos_as_xyz
  1  'x, y, z'
loop_
 _atom_site_type_symbol
 _atom_site_label
 _atom_site_symmetry_multiplicity
 _atom_site_fract_x
 _atom_site_fract_y
 _atom_site_fract_z
 _atom_site_occupancy
  Li  Li0  1  0.937151  0.761079  0.406765  1
  Li  Li1  1  0.488921  0.312849  0.354996  1
  B  B2  1  0.049420  0.978904  0.574895  1
  B  B3  1  0.677619  0.817203  0.171717  1
  B  B4  1  0.432797  0.572381  0.916540  1
  B  B5  1  0.271096  0.200580  0.853219  1
  Ir  Ir6  1  0.104404  0.634478  0.869520  1
  Ir  Ir7  1  0.357833  0.865137  0.139927  1
  Ir  Ir8  1  0.615522  0.145596  0.858402  1
  Ir  Ir9  1  0.384863  0.892167  0.612897  1
  Pd  Pd10  1  0.863541  0.377965  0.347209  1
  Pd  Pd11  1  0.872035  0.386459  0.838713  1
