# generated using pymatgen
data_Dy20(TcPt3)3
_symmetry_space_group_name_H-M   'P 1'
_cell_length_a   11.03997700
_cell_length_b   11.03997700
_cell_length_c   6.39431100
_cell_angle_alpha   90.00000000
_cell_angle_beta   90.00000000
_cell_angle_gamma   90.00000000
_symmetry_Int_Tables_number   1
_chemical_formula_structural   Dy20(TcPt3)3
_chemical_formula_sum   'Dy20 Tc3 Pt9'
_cell_volume   779.34560829
_cell_formula_units_Z   1
loop_
 _symmetry_equiv_pos_site_id
 _symmetry_equiv_pos_as_xyz
  1  'x, y, z'
loop_
 _atom_site_type_symbol
 _atom_site_label
 _atom_site_symmetry_multiplicity
 _atom_site_fract_x
 _atom_site_fract_y
 _atom_site_fract_z
 _atom_site_occupancy
  Dy  Dy0  1  0.297517  0.085629  0.372062  1
  Dy  Dy1  1  0.298038  0.915197  0.872395  1
  Dy  Dy2  1  0.701962  0.084803  0.872395  1
  Dy  Dy3  1  0.702483  0.914371  0.372062  1
  Dy  Dy4  1  0.584803  0.798038  0.872395  1
  Dy  Dy5  1  0.585629  0.202483  0.372062  1
  Dy  Dy6  1  0.414371  0.797517  0.372062  1
  Dy  Dy7  1  0.415197  0.201962  0.872395  1
  Dy  Dy8  1  0.206901  0.411148  0.634143  1
  Dy  Dy9  1  0.204844  0.587936  0.122966  1
  Dy  Dy10  1  0.795156  0.412064  0.122966  1
  Dy  Dy11  1  0.793099  0.588852  0.634143  1
  Dy  Dy12  1  0.912064  0.704844  0.122966  1
  Dy  Dy13  1  0.911148  0.293099  0.634143  1
  Dy  Dy14  1  0.088852  0.706901  0.634143  1
  Dy  Dy15  1  0.087936  0.295156  0.122966  1
  Dy  Dy16  1  0.000000  0.000000  0.497847  1
  Dy  Dy17  1  0.000000  0.000000  0.997365  1
  Dy  Dy18  1  0.500000  0.500000  0.997365  1
  Dy  Dy19  1  0.500000  0.500000  0.497847  1
  Tc  Tc20  1  0.500000  0.000000  0.129156  1
  Tc  Tc21  1  0.500000  0.000000  0.627549  1
  Tc  Tc22  1  0.000000  0.500000  0.869349  1
  Pt  Pt23  1  0.848904  0.154622  0.249336  1
  Pt  Pt24  1  0.847766  0.846451  0.749733  1
  Pt  Pt25  1  0.152234  0.153549  0.749733  1
  Pt  Pt26  1  0.151096  0.845378  0.249336  1
  Pt  Pt27  1  0.653549  0.347766  0.749733  1
  Pt  Pt28  1  0.654622  0.651096  0.249336  1
  Pt  Pt29  1  0.345378  0.348904  0.249336  1
  Pt  Pt30  1  0.346451  0.652234  0.749733  1
  Pt  Pt31  1  0.000000  0.500000  0.380984  1
