# generated using pymatgen
data_Tb4Al4Ni3Ru
_symmetry_space_group_name_H-M   'P 1'
_cell_length_a   4.19432400
_cell_length_b   6.78430007
_cell_length_c   7.80810679
_cell_angle_alpha   89.85644667
_cell_angle_beta   90.00000000
_cell_angle_gamma   90.00000000
_symmetry_Int_Tables_number   1
_chemical_formula_structural   Tb4Al4Ni3Ru
_chemical_formula_sum   'Tb4 Al4 Ni3 Ru1'
_cell_volume   222.18329616
_cell_formula_units_Z   1
loop_
 _symmetry_equiv_pos_site_id
 _symmetry_equiv_pos_as_xyz
  1  'x, y, z'
loop_
 _atom_site_type_symbol
 _atom_site_label
 _atom_site_symmetry_multiplicity
 _atom_site_fract_x
 _atom_site_fract_y
 _atom_site_fract_z
 _atom_site_occupancy
  Tb  Tb0  1  0.250000  0.032639  0.679971  1
  Tb  Tb1  1  0.250000  0.534591  0.821066  1
  Tb  Tb2  1  0.750000  0.966730  0.322905  1
  Tb  Tb3  1  0.750000  0.464960  0.176784  1
  Al  Al4  1  0.250000  0.139231  0.054681  1
  Al  Al5  1  0.250000  0.639876  0.440650  1
  Al  Al6  1  0.750000  0.862701  0.941401  1
  Al  Al7  1  0.750000  0.362711  0.561847  1
  Ni  Ni8  1  0.250000  0.777958  0.120731  1
  Ni  Ni9  1  0.750000  0.726960  0.627418  1
  Ni  Ni10  1  0.750000  0.227591  0.875012  1
  Ru  Ru11  1  0.250000  0.264052  0.377533  1
