# generated using pymatgen
data_Li3Er4Co15(ReP6)2
_symmetry_space_group_name_H-M   'P 1'
_cell_length_a   3.68737500
_cell_length_b   10.31699183
_cell_length_c   11.87359971
_cell_angle_alpha   89.62214268
_cell_angle_beta   90.00000000
_cell_angle_gamma   90.00000000
_symmetry_Int_Tables_number   1
_chemical_formula_structural   Li3Er4Co15(ReP6)2
_chemical_formula_sum   'Li3 Er4 Co15 Re2 P12'
_cell_volume   451.69299209
_cell_formula_units_Z   1
loop_
 _symmetry_equiv_pos_site_id
 _symmetry_equiv_pos_as_xyz
  1  'x, y, z'
loop_
 _atom_site_type_symbol
 _atom_site_label
 _atom_site_symmetry_multiplicity
 _atom_site_fract_x
 _atom_site_fract_y
 _atom_site_fract_z
 _atom_site_occupancy
  Li  Li0  1  0.750000  0.295958  0.010663  1
  Li  Li1  1  0.750000  0.202806  0.511077  1
  Li  Li2  1  0.250000  0.404593  0.493470  1
  Er  Er3  1  0.250000  0.585453  0.707890  1
  Er  Er4  1  0.250000  0.918247  0.203332  1
  Er  Er5  1  0.750000  0.416112  0.290589  1
  Er  Er6  1  0.750000  0.084243  0.794217  1
  Co  Co7  1  0.250000  0.089400  0.985499  1
  Co  Co8  1  0.750000  0.590833  0.507109  1
  Co  Co9  1  0.750000  0.904516  0.010376  1
  Co  Co10  1  0.250000  0.215338  0.169336  1
  Co  Co11  1  0.250000  0.288401  0.678224  1
  Co  Co12  1  0.750000  0.776283  0.822002  1
  Co  Co13  1  0.750000  0.725448  0.322828  1
  Co  Co14  1  0.250000  0.886961  0.701921  1
  Co  Co15  1  0.250000  0.614017  0.201377  1
  Co  Co16  1  0.750000  0.113978  0.297818  1
  Co  Co17  1  0.750000  0.381575  0.807425  1
  Co  Co18  1  0.250000  0.464792  0.934724  1
  Co  Co19  1  0.250000  0.035860  0.434235  1
  Co  Co20  1  0.750000  0.535425  0.070451  1
  Co  Co21  1  0.750000  0.966460  0.569480  1
  Re  Re22  1  0.250000  0.709712  0.990066  1
  Re  Re23  1  0.250000  0.791783  0.491539  1
  P  P24  1  0.250000  0.417032  0.113969  1
  P  P25  1  0.250000  0.086071  0.615642  1
  P  P26  1  0.750000  0.577631  0.888470  1
  P  P27  1  0.750000  0.923684  0.387435  1
  P  P28  1  0.250000  0.268348  0.867459  1
  P  P29  1  0.250000  0.223033  0.351206  1
  P  P30  1  0.750000  0.732368  0.133087  1
  P  P31  1  0.750000  0.768673  0.632885  1
  P  P32  1  0.250000  0.601588  0.388917  1
  P  P33  1  0.250000  0.904387  0.889882  1
  P  P34  1  0.750000  0.401009  0.621588  1
  P  P35  1  0.750000  0.097982  0.103812  1
