# generated using pymatgen
data_Th2Ga12Rh
_symmetry_space_group_name_H-M   'P 1'
_cell_length_a   6.11280500
_cell_length_b   6.11280500
_cell_length_c   15.63957000
_cell_angle_alpha   90.00000000
_cell_angle_beta   90.00000000
_cell_angle_gamma   90.00000000
_symmetry_Int_Tables_number   1
_chemical_formula_structural   Th2Ga12Rh
_chemical_formula_sum   'Th4 Ga24 Rh2'
_cell_volume   584.39419335
_cell_formula_units_Z   2
loop_
 _symmetry_equiv_pos_site_id
 _symmetry_equiv_pos_as_xyz
  1  'x, y, z'
loop_
 _atom_site_type_symbol
 _atom_site_label
 _atom_site_symmetry_multiplicity
 _atom_site_fract_x
 _atom_site_fract_y
 _atom_site_fract_z
 _atom_site_occupancy
  Th  Th0  1  0.500000  0.000000  0.244042  1
  Th  Th1  1  0.000000  0.500000  0.244042  1
  Th  Th2  1  0.000000  0.500000  0.755958  1
  Th  Th3  1  0.500000  0.000000  0.755958  1
  Ga  Ga4  1  0.500000  0.500000  0.812910  1
  Ga  Ga5  1  0.000000  0.000000  0.812910  1
  Ga  Ga6  1  0.750380  0.749620  0.912770  1
  Ga  Ga7  1  0.250380  0.750380  0.912770  1
  Ga  Ga8  1  0.000000  0.000000  0.343833  1
  Ga  Ga9  1  0.249620  0.749620  0.087230  1
  Ga  Ga10  1  0.829275  0.329275  0.570097  1
  Ga  Ga11  1  0.500000  0.500000  0.343833  1
  Ga  Ga12  1  0.249620  0.250380  0.912770  1
  Ga  Ga13  1  0.749620  0.750380  0.087230  1
  Ga  Ga14  1  0.329275  0.170725  0.570097  1
  Ga  Ga15  1  0.670725  0.170725  0.429903  1
  Ga  Ga16  1  0.000000  0.000000  0.656167  1
  Ga  Ga17  1  0.170725  0.329275  0.429903  1
  Ga  Ga18  1  0.250380  0.249620  0.087230  1
  Ga  Ga19  1  0.829275  0.670725  0.429903  1
  Ga  Ga20  1  0.670725  0.829275  0.570097  1
  Ga  Ga21  1  0.000000  0.000000  0.187090  1
  Ga  Ga22  1  0.170725  0.670725  0.570097  1
  Ga  Ga23  1  0.500000  0.500000  0.656167  1
  Ga  Ga24  1  0.749620  0.249620  0.912770  1
  Ga  Ga25  1  0.500000  0.500000  0.187090  1
  Ga  Ga26  1  0.329275  0.829275  0.429903  1
  Ga  Ga27  1  0.750380  0.250380  0.087230  1
  Rh  Rh28  1  0.500000  0.000000  0.000000  1
  Rh  Rh29  1  0.000000  0.500000  0.000000  1
