# generated using pymatgen
data_Dy3Lu5Cd2NiRu
_symmetry_space_group_name_H-M   'P 1'
_cell_length_a   9.45720228
_cell_length_b   9.45720183
_cell_length_c   9.52612800
_cell_angle_alpha   59.75861333
_cell_angle_beta   59.75861491
_cell_angle_gamma   59.52524403
_symmetry_Int_Tables_number   1
_chemical_formula_structural   Dy3Lu5Cd2NiRu
_chemical_formula_sum   'Dy6 Lu10 Cd4 Ni2 Ru2'
_cell_volume   598.08293236
_cell_formula_units_Z   2
loop_
 _symmetry_equiv_pos_site_id
 _symmetry_equiv_pos_as_xyz
  1  'x, y, z'
loop_
 _atom_site_type_symbol
 _atom_site_label
 _atom_site_symmetry_multiplicity
 _atom_site_fract_x
 _atom_site_fract_y
 _atom_site_fract_z
 _atom_site_occupancy
  Dy  Dy0  1  0.189398  0.807565  0.814557  1
  Dy  Dy1  1  0.807565  0.189398  0.188479  1
  Dy  Dy2  1  0.807565  0.189398  0.814557  1
  Dy  Dy3  1  0.189398  0.807565  0.188479  1
  Dy  Dy4  1  0.813142  0.813142  0.186858  1
  Dy  Dy5  1  0.191742  0.191742  0.808258  1
  Lu  Lu6  1  0.598987  0.598987  0.593069  1
  Lu  Lu7  1  0.598987  0.598987  0.208958  1
  Lu  Lu8  1  0.601722  0.207146  0.595566  1
  Lu  Lu9  1  0.207146  0.601722  0.595566  1
  Lu  Lu10  1  0.063057  0.434908  0.437663  1
  Lu  Lu11  1  0.434908  0.063057  0.064371  1
  Lu  Lu12  1  0.434908  0.063057  0.437663  1
  Lu  Lu13  1  0.063057  0.434908  0.064371  1
  Lu  Lu14  1  0.436284  0.436284  0.063716  1
  Lu  Lu15  1  0.062396  0.062396  0.437604  1
  Cd  Cd16  1  0.829431  0.829431  0.831614  1
  Cd  Cd17  1  0.829431  0.829431  0.509524  1
  Cd  Cd18  1  0.829896  0.507412  0.831346  1
  Cd  Cd19  1  0.507412  0.829896  0.831346  1
  Ni  Ni20  1  0.392837  0.824852  0.391155  1
  Ni  Ni21  1  0.824852  0.392837  0.391155  1
  Ru  Ru22  1  0.392939  0.392939  0.390858  1
  Ru  Ru23  1  0.392939  0.392939  0.823264  1
