# generated using pymatgen
data_Nd2Ho(Ni3P2)3
_symmetry_space_group_name_H-M   'P 1'
_cell_length_a   3.83754500
_cell_length_b   10.51638200
_cell_length_c   12.41549000
_cell_angle_alpha   90.00000000
_cell_angle_beta   90.00000000
_cell_angle_gamma   90.00000000
_symmetry_Int_Tables_number   1
_chemical_formula_structural   Nd2Ho(Ni3P2)3
_chemical_formula_sum   'Nd4 Ho2 Ni18 P12'
_cell_volume   501.05303692
_cell_formula_units_Z   2
loop_
 _symmetry_equiv_pos_site_id
 _symmetry_equiv_pos_as_xyz
  1  'x, y, z'
loop_
 _atom_site_type_symbol
 _atom_site_label
 _atom_site_symmetry_multiplicity
 _atom_site_fract_x
 _atom_site_fract_y
 _atom_site_fract_z
 _atom_site_occupancy
  Nd  Nd0  1  0.000000  0.500000  0.517335  1
  Nd  Nd1  1  0.500000  0.000000  0.480045  1
  Nd  Nd2  1  0.000000  0.686228  0.795347  1
  Nd  Nd3  1  0.000000  0.313772  0.795347  1
  Ho  Ho4  1  0.500000  0.815739  0.205383  1
  Ho  Ho5  1  0.500000  0.184261  0.205383  1
  Ni  Ni6  1  0.500000  0.500000  0.155886  1
  Ni  Ni7  1  0.000000  0.000000  0.845769  1
  Ni  Ni8  1  0.500000  0.500000  0.699719  1
  Ni  Ni9  1  0.000000  0.000000  0.299342  1
  Ni  Ni10  1  0.000000  0.500000  0.985726  1
  Ni  Ni11  1  0.500000  0.000000  0.021820  1
  Ni  Ni12  1  0.500000  0.331128  0.998518  1
  Ni  Ni13  1  0.500000  0.668872  0.998518  1
  Ni  Ni14  1  0.000000  0.164527  0.006790  1
  Ni  Ni15  1  0.000000  0.835473  0.006790  1
  Ni  Ni16  1  0.500000  0.300656  0.422630  1
  Ni  Ni17  1  0.500000  0.699344  0.422630  1
  Ni  Ni18  1  0.000000  0.198765  0.571919  1
  Ni  Ni19  1  0.000000  0.801235  0.571919  1
  Ni  Ni20  1  0.500000  0.881967  0.712872  1
  Ni  Ni21  1  0.500000  0.118033  0.712872  1
  Ni  Ni22  1  0.000000  0.620788  0.284465  1
  Ni  Ni23  1  0.000000  0.379212  0.284465  1
  P  P24  1  0.500000  0.500000  0.879988  1
  P  P25  1  0.000000  0.000000  0.125538  1
  P  P26  1  0.500000  0.500000  0.336755  1
  P  P27  1  0.000000  0.000000  0.662165  1
  P  P28  1  0.500000  0.308608  0.611027  1
  P  P29  1  0.500000  0.691392  0.611027  1
  P  P30  1  0.000000  0.190190  0.383576  1
  P  P31  1  0.000000  0.809810  0.383576  1
  P  P32  1  0.500000  0.851782  0.897137  1
  P  P33  1  0.500000  0.148218  0.897137  1
  P  P34  1  0.000000  0.654037  0.105293  1
  P  P35  1  0.000000  0.345963  0.105293  1
