# generated using pymatgen
data_Y2Co5As6Ru5
_symmetry_space_group_name_H-M   'P 1'
_cell_length_a   3.88422200
_cell_length_b   10.98010800
_cell_length_c   12.42714000
_cell_angle_alpha   90.00000000
_cell_angle_beta   90.00000000
_cell_angle_gamma   90.00000000
_symmetry_Int_Tables_number   1
_chemical_formula_structural   Y2Co5As6Ru5
_chemical_formula_sum   'Y4 Co10 As12 Ru10'
_cell_volume   530.00729416
_cell_formula_units_Z   2
loop_
 _symmetry_equiv_pos_site_id
 _symmetry_equiv_pos_as_xyz
  1  'x, y, z'
loop_
 _atom_site_type_symbol
 _atom_site_label
 _atom_site_symmetry_multiplicity
 _atom_site_fract_x
 _atom_site_fract_y
 _atom_site_fract_z
 _atom_site_occupancy
  Y  Y0  1  0.250000  0.585465  0.705458  1
  Y  Y1  1  0.250000  0.914535  0.205458  1
  Y  Y2  1  0.750000  0.415055  0.295613  1
  Y  Y3  1  0.750000  0.084945  0.795613  1
  Co  Co4  1  0.750000  0.779089  0.821687  1
  Co  Co5  1  0.750000  0.720911  0.321687  1
  Co  Co6  1  0.250000  0.880485  0.696092  1
  Co  Co7  1  0.250000  0.619515  0.196092  1
  Co  Co8  1  0.750000  0.110618  0.304487  1
  Co  Co9  1  0.750000  0.389382  0.804487  1
  Co  Co10  1  0.250000  0.466847  0.933481  1
  Co  Co11  1  0.250000  0.033153  0.433481  1
  Co  Co12  1  0.750000  0.535829  0.067154  1
  Co  Co13  1  0.750000  0.964171  0.567154  1
  As  As14  1  0.250000  0.424689  0.113936  1
  As  As15  1  0.250000  0.075311  0.613936  1
  As  As16  1  0.750000  0.581170  0.886026  1
  As  As17  1  0.750000  0.918830  0.386026  1
  As  As18  1  0.250000  0.272108  0.872462  1
  As  As19  1  0.250000  0.227892  0.372462  1
  As  As20  1  0.750000  0.728109  0.133446  1
  As  As21  1  0.750000  0.771891  0.633446  1
  As  As22  1  0.250000  0.602113  0.382994  1
  As  As23  1  0.250000  0.897887  0.882994  1
  As  As24  1  0.750000  0.402915  0.613716  1
  As  As25  1  0.750000  0.097085  0.113716  1
  Ru  Ru26  1  0.250000  0.705587  0.984026  1
  Ru  Ru27  1  0.250000  0.794413  0.484026  1
  Ru  Ru28  1  0.750000  0.293821  0.012300  1
  Ru  Ru29  1  0.750000  0.206179  0.512300  1
  Ru  Ru30  1  0.250000  0.408291  0.485804  1
  Ru  Ru31  1  0.250000  0.091709  0.985804  1
  Ru  Ru32  1  0.750000  0.598470  0.512128  1
  Ru  Ru33  1  0.750000  0.901530  0.012128  1
  Ru  Ru34  1  0.250000  0.220448  0.179190  1
  Ru  Ru35  1  0.250000  0.279552  0.679190  1
