# generated using pymatgen
data_TmNp3(ReB6)2
_symmetry_space_group_name_H-M   'P 1'
_cell_length_a   3.61510000
_cell_length_b   9.26378242
_cell_length_c   11.33050473
_cell_angle_alpha   89.93659067
_cell_angle_beta   90.00000000
_cell_angle_gamma   90.00000000
_symmetry_Int_Tables_number   1
_chemical_formula_structural   TmNp3(ReB6)2
_chemical_formula_sum   'Tm2 Np6 Re4 B24'
_cell_volume   379.45270390
_cell_formula_units_Z   2
loop_
 _symmetry_equiv_pos_site_id
 _symmetry_equiv_pos_as_xyz
  1  'x, y, z'
loop_
 _atom_site_type_symbol
 _atom_site_label
 _atom_site_symmetry_multiplicity
 _atom_site_fract_x
 _atom_site_fract_y
 _atom_site_fract_z
 _atom_site_occupancy
  Tm  Tm0  1  0.000000  0.337792  0.407608  1
  Tm  Tm1  1  0.000000  0.662208  0.592392  1
  Np  Np2  1  0.000000  0.837100  0.093866  1
  Np  Np3  1  0.000000  0.162900  0.906134  1
  Np  Np4  1  0.000000  0.958935  0.400502  1
  Np  Np5  1  0.000000  0.041065  0.599498  1
  Np  Np6  1  0.000000  0.459017  0.099312  1
  Np  Np7  1  0.000000  0.540983  0.900688  1
  Re  Re8  1  0.000000  0.647452  0.317496  1
  Re  Re9  1  0.000000  0.352548  0.682504  1
  Re  Re10  1  0.000000  0.144975  0.180124  1
  Re  Re11  1  0.000000  0.855025  0.819876  1
  B  B12  1  0.500000  0.551493  0.431618  1
  B  B13  1  0.500000  0.448507  0.568382  1
  B  B14  1  0.500000  0.051916  0.068262  1
  B  B15  1  0.500000  0.948084  0.931738  1
  B  B16  1  0.500000  0.743143  0.423994  1
  B  B17  1  0.500000  0.256857  0.576006  1
  B  B18  1  0.500000  0.243824  0.076460  1
  B  B19  1  0.500000  0.756176  0.923540  1
  B  B20  1  0.500000  0.804783  0.274662  1
  B  B21  1  0.500000  0.195217  0.725338  1
  B  B22  1  0.500000  0.304565  0.225472  1
  B  B23  1  0.500000  0.695435  0.774528  1
  B  B24  1  0.500000  0.644706  0.188471  1
  B  B25  1  0.500000  0.355294  0.811529  1
  B  B26  1  0.500000  0.145363  0.312234  1
  B  B27  1  0.500000  0.854637  0.687766  1
  B  B28  1  0.500000  0.987974  0.220850  1
  B  B29  1  0.500000  0.012026  0.779150  1
  B  B30  1  0.500000  0.487777  0.280270  1
  B  B31  1  0.500000  0.512223  0.719730  1
  B  B32  1  0.500000  0.641993  0.039468  1
  B  B33  1  0.500000  0.358007  0.960532  1
  B  B34  1  0.500000  0.141113  0.461023  1
  B  B35  1  0.500000  0.858887  0.538977  1
