# generated using pymatgen
data_Eu3Zr(Sn2O7)2
_symmetry_space_group_name_H-M   'P 1'
_cell_length_a   7.45619450
_cell_length_b   7.49630443
_cell_length_c   7.45619500
_cell_angle_alpha   60.17684226
_cell_angle_beta   60.00000223
_cell_angle_gamma   60.17683390
_symmetry_Int_Tables_number   1
_chemical_formula_structural   Eu3Zr(Sn2O7)2
_chemical_formula_sum   'Eu3 Zr1 Sn4 O14'
_cell_volume   295.47611694
_cell_formula_units_Z   1
loop_
 _symmetry_equiv_pos_site_id
 _symmetry_equiv_pos_as_xyz
  1  'x, y, z'
loop_
 _atom_site_type_symbol
 _atom_site_label
 _atom_site_symmetry_multiplicity
 _atom_site_fract_x
 _atom_site_fract_y
 _atom_site_fract_z
 _atom_site_occupancy
  Eu  Eu0  1  0.125000  0.125000  0.125000  1
  Eu  Eu1  1  0.625000  0.125000  0.125000  1
  Eu  Eu2  1  0.125000  0.125000  0.625000  1
  Zr  Zr3  1  0.125000  0.625000  0.125000  1
  Sn  Sn4  1  0.625000  0.625000  0.625000  1
  Sn  Sn5  1  0.125000  0.625000  0.625000  1
  Sn  Sn6  1  0.625000  0.125000  0.625000  1
  Sn  Sn7  1  0.625000  0.625000  0.125000  1
  O  O8  1  0.963565  0.548874  0.963565  1
  O  O9  1  0.710821  0.291091  0.287268  1
  O  O10  1  0.286435  0.701126  0.726005  1
  O  O11  1  0.710821  0.291091  0.710821  1
  O  O12  1  0.287268  0.291091  0.710821  1
  O  O13  1  0.726005  0.701126  0.286435  1
  O  O14  1  0.962732  0.958909  0.539179  1
  O  O15  1  0.539179  0.958909  0.962732  1
  O  O16  1  0.963565  0.548874  0.523995  1
  O  O17  1  0.523995  0.548874  0.963565  1
  O  O18  1  0.286435  0.701126  0.286435  1
  O  O19  1  0.539179  0.958909  0.539179  1
  O  O20  1  0.012016  0.963952  0.012016  1
  O  O21  1  0.237984  0.286048  0.237984  1
