# generated using pymatgen
data_Ho2ReSi2WC
_symmetry_space_group_name_H-M   'P 1'
_cell_length_a   3.87521571
_cell_length_b   5.82993633
_cell_length_c   6.15294929
_cell_angle_alpha   71.64330978
_cell_angle_beta   71.64477796
_cell_angle_gamma   70.58823210
_symmetry_Int_Tables_number   1
_chemical_formula_structural   Ho2ReSi2WC
_chemical_formula_sum   'Ho2 Re1 Si2 W1 C1'
_cell_volume   120.95493661
_cell_formula_units_Z   1
loop_
 _symmetry_equiv_pos_site_id
 _symmetry_equiv_pos_as_xyz
  1  'x, y, z'
loop_
 _atom_site_type_symbol
 _atom_site_label
 _atom_site_symmetry_multiplicity
 _atom_site_fract_x
 _atom_site_fract_y
 _atom_site_fract_z
 _atom_site_occupancy
  Ho  Ho0  1  0.426795  0.847482  0.298927  1
  Ho  Ho1  1  0.575328  0.146928  0.702417  1
  Re  Re2  1  0.208683  0.670515  0.912119  1
  Si  Si3  1  0.861018  0.608137  0.669827  1
  Si  Si4  1  0.131063  0.403361  0.334512  1
  W  W5  1  0.794639  0.326717  0.084005  1
  C  C6  1  0.002474  0.996859  0.998193  1
