# generated using pymatgen
data_B12OsRu11W12
_symmetry_space_group_name_H-M   'P 1'
_cell_length_a   2.98658600
_cell_length_b   9.03001801
_cell_length_c   15.77472105
_cell_angle_alpha   89.99148209
_cell_angle_beta   90.00000000
_cell_angle_gamma   90.00000000
_symmetry_Int_Tables_number   1
_chemical_formula_structural   B12OsRu11W12
_chemical_formula_sum   'B12 Os1 Ru11 W12'
_cell_volume   425.42727000
_cell_formula_units_Z   1
loop_
 _symmetry_equiv_pos_site_id
 _symmetry_equiv_pos_as_xyz
  1  'x, y, z'
loop_
 _atom_site_type_symbol
 _atom_site_label
 _atom_site_symmetry_multiplicity
 _atom_site_fract_x
 _atom_site_fract_y
 _atom_site_fract_z
 _atom_site_occupancy
  B  B0  1  0.500000  0.602925  0.495022  1
  B  B1  1  0.500000  0.396883  0.505357  1
  B  B2  1  0.500000  0.103085  0.004605  1
  B  B3  1  0.500000  0.896902  0.994547  1
  B  B4  1  0.000000  0.600884  0.832489  1
  B  B5  1  0.000000  0.399418  0.167605  1
  B  B6  1  0.000000  0.101290  0.667514  1
  B  B7  1  0.000000  0.898253  0.333219  1
  B  B8  1  0.500000  0.713778  0.595764  1
  B  B9  1  0.500000  0.286368  0.404545  1
  B  B10  1  0.500000  0.213477  0.903953  1
  B  B11  1  0.500000  0.786180  0.094932  1
  Os  Os12  1  0.500000  0.966273  0.239812  1
  Ru  Ru13  1  0.500000  0.723704  0.348631  1
  Ru  Ru14  1  0.500000  0.276146  0.651955  1
  Ru  Ru15  1  0.500000  0.224528  0.152226  1
  Ru  Ru16  1  0.500000  0.776075  0.847695  1
  Ru  Ru17  1  0.500000  0.516346  0.087207  1
  Ru  Ru18  1  0.500000  0.483212  0.912376  1
  Ru  Ru19  1  0.500000  0.016735  0.412593  1
  Ru  Ru20  1  0.500000  0.983521  0.587628  1
  Ru  Ru21  1  0.500000  0.533029  0.739674  1
  Ru  Ru22  1  0.500000  0.467417  0.260450  1
  Ru  Ru23  1  0.500000  0.033844  0.760304  1
  W  W24  1  0.000000  0.791275  0.492502  1
  W  W25  1  0.000000  0.208608  0.508053  1
  W  W26  1  0.000000  0.291073  0.007801  1
  W  W27  1  0.000000  0.708527  0.991900  1
  W  W28  1  0.000000  0.516970  0.592886  1
  W  W29  1  0.000000  0.482980  0.407409  1
  W  W30  1  0.000000  0.016409  0.907109  1
  W  W31  1  0.000000  0.983556  0.092432  1
  W  W32  1  0.000000  0.708397  0.194333  1
  W  W33  1  0.000000  0.292063  0.805219  1
  W  W34  1  0.000000  0.208073  0.305642  1
  W  W35  1  0.000000  0.791797  0.694612  1
