# generated using pymatgen
data_DyTm5(Si3Ru2)2
_symmetry_space_group_name_H-M   'P 1'
_cell_length_a   5.68105916
_cell_length_b   5.68105875
_cell_length_c   13.65509700
_cell_angle_alpha   90.00000000
_cell_angle_beta   90.00000000
_cell_angle_gamma   137.12509985
_symmetry_Int_Tables_number   1
_chemical_formula_structural   DyTm5(Si3Ru2)2
_chemical_formula_sum   'Dy1 Tm5 Si6 Ru4'
_cell_volume   299.85936711
_cell_formula_units_Z   1
loop_
 _symmetry_equiv_pos_site_id
 _symmetry_equiv_pos_as_xyz
  1  'x, y, z'
loop_
 _atom_site_type_symbol
 _atom_site_label
 _atom_site_symmetry_multiplicity
 _atom_site_fract_x
 _atom_site_fract_y
 _atom_site_fract_z
 _atom_site_occupancy
  Dy  Dy0  1  0.641776  0.358224  0.250000  1
  Tm  Tm1  1  0.923940  0.076060  0.386135  1
  Tm  Tm2  1  0.075713  0.924287  0.614693  1
  Tm  Tm3  1  0.923940  0.076060  0.113865  1
  Tm  Tm4  1  0.075713  0.924287  0.885307  1
  Tm  Tm5  1  0.356616  0.643384  0.750000  1
  Si  Si6  1  0.615785  0.384215  0.462740  1
  Si  Si7  1  0.384370  0.615630  0.538804  1
  Si  Si8  1  0.615785  0.384215  0.037260  1
  Si  Si9  1  0.384370  0.615630  0.961196  1
  Si  Si10  1  0.332832  0.667168  0.250000  1
  Si  Si11  1  0.668382  0.331618  0.750000  1
  Ru  Ru12  1  0.787368  0.212632  0.917767  1
  Ru  Ru13  1  0.213022  0.786978  0.080781  1
  Ru  Ru14  1  0.787368  0.212632  0.582233  1
  Ru  Ru15  1  0.213022  0.786978  0.419219  1
