# generated using pymatgen
data_Dy2HoZr2Sn3
_symmetry_space_group_name_H-M   'P 1'
_cell_length_a   8.83555421
_cell_length_b   8.83223485
_cell_length_c   6.11545700
_cell_angle_alpha   90.00000000
_cell_angle_beta   90.00000000
_cell_angle_gamma   119.98757215
_symmetry_Int_Tables_number   1
_chemical_formula_structural   Dy2HoZr2Sn3
_chemical_formula_sum   'Dy4 Ho2 Zr4 Sn6'
_cell_volume   413.35036591
_cell_formula_units_Z   2
loop_
 _symmetry_equiv_pos_site_id
 _symmetry_equiv_pos_as_xyz
  1  'x, y, z'
loop_
 _atom_site_type_symbol
 _atom_site_label
 _atom_site_symmetry_multiplicity
 _atom_site_fract_x
 _atom_site_fract_y
 _atom_site_fract_z
 _atom_site_occupancy
  Dy  Dy0  1  0.000105  0.759872  0.750000  1
  Dy  Dy1  1  0.000105  0.240233  0.250000  1
  Dy  Dy2  1  0.759742  0.759673  0.250000  1
  Dy  Dy3  1  0.759742  0.000069  0.750000  1
  Ho  Ho4  1  0.240372  0.240280  0.750000  1
  Ho  Ho5  1  0.240372  0.000091  0.250000  1
  Zr  Zr6  1  0.333287  0.666644  0.500000  1
  Zr  Zr7  1  0.666658  0.333329  0.000000  1
  Zr  Zr8  1  0.666658  0.333329  0.500000  1
  Zr  Zr9  1  0.333287  0.666644  0.000000  1
  Sn  Sn10  1  0.400165  0.000167  0.750000  1
  Sn  Sn11  1  0.400165  0.399998  0.250000  1
  Sn  Sn12  1  0.000096  0.599935  0.250000  1
  Sn  Sn13  1  0.000096  0.400161  0.750000  1
  Sn  Sn14  1  0.599575  0.599558  0.750000  1
  Sn  Sn15  1  0.599575  0.000017  0.250000  1
