# generated using pymatgen
data_V12Ga4Cu3AuN4
_symmetry_space_group_name_H-M   'P 1'
_cell_length_a   6.58079343
_cell_length_b   6.58079343
_cell_length_c   6.58079343
_cell_angle_alpha   89.91720599
_cell_angle_beta   89.91720599
_cell_angle_gamma   89.91720599
_symmetry_Int_Tables_number   1
_chemical_formula_structural   V12Ga4Cu3AuN4
_chemical_formula_sum   'V12 Ga4 Cu3 Au1 N4'
_cell_volume   284.99249100
_cell_formula_units_Z   1
loop_
 _symmetry_equiv_pos_site_id
 _symmetry_equiv_pos_as_xyz
  1  'x, y, z'
loop_
 _atom_site_type_symbol
 _atom_site_label
 _atom_site_symmetry_multiplicity
 _atom_site_fract_x
 _atom_site_fract_y
 _atom_site_fract_z
 _atom_site_occupancy
  V  V0  1  0.787594  0.962761  0.371985  1
  V  V1  1  0.715617  0.041960  0.879805  1
  V  V2  1  0.213217  0.462128  0.124223  1
  V  V3  1  0.283839  0.537098  0.624079  1
  V  V4  1  0.962761  0.371985  0.787594  1
  V  V5  1  0.041960  0.879805  0.715617  1
  V  V6  1  0.462128  0.124223  0.213217  1
  V  V7  1  0.537098  0.624079  0.283839  1
  V  V8  1  0.371985  0.787594  0.962761  1
  V  V9  1  0.879805  0.715617  0.041960  1
  V  V10  1  0.124223  0.213217  0.462128  1
  V  V11  1  0.624079  0.283839  0.537098  1
  Ga  Ga12  1  0.570338  0.416184  0.935281  1
  Ga  Ga13  1  0.416184  0.935281  0.570338  1
  Ga  Ga14  1  0.935281  0.570338  0.416184  1
  Ga  Ga15  1  0.075169  0.075169  0.075169  1
  Cu  Cu16  1  0.178592  0.822706  0.320666  1
  Cu  Cu17  1  0.320666  0.178592  0.822706  1
  Cu  Cu18  1  0.822706  0.320666  0.178592  1
  Au  Au19  1  0.678606  0.678606  0.678606  1
  N  N20  1  0.875211  0.123299  0.623270  1
  N  N21  1  0.623270  0.875211  0.123299  1
  N  N22  1  0.123299  0.623270  0.875211  1
  N  N23  1  0.376370  0.376370  0.376370  1
