# generated using pymatgen
data_Tb2Ho2Ga16FeCo2
_symmetry_space_group_name_H-M   'P 1'
_cell_length_a   6.03960900
_cell_length_b   6.03960900
_cell_length_c   11.15547500
_cell_angle_alpha   90.00000000
_cell_angle_beta   90.00000000
_cell_angle_gamma   90.00000000
_symmetry_Int_Tables_number   1
_chemical_formula_structural   Tb2Ho2Ga16FeCo2
_chemical_formula_sum   'Tb2 Ho2 Ga16 Fe1 Co2'
_cell_volume   406.91688803
_cell_formula_units_Z   1
loop_
 _symmetry_equiv_pos_site_id
 _symmetry_equiv_pos_as_xyz
  1  'x, y, z'
loop_
 _atom_site_type_symbol
 _atom_site_label
 _atom_site_symmetry_multiplicity
 _atom_site_fract_x
 _atom_site_fract_y
 _atom_site_fract_z
 _atom_site_occupancy
  Tb  Tb0  1  0.500000  0.000000  0.194344  1
  Tb  Tb1  1  0.000000  0.500000  0.194344  1
  Ho  Ho2  1  0.500000  0.000000  0.805263  1
  Ho  Ho3  1  0.000000  0.500000  0.805263  1
  Ga  Ga4  1  0.249349  0.249349  0.615234  1
  Ga  Ga5  1  0.750651  0.750651  0.615234  1
  Ga  Ga6  1  0.750651  0.249349  0.615234  1
  Ga  Ga7  1  0.249349  0.750651  0.615234  1
  Ga  Ga8  1  0.750575  0.750575  0.385312  1
  Ga  Ga9  1  0.249425  0.249425  0.385312  1
  Ga  Ga10  1  0.249425  0.750575  0.385312  1
  Ga  Ga11  1  0.750575  0.249425  0.385312  1
  Ga  Ga12  1  0.280661  0.280661  0.999449  1
  Ga  Ga13  1  0.719339  0.719339  0.999449  1
  Ga  Ga14  1  0.719339  0.280661  0.999449  1
  Ga  Ga15  1  0.280661  0.719339  0.999449  1
  Ga  Ga16  1  0.500000  0.500000  0.805157  1
  Ga  Ga17  1  0.500000  0.500000  0.194859  1
  Ga  Ga18  1  0.000000  0.000000  0.782119  1
  Ga  Ga19  1  0.000000  0.000000  0.218168  1
  Fe  Fe20  1  0.000000  0.000000  0.000036  1
  Co  Co21  1  0.500000  0.000000  0.500233  1
  Co  Co22  1  0.000000  0.500000  0.500233  1
