# generated using pymatgen
data_Nb2(NiPt)3
_symmetry_space_group_name_H-M   'P 1'
_cell_length_a   4.41300700
_cell_length_b   4.79518121
_cell_length_c   5.38971079
_cell_angle_alpha   89.42311794
_cell_angle_beta   90.00000000
_cell_angle_gamma   90.00000000
_symmetry_Int_Tables_number   1
_chemical_formula_structural   Nb2(NiPt)3
_chemical_formula_sum   'Nb2 Ni3 Pt3'
_cell_volume   114.04679602
_cell_formula_units_Z   1
loop_
 _symmetry_equiv_pos_site_id
 _symmetry_equiv_pos_as_xyz
  1  'x, y, z'
loop_
 _atom_site_type_symbol
 _atom_site_label
 _atom_site_symmetry_multiplicity
 _atom_site_fract_x
 _atom_site_fract_y
 _atom_site_fract_z
 _atom_site_occupancy
  Nb  Nb0  1  0.500000  0.647265  0.507846  1
  Nb  Nb1  1  0.000000  0.346163  0.991795  1
  Ni  Ni2  1  0.500000  0.171136  0.750989  1
  Ni  Ni3  1  0.000000  0.330374  0.507870  1
  Ni  Ni4  1  0.500000  0.663891  0.993638  1
  Pt  Pt5  1  0.500000  0.171904  0.253735  1
  Pt  Pt6  1  0.000000  0.842333  0.747655  1
  Pt  Pt7  1  0.000000  0.826935  0.246472  1
