# generated using pymatgen
data_Yb2AlVO6
_symmetry_space_group_name_H-M   'P 1'
_cell_length_a   5.22151680
_cell_length_b   5.29598446
_cell_length_c   7.43027309
_cell_angle_alpha   89.99715130
_cell_angle_beta   89.93324746
_cell_angle_gamma   90.00150412
_symmetry_Int_Tables_number   1
_chemical_formula_structural   Yb2AlVO6
_chemical_formula_sum   'Yb4 Al2 V2 O12'
_cell_volume   205.46973585
_cell_formula_units_Z   2
loop_
 _symmetry_equiv_pos_site_id
 _symmetry_equiv_pos_as_xyz
  1  'x, y, z'
loop_
 _atom_site_type_symbol
 _atom_site_label
 _atom_site_symmetry_multiplicity
 _atom_site_fract_x
 _atom_site_fract_y
 _atom_site_fract_z
 _atom_site_occupancy
  Yb  Yb0  1  0.490954  0.542620  0.250495  1
  Yb  Yb1  1  0.009070  0.042609  0.249517  1
  Yb  Yb2  1  0.509046  0.457379  0.749506  1
  Yb  Yb3  1  0.990929  0.957392  0.750482  1
  Al  Al4  1  0.000000  0.499999  0.000000  1
  Al  Al5  1  0.499999  0.000000  0.500000  1
  V  V6  1  0.500000  0.000000  0.000000  1
  V  V7  1  0.000000  0.500001  0.499998  1
  O  O8  1  0.710542  0.711809  0.963736  1
  O  O9  1  0.789429  0.211774  0.536274  1
  O  O10  1  0.289459  0.288192  0.036263  1
  O  O11  1  0.210570  0.788226  0.463725  1
  O  O12  1  0.288144  0.288857  0.463814  1
  O  O13  1  0.211876  0.788886  0.036197  1
  O  O14  1  0.711854  0.711143  0.536186  1
  O  O15  1  0.788124  0.211114  0.963802  1
  O  O16  1  0.930996  0.486338  0.250856  1
  O  O17  1  0.569004  0.986371  0.249109  1
  O  O18  1  0.069004  0.513662  0.749144  1
  O  O19  1  0.430996  0.013629  0.750891  1
