# generated using pymatgen
data_Sc3Pa(AlRh)4
_symmetry_space_group_name_H-M   'P 1'
_cell_length_a   4.18279400
_cell_length_b   6.60362364
_cell_length_c   7.77380580
_cell_angle_alpha   90.45043171
_cell_angle_beta   90.00000000
_cell_angle_gamma   90.00000000
_symmetry_Int_Tables_number   1
_chemical_formula_structural   Sc3Pa(AlRh)4
_chemical_formula_sum   'Sc3 Pa1 Al4 Rh4'
_cell_volume   214.71829813
_cell_formula_units_Z   1
loop_
 _symmetry_equiv_pos_site_id
 _symmetry_equiv_pos_as_xyz
  1  'x, y, z'
loop_
 _atom_site_type_symbol
 _atom_site_label
 _atom_site_symmetry_multiplicity
 _atom_site_fract_x
 _atom_site_fract_y
 _atom_site_fract_z
 _atom_site_occupancy
  Sc  Sc0  1  0.750000  0.538964  0.820805  1
  Sc  Sc1  1  0.250000  0.458841  0.173348  1
  Sc  Sc2  1  0.750000  0.041400  0.687629  1
  Pa  Pa3  1  0.250000  0.962408  0.326007  1
  Al  Al4  1  0.750000  0.621495  0.443751  1
  Al  Al5  1  0.750000  0.147609  0.052335  1
  Al  Al6  1  0.250000  0.366077  0.565234  1
  Al  Al7  1  0.250000  0.862224  0.933218  1
  Rh  Rh8  1  0.750000  0.759987  0.128509  1
  Rh  Rh9  1  0.750000  0.243355  0.376179  1
  Rh  Rh10  1  0.250000  0.247573  0.878243  1
  Rh  Rh11  1  0.250000  0.750066  0.614742  1
