# generated using pymatgen
data_YTa5NbSn6
_symmetry_space_group_name_H-M   'P 1'
_cell_length_a   5.79260801
_cell_length_b   5.79260881
_cell_length_c   9.60072600
_cell_angle_alpha   90.00000000
_cell_angle_beta   90.00000000
_cell_angle_gamma   120.01810496
_symmetry_Int_Tables_number   1
_chemical_formula_structural   YTa5NbSn6
_chemical_formula_sum   'Y1 Ta5 Nb1 Sn6'
_cell_volume   278.93549815
_cell_formula_units_Z   1
loop_
 _symmetry_equiv_pos_site_id
 _symmetry_equiv_pos_as_xyz
  1  'x, y, z'
loop_
 _atom_site_type_symbol
 _atom_site_label
 _atom_site_symmetry_multiplicity
 _atom_site_fract_x
 _atom_site_fract_y
 _atom_site_fract_z
 _atom_site_occupancy
  Y  Y0  1  0.000000  0.000000  0.999967  1
  Ta  Ta1  1  0.000000  0.500000  0.750703  1
  Ta  Ta2  1  0.500000  0.500000  0.750569  1
  Ta  Ta3  1  0.500000  0.000000  0.750703  1
  Ta  Ta4  1  0.000000  0.500000  0.249417  1
  Ta  Ta5  1  0.500000  0.000000  0.249417  1
  Nb  Nb6  1  0.500000  0.500000  0.249519  1
  Sn  Sn7  1  0.666854  0.333146  0.499993  1
  Sn  Sn8  1  0.333146  0.666854  0.499993  1
  Sn  Sn9  1  0.666685  0.333315  0.000039  1
  Sn  Sn10  1  0.333315  0.666685  0.000039  1
  Sn  Sn11  1  0.000000  0.000000  0.668479  1
  Sn  Sn12  1  0.000000  0.000000  0.331160  1
