# generated using pymatgen
data_Dy9Tm(Ir2Os)2
_symmetry_space_group_name_H-M   'P 1'
_cell_length_a   10.84672200
_cell_length_b   10.84672200
_cell_length_c   6.39994600
_cell_angle_alpha   90.00000000
_cell_angle_beta   90.00000000
_cell_angle_gamma   90.00000000
_symmetry_Int_Tables_number   1
_chemical_formula_structural   Dy9Tm(Ir2Os)2
_chemical_formula_sum   'Dy18 Tm2 Ir8 Os4'
_cell_volume   752.96246696
_cell_formula_units_Z   2
loop_
 _symmetry_equiv_pos_site_id
 _symmetry_equiv_pos_as_xyz
  1  'x, y, z'
loop_
 _atom_site_type_symbol
 _atom_site_label
 _atom_site_symmetry_multiplicity
 _atom_site_fract_x
 _atom_site_fract_y
 _atom_site_fract_z
 _atom_site_occupancy
  Dy  Dy0  1  0.293185  0.086401  0.377741  1
  Dy  Dy1  1  0.293185  0.913599  0.877741  1
  Dy  Dy2  1  0.706815  0.086401  0.877741  1
  Dy  Dy3  1  0.706815  0.913599  0.377741  1
  Dy  Dy4  1  0.586451  0.793832  0.877990  1
  Dy  Dy5  1  0.586451  0.206168  0.377990  1
  Dy  Dy6  1  0.413549  0.793832  0.377990  1
  Dy  Dy7  1  0.413549  0.206168  0.877990  1
  Dy  Dy8  1  0.206168  0.413549  0.622010  1
  Dy  Dy9  1  0.206168  0.586451  0.122010  1
  Dy  Dy10  1  0.793832  0.413549  0.122010  1
  Dy  Dy11  1  0.793832  0.586451  0.622010  1
  Dy  Dy12  1  0.913599  0.706815  0.122259  1
  Dy  Dy13  1  0.913599  0.293185  0.622259  1
  Dy  Dy14  1  0.086401  0.706815  0.622259  1
  Dy  Dy15  1  0.086401  0.293185  0.122259  1
  Dy  Dy16  1  0.500000  0.500000  0.000000  1
  Dy  Dy17  1  0.500000  0.500000  0.500000  1
  Tm  Tm18  1  0.000000  0.000000  0.500000  1
  Tm  Tm19  1  0.000000  0.000000  0.000000  1
  Ir  Ir20  1  0.849452  0.150548  0.250000  1
  Ir  Ir21  1  0.849452  0.849452  0.750000  1
  Ir  Ir22  1  0.150548  0.150548  0.750000  1
  Ir  Ir23  1  0.150548  0.849452  0.250000  1
  Ir  Ir24  1  0.651947  0.348053  0.750000  1
  Ir  Ir25  1  0.651947  0.651947  0.250000  1
  Ir  Ir26  1  0.348053  0.348053  0.250000  1
  Ir  Ir27  1  0.348053  0.651947  0.750000  1
  Os  Os28  1  0.500000  0.000000  0.123881  1
  Os  Os29  1  0.500000  0.000000  0.623881  1
  Os  Os30  1  0.000000  0.500000  0.876119  1
  Os  Os31  1  0.000000  0.500000  0.376119  1
