# generated using pymatgen
data_La5Tb5(Bi2Os)2
_symmetry_space_group_name_H-M   'P 1'
_cell_length_a   8.36127048
_cell_length_b   9.27340174
_cell_length_c   12.70677821
_cell_angle_alpha   90.13786249
_cell_angle_beta   90.13400343
_cell_angle_gamma   90.25267696
_symmetry_Int_Tables_number   1
_chemical_formula_structural   La5Tb5(Bi2Os)2
_chemical_formula_sum   'La10 Tb10 Bi8 Os4'
_cell_volume   985.23564947
_cell_formula_units_Z   2
loop_
 _symmetry_equiv_pos_site_id
 _symmetry_equiv_pos_as_xyz
  1  'x, y, z'
loop_
 _atom_site_type_symbol
 _atom_site_label
 _atom_site_symmetry_multiplicity
 _atom_site_fract_x
 _atom_site_fract_y
 _atom_site_fract_z
 _atom_site_occupancy
  La  La0  1  0.846983  0.749399  0.797022  1
  La  La1  1  0.153017  0.250601  0.202978  1
  La  La2  1  0.345282  0.252952  0.705154  1
  La  La3  1  0.654718  0.747048  0.294846  1
  La  La4  1  0.378842  0.746065  0.691985  1
  La  La5  1  0.621158  0.253935  0.308015  1
  La  La6  1  0.880916  0.249969  0.811216  1
  La  La7  1  0.119084  0.750031  0.188784  1
  La  La8  1  0.684007  0.037762  0.566472  1
  La  La9  1  0.315993  0.962238  0.433528  1
  Tb  Tb10  1  0.938189  0.746598  0.503128  1
  Tb  Tb11  1  0.061811  0.253402  0.496872  1
  Tb  Tb12  1  0.435902  0.250867  0.995737  1
  Tb  Tb13  1  0.564098  0.749133  0.004263  1
  Tb  Tb14  1  0.174777  0.961451  0.935105  1
  Tb  Tb15  1  0.326486  0.539742  0.434437  1
  Tb  Tb16  1  0.825223  0.038549  0.064895  1
  Tb  Tb17  1  0.673514  0.460258  0.565563  1
  Tb  Tb18  1  0.826429  0.460987  0.065994  1
  Tb  Tb19  1  0.173571  0.539013  0.934006  1
  Bi  Bi20  1  0.568901  0.492846  0.834522  1
  Bi  Bi21  1  0.431099  0.507154  0.165478  1
  Bi  Bi22  1  0.066086  0.506385  0.667040  1
  Bi  Bi23  1  0.433567  0.993755  0.164157  1
  Bi  Bi24  1  0.933914  0.493615  0.332960  1
  Bi  Bi25  1  0.566433  0.006245  0.835843  1
  Bi  Bi26  1  0.927612  0.007657  0.330908  1
  Bi  Bi27  1  0.072388  0.992343  0.669092  1
  Os  Os28  1  0.580022  0.748552  0.511103  1
  Os  Os29  1  0.419978  0.251448  0.488897  1
  Os  Os30  1  0.072674  0.249642  0.991061  1
  Os  Os31  1  0.927326  0.750358  0.008939  1
