# generated using pymatgen
data_Tb4Sc6Si5As
_symmetry_space_group_name_H-M   'P 1'
_cell_length_a   8.15337321
_cell_length_b   8.25413563
_cell_length_c   5.97276900
_cell_angle_alpha   90.00000000
_cell_angle_beta   90.00000000
_cell_angle_gamma   120.33225034
_symmetry_Int_Tables_number   1
_chemical_formula_structural   Tb4Sc6Si5As
_chemical_formula_sum   'Tb4 Sc6 Si5 As1'
_cell_volume   346.93771061
_cell_formula_units_Z   1
loop_
 _symmetry_equiv_pos_site_id
 _symmetry_equiv_pos_as_xyz
  1  'x, y, z'
loop_
 _atom_site_type_symbol
 _atom_site_label
 _atom_site_symmetry_multiplicity
 _atom_site_fract_x
 _atom_site_fract_y
 _atom_site_fract_z
 _atom_site_occupancy
  Tb  Tb0  1  0.758193  0.756133  0.250000  1
  Tb  Tb1  1  0.758695  0.001782  0.750000  1
  Tb  Tb2  1  0.241733  0.246906  0.750000  1
  Tb  Tb3  1  0.242758  0.998127  0.250000  1
  Sc  Sc4  1  0.995642  0.745134  0.750000  1
  Sc  Sc5  1  0.000615  0.252500  0.250000  1
  Sc  Sc6  1  0.331348  0.663113  0.498122  1
  Sc  Sc7  1  0.670246  0.336706  0.001691  1
  Sc  Sc8  1  0.670246  0.336706  0.498309  1
  Sc  Sc9  1  0.331348  0.663113  0.001878  1
  Si  Si10  1  0.390722  0.395537  0.250000  1
  Si  Si11  1  0.001186  0.595559  0.250000  1
  Si  Si12  1  0.999541  0.405557  0.750000  1
  Si  Si13  1  0.609331  0.603384  0.750000  1
  Si  Si14  1  0.612147  0.006730  0.250000  1
  As  As15  1  0.386246  0.993013  0.750000  1
