# generated using pymatgen
data_Yb4Si10PdPt5
_symmetry_space_group_name_H-M   'P 1'
_cell_length_a   8.25972210
_cell_length_b   8.25972143
_cell_length_c   8.25972272
_cell_angle_alpha   138.31594154
_cell_angle_beta   104.65773430
_cell_angle_gamma   90.00759343
_symmetry_Int_Tables_number   1
_chemical_formula_structural   Yb4Si10PdPt5
_chemical_formula_sum   'Yb4 Si10 Pd1 Pt5'
_cell_volume   346.53080570
_cell_formula_units_Z   1
loop_
 _symmetry_equiv_pos_site_id
 _symmetry_equiv_pos_as_xyz
  1  'x, y, z'
loop_
 _atom_site_type_symbol
 _atom_site_label
 _atom_site_symmetry_multiplicity
 _atom_site_fract_x
 _atom_site_fract_y
 _atom_site_fract_z
 _atom_site_occupancy
  Yb  Yb0  1  0.104447  0.870460  0.233965  1
  Yb  Yb1  1  0.895553  0.129518  0.766013  1
  Yb  Yb2  1  0.636495  0.370482  0.266035  1
  Yb  Yb3  1  0.363505  0.629540  0.733987  1
  Si  Si4  1  0.000000  0.750000  0.750000  1
  Si  Si5  1  0.000000  0.250000  0.250000  1
  Si  Si6  1  0.271123  0.021123  0.750000  1
  Si  Si7  1  0.728877  0.478877  0.750000  1
  Si  Si8  1  0.728958  0.978958  0.250000  1
  Si  Si9  1  0.271042  0.521042  0.250000  1
  Si  Si10  1  0.763186  0.611770  0.148926  1
  Si  Si11  1  0.236814  0.385740  0.848584  1
  Si  Si12  1  0.462844  0.114260  0.351074  1
  Si  Si13  1  0.537156  0.888230  0.651416  1
  Pd  Pd14  1  0.500000  0.750000  0.250000  1
  Pt  Pt15  1  0.500000  0.250000  0.750000  1
  Pt  Pt16  1  0.020556  0.635896  0.383844  1
  Pt  Pt17  1  0.979444  0.363288  0.615340  1
  Pt  Pt18  1  0.252052  0.136712  0.116156  1
  Pt  Pt19  1  0.747948  0.864104  0.884660  1
