# generated using pymatgen
data_Y5Er3Cu3Si12Pd
_symmetry_space_group_name_H-M   'P 1'
_cell_length_a   8.04143286
_cell_length_b   8.03533016
_cell_length_c   8.10681704
_cell_angle_alpha   89.99936403
_cell_angle_beta   90.00955748
_cell_angle_gamma   120.07725698
_symmetry_Int_Tables_number   1
_chemical_formula_structural   Y5Er3Cu3Si12Pd
_chemical_formula_sum   'Y5 Er3 Cu3 Si12 Pd1'
_cell_volume   453.29355063
_cell_formula_units_Z   1
loop_
 _symmetry_equiv_pos_site_id
 _symmetry_equiv_pos_as_xyz
  1  'x, y, z'
loop_
 _atom_site_type_symbol
 _atom_site_label
 _atom_site_symmetry_multiplicity
 _atom_site_fract_x
 _atom_site_fract_y
 _atom_site_fract_z
 _atom_site_occupancy
  Y  Y0  1  0.999143  0.499570  0.750821  1
  Y  Y1  1  0.500998  0.499016  0.249182  1
  Y  Y2  1  0.500414  0.499566  0.750828  1
  Y  Y3  1  0.999996  0.000007  0.249178  1
  Y  Y4  1  0.000004  0.000007  0.750806  1
  Er  Er5  1  0.500884  0.001753  0.249336  1
  Er  Er6  1  0.500340  0.000702  0.750687  1
  Er  Er7  1  0.998280  0.499151  0.249322  1
  Cu  Cu8  1  0.333318  0.667482  0.002707  1
  Cu  Cu9  1  0.666654  0.332492  0.998596  1
  Cu  Cu10  1  0.666664  0.332499  0.500119  1
  Si  Si11  1  0.169405  0.339220  0.000131  1
  Si  Si12  1  0.831120  0.661813  0.000661  1
  Si  Si13  1  0.660663  0.830739  0.999824  1
  Si  Si14  1  0.831259  0.662181  0.499916  1
  Si  Si15  1  0.338291  0.168727  0.000353  1
  Si  Si16  1  0.165994  0.332324  0.499324  1
  Si  Si17  1  0.169915  0.830497  0.000113  1
  Si  Si18  1  0.337902  0.168617  0.500216  1
  Si  Si19  1  0.830605  0.168996  0.000674  1
  Si  Si20  1  0.667686  0.834166  0.499635  1
  Si  Si21  1  0.830841  0.168826  0.499918  1
  Si  Si22  1  0.166298  0.834021  0.499327  1
  Pd  Pd23  1  0.333328  0.667628  0.498326  1
