# generated using pymatgen
data_TbYb11(PrPt2)8
_symmetry_space_group_name_H-M   'P 1'
_cell_length_a   7.55862122
_cell_length_b   7.73933465
_cell_length_c   14.50417400
_cell_angle_alpha   89.95671353
_cell_angle_beta   90.11496881
_cell_angle_gamma   90.11820463
_symmetry_Int_Tables_number   1
_chemical_formula_structural   TbYb11(PrPt2)8
_chemical_formula_sum   'Tb1 Yb11 Pr8 Pt16'
_cell_volume   848.47155762
_cell_formula_units_Z   1
loop_
 _symmetry_equiv_pos_site_id
 _symmetry_equiv_pos_as_xyz
  1  'x, y, z'
loop_
 _atom_site_type_symbol
 _atom_site_label
 _atom_site_symmetry_multiplicity
 _atom_site_fract_x
 _atom_site_fract_y
 _atom_site_fract_z
 _atom_site_occupancy
  Tb  Tb0  1  0.665351  0.832934  0.124771  1
  Yb  Yb1  1  0.334376  0.167641  0.624750  1
  Yb  Yb2  1  0.665223  0.831721  0.375938  1
  Yb  Yb3  1  0.668931  0.004096  0.750286  1
  Yb  Yb4  1  0.165481  0.666838  0.375627  1
  Yb  Yb5  1  0.836087  0.333772  0.875307  1
  Yb  Yb6  1  0.834190  0.331585  0.624545  1
  Yb  Yb7  1  0.832276  0.501772  0.250733  1
  Yb  Yb8  1  0.328451  0.997165  0.250800  1
  Yb  Yb9  1  0.334867  0.166529  0.876208  1
  Yb  Yb10  1  0.164352  0.667800  0.123441  1
  Yb  Yb11  1  0.168626  0.494680  0.749962  1
  Pr  Pr12  1  0.005819  0.180639  0.403834  1
  Pr  Pr13  1  0.506233  0.319025  0.403832  1
  Pr  Pr14  1  0.492732  0.678290  0.902058  1
  Pr  Pr15  1  0.493781  0.678476  0.597537  1
  Pr  Pr16  1  0.993200  0.820705  0.596963  1
  Pr  Pr17  1  0.994490  0.820843  0.902567  1
  Pr  Pr18  1  0.506491  0.321745  0.096554  1
  Pr  Pr19  1  0.008362  0.180182  0.096036  1
  Pt  Pt20  1  0.296326  0.855529  0.749679  1
  Pt  Pt21  1  0.464086  0.615853  0.247224  1
  Pt  Pt22  1  0.036703  0.113133  0.750390  1
  Pt  Pt23  1  0.536834  0.385532  0.751085  1
  Pt  Pt24  1  0.175784  0.466368  0.538730  1
  Pt  Pt25  1  0.961089  0.884974  0.248572  1
  Pt  Pt26  1  0.702069  0.143413  0.249534  1
  Pt  Pt27  1  0.820674  0.541555  0.037806  1
  Pt  Pt28  1  0.328699  0.964595  0.040002  1
  Pt  Pt29  1  0.173726  0.464427  0.960712  1
  Pt  Pt30  1  0.673921  0.032499  0.539586  1
  Pt  Pt31  1  0.323203  0.966923  0.460549  1
  Pt  Pt32  1  0.824368  0.531946  0.460830  1
  Pt  Pt33  1  0.796581  0.644043  0.749629  1
  Pt  Pt34  1  0.204822  0.357165  0.250761  1
  Pt  Pt35  1  0.681796  0.035609  0.963158  1
