# generated using pymatgen
data_Pr10Zn4IrRu5
_symmetry_space_group_name_H-M   'P 1'
_cell_length_a   8.55927097
_cell_length_b   8.59661254
_cell_length_c   8.59661104
_cell_angle_alpha   109.67717854
_cell_angle_beta   109.61607033
_cell_angle_gamma   109.29655320
_symmetry_Int_Tables_number   1
_chemical_formula_structural   Pr10Zn4IrRu5
_chemical_formula_sum   'Pr10 Zn4 Ir1 Ru5'
_cell_volume   485.86733226
_cell_formula_units_Z   1
loop_
 _symmetry_equiv_pos_site_id
 _symmetry_equiv_pos_as_xyz
  1  'x, y, z'
loop_
 _atom_site_type_symbol
 _atom_site_label
 _atom_site_symmetry_multiplicity
 _atom_site_fract_x
 _atom_site_fract_y
 _atom_site_fract_z
 _atom_site_occupancy
  Pr  Pr0  1  0.250000  0.685032  0.435032  1
  Pr  Pr1  1  0.750000  0.814293  0.064293  1
  Pr  Pr2  1  0.437212  0.251784  0.683239  1
  Pr  Pr3  1  0.683675  0.434063  0.249433  1
  Pr  Pr4  1  0.062788  0.746027  0.814572  1
  Pr  Pr5  1  0.816325  0.065758  0.750388  1
  Pr  Pr6  1  0.220767  0.222833  0.223929  1
  Pr  Pr7  1  0.500626  0.999904  0.278404  1
  Pr  Pr8  1  0.279233  0.503163  0.002065  1
  Pr  Pr9  1  0.999374  0.277777  0.499279  1
  Zn  Zn10  1  0.589610  0.590021  0.589310  1
  Zn  Zn11  1  0.499778  0.998235  0.909628  1
  Zn  Zn12  1  0.910390  0.499700  0.000411  1
  Zn  Zn13  1  0.000222  0.909850  0.498457  1
  Ir  Ir14  1  0.250000  0.127893  0.877893  1
  Ru  Ru15  1  0.750000  0.372438  0.622438  1
  Ru  Ru16  1  0.876893  0.250539  0.126873  1
  Ru  Ru17  1  0.128702  0.878703  0.250710  1
  Ru  Ru18  1  0.623106  0.749978  0.373644  1
  Ru  Ru19  1  0.371298  0.622007  0.750002  1
