# generated using pymatgen
data_Er3Sc2GaPt3
_symmetry_space_group_name_H-M   'P 1'
_cell_length_a   7.21794947
_cell_length_b   7.21794982
_cell_length_c   4.30679200
_cell_angle_alpha   90.00000000
_cell_angle_beta   90.00000000
_cell_angle_gamma   121.42037853
_symmetry_Int_Tables_number   1
_chemical_formula_structural   Er3Sc2GaPt3
_chemical_formula_sum   'Er3 Sc2 Ga1 Pt3'
_cell_volume   191.47701178
_cell_formula_units_Z   1
loop_
 _symmetry_equiv_pos_site_id
 _symmetry_equiv_pos_as_xyz
  1  'x, y, z'
loop_
 _atom_site_type_symbol
 _atom_site_label
 _atom_site_symmetry_multiplicity
 _atom_site_fract_x
 _atom_site_fract_y
 _atom_site_fract_z
 _atom_site_occupancy
  Er  Er0  1  0.588816  0.982989  0.000000  1
  Er  Er1  1  0.432429  0.432429  0.000000  1
  Er  Er2  1  0.982989  0.588817  0.000000  1
  Sc  Sc3  1  0.243880  0.993675  0.500000  1
  Sc  Sc4  1  0.993675  0.243881  0.500000  1
  Ga  Ga5  1  0.754553  0.754553  0.500000  1
  Pt  Pt6  1  0.012796  0.012796  0.000000  1
  Pt  Pt7  1  0.660808  0.330054  0.500000  1
  Pt  Pt8  1  0.330054  0.660809  0.500000  1
