# generated using pymatgen
data_La4YbBi2Ir
_symmetry_space_group_name_H-M   'P 1'
_cell_length_a   8.31498786
_cell_length_b   9.41656761
_cell_length_c   12.82100800
_cell_angle_alpha   89.77529011
_cell_angle_beta   90.33113266
_cell_angle_gamma   90.15110458
_symmetry_Int_Tables_number   1
_chemical_formula_structural   La4YbBi2Ir
_chemical_formula_sum   'La16 Yb4 Bi8 Ir4'
_cell_volume   1003.83964208
_cell_formula_units_Z   4
loop_
 _symmetry_equiv_pos_site_id
 _symmetry_equiv_pos_as_xyz
  1  'x, y, z'
loop_
 _atom_site_type_symbol
 _atom_site_label
 _atom_site_symmetry_multiplicity
 _atom_site_fract_x
 _atom_site_fract_y
 _atom_site_fract_z
 _atom_site_occupancy
  La  La0  1  0.358052  0.748540  0.701538  1
  La  La1  1  0.641235  0.250494  0.298821  1
  La  La2  1  0.856973  0.251245  0.797627  1
  La  La3  1  0.143721  0.749665  0.207786  1
  La  La4  1  0.881592  0.748325  0.805381  1
  La  La5  1  0.120240  0.250967  0.192526  1
  La  La6  1  0.383087  0.250882  0.688165  1
  La  La7  1  0.614283  0.748559  0.313027  1
  La  La8  1  0.819497  0.541009  0.062724  1
  La  La9  1  0.685380  0.963085  0.564655  1
  La  La10  1  0.810118  0.961382  0.064567  1
  La  La11  1  0.188769  0.034733  0.933454  1
  La  La12  1  0.069991  0.748482  0.494996  1
  La  La13  1  0.936465  0.254078  0.505057  1
  La  La14  1  0.555077  0.250694  0.005061  1
  La  La15  1  0.434759  0.746958  0.995506  1
  Yb  Yb16  1  0.679327  0.541557  0.568658  1
  Yb  Yb17  1  0.324735  0.461835  0.432153  1
  Yb  Yb18  1  0.181214  0.458709  0.930663  1
  Yb  Yb19  1  0.318755  0.039371  0.431004  1
  Bi  Bi20  1  0.575615  0.504199  0.827029  1
  Bi  Bi21  1  0.426112  0.495451  0.173748  1
  Bi  Bi22  1  0.077485  0.493383  0.671642  1
  Bi  Bi23  1  0.421622  0.003882  0.173504  1
  Bi  Bi24  1  0.921580  0.505866  0.326976  1
  Bi  Bi25  1  0.578172  0.994537  0.825375  1
  Bi  Bi26  1  0.920597  0.995148  0.329406  1
  Bi  Bi27  1  0.077910  0.006929  0.671654  1
  Ir  Ir28  1  0.072564  0.755378  0.992453  1
  Ir  Ir29  1  0.925675  0.245826  0.012895  1
  Ir  Ir30  1  0.576351  0.246203  0.511187  1
  Ir  Ir31  1  0.423046  0.752627  0.490757  1
