# generated using pymatgen
data_Dy5Ho2Tm3Ru4
_symmetry_space_group_name_H-M   'P 1'
_cell_length_a   6.30965320
_cell_length_b   7.26755392
_cell_length_c   8.42840920
_cell_angle_alpha   96.79521979
_cell_angle_beta   112.01453179
_cell_angle_gamma   89.89204710
_symmetry_Int_Tables_number   1
_chemical_formula_structural   Dy5Ho2Tm3Ru4
_chemical_formula_sum   'Dy5 Ho2 Tm3 Ru4'
_cell_volume   355.41567801
_cell_formula_units_Z   1
loop_
 _symmetry_equiv_pos_site_id
 _symmetry_equiv_pos_as_xyz
  1  'x, y, z'
loop_
 _atom_site_type_symbol
 _atom_site_label
 _atom_site_symmetry_multiplicity
 _atom_site_fract_x
 _atom_site_fract_y
 _atom_site_fract_z
 _atom_site_occupancy
  Dy  Dy0  1  0.790635  0.083788  0.813621  1
  Dy  Dy1  1  0.977354  0.416172  0.186128  1
  Dy  Dy2  1  0.208862  0.915707  0.186481  1
  Dy  Dy3  1  0.023284  0.584339  0.813899  1
  Dy  Dy4  1  0.206661  0.184799  0.566072  1
  Ho  Ho5  1  0.640009  0.315574  0.434392  1
  Ho  Ho6  1  0.793892  0.815064  0.434134  1
  Tm  Tm7  1  0.360153  0.684365  0.566042  1
  Tm  Tm8  1  0.419932  0.249533  0.999905  1
  Tm  Tm9  1  0.579838  0.750394  0.999634  1
  Ru  Ru10  1  0.601922  0.425262  0.780292  1
  Ru  Ru11  1  0.821571  0.076360  0.218867  1
  Ru  Ru12  1  0.397262  0.575671  0.220099  1
  Ru  Ru13  1  0.178625  0.922974  0.780437  1
