# generated using pymatgen
data_LiGdSiO4
_symmetry_space_group_name_H-M   'P 1'
_cell_length_a   6.30251800
_cell_length_b   5.51145387
_cell_length_c   11.05355826
_cell_angle_alpha   66.46318593
_cell_angle_beta   90.00000000
_cell_angle_gamma   90.00000000
_symmetry_Int_Tables_number   1
_chemical_formula_structural   LiGdSiO4
_chemical_formula_sum   'Li4 Gd4 Si4 O16'
_cell_volume   352.01301690
_cell_formula_units_Z   4
loop_
 _symmetry_equiv_pos_site_id
 _symmetry_equiv_pos_as_xyz
  1  'x, y, z'
loop_
 _atom_site_type_symbol
 _atom_site_label
 _atom_site_symmetry_multiplicity
 _atom_site_fract_x
 _atom_site_fract_y
 _atom_site_fract_z
 _atom_site_occupancy
  Li  Li0  1  0.134010  0.919284  0.429654  1
  Li  Li1  1  0.634010  0.080716  0.070346  1
  Li  Li2  1  0.865990  0.080716  0.570346  1
  Li  Li3  1  0.365990  0.919284  0.929654  1
  Gd  Gd4  1  0.116474  0.445302  0.847489  1
  Gd  Gd5  1  0.883526  0.554698  0.152511  1
  Gd  Gd6  1  0.616474  0.554698  0.652511  1
  Gd  Gd7  1  0.383526  0.445302  0.347489  1
  Si  Si8  1  0.651966  0.904744  0.359203  1
  Si  Si9  1  0.348034  0.095256  0.640797  1
  Si  Si10  1  0.151966  0.095256  0.140797  1
  Si  Si11  1  0.848034  0.904744  0.859203  1
  O  O12  1  0.858343  0.227611  0.776543  1
  O  O13  1  0.641657  0.227611  0.276543  1
  O  O14  1  0.163534  0.182548  0.526058  1
  O  O15  1  0.837056  0.761107  0.753150  1
  O  O16  1  0.141657  0.772389  0.223457  1
  O  O17  1  0.569324  0.222841  0.556257  1
  O  O18  1  0.662944  0.761107  0.253150  1
  O  O19  1  0.430676  0.777159  0.443743  1
  O  O20  1  0.069324  0.777159  0.943743  1
  O  O21  1  0.663534  0.817452  0.973942  1
  O  O22  1  0.162944  0.238893  0.246850  1
  O  O23  1  0.930676  0.222841  0.056257  1
  O  O24  1  0.336466  0.182548  0.026058  1
  O  O25  1  0.337056  0.238893  0.746850  1
  O  O26  1  0.358343  0.772389  0.723457  1
  O  O27  1  0.836466  0.817452  0.473942  1
