# generated using pymatgen
data_Yb2Co6SiB3
_symmetry_space_group_name_H-M   'P 1'
_cell_length_a   5.15500212
_cell_length_b   5.15574693
_cell_length_c   11.92168200
_cell_angle_alpha   90.00020475
_cell_angle_beta   89.99980984
_cell_angle_gamma   120.01262205
_symmetry_Int_Tables_number   1
_chemical_formula_structural   Yb2Co6SiB3
_chemical_formula_sum   'Yb4 Co12 Si2 B6'
_cell_volume   274.36793450
_cell_formula_units_Z   2
loop_
 _symmetry_equiv_pos_site_id
 _symmetry_equiv_pos_as_xyz
  1  'x, y, z'
loop_
 _atom_site_type_symbol
 _atom_site_label
 _atom_site_symmetry_multiplicity
 _atom_site_fract_x
 _atom_site_fract_y
 _atom_site_fract_z
 _atom_site_occupancy
  Yb  Yb0  1  0.999995  0.000015  0.500027  1
  Yb  Yb1  1  0.000007  0.999989  0.258425  1
  Yb  Yb2  1  0.999986  0.000005  0.741526  1
  Yb  Yb3  1  0.999994  0.999992  0.000007  1
  Co  Co4  1  0.500000  0.000001  0.384225  1
  Co  Co5  1  0.999999  0.500003  0.384230  1
  Co  Co6  1  0.500001  0.500003  0.384222  1
  Co  Co7  1  0.499989  0.000009  0.615783  1
  Co  Co8  1  0.499993  0.500009  0.615779  1
  Co  Co9  1  0.999992  0.500012  0.615777  1
  Co  Co10  1  0.500006  0.999991  0.153427  1
  Co  Co11  1  0.000002  0.499986  0.153418  1
  Co  Co12  1  0.500002  0.499990  0.153422  1
  Co  Co13  1  0.499988  0.000000  0.846573  1
  Co  Co14  1  0.499988  0.500000  0.846583  1
  Co  Co15  1  0.999991  0.500003  0.846562  1
  Si  Si16  1  0.333337  0.666685  0.000016  1
  Si  Si17  1  0.666653  0.333302  0.000016  1
  B  B18  1  0.333348  0.666679  0.266475  1
  B  B19  1  0.666654  0.333309  0.266475  1
  B  B20  1  0.666689  0.333365  0.733506  1
  B  B21  1  0.333292  0.666643  0.733505  1
  B  B22  1  0.333285  0.666665  0.500012  1
  B  B23  1  0.666706  0.333349  0.500012  1
