# generated using pymatgen
data_Tb9Ho(In2Te)2
_symmetry_space_group_name_H-M   'P 1'
_cell_length_a   6.56538800
_cell_length_b   9.00474540
_cell_length_c   9.03754900
_cell_angle_alpha   120.19077170
_cell_angle_beta   90.00095124
_cell_angle_gamma   89.99903807
_symmetry_Int_Tables_number   1
_chemical_formula_structural   Tb9Ho(In2Te)2
_chemical_formula_sum   'Tb9 Ho1 In4 Te2'
_cell_volume   461.82246546
_cell_formula_units_Z   1
loop_
 _symmetry_equiv_pos_site_id
 _symmetry_equiv_pos_as_xyz
  1  'x, y, z'
loop_
 _atom_site_type_symbol
 _atom_site_label
 _atom_site_symmetry_multiplicity
 _atom_site_fract_x
 _atom_site_fract_y
 _atom_site_fract_z
 _atom_site_occupancy
  Tb  Tb0  1  0.497281  0.332496  0.669327  1
  Tb  Tb1  1  0.497124  0.667537  0.336542  1
  Tb  Tb2  1  0.002887  0.667496  0.336535  1
  Tb  Tb3  1  0.002824  0.332554  0.669360  1
  Tb  Tb4  1  0.749971  0.233721  0.992414  1
  Tb  Tb5  1  0.749943  0.766920  0.758262  1
  Tb  Tb6  1  0.749989  0.000428  0.237012  1
  Tb  Tb7  1  0.249906  0.764564  0.001908  1
  Tb  Tb8  1  0.249921  0.233605  0.236218  1
  Ho  Ho9  1  0.249955  0.999740  0.763053  1
  In  In10  1  0.750051  0.000779  0.597414  1
  In  In11  1  0.250064  0.395442  0.003481  1
  In  In12  1  0.250031  0.604311  0.607537  1
  In  In13  1  0.249924  0.000662  0.398657  1
  Te  Te14  1  0.750081  0.610069  0.001950  1
  Te  Te15  1  0.750052  0.389679  0.390331  1
