# generated using pymatgen
data_Ho6Sc4Sn5Bi
_symmetry_space_group_name_H-M   'P 1'
_cell_length_a   8.81341700
_cell_length_b   8.79829680
_cell_length_c   6.25409000
_cell_angle_alpha   90.00000000
_cell_angle_beta   90.00000000
_cell_angle_gamma   120.05686129
_symmetry_Int_Tables_number   1
_chemical_formula_structural   Ho6Sc4Sn5Bi
_chemical_formula_sum   'Ho6 Sc4 Sn5 Bi1'
_cell_volume   419.74792876
_cell_formula_units_Z   1
loop_
 _symmetry_equiv_pos_site_id
 _symmetry_equiv_pos_as_xyz
  1  'x, y, z'
loop_
 _atom_site_type_symbol
 _atom_site_label
 _atom_site_symmetry_multiplicity
 _atom_site_fract_x
 _atom_site_fract_y
 _atom_site_fract_z
 _atom_site_occupancy
  Ho  Ho0  1  0.994639  0.756984  0.750000  1
  Ho  Ho1  1  0.000524  0.239763  0.250000  1
  Ho  Ho2  1  0.760761  0.760237  0.250000  1
  Ho  Ho3  1  0.764162  0.000000  0.750000  1
  Ho  Ho4  1  0.237656  0.243016  0.750000  1
  Ho  Ho5  1  0.238234  0.000000  0.250000  1
  Sc  Sc6  1  0.332434  0.662996  0.497855  1
  Sc  Sc7  1  0.669439  0.337004  0.002145  1
  Sc  Sc8  1  0.669439  0.337004  0.497855  1
  Sc  Sc9  1  0.332434  0.662996  0.002145  1
  Sn  Sn10  1  0.399906  0.399225  0.250000  1
  Sn  Sn11  1  0.000682  0.600775  0.250000  1
  Sn  Sn12  1  0.999810  0.400151  0.750000  1
  Sn  Sn13  1  0.599659  0.599849  0.750000  1
  Sn  Sn14  1  0.601220  0.000000  0.250000  1
  Bi  Bi15  1  0.399001  0.000000  0.750000  1
