# generated using pymatgen
data_Li2UV3O8
_symmetry_space_group_name_H-M   'P 1'
_cell_length_a   6.07221687
_cell_length_b   6.06660080
_cell_length_c   10.09393865
_cell_angle_alpha   90.02693907
_cell_angle_beta   89.90422740
_cell_angle_gamma   120.00332115
_symmetry_Int_Tables_number   1
_chemical_formula_structural   Li2UV3O8
_chemical_formula_sum   'Li4 U2 V6 O16'
_cell_volume   322.00958882
_cell_formula_units_Z   2
loop_
 _symmetry_equiv_pos_site_id
 _symmetry_equiv_pos_as_xyz
  1  'x, y, z'
loop_
 _atom_site_type_symbol
 _atom_site_label
 _atom_site_symmetry_multiplicity
 _atom_site_fract_x
 _atom_site_fract_y
 _atom_site_fract_z
 _atom_site_occupancy
  Li  Li0  1  0.334332  0.666972  0.902945  1
  Li  Li1  1  0.665434  0.332722  0.402635  1
  Li  Li2  1  0.000943  0.000598  0.992285  1
  Li  Li3  1  0.999353  0.999886  0.491921  1
  U  U4  1  0.332796  0.666724  0.486730  1
  U  U5  1  0.667219  0.333633  0.986625  1
  V  V6  1  0.663441  0.831599  0.213621  1
  V  V7  1  0.832097  0.664104  0.714192  1
  V  V8  1  0.831764  0.168148  0.714107  1
  V  V9  1  0.167599  0.831287  0.213845  1
  V  V10  1  0.168741  0.336290  0.214224  1
  V  V11  1  0.336344  0.168228  0.714124  1
  O  O12  1  0.331922  0.665626  0.110151  1
  O  O13  1  0.667138  0.334020  0.610811  1
  O  O14  1  0.000253  0.000514  0.309971  1
  O  O15  1  0.999538  0.999855  0.810578  1
  O  O16  1  0.163343  0.848526  0.598025  1
  O  O17  1  0.151945  0.314591  0.597853  1
  O  O18  1  0.315973  0.150521  0.098129  1
  O  O19  1  0.684426  0.836930  0.598022  1
  O  O20  1  0.835625  0.684903  0.097944  1
  O  O21  1  0.848658  0.163093  0.097862  1
  O  O22  1  0.029277  0.523755  0.338973  1
  O  O23  1  0.493094  0.969615  0.338764  1
  O  O24  1  0.477323  0.507311  0.338055  1
  O  O25  1  0.507853  0.477868  0.838749  1
  O  O26  1  0.522249  0.029927  0.838437  1
  O  O27  1  0.971318  0.493053  0.838257  1
