# generated using pymatgen
data_Ho4Al18ReNi5
_symmetry_space_group_name_H-M   'P 1'
_cell_length_a   7.40481603
_cell_length_b   7.40481608
_cell_length_c   9.24896258
_cell_angle_alpha   89.65422902
_cell_angle_beta   89.65422361
_cell_angle_gamma   118.81408122
_symmetry_Int_Tables_number   1
_chemical_formula_structural   Ho4Al18ReNi5
_chemical_formula_sum   'Ho4 Al18 Re1 Ni5'
_cell_volume   444.31243135
_cell_formula_units_Z   1
loop_
 _symmetry_equiv_pos_site_id
 _symmetry_equiv_pos_as_xyz
  1  'x, y, z'
loop_
 _atom_site_type_symbol
 _atom_site_label
 _atom_site_symmetry_multiplicity
 _atom_site_fract_x
 _atom_site_fract_y
 _atom_site_fract_z
 _atom_site_occupancy
  Ho  Ho0  1  0.994435  0.678940  0.248578  1
  Ho  Ho1  1  0.005565  0.321060  0.751422  1
  Ho  Ho2  1  0.678940  0.994435  0.248578  1
  Ho  Ho3  1  0.321060  0.005565  0.751422  1
  Al  Al4  1  0.134698  0.134698  0.253082  1
  Al  Al5  1  0.865302  0.865302  0.746918  1
  Al  Al6  1  0.998681  0.338761  0.074223  1
  Al  Al7  1  0.001319  0.661239  0.925777  1
  Al  Al8  1  0.002507  0.661362  0.574948  1
  Al  Al9  1  0.338638  0.997493  0.425052  1
  Al  Al10  1  0.997493  0.338638  0.425052  1
  Al  Al11  1  0.661362  0.002507  0.574948  1
  Al  Al12  1  0.661239  0.001319  0.925777  1
  Al  Al13  1  0.338761  0.998681  0.074223  1
  Al  Al14  1  0.332434  0.332434  0.545170  1
  Al  Al15  1  0.667566  0.667567  0.454830  1
  Al  Al16  1  0.664232  0.664233  0.046357  1
  Al  Al17  1  0.335768  0.335768  0.953643  1
  Al  Al18  1  0.343048  0.558514  0.250261  1
  Al  Al19  1  0.656952  0.441486  0.749739  1
  Al  Al20  1  0.558514  0.343048  0.250261  1
  Al  Al21  1  0.441486  0.656952  0.749739  1
  Re  Re22  1  0.000000  0.000000  0.000000  1
  Ni  Ni23  1  0.671166  0.328834  0.000000  1
  Ni  Ni24  1  0.328834  0.671166  0.000000  1
  Ni  Ni25  1  0.328498  0.671502  0.500000  1
  Ni  Ni26  1  0.671502  0.328498  0.500000  1
  Ni  Ni27  1  0.000000  0.000000  0.500000  1
