# generated using pymatgen
data_LiTbPt4
_symmetry_space_group_name_H-M   'P 1'
_cell_length_a   5.35917105
_cell_length_b   5.35917159
_cell_length_c   5.35917100
_cell_angle_alpha   59.99999744
_cell_angle_beta   59.99999415
_cell_angle_gamma   59.99999226
_symmetry_Int_Tables_number   1
_chemical_formula_structural   LiTbPt4
_chemical_formula_sum   'Li1 Tb1 Pt4'
_cell_volume   108.83732141
_cell_formula_units_Z   1
loop_
 _symmetry_equiv_pos_site_id
 _symmetry_equiv_pos_as_xyz
  1  'x, y, z'
loop_
 _atom_site_type_symbol
 _atom_site_label
 _atom_site_symmetry_multiplicity
 _atom_site_fract_x
 _atom_site_fract_y
 _atom_site_fract_z
 _atom_site_occupancy
  Li  Li0  1  0.000000  0.000000  0.000000  1
  Tb  Tb1  1  0.250000  0.250000  0.250000  1
  Pt  Pt2  1  0.123746  0.625418  0.625418  1
  Pt  Pt3  1  0.625418  0.625418  0.625418  1
  Pt  Pt4  1  0.625418  0.625418  0.123746  1
  Pt  Pt5  1  0.625418  0.123746  0.625418  1
