# generated using pymatgen
data_Ho8Mg2Co4BiSb
_symmetry_space_group_name_H-M   'P 1'
_cell_length_a   8.86418609
_cell_length_b   8.86418730
_cell_length_c   8.86151999
_cell_angle_alpha   131.64440890
_cell_angle_beta   131.64441690
_cell_angle_gamma   70.81342823
_symmetry_Int_Tables_number   1
_chemical_formula_structural   Ho8Mg2Co4BiSb
_chemical_formula_sum   'Ho8 Mg2 Co4 Bi1 Sb1'
_cell_volume   380.79446297
_cell_formula_units_Z   1
loop_
 _symmetry_equiv_pos_site_id
 _symmetry_equiv_pos_as_xyz
  1  'x, y, z'
loop_
 _atom_site_type_symbol
 _atom_site_label
 _atom_site_symmetry_multiplicity
 _atom_site_fract_x
 _atom_site_fract_y
 _atom_site_fract_z
 _atom_site_occupancy
  Ho  Ho0  1  0.692468  0.554143  0.493711  1
  Ho  Ho1  1  0.439942  0.946102  0.139110  1
  Ho  Ho2  1  0.807113  0.300724  0.860901  1
  Ho  Ho3  1  0.553898  0.060058  0.860890  1
  Ho  Ho4  1  0.060245  0.198724  0.506287  1
  Ho  Ho5  1  0.301276  0.439755  0.493713  1
  Ho  Ho6  1  0.199276  0.692887  0.139099  1
  Ho  Ho7  1  0.945857  0.807532  0.506289  1
  Mg  Mg8  1  0.999450  0.999389  0.002547  1
  Mg  Mg9  1  0.500611  0.500550  0.997453  1
  Co  Co10  1  0.109999  0.609947  0.719954  1
  Co  Co11  1  0.890053  0.390001  0.280046  1
  Co  Co12  1  0.610015  0.889985  0.500000  1
  Co  Co13  1  0.389751  0.110249  0.500000  1
  Bi  Bi14  1  0.750020  0.749980  0.000000  1
  Sb  Sb15  1  0.250026  0.249974  0.000000  1
