# generated using pymatgen
data_Y2Fe11CoP7
_symmetry_space_group_name_H-M   'P 1'
_cell_length_a   3.64708700
_cell_length_b   8.96887312
_cell_length_c   8.94505669
_cell_angle_alpha   119.98666125
_cell_angle_beta   90.00000000
_cell_angle_gamma   90.00000000
_symmetry_Int_Tables_number   1
_chemical_formula_structural   Y2Fe11CoP7
_chemical_formula_sum   'Y2 Fe11 Co1 P7'
_cell_volume   253.42887209
_cell_formula_units_Z   1
loop_
 _symmetry_equiv_pos_site_id
 _symmetry_equiv_pos_as_xyz
  1  'x, y, z'
loop_
 _atom_site_type_symbol
 _atom_site_label
 _atom_site_symmetry_multiplicity
 _atom_site_fract_x
 _atom_site_fract_y
 _atom_site_fract_z
 _atom_site_occupancy
  Y  Y0  1  0.000000  0.666055  0.333116  1
  Y  Y1  1  0.500000  0.333332  0.667164  1
  Fe  Fe2  1  0.000000  0.369163  0.944620  1
  Fe  Fe3  1  0.000000  0.056065  0.426397  1
  Fe  Fe4  1  0.000000  0.574176  0.631583  1
  Fe  Fe5  1  0.000000  0.880925  0.724805  1
  Fe  Fe6  1  0.000000  0.273385  0.154488  1
  Fe  Fe7  1  0.000000  0.845928  0.119244  1
  Fe  Fe8  1  0.500000  0.432226  0.383767  1
  Fe  Fe9  1  0.500000  0.616235  0.049170  1
  Fe  Fe10  1  0.500000  0.119273  0.902887  1
  Fe  Fe11  1  0.500000  0.095630  0.213944  1
  Fe  Fe12  1  0.500000  0.788232  0.883082  1
  Co  Co13  1  0.500000  0.949513  0.564494  1
  P  P14  1  0.000000  0.112514  0.702345  1
  P  P15  1  0.000000  0.298895  0.411594  1
  P  P16  1  0.000000  0.589235  0.889070  1
  P  P17  1  0.500000  0.710027  0.600922  1
  P  P18  1  0.500000  0.400861  0.111211  1
  P  P19  1  0.500000  0.888695  0.287190  1
  P  P20  1  0.000000  0.999632  0.998904  1
