# generated using pymatgen
data_Tb3B6Ir7Ru
_symmetry_space_group_name_H-M   'P 1'
_cell_length_a   10.00041671
_cell_length_b   9.17257286
_cell_length_c   5.60875442
_cell_angle_alpha   81.28752823
_cell_angle_beta   65.04442458
_cell_angle_gamma   33.42981641
_symmetry_Int_Tables_number   1
_chemical_formula_structural   Tb3B6Ir7Ru
_chemical_formula_sum   'Tb3 B6 Ir7 Ru1'
_cell_volume   235.33201103
_cell_formula_units_Z   1
loop_
 _symmetry_equiv_pos_site_id
 _symmetry_equiv_pos_as_xyz
  1  'x, y, z'
loop_
 _atom_site_type_symbol
 _atom_site_label
 _atom_site_symmetry_multiplicity
 _atom_site_fract_x
 _atom_site_fract_y
 _atom_site_fract_z
 _atom_site_occupancy
  Tb  Tb0  1  0.999468  0.999468  0.000532  1
  Tb  Tb1  1  0.821332  0.821332  0.178668  1
  Tb  Tb2  1  0.179483  0.179483  0.820517  1
  B  B3  1  0.666427  0.331925  0.675904  1
  B  B4  1  0.331925  0.666427  0.325743  1
  B  B5  1  0.176613  0.478427  0.512986  1
  B  B6  1  0.478427  0.176613  0.831974  1
  B  B7  1  0.826924  0.519611  0.481743  1
  B  B8  1  0.519611  0.826924  0.171723  1
  Ir  Ir9  1  0.913855  0.913855  0.586145  1
  Ir  Ir10  1  0.414821  0.414821  0.585179  1
  Ir  Ir11  1  0.586384  0.586384  0.413616  1
  Ir  Ir12  1  0.249647  0.249647  0.250353  1
  Ir  Ir13  1  0.750293  0.750293  0.749707  1
  Ir  Ir14  1  0.085633  0.085633  0.414367  1
  Ir  Ir15  1  0.585605  0.585605  0.914395  1
  Ru  Ru16  1  0.413552  0.413552  0.086448  1
