# generated using pymatgen
data_Mg4Co(PIr)6
_symmetry_space_group_name_H-M   'P 1'
_cell_length_a   6.82749953
_cell_length_b   6.82749899
_cell_length_c   6.82749882
_cell_angle_alpha   109.14576390
_cell_angle_beta   109.14576674
_cell_angle_gamma   110.12412170
_symmetry_Int_Tables_number   1
_chemical_formula_structural   Mg4Co(PIr)6
_chemical_formula_sum   'Mg4 Co1 P6 Ir6'
_cell_volume   244.97437288
_cell_formula_units_Z   1
loop_
 _symmetry_equiv_pos_site_id
 _symmetry_equiv_pos_as_xyz
  1  'x, y, z'
loop_
 _atom_site_type_symbol
 _atom_site_label
 _atom_site_symmetry_multiplicity
 _atom_site_fract_x
 _atom_site_fract_y
 _atom_site_fract_z
 _atom_site_occupancy
  Mg  Mg0  1  0.500752  0.499248  0.500000  1
  Mg  Mg1  1  0.999248  0.000752  0.500000  1
  Mg  Mg2  1  0.500752  0.000752  0.001505  1
  Mg  Mg3  1  0.999248  0.499248  0.998495  1
  Co  Co4  1  0.250000  0.750000  0.500000  1
  P  P5  1  0.313159  0.992454  0.320704  1
  P  P6  1  0.671750  0.992454  0.679296  1
  P  P7  1  0.007546  0.686841  0.679296  1
  P  P8  1  0.007546  0.328250  0.320704  1
  P  P9  1  0.684057  0.684057  0.000000  1
  P  P10  1  0.315943  0.315943  0.000000  1
  Ir  Ir11  1  0.000000  0.000000  0.000000  1
  Ir  Ir12  1  0.257435  0.508606  0.748829  1
  Ir  Ir13  1  0.491394  0.742565  0.251171  1
  Ir  Ir14  1  0.491394  0.240223  0.748829  1
  Ir  Ir15  1  0.750000  0.250000  0.500000  1
  Ir  Ir16  1  0.759777  0.508606  0.251171  1
