# generated using pymatgen
data_Tb3HoCo4F28
_symmetry_space_group_name_H-M   'P 1'
_cell_length_a   5.41995304
_cell_length_b   8.69905245
_cell_length_c   11.68685400
_cell_angle_alpha   62.37769006
_cell_angle_beta   90.09237179
_cell_angle_gamma   90.00168849
_symmetry_Int_Tables_number   1
_chemical_formula_structural   Tb3HoCo4F28
_chemical_formula_sum   'Tb3 Ho1 Co4 F28'
_cell_volume   488.21310851
_cell_formula_units_Z   1
loop_
 _symmetry_equiv_pos_site_id
 _symmetry_equiv_pos_as_xyz
  1  'x, y, z'
loop_
 _atom_site_type_symbol
 _atom_site_label
 _atom_site_symmetry_multiplicity
 _atom_site_fract_x
 _atom_site_fract_y
 _atom_site_fract_z
 _atom_site_occupancy
  Tb  Tb0  1  0.735017  0.190896  0.735317  1
  Tb  Tb1  1  0.763262  0.189987  0.234988  1
  Tb  Tb2  1  0.235578  0.808445  0.764862  1
  Ho  Ho3  1  0.265912  0.808245  0.264724  1
  Co  Co4  1  0.761502  0.726362  0.045092  1
  Co  Co5  1  0.241037  0.273277  0.957218  1
  Co  Co6  1  0.258830  0.275305  0.455987  1
  Co  Co7  1  0.740458  0.726089  0.541710  1
  F  F8  1  0.927424  0.704218  0.422523  1
  F  F9  1  0.072477  0.295730  0.576219  1
  F  F10  1  0.428861  0.292872  0.077292  1
  F  F11  1  0.569275  0.706390  0.926462  1
  F  F12  1  0.486524  0.727956  0.133735  1
  F  F13  1  0.518725  0.272087  0.870422  1
  F  F14  1  0.983654  0.271549  0.368459  1
  F  F15  1  0.015957  0.727248  0.630328  1
  F  F16  1  0.951383  0.742608  0.168237  1
  F  F17  1  0.054727  0.258723  0.832693  1
  F  F18  1  0.444429  0.260382  0.330743  1
  F  F19  1  0.552901  0.742427  0.665969  1
  F  F20  1  0.772212  0.492511  0.138687  1
  F  F21  1  0.231025  0.507596  0.864217  1
  F  F22  1  0.269210  0.509223  0.362230  1
  F  F23  1  0.728342  0.492402  0.635369  1
  F  F24  1  0.958712  0.281445  0.039185  1
  F  F25  1  0.041816  0.718284  0.961993  1
  F  F26  1  0.459867  0.717738  0.458012  1
  F  F27  1  0.539553  0.284660  0.538656  1
  F  F28  1  0.740634  0.958007  0.454568  1
  F  F29  1  0.259079  0.043415  0.543656  1
  F  F30  1  0.241796  0.041113  0.045644  1
  F  F31  1  0.760214  0.958563  0.955440  1
  F  F32  1  0.592017  0.968650  0.227264  1
  F  F33  1  0.402084  0.031061  0.772641  1
  F  F34  1  0.093251  0.025676  0.272576  1
  F  F35  1  0.902258  0.968856  0.726881  1
