# generated using pymatgen
data_Er12Co4CuBi
_symmetry_space_group_name_H-M   'P 1'
_cell_length_a   8.27057879
_cell_length_b   8.27057736
_cell_length_c   8.27057792
_cell_angle_alpha   110.07570302
_cell_angle_beta   111.30466468
_cell_angle_gamma   107.06230623
_symmetry_Int_Tables_number   1
_chemical_formula_structural   Er12Co4CuBi
_chemical_formula_sum   'Er12 Co4 Cu1 Bi1'
_cell_volume   434.87088328
_cell_formula_units_Z   1
loop_
 _symmetry_equiv_pos_site_id
 _symmetry_equiv_pos_as_xyz
  1  'x, y, z'
loop_
 _atom_site_type_symbol
 _atom_site_label
 _atom_site_symmetry_multiplicity
 _atom_site_fract_x
 _atom_site_fract_y
 _atom_site_fract_z
 _atom_site_occupancy
  Er  Er0  1  0.287077  0.182814  0.469891  1
  Er  Er1  1  0.712923  0.817186  0.530109  1
  Er  Er2  1  0.287077  0.817186  0.104262  1
  Er  Er3  1  0.712923  0.182814  0.895738  1
  Er  Er4  1  0.621614  0.312976  0.308638  1
  Er  Er5  1  0.378386  0.687024  0.691362  1
  Er  Er6  1  0.004340  0.312976  0.691362  1
  Er  Er7  1  0.995660  0.687024  0.308638  1
  Er  Er8  1  0.213169  0.414287  0.201118  1
  Er  Er9  1  0.786831  0.585713  0.798882  1
  Er  Er10  1  0.213169  0.012051  0.798882  1
  Er  Er11  1  0.786831  0.987949  0.201118  1
  Co  Co12  1  0.000000  0.375900  0.375900  1
  Co  Co13  1  0.000000  0.624100  0.624100  1
  Co  Co14  1  0.387265  0.887265  0.500000  1
  Co  Co15  1  0.612735  0.112735  0.500000  1
  Cu  Cu16  1  0.000000  0.000000  0.000000  1
  Bi  Bi17  1  0.500000  0.500000  0.000000  1
