# generated using pymatgen
data_MgZr6Ti(Ir2N)2
_symmetry_space_group_name_H-M   'P 1'
_cell_length_a   8.66275889
_cell_length_b   8.65474355
_cell_length_c   8.65474427
_cell_angle_alpha   59.84655574
_cell_angle_beta   59.96936104
_cell_angle_gamma   59.96935654
_symmetry_Int_Tables_number   1
_chemical_formula_structural   MgZr6Ti(Ir2N)2
_chemical_formula_sum   'Mg2 Zr12 Ti2 Ir8 N4'
_cell_volume   458.08142260
_cell_formula_units_Z   2
loop_
 _symmetry_equiv_pos_site_id
 _symmetry_equiv_pos_as_xyz
  1  'x, y, z'
loop_
 _atom_site_type_symbol
 _atom_site_label
 _atom_site_symmetry_multiplicity
 _atom_site_fract_x
 _atom_site_fract_y
 _atom_site_fract_z
 _atom_site_occupancy
  Mg  Mg0  1  0.125000  0.625000  0.625000  1
  Mg  Mg1  1  0.625000  0.625000  0.625000  1
  Zr  Zr2  1  0.809694  0.811098  0.191416  1
  Zr  Zr3  1  0.187790  0.191416  0.811098  1
  Zr  Zr4  1  0.809694  0.191416  0.811098  1
  Zr  Zr5  1  0.187790  0.811098  0.191416  1
  Zr  Zr6  1  0.187437  0.812563  0.812563  1
  Zr  Zr7  1  0.810729  0.189271  0.189271  1
  Zr  Zr8  1  0.440306  0.438902  0.058584  1
  Zr  Zr9  1  0.062210  0.058584  0.438902  1
  Zr  Zr10  1  0.440306  0.058584  0.438902  1
  Zr  Zr11  1  0.062210  0.438902  0.058584  1
  Zr  Zr12  1  0.062563  0.437437  0.437437  1
  Zr  Zr13  1  0.439271  0.060729  0.060729  1
  Ti  Ti14  1  0.625000  0.125000  0.625000  1
  Ti  Ti15  1  0.625000  0.625000  0.125000  1
  Ir  Ir16  1  0.754054  0.411838  0.411838  1
  Ir  Ir17  1  0.419915  0.752108  0.408065  1
  Ir  Ir18  1  0.419915  0.408065  0.752108  1
  Ir  Ir19  1  0.422272  0.411838  0.411838  1
  Ir  Ir20  1  0.495946  0.838162  0.838162  1
  Ir  Ir21  1  0.830085  0.497892  0.841935  1
  Ir  Ir22  1  0.830085  0.841935  0.497892  1
  Ir  Ir23  1  0.827728  0.838162  0.838162  1
  N  N24  1  0.625000  0.125000  0.125000  1
  N  N25  1  0.125000  0.625000  0.125000  1
  N  N26  1  0.125000  0.125000  0.625000  1
  N  N27  1  0.125000  0.125000  0.125000  1
