# generated using pymatgen
data_Ta4GaB2Mo
_symmetry_space_group_name_H-M   'P 1'
_cell_length_a   7.32178807
_cell_length_b   7.32178873
_cell_length_c   7.32036491
_cell_angle_alpha   129.64187873
_cell_angle_beta   129.64188450
_cell_angle_gamma   73.99529907
_symmetry_Int_Tables_number   1
_chemical_formula_structural   Ta4GaB2Mo
_chemical_formula_sum   'Ta8 Ga2 B4 Mo2'
_cell_volume   226.92544024
_cell_formula_units_Z   2
loop_
 _symmetry_equiv_pos_site_id
 _symmetry_equiv_pos_as_xyz
  1  'x, y, z'
loop_
 _atom_site_type_symbol
 _atom_site_label
 _atom_site_symmetry_multiplicity
 _atom_site_fract_x
 _atom_site_fract_y
 _atom_site_fract_z
 _atom_site_occupancy
  Ta  Ta0  1  0.802660  0.968723  0.499933  1
  Ta  Ta1  1  0.302954  0.802954  0.834340  1
  Ta  Ta2  1  0.197340  0.031277  0.500067  1
  Ta  Ta3  1  0.531277  0.697340  0.500067  1
  Ta  Ta4  1  0.031427  0.531427  0.834317  1
  Ta  Ta5  1  0.697046  0.197046  0.165660  1
  Ta  Ta6  1  0.968573  0.468573  0.165683  1
  Ta  Ta7  1  0.468723  0.302660  0.499933  1
  Ga  Ga8  1  0.749985  0.750015  0.000000  1
  Ga  Ga9  1  0.250015  0.249985  0.000000  1
  B  B10  1  0.379932  0.879932  0.259880  1
  B  B11  1  0.879793  0.620207  0.500000  1
  B  B12  1  0.620068  0.120068  0.740120  1
  B  B13  1  0.120207  0.379793  0.500000  1
  Mo  Mo14  1  0.000000  0.000000  0.000000  1
  Mo  Mo15  1  0.500000  0.500000  0.000000  1
