# generated using pymatgen
data_Sm3DyMn4F28
_symmetry_space_group_name_H-M   'P 1'
_cell_length_a   5.48217162
_cell_length_b   8.84257605
_cell_length_c   11.85140298
_cell_angle_alpha   62.21245667
_cell_angle_beta   90.05461220
_cell_angle_gamma   90.02506734
_symmetry_Int_Tables_number   1
_chemical_formula_structural   Sm3DyMn4F28
_chemical_formula_sum   'Sm3 Dy1 Mn4 F28'
_cell_volume   508.26284457
_cell_formula_units_Z   1
loop_
 _symmetry_equiv_pos_site_id
 _symmetry_equiv_pos_as_xyz
  1  'x, y, z'
loop_
 _atom_site_type_symbol
 _atom_site_label
 _atom_site_symmetry_multiplicity
 _atom_site_fract_x
 _atom_site_fract_y
 _atom_site_fract_z
 _atom_site_occupancy
  Sm  Sm0  1  0.260581  0.188177  0.735891  1
  Sm  Sm1  1  0.239159  0.190901  0.235595  1
  Sm  Sm2  1  0.739252  0.808455  0.264355  1
  Dy  Dy3  1  0.762069  0.808417  0.764189  1
  Mn  Mn4  1  0.757508  0.276467  0.956010  1
  Mn  Mn5  1  0.258584  0.726413  0.544994  1
  Mn  Mn6  1  0.242492  0.726398  0.040537  1
  Mn  Mn7  1  0.743093  0.272358  0.458292  1
  F  F8  1  0.430955  0.707443  0.919827  1
  F  F9  1  0.928539  0.292497  0.579710  1
  F  F10  1  0.572370  0.294713  0.078014  1
  F  F11  1  0.071158  0.707021  0.423721  1
  F  F12  1  0.458019  0.280634  0.538914  1
  F  F13  1  0.957479  0.720119  0.957992  1
  F  F14  1  0.541403  0.718486  0.462700  1
  F  F15  1  0.042461  0.283209  0.037259  1
  F  F16  1  0.769306  0.512635  0.862375  1
  F  F17  1  0.269992  0.491206  0.638265  1
  F  F18  1  0.228772  0.491657  0.134772  1
  F  F19  1  0.730162  0.507737  0.364413  1
  F  F20  1  0.758741  0.042342  0.045727  1
  F  F21  1  0.258913  0.960014  0.454467  1
  F  F22  1  0.241942  0.960526  0.952424  1
  F  F23  1  0.741607  0.038421  0.548280  1
  F  F24  1  0.980612  0.728949  0.632378  1
  F  F25  1  0.479150  0.273364  0.869969  1
  F  F26  1  0.022039  0.271798  0.372073  1
  F  F27  1  0.520183  0.727427  0.127986  1
  F  F28  1  0.058330  0.741234  0.166376  1
  F  F29  1  0.560492  0.258020  0.332222  1
  F  F30  1  0.940181  0.260702  0.830471  1
  F  F31  1  0.446547  0.743119  0.669437  1
  F  F32  1  0.399245  0.965830  0.226842  1
  F  F33  1  0.899300  0.033773  0.273018  1
  F  F34  1  0.598599  0.025974  0.772120  1
  F  F35  1  0.090765  0.963565  0.728385  1
