# generated using pymatgen
data_Tb8Ti10NbSi16Pd
_symmetry_space_group_name_H-M   'P 1'
_cell_length_a   7.07700078
_cell_length_b   7.07700038
_cell_length_c   12.93400536
_cell_angle_alpha   90.26317679
_cell_angle_beta   89.73682191
_cell_angle_gamma   89.67247211
_symmetry_Int_Tables_number   1
_chemical_formula_structural   Tb8Ti10NbSi16Pd
_chemical_formula_sum   'Tb8 Ti10 Nb1 Si16 Pd1'
_cell_volume   647.76158260
_cell_formula_units_Z   1
loop_
 _symmetry_equiv_pos_site_id
 _symmetry_equiv_pos_as_xyz
  1  'x, y, z'
loop_
 _atom_site_type_symbol
 _atom_site_label
 _atom_site_symmetry_multiplicity
 _atom_site_fract_x
 _atom_site_fract_y
 _atom_site_fract_z
 _atom_site_occupancy
  Tb  Tb0  1  0.340457  0.002741  0.467358  1
  Tb  Tb1  1  0.497125  0.840470  0.717371  1
  Tb  Tb2  1  0.501383  0.159267  0.214306  1
  Tb  Tb3  1  0.840470  0.497125  0.282629  1
  Tb  Tb4  1  0.159267  0.501383  0.785694  1
  Tb  Tb5  1  0.657005  0.999440  0.968394  1
  Tb  Tb6  1  0.002741  0.340457  0.532642  1
  Tb  Tb7  1  0.999440  0.657005  0.031606  1
  Ti  Ti8  1  0.175340  0.826658  0.248931  1
  Ti  Ti9  1  0.826658  0.175340  0.751069  1
  Ti  Ti10  1  0.149533  0.006181  0.877323  1
  Ti  Ti11  1  0.493072  0.653778  0.124586  1
  Ti  Ti12  1  0.509022  0.349761  0.626274  1
  Ti  Ti13  1  0.653778  0.493072  0.875414  1
  Ti  Ti14  1  0.349761  0.509022  0.373726  1
  Ti  Ti15  1  0.847545  0.991390  0.375608  1
  Ti  Ti16  1  0.006181  0.149533  0.122677  1
  Ti  Ti17  1  0.991390  0.847545  0.624392  1
  Nb  Nb18  1  0.673187  0.673187  0.500000  1
  Si  Si19  1  0.201579  0.131355  0.685927  1
  Si  Si20  1  0.373723  0.709645  0.933388  1
  Si  Si21  1  0.629709  0.295313  0.434271  1
  Si  Si22  1  0.709645  0.373723  0.066612  1
  Si  Si23  1  0.295313  0.629709  0.565729  1
  Si  Si24  1  0.797739  0.869905  0.183805  1
  Si  Si25  1  0.131355  0.201579  0.314073  1
  Si  Si26  1  0.869905  0.797739  0.816195  1
  Si  Si27  1  0.285961  0.943497  0.064815  1
  Si  Si28  1  0.546214  0.792217  0.313556  1
  Si  Si29  1  0.451217  0.210199  0.813880  1
  Si  Si30  1  0.792217  0.546214  0.686444  1
  Si  Si31  1  0.210199  0.451217  0.186120  1
  Si  Si32  1  0.709371  0.048334  0.565163  1
  Si  Si33  1  0.943497  0.285961  0.935185  1
  Si  Si34  1  0.048334  0.709371  0.434837  1
  Pd  Pd35  1  0.330668  0.330668  0.000000  1
