# generated using pymatgen
data_HoEr3(PbO4)3
_symmetry_space_group_name_H-M   'P 1'
_cell_length_a   6.44302439
_cell_length_b   6.52214203
_cell_length_c   6.70699238
_cell_angle_alpha   100.47666852
_cell_angle_beta   98.46704516
_cell_angle_gamma   99.60724645
_symmetry_Int_Tables_number   1
_chemical_formula_structural   HoEr3(PbO4)3
_chemical_formula_sum   'Ho1 Er3 Pb3 O12'
_cell_volume   268.63476475
_cell_formula_units_Z   1
loop_
 _symmetry_equiv_pos_site_id
 _symmetry_equiv_pos_as_xyz
  1  'x, y, z'
loop_
 _atom_site_type_symbol
 _atom_site_label
 _atom_site_symmetry_multiplicity
 _atom_site_fract_x
 _atom_site_fract_y
 _atom_site_fract_z
 _atom_site_occupancy
  Ho  Ho0  1  0.305406  0.131091  0.611313  1
  Er  Er1  1  0.394480  0.699708  0.863079  1
  Er  Er2  1  0.694255  0.868663  0.388677  1
  Er  Er3  1  0.605848  0.300536  0.137181  1
  Pb  Pb4  1  0.999890  0.999910  0.999946  1
  Pb  Pb5  1  0.849580  0.398190  0.674309  1
  Pb  Pb6  1  0.150295  0.601960  0.325478  1
  O  O7  1  0.045930  0.676059  0.891733  1
  O  O8  1  0.679223  0.934441  0.063683  1
  O  O9  1  0.921594  0.074885  0.684581  1
  O  O10  1  0.954127  0.323900  0.108202  1
  O  O11  1  0.320844  0.065356  0.937216  1
  O  O12  1  0.077281  0.924470  0.314794  1
  O  O13  1  0.576131  0.183115  0.426030  1
  O  O14  1  0.177471  0.423993  0.580894  1
  O  O15  1  0.424256  0.585377  0.174199  1
  O  O16  1  0.425201  0.816100  0.573519  1
  O  O17  1  0.822042  0.577031  0.419004  1
  O  O18  1  0.576147  0.415216  0.826163  1
