# generated using pymatgen
data_Hf2CuRh3Au2
_symmetry_space_group_name_H-M   'P 1'
_cell_length_a   3.83346700
_cell_length_b   5.80626200
_cell_length_c   11.55702000
_cell_angle_alpha   90.00000000
_cell_angle_beta   90.00000000
_cell_angle_gamma   90.00000000
_symmetry_Int_Tables_number   1
_chemical_formula_structural   Hf2CuRh3Au2
_chemical_formula_sum   'Hf4 Cu2 Rh6 Au4'
_cell_volume   257.23746601
_cell_formula_units_Z   2
loop_
 _symmetry_equiv_pos_site_id
 _symmetry_equiv_pos_as_xyz
  1  'x, y, z'
loop_
 _atom_site_type_symbol
 _atom_site_label
 _atom_site_symmetry_multiplicity
 _atom_site_fract_x
 _atom_site_fract_y
 _atom_site_fract_z
 _atom_site_occupancy
  Hf  Hf0  1  0.500000  0.222609  0.631972  1
  Hf  Hf1  1  0.500000  0.777391  0.368028  1
  Hf  Hf2  1  0.500000  0.722609  0.868028  1
  Hf  Hf3  1  0.500000  0.277391  0.131972  1
  Cu  Cu4  1  0.000000  0.500000  0.500000  1
  Cu  Cu5  1  0.000000  0.000000  0.000000  1
  Rh  Rh6  1  0.000000  0.471884  0.747326  1
  Rh  Rh7  1  0.000000  0.528116  0.252674  1
  Rh  Rh8  1  0.000000  0.000000  0.500000  1
  Rh  Rh9  1  0.000000  0.500000  0.000000  1
  Rh  Rh10  1  0.000000  0.028116  0.247326  1
  Rh  Rh11  1  0.000000  0.971884  0.752674  1
  Au  Au12  1  0.500000  0.224256  0.882328  1
  Au  Au13  1  0.500000  0.775744  0.117672  1
  Au  Au14  1  0.500000  0.724256  0.617672  1
  Au  Au15  1  0.500000  0.275744  0.382328  1
