# generated using pymatgen
data_RbNa3CoO4
_symmetry_space_group_name_H-M   'P 1'
_cell_length_a   6.46809039
_cell_length_b   8.49730576
_cell_length_c   11.19773184
_cell_angle_alpha   82.91988324
_cell_angle_beta   76.20691739
_cell_angle_gamma   79.47105903
_symmetry_Int_Tables_number   1
_chemical_formula_structural   RbNa3CoO4
_chemical_formula_sum   'Rb4 Na12 Co4 O16'
_cell_volume   585.58106388
_cell_formula_units_Z   4
loop_
 _symmetry_equiv_pos_site_id
 _symmetry_equiv_pos_as_xyz
  1  'x, y, z'
loop_
 _atom_site_type_symbol
 _atom_site_label
 _atom_site_symmetry_multiplicity
 _atom_site_fract_x
 _atom_site_fract_y
 _atom_site_fract_z
 _atom_site_occupancy
  Rb  Rb0  1  0.021847  0.125777  0.626501  1
  Rb  Rb1  1  0.978153  0.874223  0.373499  1
  Rb  Rb2  1  0.042038  0.377401  0.865324  1
  Rb  Rb3  1  0.957962  0.622599  0.134676  1
  Na  Na4  1  0.204719  0.164494  0.145368  1
  Na  Na5  1  0.795281  0.835506  0.854632  1
  Na  Na6  1  0.499409  0.664971  0.393005  1
  Na  Na7  1  0.500591  0.335029  0.606995  1
  Na  Na8  1  0.178737  0.441891  0.397470  1
  Na  Na9  1  0.540547  0.433557  0.125524  1
  Na  Na10  1  0.208690  0.943477  0.896073  1
  Na  Na11  1  0.791310  0.056523  0.103927  1
  Na  Na12  1  0.567163  0.958008  0.624203  1
  Na  Na13  1  0.432837  0.041992  0.375797  1
  Na  Na14  1  0.459453  0.566443  0.874476  1
  Na  Na15  1  0.821263  0.558109  0.602530  1
  Co  Co16  1  0.162178  0.716812  0.645343  1
  Co  Co17  1  0.837822  0.283188  0.354657  1
  Co  Co18  1  0.585398  0.216548  0.860322  1
  Co  Co19  1  0.414602  0.783452  0.139678  1
  O  O20  1  0.342325  0.841490  0.543617  1
  O  O21  1  0.657675  0.158510  0.456383  1
  O  O22  1  0.430562  0.120390  0.782629  1
  O  O23  1  0.569438  0.879610  0.217371  1
  O  O24  1  0.174534  0.712662  0.805934  1
  O  O25  1  0.825466  0.287338  0.194066  1
  O  O26  1  0.824619  0.087720  0.894796  1
  O  O27  1  0.175381  0.912280  0.105204  1
  O  O28  1  0.683743  0.378806  0.751055  1
  O  O29  1  0.316257  0.621194  0.248945  1
  O  O30  1  0.589394  0.687379  0.007228  1
  O  O31  1  0.410606  0.312621  0.992772  1
  O  O32  1  0.883562  0.803978  0.641227  1
  O  O33  1  0.797294  0.480730  0.412484  1
  O  O34  1  0.116438  0.196022  0.358773  1
  O  O35  1  0.202706  0.519270  0.587516  1
