# generated using pymatgen
data_Pr3Th(Al8Pt3)3
_symmetry_space_group_name_H-M   'P 1'
_cell_length_a   7.57746445
_cell_length_b   7.58383363
_cell_length_c   13.34740908
_cell_angle_alpha   84.68662983
_cell_angle_beta   100.77679728
_cell_angle_gamma   119.73550858
_symmetry_Int_Tables_number   1
_chemical_formula_structural   Pr3Th(Al8Pt3)3
_chemical_formula_sum   'Pr3 Th1 Al24 Pt9'
_cell_volume   654.27999301
_cell_formula_units_Z   1
loop_
 _symmetry_equiv_pos_site_id
 _symmetry_equiv_pos_as_xyz
  1  'x, y, z'
loop_
 _atom_site_type_symbol
 _atom_site_label
 _atom_site_symmetry_multiplicity
 _atom_site_fract_x
 _atom_site_fract_y
 _atom_site_fract_z
 _atom_site_occupancy
  Pr  Pr0  1  0.437330  0.831584  0.808240  1
  Pr  Pr1  1  0.562409  0.168484  0.191672  1
  Pr  Pr2  1  0.768316  0.502130  0.808295  1
  Th  Th3  1  0.232849  0.497955  0.194082  1
  Al  Al4  1  0.479353  0.166250  0.945853  1
  Al  Al5  1  0.521212  0.834561  0.053841  1
  Al  Al6  1  0.020699  0.166588  0.559947  1
  Al  Al7  1  0.978747  0.832820  0.439955  1
  Al  Al8  1  0.353425  0.834083  0.557613  1
  Al  Al9  1  0.647050  0.166975  0.441973  1
  Al  Al10  1  0.621988  0.836834  0.334555  1
  Al  Al11  1  0.380978  0.165694  0.665963  1
  Al  Al12  1  0.054917  0.493301  0.665297  1
  Al  Al13  1  0.942651  0.507136  0.334882  1
  Al  Al14  1  0.729986  0.840744  0.664467  1
  Al  Al15  1  0.269857  0.156546  0.336218  1
  Al  Al16  1  0.147982  0.497281  0.946359  1
  Al  Al17  1  0.851071  0.502145  0.053335  1
  Al  Al18  1  0.819685  0.834569  0.955820  1
  Al  Al19  1  0.179885  0.164423  0.043468  1
  Al  Al20  1  0.313646  0.499883  0.442458  1
  Al  Al21  1  0.686725  0.500047  0.558093  1
  Al  Al22  1  0.099483  0.836044  0.183992  1
  Al  Al23  1  0.899147  0.163853  0.815704  1
  Al  Al24  1  0.304610  0.366934  0.814487  1
  Al  Al25  1  0.696841  0.634628  0.185214  1
  Al  Al26  1  0.102291  0.961744  0.815146  1
  Al  Al27  1  0.897904  0.037100  0.184665  1
  Pt  Pt28  1  0.384096  0.505332  0.635734  1
  Pt  Pt29  1  0.613097  0.494432  0.362363  1
  Pt  Pt30  1  0.171838  0.828764  0.000892  1
  Pt  Pt31  1  0.829421  0.170796  0.001490  1
  Pt  Pt32  1  0.293056  0.831584  0.362410  1
  Pt  Pt33  1  0.706873  0.166874  0.635982  1
  Pt  Pt34  1  0.046300  0.828179  0.634862  1
  Pt  Pt35  1  0.954725  0.174093  0.363344  1
  Pt  Pt36  1  0.499557  0.499610  0.001326  1
