# generated using pymatgen
data_Dy9Y3ZnCo4Bi
_symmetry_space_group_name_H-M   'P 1'
_cell_length_a   8.38678949
_cell_length_b   8.38173086
_cell_length_c   8.38678923
_cell_angle_alpha   109.58078097
_cell_angle_beta   111.51859278
_cell_angle_gamma   107.36413898
_symmetry_Int_Tables_number   1
_chemical_formula_structural   Dy9Y3ZnCo4Bi
_chemical_formula_sum   'Dy9 Y3 Zn1 Co4 Bi1'
_cell_volume   453.11390894
_cell_formula_units_Z   1
loop_
 _symmetry_equiv_pos_site_id
 _symmetry_equiv_pos_as_xyz
  1  'x, y, z'
loop_
 _atom_site_type_symbol
 _atom_site_label
 _atom_site_symmetry_multiplicity
 _atom_site_fract_x
 _atom_site_fract_y
 _atom_site_fract_z
 _atom_site_occupancy
  Dy  Dy0  1  0.286686  0.182272  0.468488  1
  Dy  Dy1  1  0.712720  0.817502  0.530864  1
  Dy  Dy2  1  0.286638  0.817502  0.104783  1
  Dy  Dy3  1  0.713784  0.182272  0.895584  1
  Dy  Dy4  1  0.621156  0.313655  0.308080  1
  Dy  Dy5  1  0.378719  0.686550  0.692011  1
  Dy  Dy6  1  0.005575  0.313655  0.692499  1
  Dy  Dy7  1  0.994539  0.686550  0.307831  1
  Dy  Dy8  1  0.217685  0.424410  0.206724  1
  Y  Y9  1  0.781186  0.575378  0.794191  1
  Y  Y10  1  0.218805  0.012917  0.794111  1
  Y  Y11  1  0.781103  0.987002  0.205900  1
  Zn  Zn12  1  0.000220  0.000297  0.000077  1
  Co  Co13  1  0.000781  0.379127  0.378345  1
  Co  Co14  1  0.000034  0.620477  0.620443  1
  Co  Co15  1  0.388432  0.888462  0.500030  1
  Co  Co16  1  0.611759  0.111761  0.500002  1
  Bi  Bi17  1  0.500176  0.500212  0.000037  1
