# generated using pymatgen
data_SmU7(PbS5)4
_symmetry_space_group_name_H-M   'P 1'
_cell_length_a   7.51943547
_cell_length_b   8.21038581
_cell_length_c   11.79278300
_cell_angle_alpha   90.00055828
_cell_angle_beta   90.02017694
_cell_angle_gamma   89.77234119
_symmetry_Int_Tables_number   1
_chemical_formula_structural   SmU7(PbS5)4
_chemical_formula_sum   'Sm1 U7 Pb4 S20'
_cell_volume   728.05075030
_cell_formula_units_Z   1
loop_
 _symmetry_equiv_pos_site_id
 _symmetry_equiv_pos_as_xyz
  1  'x, y, z'
loop_
 _atom_site_type_symbol
 _atom_site_label
 _atom_site_symmetry_multiplicity
 _atom_site_fract_x
 _atom_site_fract_y
 _atom_site_fract_z
 _atom_site_occupancy
  Sm  Sm0  1  0.022374  0.498930  0.319677  1
  U  U1  1  0.518163  0.501554  0.180984  1
  U  U2  1  0.981510  0.503087  0.681989  1
  U  U3  1  0.481477  0.498402  0.820180  1
  U  U4  1  0.070142  0.743898  0.006055  1
  U  U5  1  0.571968  0.254543  0.495228  1
  U  U6  1  0.927519  0.255213  0.992581  1
  U  U7  1  0.426574  0.743351  0.505139  1
  Pb  Pb8  1  0.006968  0.990641  0.318845  1
  Pb  Pb9  1  0.515028  0.011865  0.178788  1
  Pb  Pb10  1  0.992609  0.014175  0.673446  1
  Pb  Pb11  1  0.489888  0.987946  0.824299  1
  S  S12  1  0.165608  0.452932  0.093423  1
  S  S13  1  0.657815  0.543076  0.401803  1
  S  S14  1  0.837025  0.546193  0.900871  1
  S  S15  1  0.336931  0.453597  0.600348  1
  S  S16  1  0.450161  0.715653  0.001297  1
  S  S17  1  0.946620  0.280459  0.503585  1
  S  S18  1  0.550962  0.286086  0.998998  1
  S  S19  1  0.051084  0.721746  0.506958  1
  S  S20  1  0.342908  0.275228  0.313813  1
  S  S21  1  0.831894  0.725308  0.180372  1
  S  S22  1  0.659051  0.719334  0.685980  1
  S  S23  1  0.161940  0.280145  0.814548  1
  S  S24  1  0.657998  0.961548  0.413352  1
  S  S25  1  0.159364  0.037218  0.085260  1
  S  S26  1  0.344689  0.035531  0.589555  1
  S  S27  1  0.841434  0.963458  0.911884  1
  S  S28  1  0.308127  0.732654  0.283003  1
  S  S29  1  0.804777  0.266616  0.212762  1
  S  S30  1  0.693034  0.272102  0.717417  1
  S  S31  1  0.194353  0.727514  0.787560  1
