# generated using pymatgen
data_Cs4BiSb3Pt2
_symmetry_space_group_name_H-M   'P 1'
_cell_length_a   8.53907379
_cell_length_b   8.50242770
_cell_length_c   7.10979900
_cell_angle_alpha   90.00000000
_cell_angle_beta   90.00000000
_cell_angle_gamma   125.91836676
_symmetry_Int_Tables_number   1
_chemical_formula_structural   Cs4BiSb3Pt2
_chemical_formula_sum   'Cs4 Bi1 Sb3 Pt2'
_cell_volume   418.03974179
_cell_formula_units_Z   1
loop_
 _symmetry_equiv_pos_site_id
 _symmetry_equiv_pos_as_xyz
  1  'x, y, z'
loop_
 _atom_site_type_symbol
 _atom_site_label
 _atom_site_symmetry_multiplicity
 _atom_site_fract_x
 _atom_site_fract_y
 _atom_site_fract_z
 _atom_site_occupancy
  Cs  Cs0  1  0.598720  0.391306  0.750000  1
  Cs  Cs1  1  0.394266  0.595078  0.250000  1
  Cs  Cs2  1  0.189904  0.798274  0.750000  1
  Cs  Cs3  1  0.804179  0.200148  0.250000  1
  Bi  Bi4  1  0.710186  0.907064  0.750000  1
  Sb  Sb5  1  0.908526  0.722614  0.250000  1
  Sb  Sb6  1  0.280511  0.083028  0.250000  1
  Sb  Sb7  1  0.091261  0.281862  0.750000  1
  Pt  Pt8  1  0.011223  0.010313  0.001327  1
  Pt  Pt9  1  0.011223  0.010313  0.498673  1
