# generated using pymatgen
data_KRbU2(CuSe3)2
_symmetry_space_group_name_H-M   'P 1'
_cell_length_a   4.12519700
_cell_length_b   7.83238443
_cell_length_c   10.70816000
_cell_angle_alpha   90.00000000
_cell_angle_beta   90.00000000
_cell_angle_gamma   74.73151058
_symmetry_Int_Tables_number   1
_chemical_formula_structural   KRbU2(CuSe3)2
_chemical_formula_sum   'K1 Rb1 U2 Cu2 Se6'
_cell_volume   333.76969054
_cell_formula_units_Z   1
loop_
 _symmetry_equiv_pos_site_id
 _symmetry_equiv_pos_as_xyz
  1  'x, y, z'
loop_
 _atom_site_type_symbol
 _atom_site_label
 _atom_site_symmetry_multiplicity
 _atom_site_fract_x
 _atom_site_fract_y
 _atom_site_fract_z
 _atom_site_occupancy
  K  K0  1  0.255431  0.489140  0.750000  1
  Rb  Rb1  1  0.744095  0.511810  0.250000  1
  U  U2  1  0.000197  0.999606  0.999314  1
  U  U3  1  0.000197  0.999606  0.500686  1
  Cu  Cu4  1  0.466851  0.066300  0.250000  1
  Cu  Cu5  1  0.533337  0.933325  0.750000  1
  Se  Se6  1  0.377610  0.244783  0.059932  1
  Se  Se7  1  0.061378  0.877247  0.250000  1
  Se  Se8  1  0.377610  0.244783  0.440069  1
  Se  Se9  1  0.623447  0.753105  0.561788  1
  Se  Se10  1  0.936404  0.127190  0.750000  1
  Se  Se11  1  0.623447  0.753105  0.938213  1
