# generated using pymatgen
data_TbDy2ThMgRh
_symmetry_space_group_name_H-M   'P 1'
_cell_length_a   9.80055560
_cell_length_b   9.79909558
_cell_length_c   9.79909511
_cell_angle_alpha   60.00985445
_cell_angle_beta   59.99506982
_cell_angle_gamma   59.99507375
_symmetry_Int_Tables_number   1
_chemical_formula_structural   TbDy2ThMgRh
_chemical_formula_sum   'Tb4 Dy8 Th4 Mg4 Rh4'
_cell_volume   665.43806433
_cell_formula_units_Z   4
loop_
 _symmetry_equiv_pos_site_id
 _symmetry_equiv_pos_as_xyz
  1  'x, y, z'
loop_
 _atom_site_type_symbol
 _atom_site_label
 _atom_site_symmetry_multiplicity
 _atom_site_fract_x
 _atom_site_fract_y
 _atom_site_fract_z
 _atom_site_occupancy
  Tb  Tb0  1  0.565804  0.934196  0.565804  1
  Tb  Tb1  1  0.934196  0.565804  0.934196  1
  Tb  Tb2  1  0.565804  0.565804  0.934196  1
  Tb  Tb3  1  0.934196  0.934196  0.565804  1
  Dy  Dy4  1  0.813047  0.186953  0.186953  1
  Dy  Dy5  1  0.186953  0.813047  0.813047  1
  Dy  Dy6  1  0.187105  0.812895  0.187105  1
  Dy  Dy7  1  0.812895  0.187105  0.812895  1
  Dy  Dy8  1  0.187105  0.187105  0.812895  1
  Dy  Dy9  1  0.812895  0.812895  0.187105  1
  Dy  Dy10  1  0.934415  0.565585  0.565585  1
  Dy  Dy11  1  0.565585  0.934415  0.934415  1
  Th  Th12  1  0.347964  0.348123  0.348123  1
  Th  Th13  1  0.348123  0.347964  0.955791  1
  Th  Th14  1  0.348123  0.955791  0.347964  1
  Th  Th15  1  0.955791  0.348123  0.348123  1
  Mg  Mg16  1  0.580289  0.580282  0.580282  1
  Mg  Mg17  1  0.580282  0.580289  0.259148  1
  Mg  Mg18  1  0.580282  0.259148  0.580289  1
  Mg  Mg19  1  0.259148  0.580282  0.580282  1
  Rh  Rh20  1  0.144479  0.144213  0.144213  1
  Rh  Rh21  1  0.144213  0.144479  0.567093  1
  Rh  Rh22  1  0.144213  0.567093  0.144479  1
  Rh  Rh23  1  0.567093  0.144213  0.144213  1
