# generated using pymatgen
data_Y3HoAlPd
_symmetry_space_group_name_H-M   'P 1'
_cell_length_a   9.64234253
_cell_length_b   9.64261992
_cell_length_c   9.64270272
_cell_angle_alpha   59.79267674
_cell_angle_beta   59.79011767
_cell_angle_gamma   59.79013414
_symmetry_Int_Tables_number   1
_chemical_formula_structural   Y3HoAlPd
_chemical_formula_sum   'Y12 Ho4 Al4 Pd4'
_cell_volume   630.95099091
_cell_formula_units_Z   4
loop_
 _symmetry_equiv_pos_site_id
 _symmetry_equiv_pos_as_xyz
  1  'x, y, z'
loop_
 _atom_site_type_symbol
 _atom_site_label
 _atom_site_symmetry_multiplicity
 _atom_site_fract_x
 _atom_site_fract_y
 _atom_site_fract_z
 _atom_site_occupancy
  Y  Y0  1  0.807752  0.192987  0.192978  1
  Y  Y1  1  0.194497  0.806269  0.806282  1
  Y  Y2  1  0.193006  0.807740  0.192990  1
  Y  Y3  1  0.806261  0.194485  0.806273  1
  Y  Y4  1  0.192971  0.192989  0.807744  1
  Y  Y5  1  0.806262  0.806262  0.194501  1
  Y  Y6  1  0.933618  0.565586  0.565589  1
  Y  Y7  1  0.564247  0.935125  0.935103  1
  Y  Y8  1  0.565582  0.933633  0.565568  1
  Y  Y9  1  0.935127  0.564233  0.935113  1
  Y  Y10  1  0.565582  0.565554  0.933635  1
  Y  Y11  1  0.935108  0.935126  0.564232  1
  Ho  Ho12  1  0.355136  0.355164  0.355148  1
  Ho  Ho13  1  0.355809  0.355803  0.931238  1
  Ho  Ho14  1  0.355807  0.931229  0.355805  1
  Ho  Ho15  1  0.931237  0.355792  0.355820  1
  Al  Al16  1  0.578771  0.578783  0.578778  1
  Al  Al17  1  0.578151  0.578156  0.266415  1
  Al  Al18  1  0.578154  0.266415  0.578154  1
  Al  Al19  1  0.266408  0.578161  0.578154  1
  Pd  Pd20  1  0.146353  0.146356  0.146312  1
  Pd  Pd21  1  0.145791  0.145782  0.562591  1
  Pd  Pd22  1  0.145791  0.562579  0.145783  1
  Pd  Pd23  1  0.562581  0.145789  0.145793  1
