# generated using pymatgen
data_Ta3Nb13(VTe4)4
_symmetry_space_group_name_H-M   'P 1'
_cell_length_a   4.95682400
_cell_length_b   11.10226949
_cell_length_c   19.44189685
_cell_angle_alpha   90.03384754
_cell_angle_beta   90.00000000
_cell_angle_gamma   90.00000000
_symmetry_Int_Tables_number   1
_chemical_formula_structural   Ta3Nb13(VTe4)4
_chemical_formula_sum   'Ta3 Nb13 V4 Te16'
_cell_volume   1069.92619966
_cell_formula_units_Z   1
loop_
 _symmetry_equiv_pos_site_id
 _symmetry_equiv_pos_as_xyz
  1  'x, y, z'
loop_
 _atom_site_type_symbol
 _atom_site_label
 _atom_site_symmetry_multiplicity
 _atom_site_fract_x
 _atom_site_fract_y
 _atom_site_fract_z
 _atom_site_occupancy
  Ta  Ta0  1  0.000000  0.599416  0.608747  1
  Ta  Ta1  1  0.000000  0.900647  0.108700  1
  Ta  Ta2  1  0.000000  0.099362  0.891302  1
  Nb  Nb3  1  0.500000  0.565206  0.381987  1
  Nb  Nb4  1  0.500000  0.435214  0.617726  1
  Nb  Nb5  1  0.500000  0.064935  0.117762  1
  Nb  Nb6  1  0.500000  0.935071  0.882247  1
  Nb  Nb7  1  0.500000  0.706607  0.537000  1
  Nb  Nb8  1  0.500000  0.292709  0.463024  1
  Nb  Nb9  1  0.500000  0.206655  0.963056  1
  Nb  Nb10  1  0.500000  0.793358  0.036948  1
  Nb  Nb11  1  0.000000  0.691579  0.442943  1
  Nb  Nb12  1  0.000000  0.308561  0.557212  1
  Nb  Nb13  1  0.000000  0.190959  0.056989  1
  Nb  Nb14  1  0.000000  0.809045  0.943025  1
  Nb  Nb15  1  0.000000  0.399971  0.390581  1
  V  V16  1  0.255615  0.499866  0.499860  1
  V  V17  1  0.744067  0.000002  0.000000  1
  V  V18  1  0.744385  0.499866  0.499860  1
  V  V19  1  0.255933  0.000002  0.000000  1
  Te  Te20  1  0.000000  0.843066  0.562176  1
  Te  Te21  1  0.000000  0.156858  0.438248  1
  Te  Te22  1  0.000000  0.343100  0.937928  1
  Te  Te23  1  0.000000  0.656905  0.062077  1
  Te  Te24  1  0.500000  0.333959  0.318156  1
  Te  Te25  1  0.500000  0.666406  0.682230  1
  Te  Te26  1  0.500000  0.833681  0.182199  1
  Te  Te27  1  0.500000  0.166325  0.817802  1
  Te  Te28  1  0.500000  0.819201  0.404718  1
  Te  Te29  1  0.500000  0.180791  0.595274  1
  Te  Te30  1  0.500000  0.319267  0.095336  1
  Te  Te31  1  0.500000  0.680733  0.904676  1
  Te  Te32  1  0.000000  0.607479  0.304090  1
  Te  Te33  1  0.000000  0.393174  0.696113  1
  Te  Te34  1  0.000000  0.107041  0.196096  1
  Te  Te35  1  0.000000  0.892983  0.803910  1
