# generated using pymatgen
data_Nd4Cd2PtAu3
_symmetry_space_group_name_H-M   'P 1'
_cell_length_a   3.90869800
_cell_length_b   8.06531166
_cell_length_c   8.06531166
_cell_angle_alpha   90.13581384
_cell_angle_beta   90.00000000
_cell_angle_gamma   90.00000000
_symmetry_Int_Tables_number   1
_chemical_formula_structural   Nd4Cd2PtAu3
_chemical_formula_sum   'Nd4 Cd2 Pt1 Au3'
_cell_volume   254.25716785
_cell_formula_units_Z   1
loop_
 _symmetry_equiv_pos_site_id
 _symmetry_equiv_pos_as_xyz
  1  'x, y, z'
loop_
 _atom_site_type_symbol
 _atom_site_label
 _atom_site_symmetry_multiplicity
 _atom_site_fract_x
 _atom_site_fract_y
 _atom_site_fract_z
 _atom_site_occupancy
  Nd  Nd0  1  0.500000  0.170181  0.670181  1
  Nd  Nd1  1  0.500000  0.818492  0.318492  1
  Nd  Nd2  1  0.500000  0.340861  0.176954  1
  Nd  Nd3  1  0.500000  0.676954  0.840861  1
  Cd  Cd4  1  0.000000  0.998609  0.001316  1
  Cd  Cd5  1  0.000000  0.501316  0.498609  1
  Pt  Pt6  1  0.000000  0.624714  0.124714  1
  Au  Au7  1  0.000000  0.371809  0.871809  1
  Au  Au8  1  0.000000  0.870763  0.626299  1
  Au  Au9  1  0.000000  0.126299  0.370763  1
