# generated using pymatgen
data_Yb16Sb11
_symmetry_space_group_name_H-M   'P 1'
_cell_length_a   11.33968700
_cell_length_b   12.31145500
_cell_length_c   12.31775500
_cell_angle_alpha   90.00000000
_cell_angle_beta   90.00000000
_cell_angle_gamma   90.00000000
_symmetry_Int_Tables_number   1
_chemical_formula_structural   Yb16Sb11
_chemical_formula_sum   'Yb32 Sb22'
_cell_volume   1719.65770930
_cell_formula_units_Z   2
loop_
 _symmetry_equiv_pos_site_id
 _symmetry_equiv_pos_as_xyz
  1  'x, y, z'
loop_
 _atom_site_type_symbol
 _atom_site_label
 _atom_site_symmetry_multiplicity
 _atom_site_fract_x
 _atom_site_fract_y
 _atom_site_fract_z
 _atom_site_occupancy
  Yb  Yb0  1  0.860980  0.500000  0.000000  1
  Yb  Yb1  1  0.139020  0.000000  0.500000  1
  Yb  Yb2  1  0.498947  0.631382  0.131358  1
  Yb  Yb3  1  0.501053  0.131382  0.368642  1
  Yb  Yb4  1  0.498947  0.368618  0.868642  1
  Yb  Yb5  1  0.501053  0.868618  0.631358  1
  Yb  Yb6  1  0.000439  0.792249  0.087722  1
  Yb  Yb7  1  0.999561  0.292249  0.412278  1
  Yb  Yb8  1  0.000439  0.207751  0.912278  1
  Yb  Yb9  1  0.999561  0.707751  0.587722  1
  Yb  Yb10  1  0.998674  0.088156  0.207397  1
  Yb  Yb11  1  0.001326  0.588156  0.292603  1
  Yb  Yb12  1  0.998674  0.911844  0.792603  1
  Yb  Yb13  1  0.001326  0.411844  0.707397  1
  Yb  Yb14  1  0.214286  0.500000  0.000000  1
  Yb  Yb15  1  0.785714  0.000000  0.500000  1
  Yb  Yb16  1  0.711553  0.924141  0.210228  1
  Yb  Yb17  1  0.288447  0.424141  0.289772  1
  Yb  Yb18  1  0.711553  0.075859  0.789772  1
  Yb  Yb19  1  0.288447  0.575859  0.710228  1
  Yb  Yb20  1  0.288564  0.208976  0.075502  1
  Yb  Yb21  1  0.711436  0.708976  0.424498  1
  Yb  Yb22  1  0.288564  0.791024  0.924498  1
  Yb  Yb23  1  0.711436  0.291024  0.575502  1
  Yb  Yb24  1  0.687836  0.569929  0.705376  1
  Yb  Yb25  1  0.312164  0.069929  0.794624  1
  Yb  Yb26  1  0.687836  0.430071  0.294624  1
  Yb  Yb27  1  0.312164  0.930071  0.205376  1
  Yb  Yb28  1  0.317698  0.701265  0.431096  1
  Yb  Yb29  1  0.682302  0.201265  0.068904  1
  Yb  Yb30  1  0.317698  0.298735  0.568904  1
  Yb  Yb31  1  0.682302  0.798735  0.931096  1
  Sb  Sb32  1  0.849813  0.500000  0.500000  1
  Sb  Sb33  1  0.150187  0.000000  0.000000  1
  Sb  Sb34  1  0.152690  0.500000  0.500000  1
  Sb  Sb35  1  0.847310  0.000000  0.000000  1
  Sb  Sb36  1  0.965842  0.854830  0.354488  1
  Sb  Sb37  1  0.034158  0.354830  0.145512  1
  Sb  Sb38  1  0.965842  0.145170  0.645512  1
  Sb  Sb39  1  0.034158  0.645170  0.854488  1
  Sb  Sb40  1  0.512681  0.874418  0.374657  1
  Sb  Sb41  1  0.487319  0.374418  0.125343  1
  Sb  Sb42  1  0.512681  0.125582  0.625343  1
  Sb  Sb43  1  0.487319  0.625582  0.874657  1
  Sb  Sb44  1  0.763774  0.665124  0.164558  1
  Sb  Sb45  1  0.236226  0.165124  0.335442  1
  Sb  Sb46  1  0.763774  0.334876  0.835442  1
  Sb  Sb47  1  0.236226  0.834876  0.664558  1
  Sb  Sb48  1  0.237368  0.679547  0.180557  1
  Sb  Sb49  1  0.762632  0.179547  0.319443  1
  Sb  Sb50  1  0.237368  0.320453  0.819443  1
  Sb  Sb51  1  0.762632  0.820453  0.680557  1
  Sb  Sb52  1  0.504932  0.500000  0.500000  1
  Sb  Sb53  1  0.495068  0.000000  0.000000  1
