# generated using pymatgen
data_Ta2BeSiRu4
_symmetry_space_group_name_H-M   'P 1'
_cell_length_a   4.32162800
_cell_length_b   6.09553200
_cell_length_c   12.88558500
_cell_angle_alpha   89.99998171
_cell_angle_beta   90.00094861
_cell_angle_gamma   90.00018680
_symmetry_Int_Tables_number   1
_chemical_formula_structural   Ta2BeSiRu4
_chemical_formula_sum   'Ta6 Be3 Si3 Ru12'
_cell_volume   339.44009187
_cell_formula_units_Z   3
loop_
 _symmetry_equiv_pos_site_id
 _symmetry_equiv_pos_as_xyz
  1  'x, y, z'
loop_
 _atom_site_type_symbol
 _atom_site_label
 _atom_site_symmetry_multiplicity
 _atom_site_fract_x
 _atom_site_fract_y
 _atom_site_fract_z
 _atom_site_occupancy
  Ta  Ta0  1  0.000005  0.500003  0.993480  1
  Ta  Ta1  1  0.499877  0.999994  0.166669  1
  Ta  Ta2  1  0.999803  0.500002  0.339848  1
  Ta  Ta3  1  0.499987  0.000000  0.506616  1
  Ta  Ta4  1  0.000129  0.499999  0.666665  1
  Ta  Ta5  1  0.500177  0.999996  0.826718  1
  Be  Be6  1  0.499993  0.500002  0.503190  1
  Be  Be7  1  0.000259  0.999999  0.666666  1
  Be  Be8  1  0.500284  0.499996  0.830150  1
  Si  Si9  1  0.000008  0.000005  0.995192  1
  Si  Si10  1  0.499844  0.499996  0.166668  1
  Si  Si11  1  0.999787  0.000003  0.338146  1
  Ru  Ru12  1  0.500011  0.250577  0.001437  1
  Ru  Ru13  1  0.500011  0.749422  0.001434  1
  Ru  Ru14  1  0.999906  0.249360  0.166667  1
  Ru  Ru15  1  0.999906  0.750636  0.166666  1
  Ru  Ru16  1  0.499826  0.250578  0.331903  1
  Ru  Ru17  1  0.499826  0.749423  0.331903  1
  Ru  Ru18  1  0.999978  0.249351  0.499318  1
  Ru  Ru19  1  0.999979  0.750659  0.499317  1
  Ru  Ru20  1  0.500063  0.251627  0.666667  1
  Ru  Ru21  1  0.500065  0.748363  0.666666  1
  Ru  Ru22  1  0.000141  0.249358  0.834008  1
  Ru  Ru23  1  0.000143  0.750637  0.834007  1
