# generated using pymatgen
data_Er5Si4Tc3(PIr2)8
_symmetry_space_group_name_H-M   'P 1'
_cell_length_a   12.71148937
_cell_length_b   12.73262784
_cell_length_c   3.95930600
_cell_angle_alpha   90.00000000
_cell_angle_beta   90.00000000
_cell_angle_gamma   120.17533117
_symmetry_Int_Tables_number   1
_chemical_formula_structural   Er5Si4Tc3(PIr2)8
_chemical_formula_sum   'Er5 Si4 Tc3 P8 Ir16'
_cell_volume   553.98011751
_cell_formula_units_Z   1
loop_
 _symmetry_equiv_pos_site_id
 _symmetry_equiv_pos_as_xyz
  1  'x, y, z'
loop_
 _atom_site_type_symbol
 _atom_site_label
 _atom_site_symmetry_multiplicity
 _atom_site_fract_x
 _atom_site_fract_y
 _atom_site_fract_z
 _atom_site_occupancy
  Er  Er0  1  0.333811  0.666853  0.000000  1
  Er  Er1  1  0.666760  0.334731  0.000000  1
  Er  Er2  1  0.811129  0.998635  0.500000  1
  Er  Er3  1  0.001017  0.811271  0.500000  1
  Er  Er4  1  0.185682  0.187266  0.500000  1
  Si  Si5  1  0.165741  0.481904  0.500000  1
  Si  Si6  1  0.518554  0.683703  0.500000  1
  Si  Si7  1  0.317812  0.834949  0.500000  1
  Si  Si8  1  0.684939  0.518380  0.500000  1
  Tc  Tc9  1  0.452511  0.002914  0.000000  1
  Tc  Tc10  1  0.999437  0.449520  0.000000  1
  Tc  Tc11  1  0.551170  0.548365  0.000000  1
  P  P12  1  0.177178  0.999678  0.000000  1
  P  P13  1  0.997371  0.176040  0.000000  1
  P  P14  1  0.824103  0.821865  0.000000  1
  P  P15  1  0.831623  0.314923  0.500000  1
  P  P16  1  0.481759  0.169238  0.500000  1
  P  P17  1  0.632546  0.995659  0.000000  1
  P  P18  1  0.002845  0.634992  0.000000  1
  P  P19  1  0.364546  0.367181  0.000000  1
  Ir  Ir20  1  0.356833  0.484186  0.500000  1
  Ir  Ir21  1  0.517595  0.875058  0.500000  1
  Ir  Ir22  1  0.128937  0.643083  0.500000  1
  Ir  Ir23  1  0.868537  0.507371  0.500000  1
  Ir  Ir24  1  0.641176  0.136913  0.500000  1
  Ir  Ir25  1  0.487626  0.355349  0.500000  1
  Ir  Ir26  1  0.176820  0.370085  0.000000  1
  Ir  Ir27  1  0.628069  0.805603  0.000000  1
  Ir  Ir28  1  0.193964  0.822184  0.000000  1
  Ir  Ir29  1  0.811064  0.627478  0.000000  1
  Ir  Ir30  1  0.815841  0.189184  0.000000  1
  Ir  Ir31  1  0.370857  0.181078  0.000000  1
  Ir  Ir32  1  0.283257  0.003649  0.500000  1
  Ir  Ir33  1  0.994350  0.278291  0.500000  1
  Ir  Ir34  1  0.723875  0.721641  0.500000  1
  Ir  Ir35  1  0.000669  0.000781  0.000000  1
