# generated using pymatgen
data_Tb15HoMgCd2HgIr4
_symmetry_space_group_name_H-M   'P 1'
_cell_length_a   9.65963594
_cell_length_b   9.67379126
_cell_length_c   9.67379100
_cell_angle_alpha   59.84361562
_cell_angle_beta   59.89215056
_cell_angle_gamma   59.89214342
_symmetry_Int_Tables_number   1
_chemical_formula_structural   Tb15HoMgCd2HgIr4
_chemical_formula_sum   'Tb15 Ho1 Mg1 Cd2 Hg1 Ir4'
_cell_volume   637.40435192
_cell_formula_units_Z   1
loop_
 _symmetry_equiv_pos_site_id
 _symmetry_equiv_pos_as_xyz
  1  'x, y, z'
loop_
 _atom_site_type_symbol
 _atom_site_label
 _atom_site_symmetry_multiplicity
 _atom_site_fract_x
 _atom_site_fract_y
 _atom_site_fract_z
 _atom_site_occupancy
  Tb  Tb0  1  0.814247  0.188301  0.188301  1
  Tb  Tb1  1  0.062271  0.439035  0.062113  1
  Tb  Tb2  1  0.053950  0.648345  0.648345  1
  Tb  Tb3  1  0.650973  0.652329  0.652329  1
  Tb  Tb4  1  0.062271  0.062113  0.439035  1
  Tb  Tb5  1  0.191406  0.810427  0.189961  1
  Tb  Tb6  1  0.813301  0.811633  0.188014  1
  Tb  Tb7  1  0.813301  0.188014  0.811633  1
  Tb  Tb8  1  0.438150  0.062653  0.437371  1
  Tb  Tb9  1  0.438150  0.437371  0.062653  1
  Tb  Tb10  1  0.438598  0.062648  0.062648  1
  Tb  Tb11  1  0.062607  0.437903  0.437903  1
  Tb  Tb12  1  0.191406  0.189961  0.810427  1
  Tb  Tb13  1  0.649909  0.651413  0.045457  1
  Tb  Tb14  1  0.649909  0.045457  0.651413  1
  Ho  Ho15  1  0.190926  0.809824  0.809824  1
  Mg  Mg16  1  0.718985  0.427067  0.427067  1
  Cd  Cd17  1  0.418595  0.417556  0.748068  1
  Cd  Cd18  1  0.418595  0.748068  0.417556  1
  Hg  Hg19  1  0.418132  0.414495  0.414495  1
  Ir  Ir20  1  0.859284  0.856448  0.425295  1
  Ir  Ir21  1  0.859284  0.425295  0.856448  1
  Ir  Ir22  1  0.861343  0.856667  0.856667  1
  Ir  Ir23  1  0.424412  0.856976  0.856976  1
