# generated using pymatgen
data_NdSm5Zn4Pd2Pt11
_symmetry_space_group_name_H-M   'P 1'
_cell_length_a   8.35749917
_cell_length_b   8.35778503
_cell_length_c   8.35651613
_cell_angle_alpha   109.44577240
_cell_angle_beta   109.41231795
_cell_angle_gamma   109.52912007
_symmetry_Int_Tables_number   1
_chemical_formula_structural   NdSm5Zn4Pd2Pt11
_chemical_formula_sum   'Nd1 Sm5 Zn4 Pd2 Pt11'
_cell_volume   449.48193041
_cell_formula_units_Z   1
loop_
 _symmetry_equiv_pos_site_id
 _symmetry_equiv_pos_as_xyz
  1  'x, y, z'
loop_
 _atom_site_type_symbol
 _atom_site_label
 _atom_site_symmetry_multiplicity
 _atom_site_fract_x
 _atom_site_fract_y
 _atom_site_fract_z
 _atom_site_occupancy
  Nd  Nd0  1  0.000689  0.701064  0.700049  1
  Sm  Sm1  1  0.698909  0.699058  0.002349  1
  Sm  Sm2  1  0.300477  0.999635  0.300629  1
  Sm  Sm3  1  0.999481  0.299967  0.300011  1
  Sm  Sm4  1  0.301447  0.301546  0.000019  1
  Sm  Sm5  1  0.699841  0.000786  0.698802  1
  Zn  Zn6  1  0.999995  0.000026  0.499774  1
  Zn  Zn7  1  0.999365  0.499261  0.999384  1
  Zn  Zn8  1  0.499758  0.999388  0.999377  1
  Zn  Zn9  1  0.499359  0.499444  0.500109  1
  Pd  Pd10  1  0.668100  0.336713  0.668306  1
  Pd  Pd11  1  0.338303  0.668674  0.668517  1
  Pt  Pt12  1  0.330859  0.330919  0.660128  1
  Pt  Pt13  1  0.669800  0.001170  0.330992  1
  Pt  Pt14  1  0.001127  0.669901  0.329856  1
  Pt  Pt15  1  0.670300  0.330231  0.000029  1
  Pt  Pt16  1  0.330648  0.660693  0.330974  1
  Pt  Pt17  1  0.000734  0.330457  0.670136  1
  Pt  Pt18  1  0.330868  0.670077  0.000464  1
  Pt  Pt19  1  0.332216  0.001199  0.669848  1
  Pt  Pt20  1  0.659530  0.329590  0.329830  1
  Pt  Pt21  1  0.669145  0.669592  0.339476  1
  Pt  Pt22  1  0.999050  0.000610  0.000936  1
