# generated using pymatgen
data_DyYFe11NiP7
_symmetry_space_group_name_H-M   'P 1'
_cell_length_a   8.98936111
_cell_length_b   8.98972777
_cell_length_c   3.64294500
_cell_angle_alpha   90.00000000
_cell_angle_beta   90.00000000
_cell_angle_gamma   119.80267183
_symmetry_Int_Tables_number   1
_chemical_formula_structural   DyYFe11NiP7
_chemical_formula_sum   'Dy1 Y1 Fe11 Ni1 P7'
_cell_volume   255.45754791
_cell_formula_units_Z   1
loop_
 _symmetry_equiv_pos_site_id
 _symmetry_equiv_pos_as_xyz
  1  'x, y, z'
loop_
 _atom_site_type_symbol
 _atom_site_label
 _atom_site_symmetry_multiplicity
 _atom_site_fract_x
 _atom_site_fract_y
 _atom_site_fract_z
 _atom_site_occupancy
  Dy  Dy0  1  0.333277  0.665902  0.000000  1
  Y  Y1  1  0.001178  0.001314  0.500000  1
  Fe  Fe2  1  0.240965  0.964715  0.000000  1
  Fe  Fe3  1  0.035430  0.275474  0.000000  1
  Fe  Fe4  1  0.938617  0.485943  0.000000  1
  Fe  Fe5  1  0.511154  0.451385  0.000000  1
  Fe  Fe6  1  0.546029  0.058957  0.000000  1
  Fe  Fe7  1  0.100787  0.717148  0.500000  1
  Fe  Fe8  1  0.279560  0.380660  0.500000  1
  Fe  Fe9  1  0.618510  0.898775  0.500000  1
  Fe  Fe10  1  0.765615  0.555463  0.500000  1
  Fe  Fe11  1  0.450762  0.213539  0.500000  1
  Fe  Fe12  1  0.784541  0.236237  0.500000  1
  Ni  Ni13  1  0.728017  0.763213  0.000000  1
  P  P14  1  0.971737  0.743061  0.000000  1
  P  P15  1  0.257531  0.223234  0.000000  1
  P  P16  1  0.778503  0.039938  0.000000  1
  P  P17  1  0.066618  0.444534  0.500000  1
  P  P18  1  0.547625  0.616012  0.500000  1
  P  P19  1  0.377963  0.931857  0.500000  1
  P  P20  1  0.665581  0.332637  0.000000  1
