# generated using pymatgen
data_Zn22Fe2Cu
_symmetry_space_group_name_H-M   'P 1'
_cell_length_a   7.69642923
_cell_length_b   7.69642997
_cell_length_c   7.69814793
_cell_angle_alpha   71.94163346
_cell_angle_beta   71.94163547
_cell_angle_gamma   58.24382513
_symmetry_Int_Tables_number   1
_chemical_formula_structural   Zn22Fe2Cu
_chemical_formula_sum   'Zn22 Fe2 Cu1'
_cell_volume   362.50332195
_cell_formula_units_Z   1
loop_
 _symmetry_equiv_pos_site_id
 _symmetry_equiv_pos_as_xyz
  1  'x, y, z'
loop_
 _atom_site_type_symbol
 _atom_site_label
 _atom_site_symmetry_multiplicity
 _atom_site_fract_x
 _atom_site_fract_y
 _atom_site_fract_z
 _atom_site_occupancy
  Zn  Zn0  1  0.339545  0.744768  0.314674  1
  Zn  Zn1  1  0.656873  0.255309  0.688802  1
  Zn  Zn2  1  0.255309  0.656873  0.688802  1
  Zn  Zn3  1  0.744768  0.339545  0.314674  1
  Zn  Zn4  1  0.677165  0.321460  0.997696  1
  Zn  Zn5  1  0.321460  0.677165  0.997696  1
  Zn  Zn6  1  0.831573  0.831573  0.781794  1
  Zn  Zn7  1  0.170536  0.170536  0.216056  1
  Zn  Zn8  1  0.978896  0.978896  0.174675  1
  Zn  Zn9  1  0.022301  0.022301  0.823006  1
  Zn  Zn10  1  0.351804  0.351804  0.273998  1
  Zn  Zn11  1  0.646957  0.646957  0.725973  1
  Zn  Zn12  1  0.687279  0.687279  0.376022  1
  Zn  Zn13  1  0.314631  0.314631  0.624566  1
  Zn  Zn14  1  0.662642  0.022661  0.465007  1
  Zn  Zn15  1  0.337981  0.975967  0.535188  1
  Zn  Zn16  1  0.975967  0.337981  0.535188  1
  Zn  Zn17  1  0.022661  0.662642  0.465007  1
  Zn  Zn18  1  0.616856  0.001216  0.099153  1
  Zn  Zn19  1  0.379986  0.002681  0.901163  1
  Zn  Zn20  1  0.002681  0.379986  0.901163  1
  Zn  Zn21  1  0.001216  0.616856  0.099153  1
  Fe  Fe22  1  0.344656  0.344656  0.944151  1
  Fe  Fe23  1  0.999870  0.999870  0.499640  1
  Cu  Cu24  1  0.656387  0.656387  0.056754  1
