# generated using pymatgen
data_Dy7Y9Cd4RuPt3
_symmetry_space_group_name_H-M   'P 1'
_cell_length_a   9.69419692
_cell_length_b   9.69253832
_cell_length_c   9.70475657
_cell_angle_alpha   59.61203004
_cell_angle_beta   59.68161947
_cell_angle_gamma   59.70137592
_symmetry_Int_Tables_number   1
_chemical_formula_structural   Dy7Y9Cd4RuPt3
_chemical_formula_sum   'Dy7 Y9 Cd4 Ru1 Pt3'
_cell_volume   639.88273706
_cell_formula_units_Z   1
loop_
 _symmetry_equiv_pos_site_id
 _symmetry_equiv_pos_as_xyz
  1  'x, y, z'
loop_
 _atom_site_type_symbol
 _atom_site_label
 _atom_site_symmetry_multiplicity
 _atom_site_fract_x
 _atom_site_fract_y
 _atom_site_fract_z
 _atom_site_occupancy
  Dy  Dy0  1  0.351804  0.351823  0.351774  1
  Dy  Dy1  1  0.349412  0.349423  0.948777  1
  Dy  Dy2  1  0.349501  0.948604  0.349378  1
  Dy  Dy3  1  0.948716  0.349471  0.349348  1
  Dy  Dy4  1  0.814873  0.188788  0.188883  1
  Dy  Dy5  1  0.189233  0.809901  0.809699  1
  Dy  Dy6  1  0.188818  0.814964  0.188866  1
  Y  Y7  1  0.809540  0.189354  0.809540  1
  Y  Y8  1  0.189072  0.189094  0.814424  1
  Y  Y9  1  0.809509  0.809606  0.189310  1
  Y  Y10  1  0.935975  0.565010  0.564793  1
  Y  Y11  1  0.560432  0.936547  0.936736  1
  Y  Y12  1  0.564732  0.936107  0.564816  1
  Y  Y13  1  0.936657  0.560476  0.936745  1
  Y  Y14  1  0.564591  0.564872  0.936297  1
  Y  Y15  1  0.936825  0.936708  0.560214  1
  Cd  Cd16  1  0.580512  0.580288  0.580221  1
  Cd  Cd17  1  0.581347  0.581393  0.254525  1
  Cd  Cd18  1  0.581248  0.254549  0.581390  1
  Cd  Cd19  1  0.254609  0.581188  0.581280  1
  Ru  Ru20  1  0.142575  0.142651  0.144441  1
  Pt  Pt21  1  0.144501  0.143250  0.570706  1
  Pt  Pt22  1  0.144731  0.571391  0.143389  1
  Pt  Pt23  1  0.570783  0.144543  0.144445  1
