# generated using pymatgen
data_Dy16Cd2Hg2Ir3Ru
_symmetry_space_group_name_H-M   'P 1'
_cell_length_a   9.63242665
_cell_length_b   9.63242690
_cell_length_c   9.63086262
_cell_angle_alpha   59.85282236
_cell_angle_beta   59.85282223
_cell_angle_gamma   59.86017386
_symmetry_Int_Tables_number   1
_chemical_formula_structural   Dy16Cd2Hg2Ir3Ru
_chemical_formula_sum   'Dy16 Cd2 Hg2 Ir3 Ru1'
_cell_volume   629.78587522
_cell_formula_units_Z   1
loop_
 _symmetry_equiv_pos_site_id
 _symmetry_equiv_pos_as_xyz
  1  'x, y, z'
loop_
 _atom_site_type_symbol
 _atom_site_label
 _atom_site_symmetry_multiplicity
 _atom_site_fract_x
 _atom_site_fract_y
 _atom_site_fract_z
 _atom_site_occupancy
  Dy  Dy0  1  0.599213  0.599213  0.599018  1
  Dy  Dy1  1  0.599128  0.599128  0.204282  1
  Dy  Dy2  1  0.599634  0.202552  0.599334  1
  Dy  Dy3  1  0.202552  0.599634  0.599334  1
  Dy  Dy4  1  0.061317  0.438801  0.439485  1
  Dy  Dy5  1  0.438334  0.059838  0.060096  1
  Dy  Dy6  1  0.438801  0.061317  0.439485  1
  Dy  Dy7  1  0.059838  0.438334  0.060096  1
  Dy  Dy8  1  0.438753  0.438753  0.061703  1
  Dy  Dy9  1  0.059211  0.059211  0.439339  1
  Dy  Dy10  1  0.187721  0.811404  0.811620  1
  Dy  Dy11  1  0.809946  0.187217  0.189286  1
  Dy  Dy12  1  0.811404  0.187721  0.811620  1
  Dy  Dy13  1  0.187217  0.809946  0.189286  1
  Dy  Dy14  1  0.811358  0.811358  0.189114  1
  Dy  Dy15  1  0.188180  0.188180  0.810297  1
  Cd  Cd16  1  0.830425  0.507136  0.830895  1
  Cd  Cd17  1  0.507136  0.830425  0.830895  1
  Hg  Hg18  1  0.833022  0.833022  0.834882  1
  Hg  Hg19  1  0.833934  0.833934  0.495781  1
  Ir  Ir20  1  0.393244  0.393244  0.825812  1
  Ir  Ir21  1  0.393018  0.825856  0.393764  1
  Ir  Ir22  1  0.825856  0.393018  0.393764  1
  Ru  Ru23  1  0.390756  0.390756  0.390811  1
