# generated using pymatgen
data_Cs2Ir3RhS8
_symmetry_space_group_name_H-M   'P 1'
_cell_length_a   6.26661800
_cell_length_b   7.25898000
_cell_length_c   15.78929500
_cell_angle_alpha   90.00000000
_cell_angle_beta   90.00000000
_cell_angle_gamma   90.00000000
_symmetry_Int_Tables_number   1
_chemical_formula_structural   Cs2Ir3RhS8
_chemical_formula_sum   'Cs4 Ir6 Rh2 S16'
_cell_volume   718.24326226
_cell_formula_units_Z   2
loop_
 _symmetry_equiv_pos_site_id
 _symmetry_equiv_pos_as_xyz
  1  'x, y, z'
loop_
 _atom_site_type_symbol
 _atom_site_label
 _atom_site_symmetry_multiplicity
 _atom_site_fract_x
 _atom_site_fract_y
 _atom_site_fract_z
 _atom_site_occupancy
  Cs  Cs0  1  0.353813  0.000000  0.000000  1
  Cs  Cs1  1  0.646557  0.500000  0.500000  1
  Cs  Cs2  1  0.034282  0.000000  0.500000  1
  Cs  Cs3  1  0.965923  0.500000  0.000000  1
  Ir  Ir4  1  0.002651  0.000000  0.249590  1
  Ir  Ir5  1  0.002651  0.000000  0.750410  1
  Ir  Ir6  1  0.499906  0.251046  0.250031  1
  Ir  Ir7  1  0.499906  0.748954  0.749969  1
  Ir  Ir8  1  0.499906  0.748954  0.250031  1
  Ir  Ir9  1  0.499906  0.251046  0.749969  1
  Rh  Rh10  1  0.997866  0.500000  0.249917  1
  Rh  Rh11  1  0.997866  0.500000  0.750083  1
  S  S12  1  0.833417  0.247981  0.324240  1
  S  S13  1  0.833417  0.752019  0.675760  1
  S  S14  1  0.166535  0.750468  0.175912  1
  S  S15  1  0.166535  0.249532  0.824088  1
  S  S16  1  0.166535  0.249532  0.175912  1
  S  S17  1  0.166535  0.750468  0.824088  1
  S  S18  1  0.833417  0.752019  0.324240  1
  S  S19  1  0.833417  0.247981  0.675760  1
  S  S20  1  0.668235  0.000000  0.177023  1
  S  S21  1  0.668235  0.000000  0.822977  1
  S  S22  1  0.331887  0.500000  0.324366  1
  S  S23  1  0.331887  0.500000  0.675634  1
  S  S24  1  0.338868  0.000000  0.322900  1
  S  S25  1  0.338868  0.000000  0.677100  1
  S  S26  1  0.660489  0.500000  0.175621  1
  S  S27  1  0.660489  0.500000  0.824379  1
