# generated using pymatgen
data_Nd8SiPtBr12
_symmetry_space_group_name_H-M   'P 1'
_cell_length_a   4.18763600
_cell_length_b   13.80498536
_cell_length_c   14.65762149
_cell_angle_alpha   90.42182975
_cell_angle_beta   90.00000000
_cell_angle_gamma   90.00000000
_symmetry_Int_Tables_number   1
_chemical_formula_structural   Nd8SiPtBr12
_chemical_formula_sum   'Nd8 Si1 Pt1 Br12'
_cell_volume   847.33785210
_cell_formula_units_Z   1
loop_
 _symmetry_equiv_pos_site_id
 _symmetry_equiv_pos_as_xyz
  1  'x, y, z'
loop_
 _atom_site_type_symbol
 _atom_site_label
 _atom_site_symmetry_multiplicity
 _atom_site_fract_x
 _atom_site_fract_y
 _atom_site_fract_z
 _atom_site_occupancy
  Nd  Nd0  1  0.500000  0.121124  0.337588  1
  Nd  Nd1  1  0.500000  0.878876  0.662412  1
  Nd  Nd2  1  0.500000  0.618672  0.159645  1
  Nd  Nd3  1  0.500000  0.381328  0.840355  1
  Nd  Nd4  1  0.000000  0.116488  0.577442  1
  Nd  Nd5  1  0.000000  0.883512  0.422558  1
  Nd  Nd6  1  0.000000  0.619012  0.921103  1
  Nd  Nd7  1  0.000000  0.380988  0.078897  1
  Si  Si8  1  0.500000  0.500000  0.000000  1
  Pt  Pt9  1  0.500000  0.000000  0.500000  1
  Br  Br10  1  0.500000  0.244133  0.162173  1
  Br  Br11  1  0.500000  0.755867  0.837827  1
  Br  Br12  1  0.500000  0.741455  0.335892  1
  Br  Br13  1  0.500000  0.258545  0.664108  1
  Br  Br14  1  0.000000  0.255570  0.410749  1
  Br  Br15  1  0.000000  0.744430  0.589251  1
  Br  Br16  1  0.000000  0.753441  0.088390  1
  Br  Br17  1  0.000000  0.246559  0.911610  1
  Br  Br18  1  0.000000  0.001927  0.243122  1
  Br  Br19  1  0.000000  0.998073  0.756878  1
  Br  Br20  1  0.000000  0.501413  0.254764  1
  Br  Br21  1  0.000000  0.498587  0.745236  1
