# generated using pymatgen
data_LaTb2Th(Ga3Rh)6
_symmetry_space_group_name_H-M   'P 1'
_cell_length_a   7.64731916
_cell_length_b   7.63169614
_cell_length_c   9.57265000
_cell_angle_alpha   90.00000000
_cell_angle_beta   90.00000000
_cell_angle_gamma   119.33646012
_symmetry_Int_Tables_number   1
_chemical_formula_structural   LaTb2Th(Ga3Rh)6
_chemical_formula_sum   'La1 Tb2 Th1 Ga18 Rh6'
_cell_volume   487.03284116
_cell_formula_units_Z   1
loop_
 _symmetry_equiv_pos_site_id
 _symmetry_equiv_pos_as_xyz
  1  'x, y, z'
loop_
 _atom_site_type_symbol
 _atom_site_label
 _atom_site_symmetry_multiplicity
 _atom_site_fract_x
 _atom_site_fract_y
 _atom_site_fract_z
 _atom_site_occupancy
  La  La0  1  0.670209  0.996946  0.250000  1
  Tb  Tb1  1  0.000854  0.329392  0.750000  1
  Tb  Tb2  1  0.329619  0.001092  0.750000  1
  Th  Th3  1  0.997159  0.669840  0.250000  1
  Ga  Ga4  1  0.131479  0.130757  0.250000  1
  Ga  Ga5  1  0.876125  0.876878  0.750000  1
  Ga  Ga6  1  0.004824  0.333585  0.073788  1
  Ga  Ga7  1  0.999484  0.664487  0.914424  1
  Ga  Ga8  1  0.999484  0.664487  0.585576  1
  Ga  Ga9  1  0.336966  0.006217  0.426159  1
  Ga  Ga10  1  0.004824  0.333585  0.426212  1
  Ga  Ga11  1  0.664591  0.000092  0.583981  1
  Ga  Ga12  1  0.664591  0.000092  0.916019  1
  Ga  Ga13  1  0.336966  0.006217  0.073841  1
  Ga  Ga14  1  0.331216  0.331159  0.567151  1
  Ga  Ga15  1  0.662886  0.664391  0.447043  1
  Ga  Ga16  1  0.662886  0.664391  0.052957  1
  Ga  Ga17  1  0.331216  0.331159  0.932849  1
  Ga  Ga18  1  0.339149  0.544090  0.250000  1
  Ga  Ga19  1  0.659531  0.450325  0.750000  1
  Ga  Ga20  1  0.544735  0.340423  0.250000  1
  Ga  Ga21  1  0.449635  0.660448  0.750000  1
  Rh  Rh22  1  0.673215  0.331054  0.999386  1
  Rh  Rh23  1  0.326606  0.670775  0.999375  1
  Rh  Rh24  1  0.326606  0.670775  0.500625  1
  Rh  Rh25  1  0.673215  0.331054  0.500614  1
  Rh  Rh26  1  0.000965  0.998142  0.999560  1
  Rh  Rh27  1  0.000965  0.998142  0.500440  1
