# generated using pymatgen
data_Y4Tc2Os5W
_symmetry_space_group_name_H-M   'P 1'
_cell_length_a   5.29800320
_cell_length_b   5.24303140
_cell_length_c   9.01569200
_cell_angle_alpha   90.00000000
_cell_angle_beta   90.00000000
_cell_angle_gamma   117.45851300
_symmetry_Int_Tables_number   1
_chemical_formula_structural   Y4Tc2Os5W
_chemical_formula_sum   'Y4 Tc2 Os5 W1'
_cell_volume   222.22157473
_cell_formula_units_Z   1
loop_
 _symmetry_equiv_pos_site_id
 _symmetry_equiv_pos_as_xyz
  1  'x, y, z'
loop_
 _atom_site_type_symbol
 _atom_site_label
 _atom_site_symmetry_multiplicity
 _atom_site_fract_x
 _atom_site_fract_y
 _atom_site_fract_z
 _atom_site_occupancy
  Y  Y0  1  0.329648  0.670144  0.434786  1
  Y  Y1  1  0.668765  0.331886  0.566003  1
  Y  Y2  1  0.668765  0.331886  0.933997  1
  Y  Y3  1  0.329648  0.670144  0.065214  1
  Tc  Tc4  1  0.163306  0.832826  0.750000  1
  Tc  Tc5  1  0.173419  0.347548  0.750000  1
  Os  Os6  1  0.999545  0.004196  0.501607  1
  Os  Os7  1  0.999545  0.004196  0.998393  1
  Os  Os8  1  0.825021  0.649145  0.250000  1
  Os  Os9  1  0.350094  0.174238  0.250000  1
  Os  Os10  1  0.651661  0.824719  0.750000  1
  W  W11  1  0.840582  0.159072  0.250000  1
