# generated using pymatgen
data_Er12AlFe4Cu
_symmetry_space_group_name_H-M   'P 1'
_cell_length_a   8.21964973
_cell_length_b   8.21965015
_cell_length_c   8.21964979
_cell_angle_alpha   110.73164970
_cell_angle_beta   111.00108471
_cell_angle_gamma   106.71568742
_symmetry_Int_Tables_number   1
_chemical_formula_structural   Er12AlFe4Cu
_chemical_formula_sum   'Er12 Al1 Fe4 Cu1'
_cell_volume   426.76237832
_cell_formula_units_Z   1
loop_
 _symmetry_equiv_pos_site_id
 _symmetry_equiv_pos_as_xyz
  1  'x, y, z'
loop_
 _atom_site_type_symbol
 _atom_site_label
 _atom_site_symmetry_multiplicity
 _atom_site_fract_x
 _atom_site_fract_y
 _atom_site_fract_z
 _atom_site_occupancy
  Er  Er0  1  0.188410  0.288912  0.477320  1
  Er  Er1  1  0.811590  0.711088  0.522680  1
  Er  Er2  1  0.188410  0.711088  0.899498  1
  Er  Er3  1  0.811590  0.288912  0.100502  1
  Er  Er4  1  0.313128  0.610978  0.297851  1
  Er  Er5  1  0.686872  0.389022  0.702149  1
  Er  Er6  1  0.313128  0.015277  0.702149  1
  Er  Er7  1  0.686872  0.984723  0.297851  1
  Er  Er8  1  0.421832  0.221425  0.200405  1
  Er  Er9  1  0.578168  0.778575  0.799595  1
  Er  Er10  1  0.021020  0.221425  0.799595  1
  Er  Er11  1  0.978980  0.778575  0.200405  1
  Al  Al12  1  0.500000  0.500000  0.000000  1
  Fe  Fe13  1  0.109369  0.609369  0.500000  1
  Fe  Fe14  1  0.890631  0.390631  0.500000  1
  Fe  Fe15  1  0.383174  0.000000  0.383174  1
  Fe  Fe16  1  0.616826  0.000000  0.616826  1
  Cu  Cu17  1  0.000000  0.000000  0.000000  1
