# generated using pymatgen
data_Er20Pd7Ru5
_symmetry_space_group_name_H-M   'P 1'
_cell_length_a   10.91916268
_cell_length_b   10.91916260
_cell_length_c   6.35246114
_cell_angle_alpha   90.01627765
_cell_angle_beta   90.01627523
_cell_angle_gamma   90.60159056
_symmetry_Int_Tables_number   1
_chemical_formula_structural   Er20Pd7Ru5
_chemical_formula_sum   'Er20 Pd7 Ru5'
_cell_volume   757.35014290
_cell_formula_units_Z   1
loop_
 _symmetry_equiv_pos_site_id
 _symmetry_equiv_pos_as_xyz
  1  'x, y, z'
loop_
 _atom_site_type_symbol
 _atom_site_label
 _atom_site_symmetry_multiplicity
 _atom_site_fract_x
 _atom_site_fract_y
 _atom_site_fract_z
 _atom_site_occupancy
  Er  Er0  1  0.299967  0.085519  0.370511  1
  Er  Er1  1  0.295940  0.914979  0.872326  1
  Er  Er2  1  0.707285  0.088437  0.876789  1
  Er  Er3  1  0.705723  0.920530  0.367906  1
  Er  Er4  1  0.584764  0.798532  0.869391  1
  Er  Er5  1  0.592342  0.203052  0.371122  1
  Er  Er6  1  0.415400  0.798054  0.369744  1
  Er  Er7  1  0.416700  0.202155  0.870562  1
  Er  Er8  1  0.201468  0.415236  0.630609  1
  Er  Er9  1  0.201946  0.584600  0.130256  1
  Er  Er10  1  0.796948  0.407658  0.128878  1
  Er  Er11  1  0.797845  0.583300  0.629438  1
  Er  Er12  1  0.914481  0.700033  0.129489  1
  Er  Er13  1  0.911563  0.292715  0.623211  1
  Er  Er14  1  0.085021  0.704060  0.627674  1
  Er  Er15  1  0.079470  0.294277  0.132094  1
  Er  Er16  1  0.998023  0.004392  0.498839  1
  Er  Er17  1  0.995608  0.001977  0.001161  1
  Er  Er18  1  0.500139  0.500779  0.001043  1
  Er  Er19  1  0.499221  0.499861  0.498957  1
  Pd  Pd20  1  0.845317  0.844240  0.749802  1
  Pd  Pd21  1  0.155760  0.154683  0.750198  1
  Pd  Pd22  1  0.153053  0.846947  0.250000  1
  Pd  Pd23  1  0.652143  0.347857  0.750000  1
  Pd  Pd24  1  0.654161  0.654683  0.250468  1
  Pd  Pd25  1  0.345317  0.345839  0.249532  1
  Pd  Pd26  1  0.346243  0.653757  0.750000  1
  Ru  Ru27  1  0.848665  0.151335  0.250000  1
  Ru  Ru28  1  0.499704  0.000029  0.122925  1
  Ru  Ru29  1  0.499294  0.999482  0.624626  1
  Ru  Ru30  1  0.000518  0.500706  0.875374  1
  Ru  Ru31  1  0.999971  0.500296  0.377075  1
