# generated using pymatgen
data_LaTb16Er3Sn16
_symmetry_space_group_name_H-M   'P 1'
_cell_length_a   8.06567543
_cell_length_b   8.21672102
_cell_length_c   15.54558000
_cell_angle_alpha   90.01653315
_cell_angle_beta   89.70153857
_cell_angle_gamma   89.81542744
_symmetry_Int_Tables_number   1
_chemical_formula_structural   LaTb16Er3Sn16
_chemical_formula_sum   'La1 Tb16 Er3 Sn16'
_cell_volume   1030.23914500
_cell_formula_units_Z   1
loop_
 _symmetry_equiv_pos_site_id
 _symmetry_equiv_pos_as_xyz
  1  'x, y, z'
loop_
 _atom_site_type_symbol
 _atom_site_label
 _atom_site_symmetry_multiplicity
 _atom_site_fract_x
 _atom_site_fract_y
 _atom_site_fract_z
 _atom_site_occupancy
  La  La0  1  0.013801  0.179062  0.904959  1
  Tb  Tb1  1  0.364194  0.836521  0.876794  1
  Tb  Tb2  1  0.866473  0.662704  0.620292  1
  Tb  Tb3  1  0.632696  0.161890  0.377796  1
  Tb  Tb4  1  0.136218  0.337096  0.123186  1
  Tb  Tb5  1  0.635813  0.163909  0.123745  1
  Tb  Tb6  1  0.132652  0.337808  0.377853  1
  Tb  Tb7  1  0.368479  0.837905  0.621214  1
  Tb  Tb8  1  0.864741  0.662846  0.877662  1
  Tb  Tb9  1  0.518485  0.322207  0.903174  1
  Tb  Tb10  1  0.021064  0.179700  0.597964  1
  Tb  Tb11  1  0.479846  0.679184  0.401613  1
  Tb  Tb12  1  0.983059  0.818992  0.097610  1
  Tb  Tb13  1  0.481611  0.679123  0.098088  1
  Tb  Tb14  1  0.979874  0.820978  0.402129  1
  Tb  Tb15  1  0.519801  0.321197  0.596053  1
  Tb  Tb16  1  0.197921  0.502441  0.748984  1
  Er  Er17  1  0.697991  0.996826  0.748867  1
  Er  Er18  1  0.802162  0.497440  0.250421  1
  Er  Er19  1  0.302814  0.002301  0.250785  1
  Sn  Sn20  1  0.301084  0.033739  0.044719  1
  Sn  Sn21  1  0.792221  0.463355  0.457028  1
  Sn  Sn22  1  0.708620  0.965644  0.542205  1
  Sn  Sn23  1  0.206503  0.540913  0.959551  1
  Sn  Sn24  1  0.696921  0.956714  0.960375  1
  Sn  Sn25  1  0.207828  0.537959  0.540966  1
  Sn  Sn26  1  0.292599  0.036421  0.457442  1
  Sn  Sn27  1  0.794120  0.464163  0.043159  1
  Sn  Sn28  1  0.564190  0.619223  0.749421  1
  Sn  Sn29  1  0.062993  0.879947  0.748383  1
  Sn  Sn30  1  0.436756  0.382425  0.250879  1
  Sn  Sn31  1  0.937546  0.118046  0.250489  1
  Sn  Sn32  1  0.331232  0.146851  0.748927  1
  Sn  Sn33  1  0.823508  0.354063  0.747413  1
  Sn  Sn34  1  0.672550  0.851701  0.249843  1
  Sn  Sn35  1  0.171641  0.648701  0.250011  1
