# generated using pymatgen
data_Rb4Zr3Sc5Se16
_symmetry_space_group_name_H-M   'P 1'
_cell_length_a   6.70488617
_cell_length_b   7.70737617
_cell_length_c   16.99224806
_cell_angle_alpha   90.00495752
_cell_angle_beta   90.01000527
_cell_angle_gamma   89.97677074
_symmetry_Int_Tables_number   1
_chemical_formula_structural   Rb4Zr3Sc5Se16
_chemical_formula_sum   'Rb4 Zr3 Sc5 Se16'
_cell_volume   878.10967150
_cell_formula_units_Z   1
loop_
 _symmetry_equiv_pos_site_id
 _symmetry_equiv_pos_as_xyz
  1  'x, y, z'
loop_
 _atom_site_type_symbol
 _atom_site_label
 _atom_site_symmetry_multiplicity
 _atom_site_fract_x
 _atom_site_fract_y
 _atom_site_fract_z
 _atom_site_occupancy
  Rb  Rb0  1  0.347615  0.000762  0.001910  1
  Rb  Rb1  1  0.652385  0.499238  0.498090  1
  Rb  Rb2  1  0.026306  0.000692  0.498233  1
  Rb  Rb3  1  0.973694  0.499308  0.001767  1
  Zr  Zr4  1  0.500000  0.750000  0.750000  1
  Zr  Zr5  1  0.500000  0.750000  0.250000  1
  Zr  Zr6  1  0.500000  0.250000  0.750000  1
  Sc  Sc7  1  0.001114  0.003490  0.248358  1
  Sc  Sc8  1  0.001291  0.999966  0.751418  1
  Sc  Sc9  1  0.998886  0.496510  0.251642  1
  Sc  Sc10  1  0.998709  0.500034  0.748582  1
  Sc  Sc11  1  0.500000  0.250000  0.250000  1
  Se  Se12  1  0.832640  0.248097  0.342163  1
  Se  Se13  1  0.831337  0.751402  0.658676  1
  Se  Se14  1  0.168091  0.748681  0.158093  1
  Se  Se15  1  0.168689  0.251394  0.841266  1
  Se  Se16  1  0.167360  0.251903  0.157837  1
  Se  Se17  1  0.168663  0.748598  0.841324  1
  Se  Se18  1  0.831909  0.751319  0.341907  1
  Se  Se19  1  0.831311  0.248606  0.658734  1
  Se  Se20  1  0.669337  0.998348  0.157915  1
  Se  Se21  1  0.668180  0.999960  0.842046  1
  Se  Se22  1  0.330663  0.501652  0.342085  1
  Se  Se23  1  0.331820  0.500040  0.657954  1
  Se  Se24  1  0.335977  0.998721  0.341141  1
  Se  Se25  1  0.336322  0.000021  0.658637  1
  Se  Se26  1  0.664023  0.501279  0.158859  1
  Se  Se27  1  0.663678  0.499979  0.841363  1
