# generated using pymatgen
data_Mn6Al5Co12As
_symmetry_space_group_name_H-M   'P 1'
_cell_length_a   4.02899100
_cell_length_b   5.71953700
_cell_length_c   12.09031200
_cell_angle_alpha   90.00000000
_cell_angle_beta   89.99989099
_cell_angle_gamma   90.00000000
_symmetry_Int_Tables_number   1
_chemical_formula_structural   Mn6Al5Co12As
_chemical_formula_sum   'Mn6 Al5 Co12 As1'
_cell_volume   278.60870356
_cell_formula_units_Z   1
loop_
 _symmetry_equiv_pos_site_id
 _symmetry_equiv_pos_as_xyz
  1  'x, y, z'
loop_
 _atom_site_type_symbol
 _atom_site_label
 _atom_site_symmetry_multiplicity
 _atom_site_fract_x
 _atom_site_fract_y
 _atom_site_fract_z
 _atom_site_occupancy
  Mn  Mn0  1  0.000000  0.000000  0.000000  1
  Mn  Mn1  1  0.500055  0.500000  0.172077  1
  Mn  Mn2  1  0.000061  0.000000  0.332904  1
  Mn  Mn3  1  0.500001  0.500000  0.500000  1
  Mn  Mn4  1  0.999939  0.000000  0.667095  1
  Mn  Mn5  1  0.499944  0.500000  0.827924  1
  Al  Al6  1  0.500041  0.000000  0.166900  1
  Al  Al7  1  0.000070  0.500000  0.334157  1
  Al  Al8  1  0.500001  0.000000  0.500000  1
  Al  Al9  1  0.999929  0.500000  0.665843  1
  Al  Al10  1  0.499961  0.000000  0.833101  1
  Co  Co11  1  0.500001  0.256328  0.000000  1
  Co  Co12  1  0.500001  0.743673  0.000000  1
  Co  Co13  1  0.000056  0.253223  0.164356  1
  Co  Co14  1  0.000056  0.746775  0.164356  1
  Co  Co15  1  0.500069  0.249156  0.333621  1
  Co  Co16  1  0.500069  0.750843  0.333621  1
  Co  Co17  1  0.000000  0.249772  0.500000  1
  Co  Co18  1  0.000000  0.750229  0.500000  1
  Co  Co19  1  0.499930  0.249156  0.666379  1
  Co  Co20  1  0.499930  0.750843  0.666379  1
  Co  Co21  1  0.999944  0.253223  0.835644  1
  Co  Co22  1  0.999944  0.746775  0.835644  1
  As  As23  1  0.000000  0.500000  0.000000  1
