# generated using pymatgen
data_Tb16In4TcPt2Rh
_symmetry_space_group_name_H-M   'P 1'
_cell_length_a   9.71454272
_cell_length_b   9.75679136
_cell_length_c   9.72643000
_cell_angle_alpha   60.10289162
_cell_angle_beta   59.95952025
_cell_angle_gamma   60.05201024
_symmetry_Int_Tables_number   1
_chemical_formula_structural   Tb16In4TcPt2Rh
_chemical_formula_sum   'Tb16 In4 Tc1 Pt2 Rh1'
_cell_volume   652.44176490
_cell_formula_units_Z   1
loop_
 _symmetry_equiv_pos_site_id
 _symmetry_equiv_pos_as_xyz
  1  'x, y, z'
loop_
 _atom_site_type_symbol
 _atom_site_label
 _atom_site_symmetry_multiplicity
 _atom_site_fract_x
 _atom_site_fract_y
 _atom_site_fract_z
 _atom_site_occupancy
  Tb  Tb0  1  0.809099  0.808558  0.191171  1
  Tb  Tb1  1  0.809419  0.195446  0.809743  1
  Tb  Tb2  1  0.187470  0.192614  0.809958  1
  Tb  Tb3  1  0.646020  0.054658  0.649661  1
  Tb  Tb4  1  0.063393  0.061134  0.437737  1
  Tb  Tb5  1  0.445555  0.435593  0.059426  1
  Tb  Tb6  1  0.650064  0.648268  0.651659  1
  Tb  Tb7  1  0.809419  0.195446  0.185392  1
  Tb  Tb8  1  0.193626  0.808894  0.809947  1
  Tb  Tb9  1  0.050762  0.647119  0.651059  1
  Tb  Tb10  1  0.437295  0.060702  0.063339  1
  Tb  Tb11  1  0.437295  0.060702  0.438664  1
  Tb  Tb12  1  0.060034  0.434435  0.059854  1
  Tb  Tb13  1  0.650064  0.648268  0.050009  1
  Tb  Tb14  1  0.193626  0.808894  0.187534  1
  Tb  Tb15  1  0.060034  0.434435  0.445678  1
  In  In16  1  0.416892  0.416762  0.417220  1
  In  In17  1  0.416892  0.416762  0.749126  1
  In  In18  1  0.417678  0.746074  0.418124  1
  In  In19  1  0.748734  0.416583  0.417342  1
  Tc  Tc20  1  0.857469  0.428233  0.857150  1
  Pt  Pt21  1  0.856708  0.860255  0.856475  1
  Pt  Pt22  1  0.856708  0.860255  0.426562  1
  Rh  Rh23  1  0.425748  0.859909  0.857172  1
