# generated using pymatgen
data_Nd4Tm16Si15Au
_symmetry_space_group_name_H-M   'P 1'
_cell_length_a   7.39507493
_cell_length_b   7.65962780
_cell_length_c   14.57461119
_cell_angle_alpha   90.15526327
_cell_angle_beta   89.38002878
_cell_angle_gamma   89.79236204
_symmetry_Int_Tables_number   1
_chemical_formula_structural   Nd4Tm16Si15Au
_chemical_formula_sum   'Nd4 Tm16 Si15 Au1'
_cell_volume   825.50043304
_cell_formula_units_Z   1
loop_
 _symmetry_equiv_pos_site_id
 _symmetry_equiv_pos_as_xyz
  1  'x, y, z'
loop_
 _atom_site_type_symbol
 _atom_site_label
 _atom_site_symmetry_multiplicity
 _atom_site_fract_x
 _atom_site_fract_y
 _atom_site_fract_z
 _atom_site_occupancy
  Nd  Nd0  1  0.229195  0.679512  0.153777  1
  Nd  Nd1  1  0.734329  0.819891  0.848469  1
  Nd  Nd2  1  0.268324  0.327240  0.653689  1
  Nd  Nd3  1  0.770083  0.179016  0.344764  1
  Tm  Tm4  1  0.919877  0.677293  0.625783  1
  Tm  Tm5  1  0.427469  0.821895  0.373116  1
  Tm  Tm6  1  0.572384  0.323360  0.125003  1
  Tm  Tm7  1  0.075107  0.171593  0.875592  1
  Tm  Tm8  1  0.578195  0.320717  0.873811  1
  Tm  Tm9  1  0.074463  0.179037  0.128114  1
  Tm  Tm10  1  0.926880  0.679817  0.371146  1
  Tm  Tm11  1  0.424679  0.823013  0.627707  1
  Tm  Tm12  1  0.091347  0.009315  0.501258  1
  Tm  Tm13  1  0.591943  0.490008  0.499517  1
  Tm  Tm14  1  0.406899  0.990810  0.999366  1
  Tm  Tm15  1  0.906339  0.505771  0.998929  1
  Tm  Tm16  1  0.275391  0.319319  0.350644  1
  Tm  Tm17  1  0.767022  0.179901  0.648555  1
  Tm  Tm18  1  0.230917  0.678034  0.852969  1
  Tm  Tm19  1  0.725176  0.817377  0.148922  1
  Si  Si20  1  0.595269  0.534894  0.287077  1
  Si  Si21  1  0.406397  0.036139  0.212426  1
  Si  Si22  1  0.909501  0.463459  0.789125  1
  Si  Si23  1  0.407724  0.028476  0.792674  1
  Si  Si24  1  0.891791  0.474451  0.207454  1
  Si  Si25  1  0.108834  0.975443  0.291778  1
  Si  Si26  1  0.601758  0.528564  0.710376  1
  Si  Si27  1  0.974775  0.376866  0.497722  1
  Si  Si28  1  0.473133  0.125567  0.498268  1
  Si  Si29  1  0.526082  0.626041  0.000430  1
  Si  Si30  1  0.025368  0.871266  0.003199  1
  Si  Si31  1  0.219415  0.612863  0.497243  1
  Si  Si32  1  0.718027  0.888969  0.498515  1
  Si  Si33  1  0.277408  0.388370  0.000218  1
  Si  Si34  1  0.778984  0.108434  0.002916  1
  Au  Au35  1  0.089518  0.967280  0.709449  1
