# generated using pymatgen
data_Zr12Al8Cu3NiC4
_symmetry_space_group_name_H-M   'P 1'
_cell_length_a   8.64683342
_cell_length_b   8.64683329
_cell_length_c   8.64683400
_cell_angle_alpha   60.04348937
_cell_angle_beta   60.04349750
_cell_angle_gamma   60.04348541
_symmetry_Int_Tables_number   1
_chemical_formula_structural   Zr12Al8Cu3NiC4
_chemical_formula_sum   'Zr12 Al8 Cu3 Ni1 C4'
_cell_volume   457.59809450
_cell_formula_units_Z   1
loop_
 _symmetry_equiv_pos_site_id
 _symmetry_equiv_pos_as_xyz
  1  'x, y, z'
loop_
 _atom_site_type_symbol
 _atom_site_label
 _atom_site_symmetry_multiplicity
 _atom_site_fract_x
 _atom_site_fract_y
 _atom_site_fract_z
 _atom_site_occupancy
  Zr  Zr0  1  0.560042  0.939588  0.560042  1
  Zr  Zr1  1  0.310412  0.689958  0.689958  1
  Zr  Zr2  1  0.691476  0.310092  0.310092  1
  Zr  Zr3  1  0.310092  0.691476  0.310092  1
  Zr  Zr4  1  0.689958  0.689958  0.310412  1
  Zr  Zr5  1  0.310092  0.310092  0.691476  1
  Zr  Zr6  1  0.560042  0.560042  0.939588  1
  Zr  Zr7  1  0.939588  0.560042  0.560042  1
  Zr  Zr8  1  0.558524  0.939908  0.939908  1
  Zr  Zr9  1  0.939908  0.939908  0.558524  1
  Zr  Zr10  1  0.689958  0.310412  0.689958  1
  Zr  Zr11  1  0.939908  0.558524  0.939908  1
  Al  Al12  1  0.920027  0.920027  0.920027  1
  Al  Al13  1  0.010769  0.327364  0.327364  1
  Al  Al14  1  0.327364  0.010769  0.327364  1
  Al  Al15  1  0.327364  0.327364  0.010769  1
  Al  Al16  1  0.922636  0.239231  0.922636  1
  Al  Al17  1  0.922636  0.922636  0.239231  1
  Al  Al18  1  0.239231  0.922636  0.922636  1
  Al  Al19  1  0.329973  0.329973  0.329973  1
  Cu  Cu20  1  0.625000  0.125000  0.125000  1
  Cu  Cu21  1  0.125000  0.625000  0.125000  1
  Cu  Cu22  1  0.125000  0.125000  0.625000  1
  Ni  Ni23  1  0.125000  0.125000  0.125000  1
  C  C24  1  0.625000  0.625000  0.625000  1
  C  C25  1  0.125000  0.625000  0.625000  1
  C  C26  1  0.625000  0.125000  0.625000  1
  C  C27  1  0.625000  0.625000  0.125000  1
