# generated using pymatgen
data_LaTb9Y6(CdNi)4
_symmetry_space_group_name_H-M   'P 1'
_cell_length_a   9.60212079
_cell_length_b   9.60212039
_cell_length_c   9.60212020
_cell_angle_alpha   60.10884582
_cell_angle_beta   60.10884189
_cell_angle_gamma   60.10884489
_symmetry_Int_Tables_number   1
_chemical_formula_structural   LaTb9Y6(CdNi)4
_chemical_formula_sum   'La1 Tb9 Y6 Cd4 Ni4'
_cell_volume   627.56127219
_cell_formula_units_Z   1
loop_
 _symmetry_equiv_pos_site_id
 _symmetry_equiv_pos_as_xyz
  1  'x, y, z'
loop_
 _atom_site_type_symbol
 _atom_site_label
 _atom_site_symmetry_multiplicity
 _atom_site_fract_x
 _atom_site_fract_y
 _atom_site_fract_z
 _atom_site_occupancy
  La  La0  1  0.595141  0.595141  0.595141  1
  Tb  Tb1  1  0.599523  0.599523  0.199148  1
  Tb  Tb2  1  0.599523  0.199148  0.599523  1
  Tb  Tb3  1  0.199148  0.599523  0.599523  1
  Tb  Tb4  1  0.063820  0.439271  0.439271  1
  Tb  Tb5  1  0.439910  0.062140  0.062140  1
  Tb  Tb6  1  0.439271  0.063820  0.439271  1
  Tb  Tb7  1  0.062140  0.439910  0.062140  1
  Tb  Tb8  1  0.439271  0.439271  0.063820  1
  Tb  Tb9  1  0.062140  0.062140  0.439910  1
  Y  Y10  1  0.186632  0.814737  0.814737  1
  Y  Y11  1  0.813160  0.186752  0.186752  1
  Y  Y12  1  0.814737  0.186632  0.814737  1
  Y  Y13  1  0.186752  0.813160  0.186752  1
  Y  Y14  1  0.814737  0.814737  0.186632  1
  Y  Y15  1  0.186752  0.186752  0.813160  1
  Cd  Cd16  1  0.830688  0.830688  0.830688  1
  Cd  Cd17  1  0.832604  0.832604  0.505387  1
  Cd  Cd18  1  0.832604  0.505387  0.832604  1
  Cd  Cd19  1  0.505387  0.832604  0.832604  1
  Ni  Ni20  1  0.393389  0.393389  0.393389  1
  Ni  Ni21  1  0.389094  0.389094  0.824488  1
  Ni  Ni22  1  0.389094  0.824488  0.389094  1
  Ni  Ni23  1  0.824488  0.389094  0.389094  1
