# generated using pymatgen
data_Eu20(Ga3Hg)3
_symmetry_space_group_name_H-M   'P 1'
_cell_length_a   8.13940500
_cell_length_b   8.13940500
_cell_length_c   15.20003700
_cell_angle_alpha   90.00000000
_cell_angle_beta   90.00000000
_cell_angle_gamma   90.00000000
_symmetry_Int_Tables_number   1
_chemical_formula_structural   Eu20(Ga3Hg)3
_chemical_formula_sum   'Eu20 Ga9 Hg3'
_cell_volume   1007.00114031
_cell_formula_units_Z   1
loop_
 _symmetry_equiv_pos_site_id
 _symmetry_equiv_pos_as_xyz
  1  'x, y, z'
loop_
 _atom_site_type_symbol
 _atom_site_label
 _atom_site_symmetry_multiplicity
 _atom_site_fract_x
 _atom_site_fract_y
 _atom_site_fract_z
 _atom_site_occupancy
  Eu  Eu0  1  0.675181  0.167541  0.103391  1
  Eu  Eu1  1  0.172233  0.670666  0.607184  1
  Eu  Eu2  1  0.324819  0.832459  0.103391  1
  Eu  Eu3  1  0.827767  0.329334  0.607184  1
  Eu  Eu4  1  0.832459  0.675181  0.103391  1
  Eu  Eu5  1  0.329334  0.172233  0.607184  1
  Eu  Eu6  1  0.167541  0.324819  0.103391  1
  Eu  Eu7  1  0.670666  0.827767  0.607184  1
  Eu  Eu8  1  0.832459  0.324819  0.896609  1
  Eu  Eu9  1  0.329334  0.827767  0.392816  1
  Eu  Eu10  1  0.167541  0.675181  0.896609  1
  Eu  Eu11  1  0.670666  0.172233  0.392816  1
  Eu  Eu12  1  0.675181  0.832459  0.896609  1
  Eu  Eu13  1  0.172233  0.329334  0.392816  1
  Eu  Eu14  1  0.324819  0.167541  0.896609  1
  Eu  Eu15  1  0.827767  0.670666  0.392816  1
  Eu  Eu16  1  0.500000  0.500000  0.755731  1
  Eu  Eu17  1  0.000000  0.000000  0.246697  1
  Eu  Eu18  1  0.000000  0.000000  0.753303  1
  Eu  Eu19  1  0.500000  0.500000  0.244269  1
  Ga  Ga20  1  0.616292  0.114096  0.751577  1
  Ga  Ga21  1  0.114096  0.616292  0.248423  1
  Ga  Ga22  1  0.885904  0.383708  0.248423  1
  Ga  Ga23  1  0.383708  0.885904  0.751577  1
  Ga  Ga24  1  0.885904  0.616292  0.751577  1
  Ga  Ga25  1  0.383708  0.114096  0.248423  1
  Ga  Ga26  1  0.114096  0.383708  0.751577  1
  Ga  Ga27  1  0.616292  0.885904  0.248423  1
  Ga  Ga28  1  0.000000  0.000000  0.000000  1
  Hg  Hg29  1  0.500000  0.500000  0.500000  1
  Hg  Hg30  1  0.500000  0.500000  0.000000  1
  Hg  Hg31  1  0.000000  0.000000  0.500000  1
