# generated using pymatgen
data_Ba5(LiHg)3
_symmetry_space_group_name_H-M   'P 1'
_cell_length_a   17.40620700
_cell_length_b   17.40620712
_cell_length_c   5.12175500
_cell_angle_alpha   90.00000000
_cell_angle_beta   90.00000000
_cell_angle_gamma   164.99579099
_symmetry_Int_Tables_number   1
_chemical_formula_structural   Ba5(LiHg)3
_chemical_formula_sum   'Ba5 Li3 Hg3'
_cell_volume   401.73749781
_cell_formula_units_Z   1
loop_
 _symmetry_equiv_pos_site_id
 _symmetry_equiv_pos_as_xyz
  1  'x, y, z'
loop_
 _atom_site_type_symbol
 _atom_site_label
 _atom_site_symmetry_multiplicity
 _atom_site_fract_x
 _atom_site_fract_y
 _atom_site_fract_z
 _atom_site_occupancy
  Ba  Ba0  1  0.999230  0.000770  0.000000  1
  Ba  Ba1  1  0.616304  0.383694  0.000000  1
  Ba  Ba2  1  0.383037  0.616961  0.000000  1
  Ba  Ba3  1  0.805936  0.194062  0.500001  1
  Ba  Ba4  1  0.193860  0.806138  0.500001  1
  Li  Li5  1  0.726467  0.273531  0.000000  1
  Li  Li6  1  0.915108  0.084891  0.500001  1
  Li  Li7  1  0.540194  0.459804  0.500001  1
  Hg  Hg8  1  0.274148  0.725850  0.000000  1
  Hg  Hg9  1  0.459426  0.540572  0.500001  1
  Hg  Hg10  1  0.086282  0.913717  0.500001  1
