# generated using pymatgen
data_Eu5Th(Ni7B2)2
_symmetry_space_group_name_H-M   'P 1'
_cell_length_a   5.15458300
_cell_length_b   5.15458340
_cell_length_c   14.57578800
_cell_angle_alpha   90.00000000
_cell_angle_beta   90.00000000
_cell_angle_gamma   120.00000383
_symmetry_Int_Tables_number   1
_chemical_formula_structural   Eu5Th(Ni7B2)2
_chemical_formula_sum   'Eu5 Th1 Ni14 B4'
_cell_volume   335.38973474
_cell_formula_units_Z   1
loop_
 _symmetry_equiv_pos_site_id
 _symmetry_equiv_pos_as_xyz
  1  'x, y, z'
loop_
 _atom_site_type_symbol
 _atom_site_label
 _atom_site_symmetry_multiplicity
 _atom_site_fract_x
 _atom_site_fract_y
 _atom_site_fract_z
 _atom_site_occupancy
  Eu  Eu0  1  0.333333  0.666667  0.966411  1
  Eu  Eu1  1  0.666667  0.333333  0.026863  1
  Eu  Eu2  1  0.666667  0.333333  0.473137  1
  Eu  Eu3  1  0.333333  0.666667  0.533589  1
  Eu  Eu4  1  0.333333  0.666667  0.750000  1
  Th  Th5  1  0.666667  0.333333  0.250000  1
  Ni  Ni6  1  0.164301  0.835699  0.348587  1
  Ni  Ni7  1  0.164301  0.328601  0.348587  1
  Ni  Ni8  1  0.671399  0.835699  0.348587  1
  Ni  Ni9  1  0.835377  0.164623  0.653490  1
  Ni  Ni10  1  0.835377  0.670754  0.653490  1
  Ni  Ni11  1  0.329246  0.164623  0.653490  1
  Ni  Ni12  1  0.835377  0.164623  0.846510  1
  Ni  Ni13  1  0.835377  0.670754  0.846510  1
  Ni  Ni14  1  0.329246  0.164623  0.846510  1
  Ni  Ni15  1  0.164301  0.835699  0.151413  1
  Ni  Ni16  1  0.164301  0.328601  0.151413  1
  Ni  Ni17  1  0.671399  0.835699  0.151413  1
  Ni  Ni18  1  0.000000  0.000000  0.500536  1
  Ni  Ni19  1  0.000000  0.000000  0.999464  1
  B  B20  1  0.333333  0.666667  0.250000  1
  B  B21  1  0.666667  0.333333  0.750000  1
  B  B22  1  0.000000  0.000000  0.250000  1
  B  B23  1  0.000000  0.000000  0.750000  1
