# generated using pymatgen
data_Ac2ThS5
_symmetry_space_group_name_H-M   'P 1'
_cell_length_a   7.79968900
_cell_length_b   8.56715200
_cell_length_c   12.44258800
_cell_angle_alpha   90.00000000
_cell_angle_beta   90.00000000
_cell_angle_gamma   90.00000000
_symmetry_Int_Tables_number   1
_chemical_formula_structural   Ac2ThS5
_chemical_formula_sum   'Ac8 Th4 S20'
_cell_volume   831.42768099
_cell_formula_units_Z   4
loop_
 _symmetry_equiv_pos_site_id
 _symmetry_equiv_pos_as_xyz
  1  'x, y, z'
loop_
 _atom_site_type_symbol
 _atom_site_label
 _atom_site_symmetry_multiplicity
 _atom_site_fract_x
 _atom_site_fract_y
 _atom_site_fract_z
 _atom_site_occupancy
  Ac  Ac0  1  0.524165  0.501698  0.324114  1
  Ac  Ac1  1  0.975835  0.998302  0.824114  1
  Ac  Ac2  1  0.475835  0.001698  0.675886  1
  Ac  Ac3  1  0.024165  0.498302  0.175886  1
  Ac  Ac4  1  0.475835  0.498302  0.675886  1
  Ac  Ac5  1  0.024165  0.001698  0.175886  1
  Ac  Ac6  1  0.524165  0.998302  0.324114  1
  Ac  Ac7  1  0.975835  0.501698  0.824114  1
  Th  Th8  1  0.068882  0.750000  0.492202  1
  Th  Th9  1  0.431118  0.750000  0.992202  1
  Th  Th10  1  0.931118  0.250000  0.507798  1
  Th  Th11  1  0.568882  0.250000  0.007798  1
  S  S12  1  0.840449  0.962008  0.593528  1
  S  S13  1  0.659551  0.537992  0.093528  1
  S  S14  1  0.159551  0.462008  0.406472  1
  S  S15  1  0.340449  0.037992  0.906472  1
  S  S16  1  0.159551  0.037992  0.406472  1
  S  S17  1  0.340449  0.462008  0.906472  1
  S  S18  1  0.840449  0.537992  0.593528  1
  S  S19  1  0.659551  0.962008  0.093528  1
  S  S20  1  0.835277  0.750000  0.313883  1
  S  S21  1  0.664723  0.750000  0.813883  1
  S  S22  1  0.164723  0.250000  0.686117  1
  S  S23  1  0.335277  0.250000  0.186117  1
  S  S24  1  0.447627  0.750000  0.496463  1
  S  S25  1  0.052373  0.750000  0.996463  1
  S  S26  1  0.552373  0.250000  0.503537  1
  S  S27  1  0.947627  0.250000  0.003537  1
  S  S28  1  0.192523  0.750000  0.711763  1
  S  S29  1  0.307477  0.750000  0.211763  1
  S  S30  1  0.807477  0.250000  0.288237  1
  S  S31  1  0.692523  0.250000  0.788237  1
