# generated using pymatgen
data_Th4ReTcOs6
_symmetry_space_group_name_H-M   'P 1'
_cell_length_a   5.63405100
_cell_length_b   5.30227907
_cell_length_c   9.19127000
_cell_angle_alpha   90.00000000
_cell_angle_beta   90.00000000
_cell_angle_gamma   122.09239055
_symmetry_Int_Tables_number   1
_chemical_formula_structural   Th4ReTcOs6
_chemical_formula_sum   'Th4 Re1 Tc1 Os6'
_cell_volume   232.61674602
_cell_formula_units_Z   1
loop_
 _symmetry_equiv_pos_site_id
 _symmetry_equiv_pos_as_xyz
  1  'x, y, z'
loop_
 _atom_site_type_symbol
 _atom_site_label
 _atom_site_symmetry_multiplicity
 _atom_site_fract_x
 _atom_site_fract_y
 _atom_site_fract_z
 _atom_site_occupancy
  Th  Th0  1  0.335849  0.671698  0.066664  1
  Th  Th1  1  0.668256  0.336511  0.567263  1
  Th  Th2  1  0.668256  0.336511  0.932737  1
  Th  Th3  1  0.335849  0.671698  0.433336  1
  Re  Re4  1  0.162218  0.324435  0.750000  1
  Tc  Tc5  1  0.827532  0.655066  0.250000  1
  Os  Os6  1  0.005902  0.011804  0.999982  1
  Os  Os7  1  0.005902  0.011804  0.500018  1
  Os  Os8  1  0.165388  0.818822  0.750000  1
  Os  Os9  1  0.653436  0.818822  0.750000  1
  Os  Os10  1  0.336230  0.171413  0.250000  1
  Os  Os11  1  0.835182  0.171413  0.250000  1
