# generated using pymatgen
data_Tb3YAl18(Ir2Au)2
_symmetry_space_group_name_H-M   'P 1'
_cell_length_a   7.63844313
_cell_length_b   7.63800984
_cell_length_c   9.46402700
_cell_angle_alpha   90.00000000
_cell_angle_beta   90.00000000
_cell_angle_gamma   119.61296759
_symmetry_Int_Tables_number   1
_chemical_formula_structural   Tb3YAl18(Ir2Au)2
_chemical_formula_sum   'Tb3 Y1 Al18 Ir4 Au2'
_cell_volume   480.03426090
_cell_formula_units_Z   1
loop_
 _symmetry_equiv_pos_site_id
 _symmetry_equiv_pos_as_xyz
  1  'x, y, z'
loop_
 _atom_site_type_symbol
 _atom_site_label
 _atom_site_symmetry_multiplicity
 _atom_site_fract_x
 _atom_site_fract_y
 _atom_site_fract_z
 _atom_site_occupancy
  Tb  Tb0  1  0.004765  0.324095  0.750000  1
  Tb  Tb1  1  0.676109  0.995318  0.250000  1
  Tb  Tb2  1  0.323937  0.004662  0.750000  1
  Y  Y3  1  0.995139  0.675935  0.250000  1
  Al  Al4  1  0.139912  0.139970  0.250000  1
  Al  Al5  1  0.860021  0.859976  0.750000  1
  Al  Al6  1  0.000536  0.345020  0.077239  1
  Al  Al7  1  0.999467  0.655096  0.922865  1
  Al  Al8  1  0.999467  0.655096  0.577135  1
  Al  Al9  1  0.344800  0.000428  0.422729  1
  Al  Al10  1  0.000536  0.345020  0.422761  1
  Al  Al11  1  0.655067  0.999445  0.577194  1
  Al  Al12  1  0.655067  0.999445  0.922806  1
  Al  Al13  1  0.344800  0.000428  0.077271  1
  Al  Al14  1  0.341910  0.341888  0.558207  1
  Al  Al15  1  0.658205  0.658105  0.441709  1
  Al  Al16  1  0.658205  0.658105  0.058291  1
  Al  Al17  1  0.341910  0.341888  0.941793  1
  Al  Al18  1  0.337294  0.550956  0.250000  1
  Al  Al19  1  0.662786  0.449155  0.750000  1
  Al  Al20  1  0.550919  0.337176  0.250000  1
  Al  Al21  1  0.449183  0.662814  0.750000  1
  Ir  Ir22  1  0.671422  0.328656  0.000059  1
  Ir  Ir23  1  0.328554  0.671353  0.000039  1
  Ir  Ir24  1  0.328554  0.671353  0.499961  1
  Ir  Ir25  1  0.671422  0.328656  0.499941  1
  Au  Au26  1  0.000005  0.999979  0.000010  1
  Au  Au27  1  0.000005  0.999979  0.499990  1
