# generated using pymatgen
data_Ca12BeFeN10
_symmetry_space_group_name_H-M   'P 1'
_cell_length_a   6.19207900
_cell_length_b   6.19207863
_cell_length_c   12.23899300
_cell_angle_alpha   90.00000000
_cell_angle_beta   90.00000000
_cell_angle_gamma   120.00000732
_symmetry_Int_Tables_number   1
_chemical_formula_structural   Ca12BeFeN10
_chemical_formula_sum   'Ca12 Be1 Fe1 N10'
_cell_volume   406.39582451
_cell_formula_units_Z   1
loop_
 _symmetry_equiv_pos_site_id
 _symmetry_equiv_pos_as_xyz
  1  'x, y, z'
loop_
 _atom_site_type_symbol
 _atom_site_label
 _atom_site_symmetry_multiplicity
 _atom_site_fract_x
 _atom_site_fract_y
 _atom_site_fract_z
 _atom_site_occupancy
  Ca  Ca0  1  0.000000  0.391445  0.869537  1
  Ca  Ca1  1  0.608555  0.608555  0.869537  1
  Ca  Ca2  1  0.602306  0.000000  0.113587  1
  Ca  Ca3  1  0.391445  0.000000  0.630463  1
  Ca  Ca4  1  0.397694  0.397694  0.386413  1
  Ca  Ca5  1  0.602306  0.000000  0.386413  1
  Ca  Ca6  1  0.397694  0.397694  0.113587  1
  Ca  Ca7  1  0.000000  0.602306  0.113587  1
  Ca  Ca8  1  0.000000  0.391445  0.630463  1
  Ca  Ca9  1  0.608555  0.608555  0.630463  1
  Ca  Ca10  1  0.391445  0.000000  0.869537  1
  Ca  Ca11  1  0.000000  0.602306  0.386413  1
  Be  Be12  1  0.000000  0.000000  0.750000  1
  Fe  Fe13  1  0.000000  0.000000  0.250000  1
  N  N14  1  0.722564  0.000000  0.750000  1
  N  N15  1  0.277436  0.277436  0.750000  1
  N  N16  1  0.279403  0.000000  0.250000  1
  N  N17  1  0.666667  0.333333  0.497576  1
  N  N18  1  0.333333  0.666667  0.002424  1
  N  N19  1  0.333333  0.666667  0.497576  1
  N  N20  1  0.666667  0.333333  0.002424  1
  N  N21  1  0.720597  0.720597  0.250000  1
  N  N22  1  0.000000  0.279403  0.250000  1
  N  N23  1  0.000000  0.722564  0.750000  1
