# generated using pymatgen
data_La3YbZn2Ir3
_symmetry_space_group_name_H-M   'P 1'
_cell_length_a   7.49493300
_cell_length_b   7.54576270
_cell_length_c   4.13182200
_cell_angle_alpha   90.00000000
_cell_angle_beta   90.00000000
_cell_angle_gamma   119.77741326
_symmetry_Int_Tables_number   1
_chemical_formula_structural   La3YbZn2Ir3
_chemical_formula_sum   'La3 Yb1 Zn2 Ir3'
_cell_volume   202.82097372
_cell_formula_units_Z   1
loop_
 _symmetry_equiv_pos_site_id
 _symmetry_equiv_pos_as_xyz
  1  'x, y, z'
loop_
 _atom_site_type_symbol
 _atom_site_label
 _atom_site_symmetry_multiplicity
 _atom_site_fract_x
 _atom_site_fract_y
 _atom_site_fract_z
 _atom_site_occupancy
  La  La0  1  0.392122  0.000000  0.000000  1
  La  La1  1  0.012124  0.435190  0.000000  1
  La  La2  1  0.576934  0.564810  0.000000  1
  Yb  Yb3  1  0.764806  0.000000  0.499999  1
  Zn  Zn4  1  0.236934  0.240098  0.499999  1
  Zn  Zn5  1  0.996836  0.759902  0.499999  1
  Ir  Ir6  1  0.023759  0.000000  0.000000  1
  Ir  Ir7  1  0.669087  0.341692  0.499999  1
  Ir  Ir8  1  0.327396  0.658308  0.499999  1
