# generated using pymatgen
data_Sr4In(Ga2Pt)5
_symmetry_space_group_name_H-M   'P 1'
_cell_length_a   8.88167853
_cell_length_b   8.88167815
_cell_length_c   8.88167600
_cell_angle_alpha   139.49951281
_cell_angle_beta   106.46361135
_cell_angle_gamma   87.48924499
_symmetry_Int_Tables_number   1
_chemical_formula_structural   Sr4In(Ga2Pt)5
_chemical_formula_sum   'Sr4 In1 Ga10 Pt5'
_cell_volume   419.45905764
_cell_formula_units_Z   1
loop_
 _symmetry_equiv_pos_site_id
 _symmetry_equiv_pos_as_xyz
  1  'x, y, z'
loop_
 _atom_site_type_symbol
 _atom_site_label
 _atom_site_symmetry_multiplicity
 _atom_site_fract_x
 _atom_site_fract_y
 _atom_site_fract_z
 _atom_site_occupancy
  Sr  Sr0  1  0.863095  0.642767  0.243116  1
  Sr  Sr1  1  0.136905  0.380022  0.779672  1
  Sr  Sr2  1  0.399651  0.119978  0.256884  1
  Sr  Sr3  1  0.600349  0.857233  0.720328  1
  In  In4  1  0.000000  0.750000  0.750000  1
  Ga  Ga5  1  0.500000  0.750000  0.250000  1
  Ga  Ga6  1  0.500000  0.250000  0.750000  1
  Ga  Ga7  1  0.231612  0.981612  0.750000  1
  Ga  Ga8  1  0.768388  0.518388  0.750000  1
  Ga  Ga9  1  0.776575  0.026575  0.250000  1
  Ga  Ga10  1  0.223425  0.473425  0.250000  1
  Ga  Ga11  1  0.050693  0.911613  0.184431  1
  Ga  Ga12  1  0.949307  0.133739  0.860920  1
  Ga  Ga13  1  0.727181  0.366261  0.315569  1
  Ga  Ga14  1  0.272819  0.588387  0.639080  1
  Pt  Pt15  1  0.000000  0.250000  0.250000  1
  Pt  Pt16  1  0.259408  0.862790  0.394339  1
  Pt  Pt17  1  0.740592  0.134929  0.603380  1
  Pt  Pt18  1  0.468452  0.365071  0.105661  1
  Pt  Pt19  1  0.531548  0.637210  0.896620  1
