# generated using pymatgen
data_Tm5Lu5InSn5
_symmetry_space_group_name_H-M   'P 1'
_cell_length_a   8.82578927
_cell_length_b   8.83031575
_cell_length_c   6.44541600
_cell_angle_alpha   90.00000000
_cell_angle_beta   90.00000000
_cell_angle_gamma   120.10009698
_symmetry_Int_Tables_number   1
_chemical_formula_structural   Tm5Lu5InSn5
_chemical_formula_sum   'Tm5 Lu5 In1 Sn5'
_cell_volume   434.58270509
_cell_formula_units_Z   1
loop_
 _symmetry_equiv_pos_site_id
 _symmetry_equiv_pos_as_xyz
  1  'x, y, z'
loop_
 _atom_site_type_symbol
 _atom_site_label
 _atom_site_symmetry_multiplicity
 _atom_site_fract_x
 _atom_site_fract_y
 _atom_site_fract_z
 _atom_site_occupancy
  Tm  Tm0  1  0.763041  0.763131  0.750000  1
  Tm  Tm1  1  0.238339  0.003090  0.750000  1
  Tm  Tm2  1  0.235660  0.235759  0.250000  1
  Tm  Tm3  1  0.762137  0.998962  0.250000  1
  Tm  Tm4  1  0.998856  0.761917  0.250000  1
  Lu  Lu5  1  0.665806  0.333371  0.998942  1
  Lu  Lu6  1  0.333358  0.665672  0.998916  1
  Lu  Lu7  1  0.333358  0.665672  0.501084  1
  Lu  Lu8  1  0.665806  0.333371  0.501058  1
  Lu  Lu9  1  0.003014  0.238362  0.750000  1
  In  In10  1  0.398082  0.398515  0.750000  1
  Sn  Sn11  1  0.605372  0.000902  0.750000  1
  Sn  Sn12  1  0.000437  0.604370  0.750000  1
  Sn  Sn13  1  0.602152  0.602205  0.250000  1
  Sn  Sn14  1  0.395857  0.998834  0.250000  1
  Sn  Sn15  1  0.998730  0.395869  0.250000  1
