# generated using pymatgen
data_Er4Zn2MoOs5
_symmetry_space_group_name_H-M   'P 1'
_cell_length_a   5.31852639
_cell_length_b   5.28146936
_cell_length_c   8.84430500
_cell_angle_alpha   90.00000000
_cell_angle_beta   90.00000000
_cell_angle_gamma   118.29424035
_symmetry_Int_Tables_number   1
_chemical_formula_structural   Er4Zn2MoOs5
_chemical_formula_sum   'Er4 Zn2 Mo1 Os5'
_cell_volume   218.75172616
_cell_formula_units_Z   1
loop_
 _symmetry_equiv_pos_site_id
 _symmetry_equiv_pos_as_xyz
  1  'x, y, z'
loop_
 _atom_site_type_symbol
 _atom_site_label
 _atom_site_symmetry_multiplicity
 _atom_site_fract_x
 _atom_site_fract_y
 _atom_site_fract_z
 _atom_site_occupancy
  Er  Er0  1  0.324424  0.667813  0.435547  1
  Er  Er1  1  0.656969  0.328049  0.558179  1
  Er  Er2  1  0.656969  0.328049  0.941821  1
  Er  Er3  1  0.324424  0.667813  0.064453  1
  Zn  Zn4  1  0.193553  0.837955  0.750000  1
  Zn  Zn5  1  0.189094  0.348655  0.750000  1
  Mo  Mo6  1  0.836953  0.164518  0.250000  1
  Os  Os7  1  0.972675  0.991749  0.504012  1
  Os  Os8  1  0.972675  0.991749  0.995988  1
  Os  Os9  1  0.826826  0.656579  0.250000  1
  Os  Os10  1  0.352272  0.175160  0.250000  1
  Os  Os11  1  0.693168  0.841908  0.750000  1
