# generated using pymatgen
data_TbHo2Ga6Co2Ni7
_symmetry_space_group_name_H-M   'P 1'
_cell_length_a   4.09337200
_cell_length_b   8.68167889
_cell_length_c   8.75617059
_cell_angle_alpha   60.19432909
_cell_angle_beta   90.00000000
_cell_angle_gamma   90.00000000
_symmetry_Int_Tables_number   1
_chemical_formula_structural   TbHo2Ga6Co2Ni7
_chemical_formula_sum   'Tb1 Ho2 Ga6 Co2 Ni7'
_cell_volume   270.00815624
_cell_formula_units_Z   1
loop_
 _symmetry_equiv_pos_site_id
 _symmetry_equiv_pos_as_xyz
  1  'x, y, z'
loop_
 _atom_site_type_symbol
 _atom_site_label
 _atom_site_symmetry_multiplicity
 _atom_site_fract_x
 _atom_site_fract_y
 _atom_site_fract_z
 _atom_site_occupancy
  Tb  Tb0  1  0.500000  0.664574  0.664749  1
  Ho  Ho1  1  0.500000  0.332191  0.334749  1
  Ho  Ho2  1  0.000000  0.998733  0.001706  1
  Ga  Ga3  1  0.000000  0.488135  0.516207  1
  Ga  Ga4  1  0.000000  0.515863  0.996564  1
  Ga  Ga5  1  0.000000  0.999994  0.484720  1
  Ga  Ga6  1  0.500000  0.729497  0.269924  1
  Ga  Ga7  1  0.500000  0.273911  0.000919  1
  Ga  Ga8  1  0.500000  0.000641  0.731160  1
  Co  Co9  1  0.000000  0.362354  0.826540  1
  Co  Co10  1  0.000000  0.808134  0.366247  1
  Ni  Ni11  1  0.000000  0.194578  0.177268  1
  Ni  Ni12  1  0.000000  0.177742  0.628160  1
  Ni  Ni13  1  0.000000  0.624576  0.197487  1
  Ni  Ni14  1  0.000000  0.825863  0.802322  1
  Ni  Ni15  1  0.500000  0.294973  0.707381  1
  Ni  Ni16  1  0.500000  0.707524  0.000092  1
  Ni  Ni17  1  0.500000  0.000618  0.293902  1
