# generated using pymatgen
data_Tm4Al13Ga11Pt9
_symmetry_space_group_name_H-M   'P 1'
_cell_length_a   7.50503515
_cell_length_b   7.50883545
_cell_length_c   13.23700700
_cell_angle_alpha   84.61022965
_cell_angle_beta   100.77183968
_cell_angle_gamma   119.94974429
_symmetry_Int_Tables_number   1
_chemical_formula_structural   Tm4Al13Ga11Pt9
_chemical_formula_sum   'Tm4 Al13 Ga11 Pt9'
_cell_volume   634.95728581
_cell_formula_units_Z   1
loop_
 _symmetry_equiv_pos_site_id
 _symmetry_equiv_pos_as_xyz
  1  'x, y, z'
loop_
 _atom_site_type_symbol
 _atom_site_label
 _atom_site_symmetry_multiplicity
 _atom_site_fract_x
 _atom_site_fract_y
 _atom_site_fract_z
 _atom_site_occupancy
  Tm  Tm0  1  0.735613  0.002687  0.192536  1
  Tm  Tm1  1  0.264089  0.998988  0.806914  1
  Tm  Tm2  1  0.062470  0.663007  0.190759  1
  Tm  Tm3  1  0.939181  0.337108  0.808688  1
  Al  Al4  1  0.770845  0.660860  0.331508  1
  Al  Al5  1  0.852786  0.331839  0.558125  1
  Al  Al6  1  0.186729  0.999480  0.557781  1
  Al  Al7  1  0.812241  0.999194  0.440941  1
  Al  Al8  1  0.352016  0.999644  0.054624  1
  Al  Al9  1  0.648579  0.001486  0.945352  1
  Al  Al10  1  0.556471  0.994890  0.669085  1
  Al  Al11  1  0.443061  0.004506  0.331163  1
  Al  Al12  1  0.519291  0.666080  0.560619  1
  Al  Al13  1  0.478652  0.332175  0.439285  1
  Al  Al14  1  0.686319  0.668302  0.049798  1
  Al  Al15  1  0.316017  0.333935  0.951071  1
  Al  Al16  1  0.145818  0.667401  0.440916  1
  Ga  Ga17  1  0.804582  0.874207  0.814731  1
  Ga  Ga18  1  0.195208  0.125510  0.185074  1
  Ga  Ga19  1  0.982668  0.667378  0.939420  1
  Ga  Ga20  1  0.018645  0.333409  0.060812  1
  Ga  Ga21  1  0.400687  0.666401  0.815985  1
  Ga  Ga22  1  0.600346  0.336510  0.184200  1
  Ga  Ga23  1  0.885092  0.665687  0.670653  1
  Ga  Ga24  1  0.114786  0.334097  0.329584  1
  Ga  Ga25  1  0.600296  0.458190  0.815109  1
  Ga  Ga26  1  0.402733  0.543288  0.185235  1
  Ga  Ga27  1  0.227920  0.336765  0.672110  1
  Pt  Pt28  1  0.336517  0.674466  0.001163  1
  Pt  Pt29  1  0.545667  0.321700  0.635165  1
  Pt  Pt30  1  0.456272  0.676806  0.364828  1
  Pt  Pt31  1  0.882358  0.005911  0.635283  1
  Pt  Pt32  1  0.111639  0.988663  0.363165  1
  Pt  Pt33  1  0.664283  0.326164  0.999411  1
  Pt  Pt34  1  0.208351  0.669681  0.635723  1
  Pt  Pt35  1  0.791328  0.332923  0.363741  1
  Pt  Pt36  1  0.000445  0.000661  0.999436  1
