# generated using pymatgen
data_Ho6C2SCl5
_symmetry_space_group_name_H-M   'P 1'
_cell_length_a   3.70704368
_cell_length_b   8.52301241
_cell_length_c   10.13766616
_cell_angle_alpha   87.22392352
_cell_angle_beta   79.47120199
_cell_angle_gamma   77.31159968
_symmetry_Int_Tables_number   1
_chemical_formula_structural   Ho6C2SCl5
_chemical_formula_sum   'Ho6 C2 S1 Cl5'
_cell_volume   307.20666214
_cell_formula_units_Z   1
loop_
 _symmetry_equiv_pos_site_id
 _symmetry_equiv_pos_as_xyz
  1  'x, y, z'
loop_
 _atom_site_type_symbol
 _atom_site_label
 _atom_site_symmetry_multiplicity
 _atom_site_fract_x
 _atom_site_fract_y
 _atom_site_fract_z
 _atom_site_occupancy
  Ho  Ho0  1  0.576709  0.071236  0.779291  1
  Ho  Ho1  1  0.962322  0.404406  0.675531  1
  Ho  Ho2  1  0.692907  0.160912  0.455534  1
  Ho  Ho3  1  0.043607  0.593432  0.323487  1
  Ho  Ho4  1  0.311738  0.837428  0.542731  1
  Ho  Ho5  1  0.428673  0.926428  0.218895  1
  C  C6  1  0.126547  0.123177  0.627035  1
  C  C7  1  0.878693  0.874913  0.371216  1
  S  S8  1  0.502896  0.499073  0.499569  1
  Cl  Cl9  1  0.752304  0.748895  0.748293  1
  Cl  Cl10  1  0.376041  0.375278  0.876867  1
  Cl  Cl11  1  0.251561  0.248959  0.249755  1
  Cl  Cl12  1  0.630439  0.621838  0.122217  1
  Cl  Cl13  1  0.002786  0.997612  0.998893  1
