# generated using pymatgen
data_Tb16MgIn2AgRh4
_symmetry_space_group_name_H-M   'P 1'
_cell_length_a   9.70185860
_cell_length_b   9.64689683
_cell_length_c   9.70581100
_cell_angle_alpha   59.79777707
_cell_angle_beta   59.98652628
_cell_angle_gamma   59.76575135
_symmetry_Int_Tables_number   1
_chemical_formula_structural   Tb16MgIn2AgRh4
_chemical_formula_sum   'Tb16 Mg1 In2 Ag1 Rh4'
_cell_volume   640.13991625
_cell_formula_units_Z   1
loop_
 _symmetry_equiv_pos_site_id
 _symmetry_equiv_pos_as_xyz
  1  'x, y, z'
loop_
 _atom_site_type_symbol
 _atom_site_label
 _atom_site_symmetry_multiplicity
 _atom_site_fract_x
 _atom_site_fract_y
 _atom_site_fract_z
 _atom_site_occupancy
  Tb  Tb0  1  0.349466  0.349222  0.345941  1
  Tb  Tb1  1  0.349466  0.349222  0.955369  1
  Tb  Tb2  1  0.352237  0.952039  0.347861  1
  Tb  Tb3  1  0.946500  0.352993  0.350253  1
  Tb  Tb4  1  0.808875  0.189435  0.190894  1
  Tb  Tb5  1  0.187506  0.810735  0.812455  1
  Tb  Tb6  1  0.187506  0.810735  0.189303  1
  Tb  Tb7  1  0.808875  0.189435  0.810797  1
  Tb  Tb8  1  0.185691  0.187438  0.813435  1
  Tb  Tb9  1  0.807091  0.808232  0.192339  1
  Tb  Tb10  1  0.936946  0.563931  0.563992  1
  Tb  Tb11  1  0.562498  0.942546  0.931183  1
  Tb  Tb12  1  0.562498  0.942546  0.563775  1
  Tb  Tb13  1  0.936946  0.563931  0.935131  1
  Tb  Tb14  1  0.563948  0.565142  0.935456  1
  Tb  Tb15  1  0.934947  0.940458  0.562297  1
  Mg  Mg16  1  0.276778  0.569420  0.576901  1
  In  In17  1  0.582390  0.579909  0.584599  1
  In  In18  1  0.582390  0.579909  0.253104  1
  Ag  Ag19  1  0.581906  0.249265  0.584415  1
  Rh  Rh20  1  0.140413  0.143377  0.143476  1
  Rh  Rh21  1  0.140413  0.143377  0.572732  1
  Rh  Rh22  1  0.141007  0.573501  0.142745  1
  Rh  Rh23  1  0.573707  0.143202  0.141546  1
