# generated using pymatgen
data_Ca5As12Ru8Rh11
_symmetry_space_group_name_H-M   'P 1'
_cell_length_a   13.08828184
_cell_length_b   13.09026539
_cell_length_c   4.04930600
_cell_angle_alpha   90.00000000
_cell_angle_beta   90.00000000
_cell_angle_gamma   119.88678429
_symmetry_Int_Tables_number   1
_chemical_formula_structural   Ca5As12Ru8Rh11
_chemical_formula_sum   'Ca5 As12 Ru8 Rh11'
_cell_volume   601.50140766
_cell_formula_units_Z   1
loop_
 _symmetry_equiv_pos_site_id
 _symmetry_equiv_pos_as_xyz
  1  'x, y, z'
loop_
 _atom_site_type_symbol
 _atom_site_label
 _atom_site_symmetry_multiplicity
 _atom_site_fract_x
 _atom_site_fract_y
 _atom_site_fract_z
 _atom_site_occupancy
  Ca  Ca0  1  0.000081  0.181786  0.500000  1
  Ca  Ca1  1  0.818072  0.817883  0.500000  1
  Ca  Ca2  1  0.182133  0.000031  0.500000  1
  Ca  Ca3  1  0.666394  0.333437  0.000000  1
  Ca  Ca4  1  0.333362  0.666298  0.000000  1
  As  As5  1  0.484566  0.318688  0.500000  1
  As  As6  1  0.817251  0.999512  0.000000  1
  As  As7  1  0.182425  0.182267  0.000000  1
  As  As8  1  0.999465  0.817142  0.000000  1
  As  As9  1  0.364793  0.996657  0.000000  1
  As  As10  1  0.686960  0.169708  0.500000  1
  As  As11  1  0.831489  0.515639  0.500000  1
  As  As12  1  0.515472  0.831063  0.500000  1
  As  As13  1  0.169285  0.684113  0.500000  1
  As  As14  1  0.315620  0.484658  0.500000  1
  As  As15  1  0.000005  0.368270  0.000000  1
  As  As16  1  0.631487  0.632049  0.000000  1
  Ru  Ru17  1  0.642868  0.518765  0.500000  1
  Ru  Ru18  1  0.876484  0.358266  0.500000  1
  Ru  Ru19  1  0.357793  0.876713  0.500000  1
  Ru  Ru20  1  0.518015  0.641744  0.500000  1
  Ru  Ru21  1  0.123865  0.481664  0.500000  1
  Ru  Ru22  1  0.000048  0.712165  0.500000  1
  Ru  Ru23  1  0.287496  0.287210  0.500000  1
  Ru  Ru24  1  0.712188  0.999719  0.500000  1
  Rh  Rh25  1  0.804788  0.181554  0.000000  1
  Rh  Rh26  1  0.377526  0.194518  0.000000  1
  Rh  Rh27  1  0.818094  0.623141  0.000000  1
  Rh  Rh28  1  0.622723  0.818324  0.000000  1
  Rh  Rh29  1  0.180583  0.802792  0.000000  1
  Rh  Rh30  1  0.195370  0.376758  0.000000  1
  Rh  Rh31  1  0.998975  0.551584  0.000000  1
  Rh  Rh32  1  0.448459  0.447101  0.000000  1
  Rh  Rh33  1  0.551224  0.001681  0.000000  1
  Rh  Rh34  1  0.000181  0.000123  0.000000  1
  Rh  Rh35  1  0.484460  0.126978  0.500000  1
