# generated using pymatgen
data_Pr7Ho12ThSn16
_symmetry_space_group_name_H-M   'P 1'
_cell_length_a   8.11931630
_cell_length_b   8.26478016
_cell_length_c   15.58133900
_cell_angle_alpha   90.12848056
_cell_angle_beta   89.96760963
_cell_angle_gamma   89.98268587
_symmetry_Int_Tables_number   1
_chemical_formula_structural   Pr7Ho12ThSn16
_chemical_formula_sum   'Pr7 Ho12 Th1 Sn16'
_cell_volume   1045.57300370
_cell_formula_units_Z   1
loop_
 _symmetry_equiv_pos_site_id
 _symmetry_equiv_pos_as_xyz
  1  'x, y, z'
loop_
 _atom_site_type_symbol
 _atom_site_label
 _atom_site_symmetry_multiplicity
 _atom_site_fract_x
 _atom_site_fract_y
 _atom_site_fract_z
 _atom_site_occupancy
  Pr  Pr0  1  0.014028  0.177031  0.596703  1
  Pr  Pr1  1  0.486306  0.678363  0.403387  1
  Pr  Pr2  1  0.986622  0.821923  0.096284  1
  Pr  Pr3  1  0.485900  0.677497  0.096549  1
  Pr  Pr4  1  0.986354  0.822068  0.403407  1
  Pr  Pr5  1  0.514605  0.321869  0.597391  1
  Pr  Pr6  1  0.015325  0.178904  0.903471  1
  Ho  Ho7  1  0.359043  0.836403  0.876672  1
  Ho  Ho8  1  0.858798  0.663560  0.623904  1
  Ho  Ho9  1  0.640851  0.163671  0.376767  1
  Ho  Ho10  1  0.140226  0.336977  0.122770  1
  Ho  Ho11  1  0.639943  0.164107  0.123327  1
  Ho  Ho12  1  0.140164  0.335746  0.376667  1
  Ho  Ho13  1  0.360035  0.835146  0.624017  1
  Ho  Ho14  1  0.859854  0.664499  0.877098  1
  Ho  Ho15  1  0.191968  0.502706  0.749703  1
  Ho  Ho16  1  0.691525  0.998280  0.749936  1
  Ho  Ho17  1  0.807140  0.497986  0.249366  1
  Ho  Ho18  1  0.307202  0.002827  0.250407  1
  Th  Th19  1  0.514259  0.321279  0.902871  1
  Sn  Sn20  1  0.305421  0.043005  0.041182  1
  Sn  Sn21  1  0.804586  0.458590  0.458280  1
  Sn  Sn22  1  0.695286  0.958113  0.542251  1
  Sn  Sn23  1  0.198809  0.539346  0.956963  1
  Sn  Sn24  1  0.695308  0.962404  0.956822  1
  Sn  Sn25  1  0.195598  0.540915  0.542251  1
  Sn  Sn26  1  0.304849  0.041193  0.458405  1
  Sn  Sn27  1  0.801204  0.457639  0.040602  1
  Sn  Sn28  1  0.557907  0.622883  0.751862  1
  Sn  Sn29  1  0.057641  0.875440  0.750231  1
  Sn  Sn30  1  0.441214  0.375661  0.250403  1
  Sn  Sn31  1  0.941534  0.125060  0.249532  1
  Sn  Sn32  1  0.323265  0.142086  0.750300  1
  Sn  Sn33  1  0.822748  0.356645  0.750612  1
  Sn  Sn34  1  0.677312  0.857898  0.249811  1
  Sn  Sn35  1  0.177170  0.642281  0.249795  1
