# generated using pymatgen
data_Ru(SeBr2)2
_symmetry_space_group_name_H-M   'P 1'
_cell_length_a   10.97720544
_cell_length_b   10.98308158
_cell_length_c   10.98182687
_cell_angle_alpha   115.94130994
_cell_angle_beta   115.98948989
_cell_angle_gamma   97.10703714
_symmetry_Int_Tables_number   1
_chemical_formula_structural   Ru(SeBr2)2
_chemical_formula_sum   'Ru4 Se8 Br16'
_cell_volume   985.36009961
_cell_formula_units_Z   4
loop_
 _symmetry_equiv_pos_site_id
 _symmetry_equiv_pos_as_xyz
  1  'x, y, z'
loop_
 _atom_site_type_symbol
 _atom_site_label
 _atom_site_symmetry_multiplicity
 _atom_site_fract_x
 _atom_site_fract_y
 _atom_site_fract_z
 _atom_site_occupancy
  Ru  Ru0  1  0.700020  0.547606  0.088666  1
  Ru  Ru1  1  0.458550  0.610004  0.910535  1
  Ru  Ru2  1  0.389427  0.300939  0.848373  1
  Ru  Ru3  1  0.451441  0.541130  0.151815  1
  Se  Se4  1  0.895937  0.439782  0.089102  1
  Se  Se5  1  0.350544  0.806151  0.910952  1
  Se  Se6  1  0.193652  0.104941  0.544540  1
  Se  Se7  1  0.560091  0.649105  0.455439  1
  Se  Se8  1  0.544714  0.425271  0.797648  1
  Se  Se9  1  0.627499  0.745926  0.201781  1
  Se  Se10  1  0.252854  0.455588  0.880826  1
  Se  Se11  1  0.574663  0.372857  0.119171  1
  Br  Br12  1  0.857847  0.309529  0.823283  1
  Br  Br13  1  0.486182  0.034079  0.176491  1
  Br  Br14  1  0.965319  0.142565  0.451715  1
  Br  Br15  1  0.690766  0.513853  0.548530  1
  Br  Br16  1  0.902257  0.701597  0.095832  1
  Br  Br17  1  0.605730  0.805706  0.904413  1
  Br  Br18  1  0.194226  0.098781  0.800082  1
  Br  Br19  1  0.298336  0.394357  0.200555  1
  Br  Br20  1  0.911857  0.634015  0.377289  1
  Br  Br21  1  0.256723  0.534245  0.622513  1
  Br  Br22  1  0.466484  0.089049  0.723447  1
  Br  Br23  1  0.365251  0.743006  0.277088  1
  Br  Br24  1  0.859912  0.233023  0.115144  1
  Br  Br25  1  0.117531  0.744765  0.884817  1
  Br  Br26  1  0.255266  0.140301  0.373301  1
  Br  Br27  1  0.766921  0.881833  0.626652  1
