# generated using pymatgen
data_Yb6ErLuP6
_symmetry_space_group_name_H-M   'P 1'
_cell_length_a   7.31984361
_cell_length_b   7.50277371
_cell_length_c   7.50277300
_cell_angle_alpha   109.95984501
_cell_angle_beta   108.97806366
_cell_angle_gamma   108.97806186
_symmetry_Int_Tables_number   1
_chemical_formula_structural   Yb6ErLuP6
_chemical_formula_sum   'Yb6 Er1 Lu1 P6'
_cell_volume   319.10282969
_cell_formula_units_Z   1
loop_
 _symmetry_equiv_pos_site_id
 _symmetry_equiv_pos_as_xyz
  1  'x, y, z'
loop_
 _atom_site_type_symbol
 _atom_site_label
 _atom_site_symmetry_multiplicity
 _atom_site_fract_x
 _atom_site_fract_y
 _atom_site_fract_z
 _atom_site_occupancy
  Yb  Yb0  1  0.499163  0.995276  0.633750  1
  Yb  Yb1  1  0.365507  0.361620  0.366282  1
  Yb  Yb2  1  0.503886  0.004663  0.138380  1
  Yb  Yb3  1  0.003888  0.638475  0.504724  1
  Yb  Yb4  1  0.865413  0.866250  0.861525  1
  Yb  Yb5  1  0.999223  0.133718  0.495337  1
  Er  Er6  1  0.130480  0.500000  0.000000  1
  Lu  Lu7  1  0.630664  0.500000  0.000000  1
  P  P8  1  0.379383  0.621922  0.761683  1
  P  P9  1  0.876814  0.261106  0.122103  1
  P  P10  1  0.617699  0.738317  0.360238  1
  P  P11  1  0.115707  0.860997  0.238894  1
  P  P12  1  0.257461  0.139762  0.878078  1
  P  P13  1  0.754711  0.377897  0.639003  1
