# generated using pymatgen
data_Th3CoIr8
_symmetry_space_group_name_H-M   'P 1'
_cell_length_a   9.32606417
_cell_length_b   9.32606487
_cell_length_c   9.32606440
_cell_angle_alpha   33.41495038
_cell_angle_beta   33.41494101
_cell_angle_gamma   33.41495725
_symmetry_Int_Tables_number   1
_chemical_formula_structural   Th3CoIr8
_chemical_formula_sum   'Th3 Co1 Ir8'
_cell_volume   219.06074580
_cell_formula_units_Z   1
loop_
 _symmetry_equiv_pos_site_id
 _symmetry_equiv_pos_as_xyz
  1  'x, y, z'
loop_
 _atom_site_type_symbol
 _atom_site_label
 _atom_site_symmetry_multiplicity
 _atom_site_fract_x
 _atom_site_fract_y
 _atom_site_fract_z
 _atom_site_occupancy
  Th  Th0  1  0.000178  0.000178  0.000178  1
  Th  Th1  1  0.138916  0.138916  0.138916  1
  Th  Th2  1  0.861711  0.861711  0.861710  1
  Co  Co3  1  0.666841  0.666841  0.666840  1
  Ir  Ir4  1  0.582429  0.075817  0.582430  1
  Ir  Ir5  1  0.582429  0.582429  0.075818  1
  Ir  Ir6  1  0.075817  0.582429  0.582430  1
  Ir  Ir7  1  0.916636  0.421330  0.421328  1
  Ir  Ir8  1  0.421328  0.421328  0.916637  1
  Ir  Ir9  1  0.421330  0.916636  0.421328  1
  Ir  Ir10  1  0.499345  0.499345  0.499345  1
  Ir  Ir11  1  0.333039  0.333039  0.333039  1
