# generated using pymatgen
data_Yb3(H6Ir)2
_symmetry_space_group_name_H-M   'P 1'
_cell_length_a   4.89099200
_cell_length_b   4.89099209
_cell_length_c   8.09309600
_cell_angle_alpha   90.00000000
_cell_angle_beta   90.00000000
_cell_angle_gamma   119.99998588
_symmetry_Int_Tables_number   1
_chemical_formula_structural   Yb3(H6Ir)2
_chemical_formula_sum   'Yb3 H12 Ir2'
_cell_volume   167.66379738
_cell_formula_units_Z   1
loop_
 _symmetry_equiv_pos_site_id
 _symmetry_equiv_pos_as_xyz
  1  'x, y, z'
loop_
 _atom_site_type_symbol
 _atom_site_label
 _atom_site_symmetry_multiplicity
 _atom_site_fract_x
 _atom_site_fract_y
 _atom_site_fract_z
 _atom_site_occupancy
  Yb  Yb0  1  0.000000  0.000000  0.000000  1
  Yb  Yb1  1  0.666667  0.333333  0.364253  1
  Yb  Yb2  1  0.333333  0.666667  0.635747  1
  H  H3  1  0.169578  0.830422  0.368063  1
  H  H4  1  0.660845  0.830422  0.368063  1
  H  H5  1  0.169578  0.339155  0.368063  1
  H  H6  1  0.830422  0.169578  0.631937  1
  H  H7  1  0.339155  0.169578  0.631937  1
  H  H8  1  0.830422  0.660845  0.631937  1
  H  H9  1  0.508103  0.016206  0.872876  1
  H  H10  1  0.508103  0.491897  0.872876  1
  H  H11  1  0.983794  0.491897  0.872876  1
  H  H12  1  0.491897  0.983794  0.127124  1
  H  H13  1  0.491897  0.508103  0.127124  1
  H  H14  1  0.016206  0.508103  0.127124  1
  Ir  Ir15  1  0.666667  0.333333  0.749630  1
  Ir  Ir16  1  0.333333  0.666667  0.250370  1
