# generated using pymatgen
data_Yb5Er(Si3Ru)8
_symmetry_space_group_name_H-M   'P 1'
_cell_length_a   10.13281249
_cell_length_b   10.13281217
_cell_length_c   8.13387244
_cell_angle_alpha   89.98961026
_cell_angle_beta   89.98960896
_cell_angle_gamma   132.64829911
_symmetry_Int_Tables_number   1
_chemical_formula_structural   Yb5Er(Si3Ru)8
_chemical_formula_sum   'Yb5 Er1 Si24 Ru8'
_cell_volume   614.26458622
_cell_formula_units_Z   1
loop_
 _symmetry_equiv_pos_site_id
 _symmetry_equiv_pos_as_xyz
  1  'x, y, z'
loop_
 _atom_site_type_symbol
 _atom_site_label
 _atom_site_symmetry_multiplicity
 _atom_site_fract_x
 _atom_site_fract_y
 _atom_site_fract_z
 _atom_site_occupancy
  Yb  Yb0  1  0.498043  0.998145  0.249987  1
  Yb  Yb1  1  0.001855  0.501957  0.750013  1
  Yb  Yb2  1  0.501957  0.001855  0.750013  1
  Yb  Yb3  1  0.998145  0.498043  0.249987  1
  Yb  Yb4  1  0.500000  0.500000  0.500000  1
  Er  Er5  1  0.000000  0.000000  0.000000  1
  Si  Si6  1  0.389150  0.154759  0.006130  1
  Si  Si7  1  0.653320  0.886488  0.493190  1
  Si  Si8  1  0.113512  0.346680  0.506810  1
  Si  Si9  1  0.845241  0.610850  0.993870  1
  Si  Si10  1  0.610850  0.845241  0.993870  1
  Si  Si11  1  0.346680  0.113512  0.506810  1
  Si  Si12  1  0.886488  0.653320  0.493190  1
  Si  Si13  1  0.154759  0.389150  0.006130  1
  Si  Si14  1  0.609475  0.376406  0.229680  1
  Si  Si15  1  0.876122  0.109942  0.271370  1
  Si  Si16  1  0.890058  0.123878  0.728630  1
  Si  Si17  1  0.623594  0.390525  0.770320  1
  Si  Si18  1  0.390525  0.623594  0.770320  1
  Si  Si19  1  0.123878  0.890058  0.728630  1
  Si  Si20  1  0.706065  0.293935  0.000000  1
  Si  Si21  1  0.793972  0.206028  0.500000  1
  Si  Si22  1  0.293935  0.706065  0.000000  1
  Si  Si23  1  0.206028  0.793972  0.500000  1
  Si  Si24  1  0.167718  0.167718  0.333812  1
  Si  Si25  1  0.665555  0.665555  0.168478  1
  Si  Si26  1  0.334445  0.334445  0.831522  1
  Si  Si27  1  0.832282  0.832282  0.666188  1
  Si  Si28  1  0.376406  0.609475  0.229680  1
  Si  Si29  1  0.109942  0.876122  0.271370  1
  Ru  Ru30  1  0.628427  0.628427  0.875924  1
  Ru  Ru31  1  0.125093  0.125093  0.627293  1
  Ru  Ru32  1  0.874907  0.874907  0.372707  1
  Ru  Ru33  1  0.371573  0.371573  0.124076  1
  Ru  Ru34  1  0.330657  0.669343  0.500000  1
  Ru  Ru35  1  0.168431  0.831569  0.000000  1
  Ru  Ru36  1  0.669343  0.330657  0.500000  1
  Ru  Ru37  1  0.831569  0.168431  0.000000  1
