# generated using pymatgen
data_HfZr9CuSn2Sb5
_symmetry_space_group_name_H-M   'P 1'
_cell_length_a   5.90958790
_cell_length_b   8.73801758
_cell_length_c   8.72696104
_cell_angle_alpha   120.00976831
_cell_angle_beta   90.03665079
_cell_angle_gamma   89.94924789
_symmetry_Int_Tables_number   1
_chemical_formula_structural   HfZr9CuSn2Sb5
_chemical_formula_sum   'Hf1 Zr9 Cu1 Sn2 Sb5'
_cell_volume   390.23016821
_cell_formula_units_Z   1
loop_
 _symmetry_equiv_pos_site_id
 _symmetry_equiv_pos_as_xyz
  1  'x, y, z'
loop_
 _atom_site_type_symbol
 _atom_site_label
 _atom_site_symmetry_multiplicity
 _atom_site_fract_x
 _atom_site_fract_y
 _atom_site_fract_z
 _atom_site_occupancy
  Hf  Hf0  1  0.267263  0.000022  0.724851  1
  Zr  Zr1  1  0.498966  0.333183  0.667563  1
  Zr  Zr2  1  0.498951  0.666335  0.333363  1
  Zr  Zr3  1  0.001250  0.666211  0.333000  1
  Zr  Zr4  1  0.001271  0.333634  0.668573  1
  Zr  Zr5  1  0.736838  0.270966  0.999386  1
  Zr  Zr6  1  0.735014  0.729931  0.728672  1
  Zr  Zr7  1  0.736019  0.000558  0.270585  1
  Zr  Zr8  1  0.263842  0.723628  0.000947  1
  Zr  Zr9  1  0.265120  0.275069  0.275295  1
  Cu  Cu10  1  0.490763  0.998903  0.997210  1
  Sn  Sn11  1  0.246109  0.616189  0.615945  1
  Sn  Sn12  1  0.246519  0.000092  0.386033  1
  Sb  Sb13  1  0.751694  0.612816  0.000336  1
  Sb  Sb14  1  0.752807  0.388969  0.389891  1
  Sb  Sb15  1  0.752985  0.999490  0.609836  1
  Sb  Sb16  1  0.248458  0.384735  0.999548  1
  Sb  Sb17  1  0.006132  0.999269  0.998965  1
