# generated using pymatgen
data_Th3AlGe2Rh3
_symmetry_space_group_name_H-M   'P 1'
_cell_length_a   7.25005900
_cell_length_b   7.30538406
_cell_length_c   4.04212700
_cell_angle_alpha   90.00000000
_cell_angle_beta   90.00000000
_cell_angle_gamma   119.74979101
_symmetry_Int_Tables_number   1
_chemical_formula_structural   Th3AlGe2Rh3
_chemical_formula_sum   'Th3 Al1 Ge2 Rh3'
_cell_volume   185.87228662
_cell_formula_units_Z   1
loop_
 _symmetry_equiv_pos_site_id
 _symmetry_equiv_pos_as_xyz
  1  'x, y, z'
loop_
 _atom_site_type_symbol
 _atom_site_label
 _atom_site_symmetry_multiplicity
 _atom_site_fract_x
 _atom_site_fract_y
 _atom_site_fract_z
 _atom_site_occupancy
  Th  Th0  1  0.998850  0.417643  0.500000  1
  Th  Th1  1  0.581207  0.582357  0.500000  1
  Th  Th2  1  0.413977  0.000000  0.500000  1
  Al  Al3  1  0.764831  0.000000  0.000000  1
  Ge  Ge4  1  0.994051  0.757146  0.000000  1
  Ge  Ge5  1  0.236905  0.242854  0.000000  1
  Rh  Rh6  1  0.338991  0.668091  0.000000  1
  Rh  Rh7  1  0.670901  0.331909  0.000000  1
  Rh  Rh8  1  0.000287  0.000000  0.500000  1
