# generated using pymatgen
data_Cs8V4PdPtSe16
_symmetry_space_group_name_H-M   'P 1'
_cell_length_a   14.07400223
_cell_length_b   7.75870503
_cell_length_c   10.16394837
_cell_angle_alpha   84.55707951
_cell_angle_beta   89.99835916
_cell_angle_gamma   90.08824707
_symmetry_Int_Tables_number   1
_chemical_formula_structural   Cs8V4PdPtSe16
_chemical_formula_sum   'Cs8 V4 Pd1 Pt1 Se16'
_cell_volume   1104.85734077
_cell_formula_units_Z   1
loop_
 _symmetry_equiv_pos_site_id
 _symmetry_equiv_pos_as_xyz
  1  'x, y, z'
loop_
 _atom_site_type_symbol
 _atom_site_label
 _atom_site_symmetry_multiplicity
 _atom_site_fract_x
 _atom_site_fract_y
 _atom_site_fract_z
 _atom_site_occupancy
  Cs  Cs0  1  0.134473  0.812008  0.683985  1
  Cs  Cs1  1  0.634703  0.187792  0.815988  1
  Cs  Cs2  1  0.865527  0.187992  0.316015  1
  Cs  Cs3  1  0.365297  0.812208  0.184012  1
  Cs  Cs4  1  0.351003  0.268307  0.542573  1
  Cs  Cs5  1  0.850968  0.731572  0.957406  1
  Cs  Cs6  1  0.648997  0.731693  0.457427  1
  Cs  Cs7  1  0.149032  0.268428  0.042594  1
  V  V8  1  0.426795  0.744425  0.774899  1
  V  V9  1  0.926798  0.256062  0.724505  1
  V  V10  1  0.573205  0.255575  0.225101  1
  V  V11  1  0.073202  0.743938  0.275495  1
  Pd  Pd12  1  0.500000  0.500000  0.000000  1
  Pt  Pt13  1  0.000000  0.500000  0.500000  1
  Se  Se14  1  0.086495  0.303625  0.668626  1
  Se  Se15  1  0.586254  0.697016  0.830644  1
  Se  Se16  1  0.913505  0.696375  0.331374  1
  Se  Se17  1  0.413746  0.302984  0.169356  1
  Se  Se18  1  0.401370  0.749031  0.554858  1
  Se  Se19  1  0.901383  0.250785  0.944780  1
  Se  Se20  1  0.598630  0.250969  0.445142  1
  Se  Se21  1  0.098617  0.749215  0.055220  1
  Se  Se22  1  0.155558  0.513997  0.383310  1
  Se  Se23  1  0.655540  0.485255  0.116965  1
  Se  Se24  1  0.844442  0.486003  0.616690  1
  Se  Se25  1  0.344460  0.514745  0.883035  1
  Se  Se26  1  0.374333  0.997027  0.843084  1
  Se  Se27  1  0.874143  0.002915  0.657146  1
  Se  Se28  1  0.625667  0.002973  0.156916  1
  Se  Se29  1  0.125857  0.997085  0.342854  1
