# generated using pymatgen
data_Ho13Th3MgNi4Hg3
_symmetry_space_group_name_H-M   'P 1'
_cell_length_a   9.56765610
_cell_length_b   9.58189271
_cell_length_c   9.58206190
_cell_angle_alpha   59.80753770
_cell_angle_beta   59.86580450
_cell_angle_gamma   59.87066979
_symmetry_Int_Tables_number   1
_chemical_formula_structural   Ho13Th3MgNi4Hg3
_chemical_formula_sum   'Ho13 Th3 Mg1 Ni4 Hg3'
_cell_volume   619.01312484
_cell_formula_units_Z   1
loop_
 _symmetry_equiv_pos_site_id
 _symmetry_equiv_pos_as_xyz
  1  'x, y, z'
loop_
 _atom_site_type_symbol
 _atom_site_label
 _atom_site_symmetry_multiplicity
 _atom_site_fract_x
 _atom_site_fract_y
 _atom_site_fract_z
 _atom_site_occupancy
  Ho  Ho0  1  0.939592  0.354734  0.354700  1
  Ho  Ho1  1  0.809359  0.191671  0.191691  1
  Ho  Ho2  1  0.187072  0.812918  0.812948  1
  Ho  Ho3  1  0.187826  0.811642  0.189642  1
  Ho  Ho4  1  0.811838  0.189149  0.811350  1
  Ho  Ho5  1  0.187825  0.189619  0.811668  1
  Ho  Ho6  1  0.811882  0.811256  0.189194  1
  Ho  Ho7  1  0.937499  0.567356  0.567427  1
  Ho  Ho8  1  0.561077  0.935830  0.935835  1
  Ho  Ho9  1  0.564263  0.936391  0.566278  1
  Ho  Ho10  1  0.935439  0.565129  0.933162  1
  Ho  Ho11  1  0.564281  0.566214  0.936422  1
  Ho  Ho12  1  0.935453  0.933117  0.565179  1
  Th  Th13  1  0.340891  0.348221  0.348254  1
  Th  Th14  1  0.342572  0.349578  0.956477  1
  Th  Th15  1  0.342548  0.956458  0.349614  1
  Mg  Mg16  1  0.278190  0.572398  0.572358  1
  Ni  Ni17  1  0.147131  0.140009  0.140024  1
  Ni  Ni18  1  0.142899  0.141835  0.571008  1
  Ni  Ni19  1  0.143350  0.571229  0.141495  1
  Ni  Ni20  1  0.565684  0.144419  0.144379  1
  Hg  Hg21  1  0.589141  0.586133  0.586125  1
  Hg  Hg22  1  0.587089  0.585320  0.239420  1
  Hg  Hg23  1  0.587099  0.239376  0.585347  1
