# generated using pymatgen
data_Tb2YMn2W3O14
_symmetry_space_group_name_H-M   'P 1'
_cell_length_a   7.20319381
_cell_length_b   7.20318306
_cell_length_c   7.20035273
_cell_angle_alpha   117.13112643
_cell_angle_beta   62.86898486
_cell_angle_gamma   117.10720196
_symmetry_Int_Tables_number   1
_chemical_formula_structural   Tb2YMn2W3O14
_chemical_formula_sum   'Tb2 Y1 Mn2 W3 O14'
_cell_volume   281.06123255
_cell_formula_units_Z   1
loop_
 _symmetry_equiv_pos_site_id
 _symmetry_equiv_pos_as_xyz
  1  'x, y, z'
loop_
 _atom_site_type_symbol
 _atom_site_label
 _atom_site_symmetry_multiplicity
 _atom_site_fract_x
 _atom_site_fract_y
 _atom_site_fract_z
 _atom_site_occupancy
  Tb  Tb0  1  0.999992  0.500002  0.000009  1
  Tb  Tb1  1  0.500001  0.000001  0.999993  1
  Y  Y2  1  0.500006  0.500008  0.499994  1
  Mn  Mn3  1  0.499981  0.499996  0.999981  1
  Mn  Mn4  1  0.000015  0.000018  0.500002  1
  W  W5  1  0.500006  0.999967  0.500014  1
  W  W6  1  0.000014  0.500010  0.499986  1
  W  W7  1  0.000010  0.999999  0.000007  1
  O  O8  1  0.621204  0.378800  0.122269  1
  O  O9  1  0.378774  0.621210  0.877715  1
  O  O10  1  0.084974  0.324164  0.175672  1
  O  O11  1  0.675830  0.915023  0.175667  1
  O  O12  1  0.675861  0.324139  0.585023  1
  O  O13  1  0.915014  0.675825  0.824339  1
  O  O14  1  0.324168  0.084965  0.824330  1
  O  O15  1  0.324135  0.675864  0.414986  1
  O  O16  1  0.643722  0.903459  0.596427  1
  O  O17  1  0.096540  0.356276  0.596430  1
  O  O18  1  0.096565  0.903426  0.143685  1
  O  O19  1  0.356293  0.096554  0.403566  1
  O  O20  1  0.903463  0.643723  0.403579  1
  O  O21  1  0.903433  0.096576  0.856327  1
