# generated using pymatgen
data_Tb16Cd4NiIr3
_symmetry_space_group_name_H-M   'P 1'
_cell_length_a   9.63422434
_cell_length_b   9.63422418
_cell_length_c   9.63422478
_cell_angle_alpha   60.32389178
_cell_angle_beta   60.32389631
_cell_angle_gamma   60.32389176
_symmetry_Int_Tables_number   1
_chemical_formula_structural   Tb16Cd4NiIr3
_chemical_formula_sum   'Tb16 Cd4 Ni1 Ir3'
_cell_volume   636.95144215
_cell_formula_units_Z   1
loop_
 _symmetry_equiv_pos_site_id
 _symmetry_equiv_pos_as_xyz
  1  'x, y, z'
loop_
 _atom_site_type_symbol
 _atom_site_label
 _atom_site_symmetry_multiplicity
 _atom_site_fract_x
 _atom_site_fract_y
 _atom_site_fract_z
 _atom_site_occupancy
  Tb  Tb0  1  0.598611  0.598611  0.598611  1
  Tb  Tb1  1  0.598800  0.598800  0.202352  1
  Tb  Tb2  1  0.598800  0.202352  0.598800  1
  Tb  Tb3  1  0.202352  0.598800  0.598800  1
  Tb  Tb4  1  0.061052  0.439907  0.439907  1
  Tb  Tb5  1  0.438141  0.060164  0.060164  1
  Tb  Tb6  1  0.439907  0.061052  0.439907  1
  Tb  Tb7  1  0.060164  0.438141  0.060164  1
  Tb  Tb8  1  0.439907  0.439907  0.061052  1
  Tb  Tb9  1  0.060164  0.060164  0.438141  1
  Tb  Tb10  1  0.188842  0.811996  0.811996  1
  Tb  Tb11  1  0.813625  0.187362  0.187362  1
  Tb  Tb12  1  0.811996  0.188842  0.811996  1
  Tb  Tb13  1  0.187362  0.813625  0.187362  1
  Tb  Tb14  1  0.811996  0.811996  0.188842  1
  Tb  Tb15  1  0.187362  0.187362  0.813625  1
  Cd  Cd16  1  0.830637  0.830637  0.830637  1
  Cd  Cd17  1  0.831383  0.831383  0.506200  1
  Cd  Cd18  1  0.831383  0.506200  0.831383  1
  Cd  Cd19  1  0.506200  0.831383  0.831383  1
  Ni  Ni20  1  0.392181  0.392181  0.392181  1
  Ir  Ir21  1  0.392376  0.392376  0.824387  1
  Ir  Ir22  1  0.392376  0.824387  0.392376  1
  Ir  Ir23  1  0.824387  0.392376  0.392376  1
