# generated using pymatgen
data_HfNb3Si4Ir3Pt
_symmetry_space_group_name_H-M   'P 1'
_cell_length_a   3.84437200
_cell_length_b   6.50091650
_cell_length_c   7.40266423
_cell_angle_alpha   90.63583966
_cell_angle_beta   90.00000000
_cell_angle_gamma   90.00000000
_symmetry_Int_Tables_number   1
_chemical_formula_structural   HfNb3Si4Ir3Pt
_chemical_formula_sum   'Hf1 Nb3 Si4 Ir3 Pt1'
_cell_volume   184.99555824
_cell_formula_units_Z   1
loop_
 _symmetry_equiv_pos_site_id
 _symmetry_equiv_pos_as_xyz
  1  'x, y, z'
loop_
 _atom_site_type_symbol
 _atom_site_label
 _atom_site_symmetry_multiplicity
 _atom_site_fract_x
 _atom_site_fract_y
 _atom_site_fract_z
 _atom_site_occupancy
  Hf  Hf0  1  0.750000  0.521209  0.823376  1
  Nb  Nb1  1  0.250000  0.977438  0.328948  1
  Nb  Nb2  1  0.750000  0.027665  0.667801  1
  Nb  Nb3  1  0.250000  0.475131  0.177016  1
  Si  Si4  1  0.250000  0.230303  0.878667  1
  Si  Si5  1  0.250000  0.734559  0.616272  1
  Si  Si6  1  0.750000  0.770179  0.132682  1
  Si  Si7  1  0.750000  0.269985  0.374864  1
  Ir  Ir8  1  0.250000  0.355385  0.565948  1
  Ir  Ir9  1  0.750000  0.645334  0.438730  1
  Ir  Ir10  1  0.750000  0.143730  0.062237  1
  Pt  Pt11  1  0.250000  0.849082  0.933460  1
