# generated using pymatgen
data_Tb2Dy14CdHg3Rh4
_symmetry_space_group_name_H-M   'P 1'
_cell_length_a   9.60160203
_cell_length_b   9.60287948
_cell_length_c   9.60709800
_cell_angle_alpha   59.98546711
_cell_angle_beta   59.98106329
_cell_angle_gamma   59.92515428
_symmetry_Int_Tables_number   1
_chemical_formula_structural   Tb2Dy14CdHg3Rh4
_chemical_formula_sum   'Tb2 Dy14 Cd1 Hg3 Rh4'
_cell_volume   625.84439428
_cell_formula_units_Z   1
loop_
 _symmetry_equiv_pos_site_id
 _symmetry_equiv_pos_as_xyz
  1  'x, y, z'
loop_
 _atom_site_type_symbol
 _atom_site_label
 _atom_site_symmetry_multiplicity
 _atom_site_fract_x
 _atom_site_fract_y
 _atom_site_fract_z
 _atom_site_occupancy
  Tb  Tb0  1  0.562530  0.563952  0.936759  1
  Tb  Tb1  1  0.147015  0.555582  0.148703  1
  Dy  Dy2  1  0.689742  0.312086  0.309955  1
  Dy  Dy3  1  0.937221  0.563452  0.562774  1
  Dy  Dy4  1  0.937221  0.563452  0.936553  1
  Dy  Dy5  1  0.689552  0.689856  0.310296  1
  Dy  Dy6  1  0.562287  0.938010  0.936471  1
  Dy  Dy7  1  0.149385  0.148568  0.151070  1
  Dy  Dy8  1  0.310911  0.690563  0.309769  1
  Dy  Dy9  1  0.552702  0.147399  0.149950  1
  Dy  Dy10  1  0.310421  0.311423  0.689078  1
  Dy  Dy11  1  0.310911  0.690563  0.688758  1
  Dy  Dy12  1  0.149385  0.148568  0.550977  1
  Dy  Dy13  1  0.689742  0.312086  0.688217  1
  Dy  Dy14  1  0.936548  0.937533  0.562959  1
  Dy  Dy15  1  0.562287  0.938010  0.563231  1
  Cd  Cd16  1  0.919774  0.241773  0.919226  1
  Hg  Hg17  1  0.914022  0.916547  0.914040  1
  Hg  Hg18  1  0.256027  0.916693  0.913639  1
  Hg  Hg19  1  0.914022  0.916547  0.255391  1
  Rh  Rh20  1  0.357072  0.356654  0.927435  1
  Rh  Rh21  1  0.357072  0.356654  0.358839  1
  Rh  Rh22  1  0.927880  0.355966  0.358077  1
  Rh  Rh23  1  0.356268  0.928061  0.357835  1
