# generated using pymatgen
data_Ta8Ga3Si3Mo2
_symmetry_space_group_name_H-M   'P 1'
_cell_length_a   6.53999705
_cell_length_b   7.62264179
_cell_length_c   6.53999735
_cell_angle_alpha   115.34150858
_cell_angle_beta   90.12985300
_cell_angle_gamma   115.34150735
_symmetry_Int_Tables_number   1
_chemical_formula_structural   Ta8Ga3Si3Mo2
_chemical_formula_sum   'Ta8 Ga3 Si3 Mo2'
_cell_volume   259.34937059
_cell_formula_units_Z   1
loop_
 _symmetry_equiv_pos_site_id
 _symmetry_equiv_pos_as_xyz
  1  'x, y, z'
loop_
 _atom_site_type_symbol
 _atom_site_label
 _atom_site_symmetry_multiplicity
 _atom_site_fract_x
 _atom_site_fract_y
 _atom_site_fract_z
 _atom_site_occupancy
  Ta  Ta0  1  0.514520  0.697088  0.687544  1
  Ta  Ta1  1  0.187544  0.697088  0.014520  1
  Ta  Ta2  1  0.686431  0.700529  0.186431  1
  Ta  Ta3  1  0.007034  0.693930  0.507034  1
  Ta  Ta4  1  0.490458  0.302912  0.317433  1
  Ta  Ta5  1  0.817433  0.302912  0.990458  1
  Ta  Ta6  1  0.313105  0.306070  0.813105  1
  Ta  Ta7  1  0.985903  0.299471  0.485903  1
  Ga  Ga8  1  0.752240  0.500000  0.752240  1
  Ga  Ga9  1  0.252240  0.500000  0.252240  1
  Ga  Ga10  1  0.363584  0.000000  0.863584  1
  Si  Si11  1  0.867138  0.000000  0.634107  1
  Si  Si12  1  0.134107  0.000000  0.367138  1
  Si  Si13  1  0.631444  0.000000  0.131444  1
  Mo  Mo14  1  0.994624  0.000000  0.002192  1
  Mo  Mo15  1  0.502192  0.000000  0.494624  1
