# generated using pymatgen
data_LiTm2Sc2B12Ir
_symmetry_space_group_name_H-M   'P 1'
_cell_length_a   3.53554700
_cell_length_b   8.97021506
_cell_length_c   11.27646008
_cell_angle_alpha   90.01380182
_cell_angle_beta   90.00000000
_cell_angle_gamma   90.00000000
_symmetry_Int_Tables_number   1
_chemical_formula_structural   LiTm2Sc2B12Ir
_chemical_formula_sum   'Li2 Tm4 Sc4 B24 Ir2'
_cell_volume   357.62860181
_cell_formula_units_Z   2
loop_
 _symmetry_equiv_pos_site_id
 _symmetry_equiv_pos_as_xyz
  1  'x, y, z'
loop_
 _atom_site_type_symbol
 _atom_site_label
 _atom_site_symmetry_multiplicity
 _atom_site_fract_x
 _atom_site_fract_y
 _atom_site_fract_z
 _atom_site_occupancy
  Li  Li0  1  0.500000  0.140354  0.180955  1
  Li  Li1  1  0.500000  0.859646  0.819045  1
  Tm  Tm2  1  0.500000  0.317062  0.411131  1
  Tm  Tm3  1  0.500000  0.682938  0.588869  1
  Tm  Tm4  1  0.500000  0.174786  0.916192  1
  Tm  Tm5  1  0.500000  0.825214  0.083808  1
  Sc  Sc6  1  0.500000  0.440208  0.127254  1
  Sc  Sc7  1  0.500000  0.559792  0.872746  1
  Sc  Sc8  1  0.500000  0.052868  0.630184  1
  Sc  Sc9  1  0.500000  0.947132  0.369816  1
  B  B10  1  0.000000  0.099279  0.472372  1
  B  B11  1  0.000000  0.900721  0.527628  1
  B  B12  1  0.000000  0.399682  0.973549  1
  B  B13  1  0.000000  0.600318  0.026451  1
  B  B14  1  0.000000  0.130041  0.317423  1
  B  B15  1  0.000000  0.869959  0.682577  1
  B  B16  1  0.000000  0.370399  0.817647  1
  B  B17  1  0.000000  0.629601  0.182353  1
  B  B18  1  0.000000  0.052150  0.065386  1
  B  B19  1  0.000000  0.947850  0.934614  1
  B  B20  1  0.000000  0.445830  0.566194  1
  B  B21  1  0.000000  0.554170  0.433806  1
  B  B22  1  0.000000  0.479100  0.285324  1
  B  B23  1  0.000000  0.520900  0.714676  1
  B  B24  1  0.000000  0.017674  0.787117  1
  B  B25  1  0.000000  0.982326  0.212883  1
  B  B26  1  0.000000  0.252588  0.080672  1
  B  B27  1  0.000000  0.747412  0.919328  1
  B  B28  1  0.000000  0.244330  0.580706  1
  B  B29  1  0.000000  0.755670  0.419294  1
  B  B30  1  0.000000  0.294423  0.235546  1
  B  B31  1  0.000000  0.705577  0.764454  1
  B  B32  1  0.000000  0.203012  0.736633  1
  B  B33  1  0.000000  0.796988  0.263367  1
  Ir  Ir34  1  0.500000  0.360177  0.678326  1
  Ir  Ir35  1  0.500000  0.639823  0.321674  1
