# generated using pymatgen
data_K3SrReN4
_symmetry_space_group_name_H-M   'P 1'
_cell_length_a   6.37347325
_cell_length_b   6.66402318
_cell_length_c   10.03161588
_cell_angle_alpha   69.29266293
_cell_angle_beta   80.34343361
_cell_angle_gamma   68.72095767
_symmetry_Int_Tables_number   1
_chemical_formula_structural   K3SrReN4
_chemical_formula_sum   'K6 Sr2 Re2 N8'
_cell_volume   370.99638774
_cell_formula_units_Z   2
loop_
 _symmetry_equiv_pos_site_id
 _symmetry_equiv_pos_as_xyz
  1  'x, y, z'
loop_
 _atom_site_type_symbol
 _atom_site_label
 _atom_site_symmetry_multiplicity
 _atom_site_fract_x
 _atom_site_fract_y
 _atom_site_fract_z
 _atom_site_occupancy
  K  K0  1  0.722113  0.640564  0.162446  1
  K  K1  1  0.281366  0.354531  0.837645  1
  K  K2  1  0.758203  0.246177  0.987529  1
  K  K3  1  0.237170  0.759983  0.013674  1
  K  K4  1  0.748930  0.447041  0.587461  1
  K  K5  1  0.258021  0.540817  0.420664  1
  Sr  Sr6  1  0.242435  0.937700  0.609308  1
  Sr  Sr7  1  0.759923  0.057095  0.388621  1
  Re  Re8  1  0.721009  0.850387  0.737474  1
  Re  Re9  1  0.277655  0.152495  0.261178  1
  N  N10  1  0.955503  0.736838  0.618229  1
  N  N11  1  0.044883  0.259118  0.383665  1
  N  N12  1  0.831939  0.889620  0.880582  1
  N  N13  1  0.162828  0.124940  0.114932  1
  N  N14  1  0.544416  0.664745  0.796633  1
  N  N15  1  0.453391  0.338732  0.205513  1
  N  N16  1  0.461748  0.875084  0.374235  1
  N  N17  1  0.538468  0.124133  0.620212  1
