# generated using pymatgen
data_Tb16MgIn3Ru4
_symmetry_space_group_name_H-M   'P 1'
_cell_length_a   9.67981067
_cell_length_b   9.68100100
_cell_length_c   9.68100100
_cell_angle_alpha   59.99999657
_cell_angle_beta   59.99592869
_cell_angle_gamma   59.99593062
_symmetry_Int_Tables_number   1
_chemical_formula_structural   Tb16MgIn3Ru4
_chemical_formula_sum   'Tb16 Mg1 In3 Ru4'
_cell_volume   641.45421301
_cell_formula_units_Z   1
loop_
 _symmetry_equiv_pos_site_id
 _symmetry_equiv_pos_as_xyz
  1  'x, y, z'
loop_
 _atom_site_type_symbol
 _atom_site_label
 _atom_site_symmetry_multiplicity
 _atom_site_fract_x
 _atom_site_fract_y
 _atom_site_fract_z
 _atom_site_occupancy
  Tb  Tb0  1  0.597591  0.596575  0.596575  1
  Tb  Tb1  1  0.597591  0.596575  0.209259  1
  Tb  Tb2  1  0.597591  0.209259  0.596575  1
  Tb  Tb3  1  0.206131  0.597957  0.597957  1
  Tb  Tb4  1  0.057861  0.441868  0.441868  1
  Tb  Tb5  1  0.439795  0.060610  0.060610  1
  Tb  Tb6  1  0.439795  0.060610  0.438985  1
  Tb  Tb7  1  0.057861  0.441868  0.058403  1
  Tb  Tb8  1  0.439795  0.438985  0.060610  1
  Tb  Tb9  1  0.057861  0.058403  0.441868  1
  Tb  Tb10  1  0.189358  0.810404  0.810404  1
  Tb  Tb11  1  0.810458  0.189608  0.189608  1
  Tb  Tb12  1  0.810458  0.189608  0.810327  1
  Tb  Tb13  1  0.189358  0.810404  0.189834  1
  Tb  Tb14  1  0.810458  0.810327  0.189608  1
  Tb  Tb15  1  0.189358  0.189834  0.810404  1
  Mg  Mg16  1  0.520346  0.826551  0.826551  1
  In  In17  1  0.830549  0.831891  0.831891  1
  In  In18  1  0.830549  0.831891  0.505667  1
  In  In19  1  0.830549  0.505667  0.831891  1
  Ru  Ru20  1  0.388126  0.389881  0.389881  1
  Ru  Ru21  1  0.388126  0.389881  0.832110  1
  Ru  Ru22  1  0.388126  0.832110  0.389881  1
  Ru  Ru23  1  0.832304  0.389232  0.389232  1
