# generated using pymatgen
data_Ba8Co3NiO12
_symmetry_space_group_name_H-M   'P 1'
_cell_length_a   6.50795851
_cell_length_b   6.51746287
_cell_length_c   12.69782600
_cell_angle_alpha   88.45589073
_cell_angle_beta   88.54216293
_cell_angle_gamma   125.68009960
_symmetry_Int_Tables_number   1
_chemical_formula_structural   Ba8Co3NiO12
_chemical_formula_sum   'Ba8 Co3 Ni1 O12'
_cell_volume   436.76256501
_cell_formula_units_Z   1
loop_
 _symmetry_equiv_pos_site_id
 _symmetry_equiv_pos_as_xyz
  1  'x, y, z'
loop_
 _atom_site_type_symbol
 _atom_site_label
 _atom_site_symmetry_multiplicity
 _atom_site_fract_x
 _atom_site_fract_y
 _atom_site_fract_z
 _atom_site_occupancy
  Ba  Ba0  1  0.443119  0.033864  0.151365  1
  Ba  Ba1  1  0.030002  0.441161  0.651244  1
  Ba  Ba2  1  0.557137  0.968801  0.847801  1
  Ba  Ba3  1  0.970223  0.558714  0.347859  1
  Ba  Ba4  1  0.862988  0.656496  0.925150  1
  Ba  Ba5  1  0.342486  0.135379  0.574465  1
  Ba  Ba6  1  0.148201  0.356130  0.073791  1
  Ba  Ba7  1  0.657882  0.864830  0.426029  1
  Co  Co8  1  0.727291  0.732349  0.664848  1
  Co  Co9  1  0.275361  0.268021  0.336120  1
  Co  Co10  1  0.265634  0.271450  0.834998  1
  Ni  Ni11  1  0.735104  0.732569  0.165048  1
  O  O12  1  0.324130  0.130272  0.963944  1
  O  O13  1  0.869337  0.673567  0.536312  1
  O  O14  1  0.654431  0.850517  0.035501  1
  O  O15  1  0.132518  0.327695  0.464010  1
  O  O16  1  0.991039  0.006471  0.750157  1
  O  O17  1  0.012751  0.994151  0.250639  1
  O  O18  1  0.592730  0.405752  0.750087  1
  O  O19  1  0.490828  0.147820  0.368237  1
  O  O20  1  0.145043  0.486470  0.867181  1
  O  O21  1  0.511186  0.852126  0.632738  1
  O  O22  1  0.851211  0.512131  0.132230  1
  O  O23  1  0.409367  0.593266  0.250248  1
