# generated using pymatgen
data_K7Yb(USe5)2
_symmetry_space_group_name_H-M   'P 1'
_cell_length_a   8.02253868
_cell_length_b   12.01929969
_cell_length_c   7.60143873
_cell_angle_alpha   102.18052212
_cell_angle_beta   99.51299832
_cell_angle_gamma   110.38744513
_symmetry_Int_Tables_number   1
_chemical_formula_structural   K7Yb(USe5)2
_chemical_formula_sum   'K7 Yb1 U2 Se10'
_cell_volume   648.38416605
_cell_formula_units_Z   1
loop_
 _symmetry_equiv_pos_site_id
 _symmetry_equiv_pos_as_xyz
  1  'x, y, z'
loop_
 _atom_site_type_symbol
 _atom_site_label
 _atom_site_symmetry_multiplicity
 _atom_site_fract_x
 _atom_site_fract_y
 _atom_site_fract_z
 _atom_site_occupancy
  K  K0  1  0.000443  0.500201  0.000102  1
  K  K1  1  0.417718  0.906406  0.205914  1
  K  K2  1  0.596924  0.595676  0.295165  1
  K  K3  1  0.790434  0.299314  0.420135  1
  K  K4  1  0.209618  0.700826  0.580002  1
  K  K5  1  0.403121  0.404370  0.704857  1
  K  K6  1  0.582358  0.093713  0.794096  1
  Yb  Yb7  1  0.999985  0.999981  0.499965  1
  U  U8  1  0.188780  0.194431  0.099199  1
  U  U9  1  0.810886  0.805223  0.900632  1
  Se  Se10  1  0.524112  0.313618  0.060222  1
  Se  Se11  1  0.843866  0.037549  0.137992  1
  Se  Se12  1  0.985580  0.775471  0.219074  1
  Se  Se13  1  0.178841  0.401623  0.307314  1
  Se  Se14  1  0.343599  0.144540  0.407461  1
  Se  Se15  1  0.656139  0.855520  0.592187  1
  Se  Se16  1  0.821057  0.598142  0.692484  1
  Se  Se17  1  0.014687  0.224483  0.781313  1
  Se  Se18  1  0.156349  0.962610  0.862040  1
  Se  Se19  1  0.475509  0.686302  0.939845  1
