# generated using pymatgen
data_MnBi3Ru3PtO14
_symmetry_space_group_name_H-M   'P 1'
_cell_length_a   7.23448254
_cell_length_b   7.23448344
_cell_length_c   7.23448428
_cell_angle_alpha   61.22142168
_cell_angle_beta   61.22142692
_cell_angle_gamma   61.22142438
_symmetry_Int_Tables_number   1
_chemical_formula_structural   MnBi3Ru3PtO14
_chemical_formula_sum   'Mn1 Bi3 Ru3 Pt1 O14'
_cell_volume   275.09146320
_cell_formula_units_Z   1
loop_
 _symmetry_equiv_pos_site_id
 _symmetry_equiv_pos_as_xyz
  1  'x, y, z'
loop_
 _atom_site_type_symbol
 _atom_site_label
 _atom_site_symmetry_multiplicity
 _atom_site_fract_x
 _atom_site_fract_y
 _atom_site_fract_z
 _atom_site_occupancy
  Mn  Mn0  1  0.125000  0.125000  0.125000  1
  Bi  Bi1  1  0.125000  0.125000  0.625000  1
  Bi  Bi2  1  0.125000  0.625000  0.125000  1
  Bi  Bi3  1  0.625000  0.125000  0.125000  1
  Ru  Ru4  1  0.625000  0.625000  0.125000  1
  Ru  Ru5  1  0.625000  0.125000  0.625000  1
  Ru  Ru6  1  0.125000  0.625000  0.625000  1
  Pt  Pt7  1  0.625000  0.625000  0.625000  1
  O  O8  1  0.239048  0.239048  0.239048  1
  O  O9  1  0.010952  0.010952  0.010952  1
  O  O10  1  0.539689  0.960237  0.539689  1
  O  O11  1  0.302880  0.695206  0.302880  1
  O  O12  1  0.539689  0.539689  0.960237  1
  O  O13  1  0.960237  0.539689  0.539689  1
  O  O14  1  0.554794  0.947120  0.947120  1
  O  O15  1  0.947120  0.947120  0.554794  1
  O  O16  1  0.947120  0.554794  0.947120  1
  O  O17  1  0.695206  0.302880  0.302880  1
  O  O18  1  0.289763  0.710311  0.710311  1
  O  O19  1  0.710311  0.289763  0.710311  1
  O  O20  1  0.302880  0.302880  0.695206  1
  O  O21  1  0.710311  0.710311  0.289763  1
