# generated using pymatgen
data_Ce4MnAl2Ir
_symmetry_space_group_name_H-M   'P 1'
_cell_length_a   7.78299000
_cell_length_b   7.78298945
_cell_length_c   9.69633200
_cell_angle_alpha   90.00000000
_cell_angle_beta   90.00000000
_cell_angle_gamma   119.99999384
_symmetry_Int_Tables_number   1
_chemical_formula_structural   Ce4MnAl2Ir
_chemical_formula_sum   'Ce12 Mn3 Al6 Ir3'
_cell_volume   508.66405619
_cell_formula_units_Z   3
loop_
 _symmetry_equiv_pos_site_id
 _symmetry_equiv_pos_as_xyz
  1  'x, y, z'
loop_
 _atom_site_type_symbol
 _atom_site_label
 _atom_site_symmetry_multiplicity
 _atom_site_fract_x
 _atom_site_fract_y
 _atom_site_fract_z
 _atom_site_occupancy
  Ce  Ce0  1  0.000000  0.559742  0.489595  1
  Ce  Ce1  1  0.559742  0.000000  0.489595  1
  Ce  Ce2  1  0.440258  0.440258  0.489595  1
  Ce  Ce3  1  0.000000  0.399012  0.012311  1
  Ce  Ce4  1  0.399012  0.000000  0.012311  1
  Ce  Ce5  1  0.600988  0.600988  0.012311  1
  Ce  Ce6  1  0.000000  0.745585  0.180736  1
  Ce  Ce7  1  0.745585  0.000000  0.180736  1
  Ce  Ce8  1  0.254415  0.254415  0.180736  1
  Ce  Ce9  1  0.000000  0.267918  0.669445  1
  Ce  Ce10  1  0.267918  0.000000  0.669445  1
  Ce  Ce11  1  0.732082  0.732082  0.669445  1
  Mn  Mn12  1  0.000000  0.352107  0.341121  1
  Mn  Mn13  1  0.352107  0.000000  0.341121  1
  Mn  Mn14  1  0.647893  0.647893  0.341121  1
  Al  Al15  1  0.666667  0.333333  0.264460  1
  Al  Al16  1  0.333333  0.666667  0.264460  1
  Al  Al17  1  0.333333  0.666667  0.779055  1
  Al  Al18  1  0.666667  0.333333  0.779055  1
  Al  Al19  1  0.000000  0.000000  0.424859  1
  Al  Al20  1  0.000000  0.000000  0.918263  1
  Ir  Ir21  1  0.000000  0.665680  0.839824  1
  Ir  Ir22  1  0.665680  0.000000  0.839824  1
  Ir  Ir23  1  0.334320  0.334320  0.839824  1
