# generated using pymatgen
data_LiAcThAgAs4
_symmetry_space_group_name_H-M   'P 1'
_cell_length_a   4.14044365
_cell_length_b   4.14044337
_cell_length_c   21.28188881
_cell_angle_alpha   90.23736328
_cell_angle_beta   90.23736231
_cell_angle_gamma   89.65463122
_symmetry_Int_Tables_number   1
_chemical_formula_structural   LiAcThAgAs4
_chemical_formula_sum   'Li2 Ac2 Th2 Ag2 As8'
_cell_volume   364.82836646
_cell_formula_units_Z   2
loop_
 _symmetry_equiv_pos_site_id
 _symmetry_equiv_pos_as_xyz
  1  'x, y, z'
loop_
 _atom_site_type_symbol
 _atom_site_label
 _atom_site_symmetry_multiplicity
 _atom_site_fract_x
 _atom_site_fract_y
 _atom_site_fract_z
 _atom_site_occupancy
  Li  Li0  1  0.242648  0.742864  0.757855  1
  Li  Li1  1  0.257136  0.757352  0.242145  1
  Ac  Ac2  1  0.259492  0.259764  0.380512  1
  Ac  Ac3  1  0.740236  0.740508  0.619488  1
  Th  Th4  1  0.753064  0.752840  0.106420  1
  Th  Th5  1  0.247160  0.246936  0.893580  1
  Ag  Ag6  1  0.757555  0.257477  0.238960  1
  Ag  Ag7  1  0.742523  0.242445  0.761040  1
  As  As8  1  0.745906  0.745505  0.846527  1
  As  As9  1  0.254495  0.254094  0.153473  1
  As  As10  1  0.240258  0.240509  0.681029  1
  As  As11  1  0.759491  0.759742  0.318971  1
  As  As12  1  0.250553  0.749447  0.000000  1
  As  As13  1  0.227194  0.772806  0.500000  1
  As  As14  1  0.749953  0.250047  0.000000  1
  As  As15  1  0.772336  0.227664  0.500000  1
