# generated using pymatgen
data_Ca3DyCo16(Si3Ni)4
_symmetry_space_group_name_H-M   'P 1'
_cell_length_a   3.73687700
_cell_length_b   6.74200197
_cell_length_c   18.44636023
_cell_angle_alpha   90.06944134
_cell_angle_beta   90.00000000
_cell_angle_gamma   90.00000000
_symmetry_Int_Tables_number   1
_chemical_formula_structural   Ca3DyCo16(Si3Ni)4
_chemical_formula_sum   'Ca3 Dy1 Co16 Si12 Ni4'
_cell_volume   464.73785063
_cell_formula_units_Z   1
loop_
 _symmetry_equiv_pos_site_id
 _symmetry_equiv_pos_as_xyz
  1  'x, y, z'
loop_
 _atom_site_type_symbol
 _atom_site_label
 _atom_site_symmetry_multiplicity
 _atom_site_fract_x
 _atom_site_fract_y
 _atom_site_fract_z
 _atom_site_occupancy
  Ca  Ca0  1  0.250000  0.873977  0.358657  1
  Ca  Ca1  1  0.750000  0.125872  0.641803  1
  Ca  Ca2  1  0.750000  0.374253  0.141032  1
  Dy  Dy3  1  0.250000  0.625856  0.857860  1
  Co  Co4  1  0.250000  0.060734  0.205759  1
  Co  Co5  1  0.750000  0.938490  0.794839  1
  Co  Co6  1  0.750000  0.560801  0.293943  1
  Co  Co7  1  0.250000  0.439303  0.706235  1
  Co  Co8  1  0.250000  0.623568  0.487971  1
  Co  Co9  1  0.750000  0.375958  0.512396  1
  Co  Co10  1  0.750000  0.122782  0.011663  1
  Co  Co11  1  0.250000  0.874209  0.986863  1
  Co  Co12  1  0.250000  0.682197  0.203074  1
  Co  Co13  1  0.750000  0.319008  0.798046  1
  Co  Co14  1  0.750000  0.181872  0.297049  1
  Co  Co15  1  0.250000  0.817138  0.702880  1
  Co  Co16  1  0.250000  0.360656  0.386616  1
  Co  Co17  1  0.750000  0.639197  0.613887  1
  Co  Co18  1  0.750000  0.859790  0.113258  1
  Co  Co19  1  0.250000  0.142111  0.886552  1
  Si  Si20  1  0.250000  0.079143  0.082333  1
  Si  Si21  1  0.750000  0.919456  0.916915  1
  Si  Si22  1  0.750000  0.579002  0.417480  1
  Si  Si23  1  0.250000  0.420256  0.582934  1
  Si  Si24  1  0.250000  0.659541  0.077385  1
  Si  Si25  1  0.750000  0.343024  0.923028  1
  Si  Si26  1  0.750000  0.158537  0.422892  1
  Si  Si27  1  0.250000  0.841975  0.577336  1
  Si  Si28  1  0.250000  0.371427  0.264393  1
  Si  Si29  1  0.750000  0.628219  0.736400  1
  Si  Si30  1  0.750000  0.871842  0.235435  1
  Si  Si31  1  0.250000  0.127759  0.763886  1
  Ni  Ni32  1  0.250000  0.374409  0.005470  1
  Ni  Ni33  1  0.750000  0.627777  0.993853  1
  Ni  Ni34  1  0.750000  0.873447  0.494548  1
  Ni  Ni35  1  0.250000  0.126413  0.505326  1
