# generated using pymatgen
data_SrH4Pd
_symmetry_space_group_name_H-M   'P 1'
_cell_length_a   6.73660339
_cell_length_b   6.73660409
_cell_length_c   5.38661900
_cell_angle_alpha   90.00000000
_cell_angle_beta   90.00000000
_cell_angle_gamma   147.07056705
_symmetry_Int_Tables_number   1
_chemical_formula_structural   SrH4Pd
_chemical_formula_sum   'Sr2 H8 Pd2'
_cell_volume   132.88692704
_cell_formula_units_Z   2
loop_
 _symmetry_equiv_pos_site_id
 _symmetry_equiv_pos_as_xyz
  1  'x, y, z'
loop_
 _atom_site_type_symbol
 _atom_site_label
 _atom_site_symmetry_multiplicity
 _atom_site_fract_x
 _atom_site_fract_y
 _atom_site_fract_z
 _atom_site_occupancy
  Sr  Sr0  1  0.138039  0.861961  0.288971  1
  Sr  Sr1  1  0.861961  0.138039  0.788971  1
  H  H2  1  0.315329  0.684671  0.054765  1
  H  H3  1  0.684671  0.315329  0.554765  1
  H  H4  1  0.311987  0.688013  0.521876  1
  H  H5  1  0.688013  0.311987  0.021876  1
  H  H6  1  0.082059  0.917941  0.793818  1
  H  H7  1  0.917941  0.082059  0.293818  1
  H  H8  1  0.502632  0.497368  0.047149  1
  H  H9  1  0.497368  0.502632  0.547149  1
  Pd  Pd10  1  0.407566  0.592434  0.292421  1
  Pd  Pd11  1  0.592434  0.407566  0.792421  1
