# generated using pymatgen
data_CeMg2Sc(NiP)4
_symmetry_space_group_name_H-M   'P 1'
_cell_length_a   3.80151500
_cell_length_b   3.80151426
_cell_length_c   14.74342100
_cell_angle_alpha   90.00000000
_cell_angle_beta   90.00000000
_cell_angle_gamma   119.99999772
_symmetry_Int_Tables_number   1
_chemical_formula_structural   CeMg2Sc(NiP)4
_chemical_formula_sum   'Ce1 Mg2 Sc1 Ni4 P4'
_cell_volume   184.51948823
_cell_formula_units_Z   1
loop_
 _symmetry_equiv_pos_site_id
 _symmetry_equiv_pos_as_xyz
  1  'x, y, z'
loop_
 _atom_site_type_symbol
 _atom_site_label
 _atom_site_symmetry_multiplicity
 _atom_site_fract_x
 _atom_site_fract_y
 _atom_site_fract_z
 _atom_site_occupancy
  Ce  Ce0  1  0.000000  0.000000  0.000000  1
  Mg  Mg1  1  0.000000  0.000000  0.257603  1
  Mg  Mg2  1  0.000000  0.000000  0.742397  1
  Sc  Sc3  1  0.000000  0.000000  0.500000  1
  Ni  Ni4  1  0.333333  0.666667  0.367518  1
  Ni  Ni5  1  0.666667  0.333333  0.632482  1
  Ni  Ni6  1  0.666667  0.333333  0.849886  1
  Ni  Ni7  1  0.333333  0.666667  0.150114  1
  P  P8  1  0.333333  0.666667  0.870756  1
  P  P9  1  0.666667  0.333333  0.129244  1
  P  P10  1  0.666667  0.333333  0.384966  1
  P  P11  1  0.333333  0.666667  0.615034  1
