# generated using pymatgen
data_ThCoSnH
_symmetry_space_group_name_H-M   'P 1'
_cell_length_a   4.42446900
_cell_length_b   7.19729700
_cell_length_c   8.40574500
_cell_angle_alpha   90.00000000
_cell_angle_beta   90.00000000
_cell_angle_gamma   90.00000000
_symmetry_Int_Tables_number   1
_chemical_formula_structural   ThCoSnH
_chemical_formula_sum   'Th4 Co4 Sn4 H4'
_cell_volume   267.67437170
_cell_formula_units_Z   4
loop_
 _symmetry_equiv_pos_site_id
 _symmetry_equiv_pos_as_xyz
  1  'x, y, z'
loop_
 _atom_site_type_symbol
 _atom_site_label
 _atom_site_symmetry_multiplicity
 _atom_site_fract_x
 _atom_site_fract_y
 _atom_site_fract_z
 _atom_site_occupancy
  Th  Th0  1  0.750000  0.015676  0.693220  1
  Th  Th1  1  0.250000  0.984324  0.306780  1
  Th  Th2  1  0.250000  0.484324  0.193220  1
  Th  Th3  1  0.750000  0.515676  0.806780  1
  Co  Co4  1  0.750000  0.773685  0.100925  1
  Co  Co5  1  0.250000  0.226315  0.899075  1
  Co  Co6  1  0.250000  0.726315  0.600925  1
  Co  Co7  1  0.750000  0.273685  0.399075  1
  Sn  Sn8  1  0.750000  0.662710  0.430113  1
  Sn  Sn9  1  0.250000  0.337290  0.569887  1
  Sn  Sn10  1  0.250000  0.837290  0.930113  1
  Sn  Sn11  1  0.750000  0.162710  0.069887  1
  H  H12  1  0.250000  0.448157  0.916837  1
  H  H13  1  0.750000  0.551843  0.083163  1
  H  H14  1  0.750000  0.051843  0.416837  1
  H  H15  1  0.250000  0.948157  0.583163  1
