# generated using pymatgen
data_DyPa3O8
_symmetry_space_group_name_H-M   'P 1'
_cell_length_a   5.43448323
_cell_length_b   5.43448323
_cell_length_c   5.43448323
_cell_angle_alpha   90.02333983
_cell_angle_beta   90.02333983
_cell_angle_gamma   90.02333983
_symmetry_Int_Tables_number   1
_chemical_formula_structural   DyPa3O8
_chemical_formula_sum   'Dy1 Pa3 O8'
_cell_volume   160.49985691
_cell_formula_units_Z   1
loop_
 _symmetry_equiv_pos_site_id
 _symmetry_equiv_pos_as_xyz
  1  'x, y, z'
loop_
 _atom_site_type_symbol
 _atom_site_label
 _atom_site_symmetry_multiplicity
 _atom_site_fract_x
 _atom_site_fract_y
 _atom_site_fract_z
 _atom_site_occupancy
  Dy  Dy0  1  0.000000  0.000000  0.000000  1
  Pa  Pa1  1  0.499999  0.000000  0.499999  1
  Pa  Pa2  1  0.499999  0.499999  0.000000  1
  Pa  Pa3  1  0.000000  0.499999  0.499999  1
  O  O4  1  0.253600  0.253600  0.253600  1
  O  O5  1  0.251081  0.746011  0.749097  1
  O  O6  1  0.749097  0.251081  0.746011  1
  O  O7  1  0.746011  0.749097  0.251081  1
  O  O8  1  0.746397  0.746397  0.746397  1
  O  O9  1  0.748921  0.253986  0.250905  1
  O  O10  1  0.250905  0.748921  0.253986  1
  O  O11  1  0.253986  0.250905  0.748921  1
