# generated using pymatgen
data_Li2NdErSi3
_symmetry_space_group_name_H-M   'P 1'
_cell_length_a   9.30780420
_cell_length_b   9.30780456
_cell_length_c   6.78515600
_cell_angle_alpha   90.00000000
_cell_angle_beta   90.00000000
_cell_angle_gamma   153.19849723
_symmetry_Int_Tables_number   1
_chemical_formula_structural   Li2NdErSi3
_chemical_formula_sum   'Li4 Nd2 Er2 Si6'
_cell_volume   265.05468415
_cell_formula_units_Z   2
loop_
 _symmetry_equiv_pos_site_id
 _symmetry_equiv_pos_as_xyz
  1  'x, y, z'
loop_
 _atom_site_type_symbol
 _atom_site_label
 _atom_site_symmetry_multiplicity
 _atom_site_fract_x
 _atom_site_fract_y
 _atom_site_fract_z
 _atom_site_occupancy
  Li  Li0  1  0.190280  0.809720  0.059696  1
  Li  Li1  1  0.190280  0.809720  0.440304  1
  Li  Li2  1  0.809720  0.190280  0.940304  1
  Li  Li3  1  0.809720  0.190280  0.559696  1
  Nd  Nd4  1  0.553687  0.446313  0.250000  1
  Nd  Nd5  1  0.446313  0.553687  0.750000  1
  Er  Er6  1  0.344036  0.655964  0.250000  1
  Er  Er7  1  0.655964  0.344036  0.750000  1
  Si  Si8  1  0.723482  0.276518  0.250000  1
  Si  Si9  1  0.276518  0.723482  0.750000  1
  Si  Si10  1  0.059811  0.940189  0.925204  1
  Si  Si11  1  0.940189  0.059811  0.074796  1
  Si  Si12  1  0.940189  0.059811  0.425204  1
  Si  Si13  1  0.059811  0.940189  0.574796  1
