# generated using pymatgen
data_LaSmB2Pd3Pt4Au
_symmetry_space_group_name_H-M   'P 1'
_cell_length_a   5.53569600
_cell_length_b   5.53569655
_cell_length_c   7.74088500
_cell_angle_alpha   90.00000000
_cell_angle_beta   90.00000000
_cell_angle_gamma   119.99999671
_symmetry_Int_Tables_number   1
_chemical_formula_structural   LaSmB2Pd3Pt4Au
_chemical_formula_sum   'La1 Sm1 B2 Pd3 Pt4 Au1'
_cell_volume   205.43090028
_cell_formula_units_Z   1
loop_
 _symmetry_equiv_pos_site_id
 _symmetry_equiv_pos_as_xyz
  1  'x, y, z'
loop_
 _atom_site_type_symbol
 _atom_site_label
 _atom_site_symmetry_multiplicity
 _atom_site_fract_x
 _atom_site_fract_y
 _atom_site_fract_z
 _atom_site_occupancy
  La  La0  1  0.000102  0.000203  0.500000  1
  Sm  Sm1  1  0.999958  0.999917  0.000000  1
  B  B2  1  0.329341  0.658684  0.000000  1
  B  B3  1  0.670183  0.340365  0.000000  1
  Pd  Pd4  1  0.666907  0.333812  0.500000  1
  Pd  Pd5  1  0.500173  0.000345  0.193821  1
  Pd  Pd6  1  0.500173  0.000345  0.806179  1
  Pt  Pt7  1  0.999065  0.499586  0.194631  1
  Pt  Pt8  1  0.999065  0.499586  0.805369  1
  Pt  Pt9  1  0.500522  0.499586  0.194631  1
  Pt  Pt10  1  0.500522  0.499586  0.805369  1
  Au  Au11  1  0.333990  0.667981  0.500000  1
