# generated using pymatgen
data_PrSm11(GaRh)8
_symmetry_space_group_name_H-M   'P 1'
_cell_length_a   5.62679458
_cell_length_b   8.14001334
_cell_length_c   13.62308900
_cell_angle_alpha   90.00000000
_cell_angle_beta   90.00000000
_cell_angle_gamma   89.94351013
_symmetry_Int_Tables_number   1
_chemical_formula_structural   PrSm11(GaRh)8
_chemical_formula_sum   'Pr1 Sm11 Ga8 Rh8'
_cell_volume   623.96691148
_cell_formula_units_Z   1
loop_
 _symmetry_equiv_pos_site_id
 _symmetry_equiv_pos_as_xyz
  1  'x, y, z'
loop_
 _atom_site_type_symbol
 _atom_site_label
 _atom_site_symmetry_multiplicity
 _atom_site_fract_x
 _atom_site_fract_y
 _atom_site_fract_z
 _atom_site_occupancy
  Pr  Pr0  1  0.634545  0.262351  0.250000  1
  Sm  Sm1  1  0.366905  0.735848  0.750000  1
  Sm  Sm2  1  0.367923  0.762943  0.250000  1
  Sm  Sm3  1  0.632066  0.235950  0.750000  1
  Sm  Sm4  1  0.149260  0.401914  0.097684  1
  Sm  Sm5  1  0.851563  0.599340  0.901331  1
  Sm  Sm6  1  0.851563  0.599340  0.598669  1
  Sm  Sm7  1  0.851375  0.899725  0.402940  1
  Sm  Sm8  1  0.149260  0.401914  0.402316  1
  Sm  Sm9  1  0.147633  0.099136  0.598190  1
  Sm  Sm10  1  0.147633  0.099136  0.901810  1
  Sm  Sm11  1  0.851375  0.899725  0.097060  1
  Ga  Ga12  1  0.134153  0.111260  0.250000  1
  Ga  Ga13  1  0.866467  0.886336  0.750000  1
  Ga  Ga14  1  0.867280  0.614968  0.250000  1
  Ga  Ga15  1  0.132636  0.385583  0.750000  1
  Ga  Ga16  1  0.632964  0.250508  0.999231  1
  Ga  Ga17  1  0.366688  0.750292  0.999484  1
  Ga  Ga18  1  0.366688  0.750292  0.500516  1
  Ga  Ga19  1  0.632964  0.250508  0.500769  1
  Rh  Rh20  1  0.354930  0.031785  0.090743  1
  Rh  Rh21  1  0.644149  0.967615  0.907962  1
  Rh  Rh22  1  0.644149  0.967615  0.592038  1
  Rh  Rh23  1  0.645749  0.533936  0.409196  1
  Rh  Rh24  1  0.354930  0.031785  0.409257  1
  Rh  Rh25  1  0.354703  0.468127  0.592019  1
  Rh  Rh26  1  0.354703  0.468127  0.907981  1
  Rh  Rh27  1  0.645749  0.533936  0.090804  1
