# generated using pymatgen
data_Zr12BeSe3
_symmetry_space_group_name_H-M   'P 1'
_cell_length_a   10.96990543
_cell_length_b   11.01274419
_cell_length_c   5.45758600
_cell_angle_alpha   90.00000000
_cell_angle_beta   90.00000000
_cell_angle_gamma   89.85434779
_symmetry_Int_Tables_number   1
_chemical_formula_structural   Zr12BeSe3
_chemical_formula_sum   'Zr24 Be2 Se6'
_cell_volume   659.32207893
_cell_formula_units_Z   2
loop_
 _symmetry_equiv_pos_site_id
 _symmetry_equiv_pos_as_xyz
  1  'x, y, z'
loop_
 _atom_site_type_symbol
 _atom_site_label
 _atom_site_symmetry_multiplicity
 _atom_site_fract_x
 _atom_site_fract_y
 _atom_site_fract_z
 _atom_site_occupancy
  Zr  Zr0  1  0.919037  0.609091  0.551399  1
  Zr  Zr1  1  0.080963  0.390909  0.551399  1
  Zr  Zr2  1  0.899030  0.410082  0.031542  1
  Zr  Zr3  1  0.100970  0.589918  0.031542  1
  Zr  Zr4  1  0.584426  0.896880  0.960435  1
  Zr  Zr5  1  0.415574  0.103120  0.960435  1
  Zr  Zr6  1  0.606344  0.083395  0.462239  1
  Zr  Zr7  1  0.393656  0.916605  0.462239  1
  Zr  Zr8  1  0.866077  0.975831  0.718436  1
  Zr  Zr9  1  0.133923  0.024169  0.718436  1
  Zr  Zr10  1  0.527508  0.361348  0.217086  1
  Zr  Zr11  1  0.472492  0.638652  0.217086  1
  Zr  Zr12  1  0.639353  0.524607  0.783343  1
  Zr  Zr13  1  0.360647  0.475393  0.783343  1
  Zr  Zr14  1  0.972344  0.143618  0.278542  1
  Zr  Zr15  1  0.027656  0.856382  0.278542  1
  Zr  Zr16  1  0.818632  0.716797  0.006406  1
  Zr  Zr17  1  0.181368  0.283203  0.006406  1
  Zr  Zr18  1  0.790247  0.318291  0.518984  1
  Zr  Zr19  1  0.209753  0.681709  0.518984  1
  Zr  Zr20  1  0.683887  0.786264  0.489539  1
  Zr  Zr21  1  0.316113  0.213736  0.489539  1
  Zr  Zr22  1  0.716849  0.180517  0.983498  1
  Zr  Zr23  1  0.283151  0.819483  0.983498  1
  Be  Be24  1  0.960204  0.201874  0.789560  1
  Be  Be25  1  0.039796  0.798126  0.789560  1
  Se  Se26  1  0.795758  0.960724  0.209713  1
  Se  Se27  1  0.204242  0.039276  0.209713  1
  Se  Se28  1  0.537082  0.291795  0.711922  1
  Se  Se29  1  0.462918  0.708205  0.711922  1
  Se  Se30  1  0.710560  0.538783  0.287355  1
  Se  Se31  1  0.289440  0.461217  0.287355  1
