# generated using pymatgen
data_Nd6V2Co15NiP12
_symmetry_space_group_name_H-M   'P 1'
_cell_length_a   3.76673800
_cell_length_b   10.69381100
_cell_length_c   12.40874500
_cell_angle_alpha   90.00000000
_cell_angle_beta   90.00000000
_cell_angle_gamma   90.00000000
_symmetry_Int_Tables_number   1
_chemical_formula_structural   Nd6V2Co15NiP12
_chemical_formula_sum   'Nd6 V2 Co15 Ni1 P12'
_cell_volume   499.83398026
_cell_formula_units_Z   1
loop_
 _symmetry_equiv_pos_site_id
 _symmetry_equiv_pos_as_xyz
  1  'x, y, z'
loop_
 _atom_site_type_symbol
 _atom_site_label
 _atom_site_symmetry_multiplicity
 _atom_site_fract_x
 _atom_site_fract_y
 _atom_site_fract_z
 _atom_site_occupancy
  Nd  Nd0  1  0.000000  0.500000  0.520333  1
  Nd  Nd1  1  0.500000  0.000000  0.477546  1
  Nd  Nd2  1  0.500000  0.818676  0.204766  1
  Nd  Nd3  1  0.500000  0.181324  0.204766  1
  Nd  Nd4  1  0.000000  0.683109  0.796353  1
  Nd  Nd5  1  0.000000  0.316891  0.796353  1
  V  V6  1  0.500000  0.500000  0.152319  1
  V  V7  1  0.000000  0.000000  0.847539  1
  Co  Co8  1  0.000000  0.000000  0.296786  1
  Co  Co9  1  0.000000  0.500000  0.988320  1
  Co  Co10  1  0.500000  0.000000  0.011643  1
  Co  Co11  1  0.500000  0.332749  0.994204  1
  Co  Co12  1  0.500000  0.667251  0.994204  1
  Co  Co13  1  0.000000  0.167360  0.005654  1
  Co  Co14  1  0.000000  0.832640  0.005654  1
  Co  Co15  1  0.500000  0.295827  0.431035  1
  Co  Co16  1  0.500000  0.704173  0.431035  1
  Co  Co17  1  0.000000  0.204424  0.569223  1
  Co  Co18  1  0.000000  0.795576  0.569223  1
  Co  Co19  1  0.500000  0.880689  0.709233  1
  Co  Co20  1  0.500000  0.119311  0.709233  1
  Co  Co21  1  0.000000  0.619170  0.290819  1
  Co  Co22  1  0.000000  0.380830  0.290819  1
  Ni  Ni23  1  0.500000  0.500000  0.703029  1
  P  P24  1  0.500000  0.500000  0.887748  1
  P  P25  1  0.000000  0.000000  0.113612  1
  P  P26  1  0.500000  0.500000  0.341016  1
  P  P27  1  0.000000  0.000000  0.658408  1
  P  P28  1  0.500000  0.305677  0.613558  1
  P  P29  1  0.500000  0.694323  0.613558  1
  P  P30  1  0.000000  0.193007  0.385449  1
  P  P31  1  0.000000  0.806993  0.385449  1
  P  P32  1  0.500000  0.848015  0.894887  1
  P  P33  1  0.500000  0.151985  0.894887  1
  P  P34  1  0.000000  0.652477  0.105671  1
  P  P35  1  0.000000  0.347523  0.105671  1
