# generated using pymatgen
data_La2Co3P7Ru9
_symmetry_space_group_name_H-M   'P 1'
_cell_length_a   9.41636500
_cell_length_b   9.41636486
_cell_length_c   3.86909100
_cell_angle_alpha   90.00000000
_cell_angle_beta   90.00000000
_cell_angle_gamma   119.99998997
_symmetry_Int_Tables_number   1
_chemical_formula_structural   La2Co3P7Ru9
_chemical_formula_sum   'La2 Co3 P7 Ru9'
_cell_volume   297.10241506
_cell_formula_units_Z   1
loop_
 _symmetry_equiv_pos_site_id
 _symmetry_equiv_pos_as_xyz
  1  'x, y, z'
loop_
 _atom_site_type_symbol
 _atom_site_label
 _atom_site_symmetry_multiplicity
 _atom_site_fract_x
 _atom_site_fract_y
 _atom_site_fract_z
 _atom_site_occupancy
  La  La0  1  0.333333  0.666667  0.000000  1
  La  La1  1  0.666667  0.333333  0.500000  1
  Co  Co2  1  0.156010  0.889734  0.000000  1
  Co  Co3  1  0.110266  0.266276  0.000000  1
  Co  Co4  1  0.733724  0.843990  0.000000  1
  P  P5  1  0.406951  0.103946  0.000000  1
  P  P6  1  0.896054  0.303006  0.000000  1
  P  P7  1  0.696994  0.593049  0.000000  1
  P  P8  1  0.109354  0.714431  0.500000  1
  P  P9  1  0.285569  0.394923  0.500000  1
  P  P10  1  0.605077  0.890646  0.500000  1
  P  P11  1  0.000000  0.000000  0.000000  1
  Ru  Ru12  1  0.422182  0.362343  0.000000  1
  Ru  Ru13  1  0.637657  0.059837  0.000000  1
  Ru  Ru14  1  0.940163  0.577818  0.000000  1
  Ru  Ru15  1  0.381391  0.948926  0.500000  1
  Ru  Ru16  1  0.051074  0.432464  0.500000  1
  Ru  Ru17  1  0.567536  0.618609  0.500000  1
  Ru  Ru18  1  0.203992  0.118576  0.500000  1
  Ru  Ru19  1  0.881424  0.085418  0.500000  1
  Ru  Ru20  1  0.914582  0.796008  0.500000  1
