# generated using pymatgen
data_Lu3Cd3Hg2Pt
_symmetry_space_group_name_H-M   'P 1'
_cell_length_a   7.95323600
_cell_length_b   7.95323427
_cell_length_c   3.75966100
_cell_angle_alpha   90.00000000
_cell_angle_beta   90.00000000
_cell_angle_gamma   119.99999887
_symmetry_Int_Tables_number   1
_chemical_formula_structural   Lu3Cd3Hg2Pt
_chemical_formula_sum   'Lu3 Cd3 Hg2 Pt1'
_cell_volume   205.95245298
_cell_formula_units_Z   1
loop_
 _symmetry_equiv_pos_site_id
 _symmetry_equiv_pos_as_xyz
  1  'x, y, z'
loop_
 _atom_site_type_symbol
 _atom_site_label
 _atom_site_symmetry_multiplicity
 _atom_site_fract_x
 _atom_site_fract_y
 _atom_site_fract_z
 _atom_site_occupancy
  Lu  Lu0  1  0.388466  0.422360  0.500000  1
  Lu  Lu1  1  0.577640  0.966107  0.500000  1
  Lu  Lu2  1  0.033893  0.611534  0.500000  1
  Cd  Cd3  1  0.726332  0.723044  0.000000  1
  Cd  Cd4  1  0.276956  0.003288  0.000000  1
  Cd  Cd5  1  0.996712  0.273668  0.000000  1
  Hg  Hg6  1  0.666667  0.333333  0.000000  1
  Hg  Hg7  1  0.000000  0.000000  0.500000  1
  Pt  Pt8  1  0.333333  0.666667  0.000000  1
