# generated using pymatgen
data_Ca8Cu(Si4Pd)3
_symmetry_space_group_name_H-M   'P 1'
_cell_length_a   8.23843400
_cell_length_b   8.23843475
_cell_length_c   8.49692400
_cell_angle_alpha   90.00000000
_cell_angle_beta   90.00000000
_cell_angle_gamma   119.99999698
_symmetry_Int_Tables_number   1
_chemical_formula_structural   Ca8Cu(Si4Pd)3
_chemical_formula_sum   'Ca8 Cu1 Si12 Pd3'
_cell_volume   499.43819455
_cell_formula_units_Z   1
loop_
 _symmetry_equiv_pos_site_id
 _symmetry_equiv_pos_as_xyz
  1  'x, y, z'
loop_
 _atom_site_type_symbol
 _atom_site_label
 _atom_site_symmetry_multiplicity
 _atom_site_fract_x
 _atom_site_fract_y
 _atom_site_fract_z
 _atom_site_occupancy
  Ca  Ca0  1  0.498519  0.501481  0.747362  1
  Ca  Ca1  1  0.500103  0.499897  0.252710  1
  Ca  Ca2  1  0.002962  0.501481  0.747362  1
  Ca  Ca3  1  0.999793  0.499897  0.252710  1
  Ca  Ca4  1  0.498519  0.997038  0.747362  1
  Ca  Ca5  1  0.500103  0.000207  0.252710  1
  Ca  Ca6  1  0.000000  0.000000  0.750330  1
  Ca  Ca7  1  0.000000  0.000000  0.249795  1
  Cu  Cu8  1  0.666667  0.333333  0.997198  1
  Si  Si9  1  0.833993  0.166007  0.999571  1
  Si  Si10  1  0.166214  0.833786  0.000411  1
  Si  Si11  1  0.332013  0.166007  0.999571  1
  Si  Si12  1  0.164983  0.835017  0.499580  1
  Si  Si13  1  0.667573  0.833786  0.000411  1
  Si  Si14  1  0.834740  0.165260  0.500551  1
  Si  Si15  1  0.833993  0.667987  0.999571  1
  Si  Si16  1  0.670033  0.835017  0.499580  1
  Si  Si17  1  0.166214  0.332427  0.000411  1
  Si  Si18  1  0.330521  0.165260  0.500551  1
  Si  Si19  1  0.164983  0.329967  0.499580  1
  Si  Si20  1  0.834740  0.669479  0.500551  1
  Pd  Pd21  1  0.333333  0.666667  0.001873  1
  Pd  Pd22  1  0.333333  0.666667  0.498224  1
  Pd  Pd23  1  0.666667  0.333333  0.502029  1
