# generated using pymatgen
data_TbEr15(In3Fe)2
_symmetry_space_group_name_H-M   'P 1'
_cell_length_a   10.25346900
_cell_length_b   10.25347144
_cell_length_c   7.04489100
_cell_angle_alpha   90.00000000
_cell_angle_beta   90.00000000
_cell_angle_gamma   120.00000827
_symmetry_Int_Tables_number   1
_chemical_formula_structural   TbEr15(In3Fe)2
_chemical_formula_sum   'Tb1 Er15 In6 Fe2'
_cell_volume   641.42609182
_cell_formula_units_Z   1
loop_
 _symmetry_equiv_pos_site_id
 _symmetry_equiv_pos_as_xyz
  1  'x, y, z'
loop_
 _atom_site_type_symbol
 _atom_site_label
 _atom_site_symmetry_multiplicity
 _atom_site_fract_x
 _atom_site_fract_y
 _atom_site_fract_z
 _atom_site_occupancy
  Tb  Tb0  1  0.000000  0.000000  0.274578  1
  Er  Er1  1  0.000000  0.000000  0.773866  1
  Er  Er2  1  0.178545  0.821455  0.992479  1
  Er  Er3  1  0.821215  0.178785  0.493651  1
  Er  Er4  1  0.178545  0.357090  0.992479  1
  Er  Er5  1  0.642910  0.821455  0.992479  1
  Er  Er6  1  0.357571  0.178785  0.493651  1
  Er  Er7  1  0.821215  0.642429  0.493651  1
  Er  Er8  1  0.333333  0.666667  0.679079  1
  Er  Er9  1  0.666667  0.333333  0.178151  1
  Er  Er10  1  0.463830  0.536170  0.288214  1
  Er  Er11  1  0.536222  0.463778  0.788143  1
  Er  Er12  1  0.463830  0.927662  0.288214  1
  Er  Er13  1  0.072338  0.536170  0.288214  1
  Er  Er14  1  0.927558  0.463778  0.788143  1
  Er  Er15  1  0.536222  0.072442  0.788143  1
  In  In16  1  0.163888  0.836112  0.538981  1
  In  In17  1  0.836064  0.163936  0.038039  1
  In  In18  1  0.163888  0.327775  0.538981  1
  In  In19  1  0.672225  0.836112  0.538981  1
  In  In20  1  0.327873  0.163936  0.038039  1
  In  In21  1  0.836064  0.672127  0.038039  1
  Fe  Fe22  1  0.333333  0.666667  0.061129  1
  Fe  Fe23  1  0.666667  0.333333  0.560798  1
