# generated using pymatgen
data_Tb2Dy6Sc12Si15Ge
_symmetry_space_group_name_H-M   'P 1'
_cell_length_a   7.10746564
_cell_length_b   7.39218466
_cell_length_c   14.01332548
_cell_angle_alpha   90.03160405
_cell_angle_beta   89.90794790
_cell_angle_gamma   90.04145831
_symmetry_Int_Tables_number   1
_chemical_formula_structural   Tb2Dy6Sc12Si15Ge
_chemical_formula_sum   'Tb2 Dy6 Sc12 Si15 Ge1'
_cell_volume   736.25464131
_cell_formula_units_Z   1
loop_
 _symmetry_equiv_pos_site_id
 _symmetry_equiv_pos_as_xyz
  1  'x, y, z'
loop_
 _atom_site_type_symbol
 _atom_site_label
 _atom_site_symmetry_multiplicity
 _atom_site_fract_x
 _atom_site_fract_y
 _atom_site_fract_z
 _atom_site_occupancy
  Tb  Tb0  1  0.012278  0.175125  0.096918  1
  Tb  Tb1  1  0.987855  0.824974  0.903076  1
  Dy  Dy2  1  0.488114  0.675307  0.902966  1
  Dy  Dy3  1  0.987265  0.825694  0.597166  1
  Dy  Dy4  1  0.512040  0.324813  0.097079  1
  Dy  Dy5  1  0.011185  0.174644  0.402426  1
  Dy  Dy6  1  0.512716  0.323765  0.402389  1
  Dy  Dy7  1  0.490283  0.676638  0.597300  1
  Sc  Sc8  1  0.160589  0.502143  0.751197  1
  Sc  Sc9  1  0.839180  0.497769  0.250127  1
  Sc  Sc10  1  0.339501  0.002041  0.250040  1
  Sc  Sc11  1  0.660688  0.997652  0.750049  1
  Sc  Sc12  1  0.332596  0.174307  0.626000  1
  Sc  Sc13  1  0.668407  0.824001  0.374519  1
  Sc  Sc14  1  0.168177  0.677327  0.374342  1
  Sc  Sc15  1  0.668829  0.823251  0.125215  1
  Sc  Sc16  1  0.829786  0.323537  0.625270  1
  Sc  Sc17  1  0.331052  0.176556  0.874681  1
  Sc  Sc18  1  0.830820  0.323562  0.874680  1
  Sc  Sc19  1  0.169179  0.676589  0.125243  1
  Si  Si20  1  0.033532  0.117916  0.749923  1
  Si  Si21  1  0.966384  0.882626  0.249835  1
  Si  Si22  1  0.466281  0.617450  0.249916  1
  Si  Si23  1  0.533132  0.382834  0.750038  1
  Si  Si24  1  0.285565  0.873568  0.749978  1
  Si  Si25  1  0.714402  0.125944  0.249955  1
  Si  Si26  1  0.214615  0.374090  0.250119  1
  Si  Si27  1  0.785659  0.625954  0.749857  1
  Si  Si28  1  0.837711  0.536411  0.459684  1
  Si  Si29  1  0.341909  0.964608  0.460494  1
  Si  Si30  1  0.842185  0.535255  0.039455  1
  Si  Si31  1  0.657923  0.035635  0.539457  1
  Si  Si32  1  0.157704  0.464736  0.960589  1
  Si  Si33  1  0.656957  0.035517  0.960563  1
  Si  Si34  1  0.342953  0.964500  0.039424  1
  Ge  Ge35  1  0.162551  0.463265  0.540032  1
