# generated using pymatgen
data_GdNpB6Os
_symmetry_space_group_name_H-M   'P 1'
_cell_length_a   3.59577700
_cell_length_b   9.33425700
_cell_length_c   11.41054000
_cell_angle_alpha   90.00000000
_cell_angle_beta   90.00000000
_cell_angle_gamma   90.00000000
_symmetry_Int_Tables_number   1
_chemical_formula_structural   GdNpB6Os
_chemical_formula_sum   'Gd4 Np4 B24 Os4'
_cell_volume   382.98229919
_cell_formula_units_Z   4
loop_
 _symmetry_equiv_pos_site_id
 _symmetry_equiv_pos_as_xyz
  1  'x, y, z'
loop_
 _atom_site_type_symbol
 _atom_site_label
 _atom_site_symmetry_multiplicity
 _atom_site_fract_x
 _atom_site_fract_y
 _atom_site_fract_z
 _atom_site_occupancy
  Gd  Gd0  1  0.000000  0.338058  0.406531  1
  Gd  Gd1  1  0.000000  0.661942  0.593469  1
  Gd  Gd2  1  0.000000  0.838058  0.093469  1
  Gd  Gd3  1  0.000000  0.161942  0.906531  1
  Np  Np4  1  0.000000  0.959069  0.401297  1
  Np  Np5  1  0.000000  0.040931  0.598703  1
  Np  Np6  1  0.000000  0.459069  0.098703  1
  Np  Np7  1  0.000000  0.540931  0.901297  1
  B  B8  1  0.500000  0.552980  0.430201  1
  B  B9  1  0.500000  0.447020  0.569799  1
  B  B10  1  0.500000  0.052980  0.069799  1
  B  B11  1  0.500000  0.947020  0.930201  1
  B  B12  1  0.500000  0.743943  0.423226  1
  B  B13  1  0.500000  0.256057  0.576774  1
  B  B14  1  0.500000  0.243943  0.076774  1
  B  B15  1  0.500000  0.756057  0.923226  1
  B  B16  1  0.500000  0.803863  0.275089  1
  B  B17  1  0.500000  0.196137  0.724910  1
  B  B18  1  0.500000  0.303863  0.224911  1
  B  B19  1  0.500000  0.696137  0.775090  1
  B  B20  1  0.500000  0.645103  0.188403  1
  B  B21  1  0.500000  0.354897  0.811597  1
  B  B22  1  0.500000  0.145103  0.311597  1
  B  B23  1  0.500000  0.854897  0.688403  1
  B  B24  1  0.500000  0.989412  0.220406  1
  B  B25  1  0.500000  0.010588  0.779594  1
  B  B26  1  0.500000  0.489412  0.279594  1
  B  B27  1  0.500000  0.510588  0.720406  1
  B  B28  1  0.500000  0.642785  0.039668  1
  B  B29  1  0.500000  0.357215  0.960332  1
  B  B30  1  0.500000  0.142785  0.460332  1
  B  B31  1  0.500000  0.857215  0.539668  1
  Os  Os32  1  0.000000  0.646387  0.319395  1
  Os  Os33  1  0.000000  0.353613  0.680605  1
  Os  Os34  1  0.000000  0.146387  0.180605  1
  Os  Os35  1  0.000000  0.853613  0.819395  1
