# generated using pymatgen
data_Sc22Co2Os5Pt
_symmetry_space_group_name_H-M   'P 1'
_cell_length_a   9.42445656
_cell_length_b   9.44611067
_cell_length_c   9.42445646
_cell_angle_alpha   59.92396086
_cell_angle_beta   60.00131867
_cell_angle_gamma   59.92396116
_symmetry_Int_Tables_number   1
_chemical_formula_structural   Sc22Co2Os5Pt
_chemical_formula_sum   'Sc22 Co2 Os5 Pt1'
_cell_volume   592.59075900
_cell_formula_units_Z   1
loop_
 _symmetry_equiv_pos_site_id
 _symmetry_equiv_pos_as_xyz
  1  'x, y, z'
loop_
 _atom_site_type_symbol
 _atom_site_label
 _atom_site_symmetry_multiplicity
 _atom_site_fract_x
 _atom_site_fract_y
 _atom_site_fract_z
 _atom_site_occupancy
  Sc  Sc0  1  0.843363  0.842447  0.843363  1
  Sc  Sc1  1  0.527664  0.159560  0.153215  1
  Sc  Sc2  1  0.153215  0.159560  0.527664  1
  Sc  Sc3  1  0.156637  0.529174  0.156637  1
  Sc  Sc4  1  0.846785  0.840440  0.472336  1
  Sc  Sc5  1  0.843363  0.470826  0.843363  1
  Sc  Sc6  1  0.472336  0.840440  0.846785  1
  Sc  Sc7  1  0.156637  0.157553  0.156637  1
  Sc  Sc8  1  0.193560  0.806440  0.193560  1
  Sc  Sc9  1  0.193176  0.804343  0.806824  1
  Sc  Sc10  1  0.806824  0.195657  0.193176  1
  Sc  Sc11  1  0.806824  0.804343  0.193176  1
  Sc  Sc12  1  0.193176  0.195657  0.806824  1
  Sc  Sc13  1  0.806440  0.193560  0.806440  1
  Sc  Sc14  1  0.381983  0.390853  0.381983  1
  Sc  Sc15  1  0.153312  0.614783  0.617123  1
  Sc  Sc16  1  0.618017  0.154822  0.618017  1
  Sc  Sc17  1  0.617123  0.614783  0.153312  1
  Sc  Sc18  1  0.381983  0.845178  0.381983  1
  Sc  Sc19  1  0.382877  0.385217  0.846688  1
  Sc  Sc20  1  0.846688  0.385217  0.382877  1
  Sc  Sc21  1  0.618017  0.609147  0.618017  1
  Co  Co22  1  0.500000  0.500000  0.500000  1
  Co  Co23  1  0.000000  0.000000  0.000000  1
  Os  Os24  1  0.500000  0.500000  0.000000  1
  Os  Os25  1  0.000000  0.000000  0.500000  1
  Os  Os26  1  0.000000  0.500000  0.500000  1
  Os  Os27  1  0.500000  0.000000  0.000000  1
  Os  Os28  1  0.000000  0.500000  0.000000  1
  Pt  Pt29  1  0.500000  0.000000  0.500000  1
