# generated using pymatgen
data_NdLu3(Ni7P4)2
_symmetry_space_group_name_H-M   'P 1'
_cell_length_a   3.69244200
_cell_length_b   9.14914534
_cell_length_c   10.25813737
_cell_angle_alpha   90.03087321
_cell_angle_beta   90.00000000
_cell_angle_gamma   90.00000000
_symmetry_Int_Tables_number   1
_chemical_formula_structural   NdLu3(Ni7P4)2
_chemical_formula_sum   'Nd1 Lu3 Ni14 P8'
_cell_volume   346.54740901
_cell_formula_units_Z   1
loop_
 _symmetry_equiv_pos_site_id
 _symmetry_equiv_pos_as_xyz
  1  'x, y, z'
loop_
 _atom_site_type_symbol
 _atom_site_label
 _atom_site_symmetry_multiplicity
 _atom_site_fract_x
 _atom_site_fract_y
 _atom_site_fract_z
 _atom_site_occupancy
  Nd  Nd0  1  0.000000  0.561379  0.000033  1
  Lu  Lu1  1  0.500000  0.435173  0.498630  1
  Lu  Lu2  1  0.500000  0.057674  0.283155  1
  Lu  Lu3  1  0.000000  0.941646  0.781663  1
  Ni  Ni4  1  0.500000  0.301676  0.080893  1
  Ni  Ni5  1  0.500000  0.745958  0.406117  1
  Ni  Ni6  1  0.500000  0.415259  0.798602  1
  Ni  Ni7  1  0.500000  0.056140  0.976485  1
  Ni  Ni8  1  0.500000  0.689010  0.764020  1
  Ni  Ni9  1  0.000000  0.275058  0.665005  1
  Ni  Ni10  1  0.000000  0.247940  0.902603  1
  Ni  Ni11  1  0.000000  0.694286  0.572993  1
  Ni  Ni12  1  0.500000  0.097352  0.583805  1
  Ni  Ni13  1  0.000000  0.313164  0.268992  1
  Ni  Ni14  1  0.000000  0.581728  0.315328  1
  Ni  Ni15  1  0.000000  0.906989  0.086057  1
  Ni  Ni16  1  0.000000  0.945497  0.476982  1
  Ni  Ni17  1  0.500000  0.730025  0.169917  1
  P  P18  1  0.000000  0.820625  0.288779  1
  P  P19  1  0.000000  0.191064  0.461387  1
  P  P20  1  0.500000  0.177413  0.787208  1
  P  P21  1  0.000000  0.155041  0.096565  1
  P  P22  1  0.500000  0.479789  0.222271  1
  P  P23  1  0.500000  0.812861  0.961893  1
  P  P24  1  0.500000  0.848258  0.595165  1
  P  P25  1  0.000000  0.518997  0.710854  1
