# generated using pymatgen
data_YbDyNi10
_symmetry_space_group_name_H-M   'P 1'
_cell_length_a   3.94843300
_cell_length_b   4.83225800
_cell_length_c   8.39484800
_cell_angle_alpha   90.00000000
_cell_angle_beta   90.00000000
_cell_angle_gamma   90.00000000
_symmetry_Int_Tables_number   1
_chemical_formula_structural   YbDyNi10
_chemical_formula_sum   'Yb1 Dy1 Ni10'
_cell_volume   160.17241502
_cell_formula_units_Z   1
loop_
 _symmetry_equiv_pos_site_id
 _symmetry_equiv_pos_as_xyz
  1  'x, y, z'
loop_
 _atom_site_type_symbol
 _atom_site_label
 _atom_site_symmetry_multiplicity
 _atom_site_fract_x
 _atom_site_fract_y
 _atom_site_fract_z
 _atom_site_occupancy
  Yb  Yb0  1  0.000000  0.500000  0.500000  1
  Dy  Dy1  1  0.000000  0.000000  0.000000  1
  Ni  Ni2  1  0.000000  0.000000  0.336665  1
  Ni  Ni3  1  0.000000  0.500000  0.829178  1
  Ni  Ni4  1  0.000000  0.500000  0.170822  1
  Ni  Ni5  1  0.000000  0.000000  0.663335  1
  Ni  Ni6  1  0.500000  0.000000  0.500000  1
  Ni  Ni7  1  0.500000  0.500000  0.000000  1
  Ni  Ni8  1  0.500000  0.249158  0.250140  1
  Ni  Ni9  1  0.500000  0.750842  0.749860  1
  Ni  Ni10  1  0.500000  0.750842  0.250140  1
  Ni  Ni11  1  0.500000  0.249158  0.749860  1
