# generated using pymatgen
data_Y2Mg2Si2Ir3Rh
_symmetry_space_group_name_H-M   'P 1'
_cell_length_a   4.06734300
_cell_length_b   4.06734300
_cell_length_c   11.00281900
_cell_angle_alpha   90.00000000
_cell_angle_beta   90.00000000
_cell_angle_gamma   90.00000000
_symmetry_Int_Tables_number   1
_chemical_formula_structural   Y2Mg2Si2Ir3Rh
_chemical_formula_sum   'Y2 Mg2 Si2 Ir3 Rh1'
_cell_volume   182.02270538
_cell_formula_units_Z   1
loop_
 _symmetry_equiv_pos_site_id
 _symmetry_equiv_pos_as_xyz
  1  'x, y, z'
loop_
 _atom_site_type_symbol
 _atom_site_label
 _atom_site_symmetry_multiplicity
 _atom_site_fract_x
 _atom_site_fract_y
 _atom_site_fract_z
 _atom_site_occupancy
  Y  Y0  1  0.500000  0.000000  0.235941  1
  Y  Y1  1  0.000000  0.500000  0.764059  1
  Mg  Mg2  1  0.500000  0.500000  0.500000  1
  Mg  Mg3  1  0.000000  0.000000  0.500000  1
  Si  Si4  1  0.000000  0.500000  0.116366  1
  Si  Si5  1  0.500000  0.000000  0.883634  1
  Ir  Ir6  1  0.000000  0.500000  0.331049  1
  Ir  Ir7  1  0.500000  0.000000  0.668951  1
  Ir  Ir8  1  0.000000  0.000000  0.000000  1
  Rh  Rh9  1  0.500000  0.500000  0.000000  1
