# generated using pymatgen
data_RbTb10(C2Br9)2
_symmetry_space_group_name_H-M   'P 1'
_cell_length_a   10.71467340
_cell_length_b   10.79832368
_cell_length_c   10.93521885
_cell_angle_alpha   113.26461581
_cell_angle_beta   87.48103861
_cell_angle_gamma   118.78665959
_symmetry_Int_Tables_number   1
_chemical_formula_structural   RbTb10(C2Br9)2
_chemical_formula_sum   'Rb1 Tb10 C4 Br18'
_cell_volume   1001.74730137
_cell_formula_units_Z   1
loop_
 _symmetry_equiv_pos_site_id
 _symmetry_equiv_pos_as_xyz
  1  'x, y, z'
loop_
 _atom_site_type_symbol
 _atom_site_label
 _atom_site_symmetry_multiplicity
 _atom_site_fract_x
 _atom_site_fract_y
 _atom_site_fract_z
 _atom_site_occupancy
  Rb  Rb0  1  0.500000  0.000000  0.500000  1
  Tb  Tb1  1  0.661924  0.717287  0.702228  1
  Tb  Tb2  1  0.282582  0.364173  0.011605  1
  Tb  Tb3  1  0.092692  0.406873  0.300730  1
  Tb  Tb4  1  0.959537  0.035534  0.332693  1
  Tb  Tb5  1  0.907308  0.593127  0.699270  1
  Tb  Tb6  1  0.112426  0.941612  0.001102  1
  Tb  Tb7  1  0.040463  0.964466  0.667307  1
  Tb  Tb8  1  0.338076  0.282713  0.297772  1
  Tb  Tb9  1  0.717418  0.635827  0.988395  1
  Tb  Tb10  1  0.887574  0.058388  0.998898  1
  C  C11  1  0.156881  0.227620  0.123738  1
  C  C12  1  0.843119  0.772380  0.876262  1
  C  C13  1  0.921785  0.851411  0.796288  1
  C  C14  1  0.078215  0.148589  0.203712  1
  Br  Br15  1  0.451348  0.530855  0.832668  1
  Br  Br16  1  0.384666  0.039191  0.159847  1
  Br  Br17  1  0.776613  0.857338  0.502293  1
  Br  Br18  1  0.837188  0.311815  0.154319  1
  Br  Br19  1  0.548652  0.469145  0.167332  1
  Br  Br20  1  0.223387  0.142662  0.497707  1
  Br  Br21  1  0.315494  0.098408  0.828674  1
  Br  Br22  1  0.684506  0.901592  0.171326  1
  Br  Br23  1  0.974780  0.760061  0.172226  1
  Br  Br24  1  0.932563  0.301160  0.500920  1
  Br  Br25  1  0.025220  0.239939  0.827774  1
  Br  Br26  1  0.067437  0.698840  0.499080  1
  Br  Br27  1  0.261534  0.624053  0.187525  1
  Br  Br28  1  0.738466  0.375947  0.812475  1
  Br  Br29  1  0.639369  0.433302  0.500043  1
  Br  Br30  1  0.162812  0.688185  0.845681  1
  Br  Br31  1  0.615334  0.960809  0.840153  1
  Br  Br32  1  0.360631  0.566698  0.499957  1
