# generated using pymatgen
data_Ho5Si12Ir19
_symmetry_space_group_name_H-M   'P 1'
_cell_length_a   12.83216700
_cell_length_b   12.83216809
_cell_length_c   3.98451900
_cell_angle_alpha   90.00000000
_cell_angle_beta   90.00000000
_cell_angle_gamma   120.00000492
_symmetry_Int_Tables_number   1
_chemical_formula_structural   Ho5Si12Ir19
_chemical_formula_sum   'Ho5 Si12 Ir19'
_cell_volume   568.20696773
_cell_formula_units_Z   1
loop_
 _symmetry_equiv_pos_site_id
 _symmetry_equiv_pos_as_xyz
  1  'x, y, z'
loop_
 _atom_site_type_symbol
 _atom_site_label
 _atom_site_symmetry_multiplicity
 _atom_site_fract_x
 _atom_site_fract_y
 _atom_site_fract_z
 _atom_site_occupancy
  Ho  Ho0  1  0.000000  0.815422  0.500000  1
  Ho  Ho1  1  0.184578  0.184578  0.500000  1
  Ho  Ho2  1  0.815422  0.000000  0.500000  1
  Ho  Ho3  1  0.333333  0.666667  0.000000  1
  Ho  Ho4  1  0.666667  0.333333  0.000000  1
  Si  Si5  1  0.000000  0.181326  0.000000  1
  Si  Si6  1  0.818674  0.818674  0.000000  1
  Si  Si7  1  0.181326  0.000000  0.000000  1
  Si  Si8  1  0.518939  0.687812  0.500000  1
  Si  Si9  1  0.312188  0.831127  0.500000  1
  Si  Si10  1  0.168873  0.481061  0.500000  1
  Si  Si11  1  0.481061  0.168873  0.500000  1
  Si  Si12  1  0.687812  0.518939  0.500000  1
  Si  Si13  1  0.831127  0.312188  0.500000  1
  Si  Si14  1  0.000000  0.631861  0.000000  1
  Si  Si15  1  0.368139  0.368139  0.000000  1
  Si  Si16  1  0.631861  0.000000  0.000000  1
  Ir  Ir17  1  0.000000  0.282467  0.500000  1
  Ir  Ir18  1  0.717533  0.717533  0.500000  1
  Ir  Ir19  1  0.282467  0.000000  0.500000  1
  Ir  Ir20  1  0.623128  0.805874  0.000000  1
  Ir  Ir21  1  0.194126  0.817254  0.000000  1
  Ir  Ir22  1  0.182746  0.376872  0.000000  1
  Ir  Ir23  1  0.376872  0.182746  0.000000  1
  Ir  Ir24  1  0.805874  0.623128  0.000000  1
  Ir  Ir25  1  0.817254  0.194126  0.000000  1
  Ir  Ir26  1  0.512070  0.873534  0.500000  1
  Ir  Ir27  1  0.126466  0.638535  0.500000  1
  Ir  Ir28  1  0.361465  0.487930  0.500000  1
  Ir  Ir29  1  0.487930  0.361465  0.500000  1
  Ir  Ir30  1  0.873534  0.512070  0.500000  1
  Ir  Ir31  1  0.638535  0.126466  0.500000  1
  Ir  Ir32  1  0.000000  0.000000  0.000000  1
  Ir  Ir33  1  0.000000  0.446832  0.000000  1
  Ir  Ir34  1  0.553168  0.553168  0.000000  1
  Ir  Ir35  1  0.446832  0.000000  0.000000  1
