# generated using pymatgen
data_SrCuBrO
_symmetry_space_group_name_H-M   'P 1'
_cell_length_a   5.84295500
_cell_length_b   4.15566200
_cell_length_c   16.41182200
_cell_angle_alpha   90.00000000
_cell_angle_beta   90.00000000
_cell_angle_gamma   90.00000000
_symmetry_Int_Tables_number   1
_chemical_formula_structural   SrCuBrO
_chemical_formula_sum   'Sr4 Cu4 Br4 O4'
_cell_volume   398.50112948
_cell_formula_units_Z   4
loop_
 _symmetry_equiv_pos_site_id
 _symmetry_equiv_pos_as_xyz
  1  'x, y, z'
loop_
 _atom_site_type_symbol
 _atom_site_label
 _atom_site_symmetry_multiplicity
 _atom_site_fract_x
 _atom_site_fract_y
 _atom_site_fract_z
 _atom_site_occupancy
  Sr  Sr0  1  0.258820  0.749998  0.104883  1
  Sr  Sr1  1  0.758819  0.749998  0.395118  1
  Sr  Sr2  1  0.241180  0.250000  0.604882  1
  Sr  Sr3  1  0.741180  0.250000  0.895117  1
  Cu  Cu4  1  0.533724  0.250000  0.248869  1
  Cu  Cu5  1  0.033724  0.250000  0.251130  1
  Cu  Cu6  1  0.966275  0.749998  0.748869  1
  Cu  Cu7  1  0.466275  0.749998  0.751130  1
  Br  Br8  1  0.756689  0.749998  0.046723  1
  Br  Br9  1  0.256689  0.749998  0.453277  1
  Br  Br10  1  0.743311  0.250000  0.546723  1
  Br  Br11  1  0.243313  0.250000  0.953277  1
  O  O12  1  0.281377  0.250000  0.182002  1
  O  O13  1  0.781377  0.250000  0.317997  1
  O  O14  1  0.218623  0.749998  0.682003  1
  O  O15  1  0.718623  0.749998  0.817997  1
