# generated using pymatgen
data_Tb6Cd23Se
_symmetry_space_group_name_H-M   'P 1'
_cell_length_a   9.96106719
_cell_length_b   9.96106813
_cell_length_c   9.96106800
_cell_angle_alpha   60.00000044
_cell_angle_beta   59.99999731
_cell_angle_gamma   59.99999750
_symmetry_Int_Tables_number   1
_chemical_formula_structural   Tb6Cd23Se
_chemical_formula_sum   'Tb6 Cd23 Se1'
_cell_volume   698.88009513
_cell_formula_units_Z   1
loop_
 _symmetry_equiv_pos_site_id
 _symmetry_equiv_pos_as_xyz
  1  'x, y, z'
loop_
 _atom_site_type_symbol
 _atom_site_label
 _atom_site_symmetry_multiplicity
 _atom_site_fract_x
 _atom_site_fract_y
 _atom_site_fract_z
 _atom_site_occupancy
  Tb  Tb0  1  0.794047  0.794047  0.205953  1
  Tb  Tb1  1  0.205953  0.794047  0.205953  1
  Tb  Tb2  1  0.794047  0.205953  0.205953  1
  Tb  Tb3  1  0.205953  0.205953  0.794047  1
  Tb  Tb4  1  0.794047  0.205953  0.794047  1
  Tb  Tb5  1  0.205953  0.794047  0.794047  1
  Cd  Cd6  1  0.837324  0.837324  0.488026  1
  Cd  Cd7  1  0.837324  0.488026  0.837324  1
  Cd  Cd8  1  0.488026  0.837324  0.837324  1
  Cd  Cd9  1  0.837324  0.837324  0.837324  1
  Cd  Cd10  1  0.162676  0.162676  0.511974  1
  Cd  Cd11  1  0.162676  0.511974  0.162676  1
  Cd  Cd12  1  0.511974  0.162676  0.162676  1
  Cd  Cd13  1  0.162676  0.162676  0.162676  1
  Cd  Cd14  1  0.621937  0.621937  0.134188  1
  Cd  Cd15  1  0.621937  0.134188  0.621937  1
  Cd  Cd16  1  0.134188  0.621937  0.621937  1
  Cd  Cd17  1  0.621937  0.621937  0.621937  1
  Cd  Cd18  1  0.378063  0.378063  0.865812  1
  Cd  Cd19  1  0.378063  0.865812  0.378063  1
  Cd  Cd20  1  0.865812  0.378063  0.378063  1
  Cd  Cd21  1  0.378063  0.378063  0.378063  1
  Cd  Cd22  1  0.000000  0.000000  0.500000  1
  Cd  Cd23  1  0.500000  0.000000  0.500000  1
  Cd  Cd24  1  0.000000  0.500000  0.500000  1
  Cd  Cd25  1  0.500000  0.500000  0.000000  1
  Cd  Cd26  1  0.000000  0.500000  0.000000  1
  Cd  Cd27  1  0.500000  0.000000  0.000000  1
  Cd  Cd28  1  0.500000  0.500000  0.500000  1
  Se  Se29  1  0.000000  0.000000  0.000000  1
