# generated using pymatgen
data_Tb5Nd3MgHgIr2
_symmetry_space_group_name_H-M   'P 1'
_cell_length_a   9.77818626
_cell_length_b   9.77818646
_cell_length_c   9.80457400
_cell_angle_alpha   59.91069039
_cell_angle_beta   59.91068970
_cell_angle_gamma   59.92189201
_symmetry_Int_Tables_number   1
_chemical_formula_structural   Tb5Nd3MgHgIr2
_chemical_formula_sum   'Tb10 Nd6 Mg2 Hg2 Ir4'
_cell_volume   661.58620487
_cell_formula_units_Z   2
loop_
 _symmetry_equiv_pos_site_id
 _symmetry_equiv_pos_as_xyz
  1  'x, y, z'
loop_
 _atom_site_type_symbol
 _atom_site_label
 _atom_site_symmetry_multiplicity
 _atom_site_fract_x
 _atom_site_fract_y
 _atom_site_fract_z
 _atom_site_occupancy
  Tb  Tb0  1  0.347925  0.347925  0.347616  1
  Tb  Tb1  1  0.347925  0.347925  0.956532  1
  Tb  Tb2  1  0.347519  0.959118  0.346682  1
  Tb  Tb3  1  0.959118  0.347519  0.346682  1
  Tb  Tb4  1  0.812112  0.187118  0.188446  1
  Tb  Tb5  1  0.187118  0.812112  0.812325  1
  Tb  Tb6  1  0.187118  0.812112  0.188446  1
  Tb  Tb7  1  0.812112  0.187118  0.812325  1
  Tb  Tb8  1  0.190525  0.190525  0.809475  1
  Tb  Tb9  1  0.812994  0.812994  0.187006  1
  Nd  Nd10  1  0.943394  0.558701  0.559213  1
  Nd  Nd11  1  0.558701  0.943394  0.938692  1
  Nd  Nd12  1  0.558701  0.943394  0.559213  1
  Nd  Nd13  1  0.943394  0.558701  0.938692  1
  Nd  Nd14  1  0.560976  0.560976  0.939024  1
  Nd  Nd15  1  0.941991  0.941991  0.558009  1
  Mg  Mg16  1  0.573101  0.573101  0.580443  1
  Mg  Mg17  1  0.573101  0.573101  0.273355  1
  Hg  Hg18  1  0.586254  0.252058  0.580844  1
  Hg  Hg19  1  0.252058  0.586254  0.580844  1
  Ir  Ir20  1  0.142398  0.142398  0.139690  1
  Ir  Ir21  1  0.142398  0.142398  0.575512  1
  Ir  Ir22  1  0.142818  0.576248  0.140467  1
  Ir  Ir23  1  0.576248  0.142818  0.140467  1
