# generated using pymatgen
data_TbY2Zr(Al3Rh)6
_symmetry_space_group_name_H-M   'P 1'
_cell_length_a   7.53664600
_cell_length_b   7.52184505
_cell_length_c   9.41830300
_cell_angle_alpha   90.00000000
_cell_angle_beta   90.00000000
_cell_angle_gamma   119.49002878
_symmetry_Int_Tables_number   1
_chemical_formula_structural   TbY2Zr(Al3Rh)6
_chemical_formula_sum   'Tb1 Y2 Zr1 Al18 Rh6'
_cell_volume   464.74495747
_cell_formula_units_Z   1
loop_
 _symmetry_equiv_pos_site_id
 _symmetry_equiv_pos_as_xyz
  1  'x, y, z'
loop_
 _atom_site_type_symbol
 _atom_site_label
 _atom_site_symmetry_multiplicity
 _atom_site_fract_x
 _atom_site_fract_y
 _atom_site_fract_z
 _atom_site_occupancy
  Tb  Tb0  1  0.671798  0.995551  0.250000  1
  Y  Y1  1  0.006160  0.327647  0.750000  1
  Y  Y2  1  0.328586  0.006396  0.750000  1
  Zr  Zr3  1  0.996355  0.672150  0.250000  1
  Al  Al4  1  0.124614  0.121948  0.250000  1
  Al  Al5  1  0.871305  0.869722  0.750000  1
  Al  Al6  1  0.000229  0.339007  0.079778  1
  Al  Al7  1  0.999508  0.664877  0.929090  1
  Al  Al8  1  0.999508  0.664877  0.570910  1
  Al  Al9  1  0.331963  0.997393  0.420173  1
  Al  Al10  1  0.000229  0.339007  0.420222  1
  Al  Al11  1  0.664317  0.998216  0.575217  1
  Al  Al12  1  0.664317  0.998216  0.924783  1
  Al  Al13  1  0.331963  0.997393  0.079827  1
  Al  Al14  1  0.333657  0.333675  0.546957  1
  Al  Al15  1  0.669766  0.667300  0.444908  1
  Al  Al16  1  0.669766  0.667300  0.055092  1
  Al  Al17  1  0.333657  0.333675  0.953043  1
  Al  Al18  1  0.335995  0.551311  0.250000  1
  Al  Al19  1  0.660663  0.450882  0.750000  1
  Al  Al20  1  0.557005  0.345118  0.250000  1
  Al  Al21  1  0.449432  0.658746  0.750000  1
  Rh  Rh22  1  0.672661  0.328314  0.001201  1
  Rh  Rh23  1  0.327601  0.672353  0.001782  1
  Rh  Rh24  1  0.327601  0.672353  0.498218  1
  Rh  Rh25  1  0.672661  0.328314  0.498799  1
  Rh  Rh26  1  0.999341  0.999128  0.001173  1
  Rh  Rh27  1  0.999341  0.999128  0.498827  1
