# generated using pymatgen
data_SrYb19Ru4
_symmetry_space_group_name_H-M   'P 1'
_cell_length_a   6.61038224
_cell_length_b   7.50028485
_cell_length_c   15.76008451
_cell_angle_alpha   90.09047471
_cell_angle_beta   90.33442599
_cell_angle_gamma   89.99255058
_symmetry_Int_Tables_number   1
_chemical_formula_structural   SrYb19Ru4
_chemical_formula_sum   'Sr1 Yb19 Ru4'
_cell_volume   781.36675559
_cell_formula_units_Z   1
loop_
 _symmetry_equiv_pos_site_id
 _symmetry_equiv_pos_as_xyz
  1  'x, y, z'
loop_
 _atom_site_type_symbol
 _atom_site_label
 _atom_site_symmetry_multiplicity
 _atom_site_fract_x
 _atom_site_fract_y
 _atom_site_fract_z
 _atom_site_occupancy
  Sr  Sr0  1  0.855058  0.193500  0.937570  1
  Yb  Yb1  1  0.146648  0.097348  0.249902  1
  Yb  Yb2  1  0.860658  0.194054  0.567951  1
  Yb  Yb3  1  0.853552  0.902254  0.748254  1
  Yb  Yb4  1  0.821832  0.468176  0.149398  1
  Yb  Yb5  1  0.177015  0.535086  0.645533  1
  Yb  Yb6  1  0.358804  0.307022  0.070922  1
  Yb  Yb7  1  0.352372  0.597067  0.251407  1
  Yb  Yb8  1  0.823120  0.466001  0.353821  1
  Yb  Yb9  1  0.322307  0.033272  0.851064  1
  Yb  Yb10  1  0.140921  0.802842  0.069456  1
  Yb  Yb11  1  0.639688  0.694280  0.567840  1
  Yb  Yb12  1  0.677205  0.966419  0.353478  1
  Yb  Yb13  1  0.638732  0.693945  0.931141  1
  Yb  Yb14  1  0.324164  0.033724  0.645836  1
  Yb  Yb15  1  0.140395  0.806479  0.431186  1
  Yb  Yb16  1  0.647730  0.403486  0.747703  1
  Yb  Yb17  1  0.179422  0.534897  0.851179  1
  Yb  Yb18  1  0.360104  0.305807  0.431343  1
  Yb  Yb19  1  0.674917  0.963120  0.148975  1
  Ru  Ru20  1  0.039921  0.243280  0.744658  1
  Ru  Ru21  1  0.464604  0.742697  0.749570  1
  Ru  Ru22  1  0.536440  0.257854  0.250596  1
  Ru  Ru23  1  0.964389  0.757392  0.251218  1
