# generated using pymatgen
data_Sc8Ti7Si16Mo4W
_symmetry_space_group_name_H-M   'P 1'
_cell_length_a   6.61251926
_cell_length_b   6.78432611
_cell_length_c   12.91264475
_cell_angle_alpha   90.00452577
_cell_angle_beta   90.09830644
_cell_angle_gamma   89.99010266
_symmetry_Int_Tables_number   1
_chemical_formula_structural   Sc8Ti7Si16Mo4W
_chemical_formula_sum   'Sc8 Ti7 Si16 Mo4 W1'
_cell_volume   579.27958286
_cell_formula_units_Z   1
loop_
 _symmetry_equiv_pos_site_id
 _symmetry_equiv_pos_as_xyz
  1  'x, y, z'
loop_
 _atom_site_type_symbol
 _atom_site_label
 _atom_site_symmetry_multiplicity
 _atom_site_fract_x
 _atom_site_fract_y
 _atom_site_fract_z
 _atom_site_occupancy
  Sc  Sc0  1  0.501155  0.674897  0.594446  1
  Sc  Sc1  1  0.000363  0.827594  0.904860  1
  Sc  Sc2  1  0.498662  0.326664  0.096143  1
  Sc  Sc3  1  0.999828  0.173369  0.404321  1
  Sc  Sc4  1  0.499466  0.325808  0.405597  1
  Sc  Sc5  1  0.998712  0.173778  0.096255  1
  Sc  Sc6  1  0.502148  0.673323  0.903970  1
  Sc  Sc7  1  0.999137  0.827941  0.594656  1
  Ti  Ti8  1  0.166517  0.328019  0.872170  1
  Ti  Ti9  1  0.333259  0.827634  0.126305  1
  Ti  Ti10  1  0.833995  0.673191  0.374521  1
  Ti  Ti11  1  0.334299  0.827666  0.374423  1
  Ti  Ti12  1  0.833831  0.672060  0.126357  1
  Ti  Ti13  1  0.666923  0.171993  0.873267  1
  Ti  Ti14  1  0.163398  0.327466  0.626288  1
  Si  Si15  1  0.667697  0.963235  0.459856  1
  Si  Si16  1  0.165096  0.535066  0.041238  1
  Si  Si17  1  0.334713  0.035884  0.958984  1
  Si  Si18  1  0.831110  0.463008  0.541132  1
  Si  Si19  1  0.335340  0.035616  0.541405  1
  Si  Si20  1  0.834142  0.463763  0.958938  1
  Si  Si21  1  0.665733  0.964661  0.041109  1
  Si  Si22  1  0.166314  0.534530  0.459206  1
  Si  Si23  1  0.465722  0.383312  0.748597  1
  Si  Si24  1  0.962690  0.115114  0.750051  1
  Si  Si25  1  0.536045  0.616401  0.250412  1
  Si  Si26  1  0.036448  0.884170  0.250247  1
  Si  Si27  1  0.702260  0.862273  0.750102  1
  Si  Si28  1  0.204162  0.638203  0.749262  1
  Si  Si29  1  0.296748  0.137985  0.249799  1
  Si  Si30  1  0.796079  0.362383  0.250560  1
  Mo  Mo31  1  0.667575  0.170327  0.625276  1
  Mo  Mo32  1  0.839809  0.493300  0.749986  1
  Mo  Mo33  1  0.337052  0.008030  0.749930  1
  Mo  Mo34  1  0.161334  0.507513  0.250124  1
  W  W35  1  0.662238  0.993824  0.250207  1
