# generated using pymatgen
data_YLu3TcB12Os
_symmetry_space_group_name_H-M   'P 1'
_cell_length_a   3.62059300
_cell_length_b   9.06800072
_cell_length_c   11.44709900
_cell_angle_alpha   89.93174472
_cell_angle_beta   90.00000000
_cell_angle_gamma   90.00000000
_symmetry_Int_Tables_number   1
_chemical_formula_structural   YLu3TcB12Os
_chemical_formula_sum   'Y2 Lu6 Tc2 B24 Os2'
_cell_volume   375.82562123
_cell_formula_units_Z   2
loop_
 _symmetry_equiv_pos_site_id
 _symmetry_equiv_pos_as_xyz
  1  'x, y, z'
loop_
 _atom_site_type_symbol
 _atom_site_label
 _atom_site_symmetry_multiplicity
 _atom_site_fract_x
 _atom_site_fract_y
 _atom_site_fract_z
 _atom_site_occupancy
  Y  Y0  1  0.000000  0.323647  0.415079  1
  Y  Y1  1  0.000000  0.676353  0.584921  1
  Lu  Lu2  1  0.000000  0.819872  0.087204  1
  Lu  Lu3  1  0.000000  0.180128  0.912796  1
  Lu  Lu4  1  0.000000  0.941772  0.370571  1
  Lu  Lu5  1  0.000000  0.058228  0.629429  1
  Lu  Lu6  1  0.000000  0.443775  0.128977  1
  Lu  Lu7  1  0.000000  0.556225  0.871023  1
  Tc  Tc8  1  0.000000  0.639330  0.318719  1
  Tc  Tc9  1  0.000000  0.360670  0.681281  1
  B  B10  1  0.500000  0.553570  0.432288  1
  B  B11  1  0.500000  0.446430  0.567712  1
  B  B12  1  0.500000  0.053388  0.065847  1
  B  B13  1  0.500000  0.946612  0.934153  1
  B  B14  1  0.500000  0.750227  0.417893  1
  B  B15  1  0.500000  0.249773  0.582107  1
  B  B16  1  0.500000  0.249648  0.080114  1
  B  B17  1  0.500000  0.750352  0.919886  1
  B  B18  1  0.500000  0.792711  0.263587  1
  B  B19  1  0.500000  0.207289  0.736412  1
  B  B20  1  0.500000  0.291036  0.233517  1
  B  B21  1  0.500000  0.708964  0.766484  1
  B  B22  1  0.500000  0.630972  0.183326  1
  B  B23  1  0.500000  0.369028  0.816674  1
  B  B24  1  0.500000  0.129274  0.314024  1
  B  B25  1  0.500000  0.870726  0.685976  1
  B  B26  1  0.500000  0.981116  0.211309  1
  B  B27  1  0.500000  0.018884  0.788691  1
  B  B28  1  0.500000  0.482076  0.286044  1
  B  B29  1  0.500000  0.517924  0.713956  1
  B  B30  1  0.500000  0.602282  0.027881  1
  B  B31  1  0.500000  0.397718  0.972119  1
  B  B32  1  0.500000  0.100018  0.472044  1
  B  B33  1  0.500000  0.899982  0.527956  1
  Os  Os34  1  0.000000  0.136706  0.177721  1
  Os  Os35  1  0.000000  0.863294  0.822279  1
