# generated using pymatgen
data_Y2CrB8Os
_symmetry_space_group_name_H-M   'P 1'
_cell_length_a   5.95965659
_cell_length_b   5.95965717
_cell_length_c   3.52125500
_cell_angle_alpha   90.00000000
_cell_angle_beta   90.00000000
_cell_angle_gamma   104.12854633
_symmetry_Int_Tables_number   1
_chemical_formula_structural   Y2CrB8Os
_chemical_formula_sum   'Y2 Cr1 B8 Os1'
_cell_volume   121.28302221
_cell_formula_units_Z   1
loop_
 _symmetry_equiv_pos_site_id
 _symmetry_equiv_pos_as_xyz
  1  'x, y, z'
loop_
 _atom_site_type_symbol
 _atom_site_label
 _atom_site_symmetry_multiplicity
 _atom_site_fract_x
 _atom_site_fract_y
 _atom_site_fract_z
 _atom_site_occupancy
  Y  Y0  1  0.200404  0.801777  0.000000  1
  Y  Y1  1  0.801777  0.200404  0.000000  1
  Cr  Cr2  1  0.323127  0.323127  0.000000  1
  B  B3  1  0.879928  0.564626  0.500000  1
  B  B4  1  0.408446  0.591536  0.500000  1
  B  B5  1  0.874494  0.874494  0.500000  1
  B  B6  1  0.564626  0.879928  0.500000  1
  B  B7  1  0.434913  0.120969  0.500000  1
  B  B8  1  0.125875  0.125875  0.500000  1
  B  B9  1  0.591536  0.408446  0.500000  1
  B  B10  1  0.120969  0.434913  0.500000  1
  Os  Os11  1  0.673905  0.673905  0.000000  1
