# generated using pymatgen
data_Sm4Er4Tc3B24Ru
_symmetry_space_group_name_H-M   'P 1'
_cell_length_a   3.70132500
_cell_length_b   9.18638935
_cell_length_c   11.61201402
_cell_angle_alpha   89.92640306
_cell_angle_beta   90.00000000
_cell_angle_gamma   90.00000000
_symmetry_Int_Tables_number   1
_chemical_formula_structural   Sm4Er4Tc3B24Ru
_chemical_formula_sum   'Sm4 Er4 Tc3 B24 Ru1'
_cell_volume   394.82919862
_cell_formula_units_Z   1
loop_
 _symmetry_equiv_pos_site_id
 _symmetry_equiv_pos_as_xyz
  1  'x, y, z'
loop_
 _atom_site_type_symbol
 _atom_site_label
 _atom_site_symmetry_multiplicity
 _atom_site_fract_x
 _atom_site_fract_y
 _atom_site_fract_z
 _atom_site_occupancy
  Sm  Sm0  1  0.000000  0.323092  0.414130  1
  Sm  Sm1  1  0.000000  0.675658  0.584309  1
  Sm  Sm2  1  0.000000  0.822789  0.086975  1
  Sm  Sm3  1  0.000000  0.178105  0.914614  1
  Er  Er4  1  0.000000  0.942583  0.369903  1
  Er  Er5  1  0.000000  0.057782  0.630924  1
  Er  Er6  1  0.000000  0.443251  0.130397  1
  Er  Er7  1  0.000000  0.557569  0.868868  1
  Tc  Tc8  1  0.000000  0.639269  0.319322  1
  Tc  Tc9  1  0.000000  0.360762  0.681092  1
  Tc  Tc10  1  0.000000  0.138886  0.179699  1
  B  B11  1  0.500000  0.554082  0.431399  1
  B  B12  1  0.500000  0.445648  0.568188  1
  B  B13  1  0.500000  0.054139  0.068347  1
  B  B14  1  0.500000  0.945144  0.931395  1
  B  B15  1  0.500000  0.749510  0.417123  1
  B  B16  1  0.500000  0.249752  0.583033  1
  B  B17  1  0.500000  0.250282  0.082788  1
  B  B18  1  0.500000  0.750445  0.916797  1
  B  B19  1  0.500000  0.791681  0.265946  1
  B  B20  1  0.500000  0.208601  0.734684  1
  B  B21  1  0.500000  0.291692  0.234220  1
  B  B22  1  0.500000  0.709306  0.765601  1
  B  B23  1  0.500000  0.630169  0.185686  1
  B  B24  1  0.500000  0.369961  0.814806  1
  B  B25  1  0.500000  0.129597  0.314009  1
  B  B26  1  0.500000  0.869775  0.685876  1
  B  B27  1  0.500000  0.982681  0.212724  1
  B  B28  1  0.500000  0.015821  0.787511  1
  B  B29  1  0.500000  0.483136  0.287012  1
  B  B30  1  0.500000  0.516751  0.712567  1
  B  B31  1  0.500000  0.599147  0.026990  1
  B  B32  1  0.500000  0.402440  0.972630  1
  B  B33  1  0.500000  0.098320  0.473163  1
  B  B34  1  0.500000  0.901401  0.527669  1
  Ru  Ru35  1  0.000000  0.860773  0.819600  1
