# generated using pymatgen
data_Sc4MnAl3FeOs3
_symmetry_space_group_name_H-M   'P 1'
_cell_length_a   5.17782833
_cell_length_b   5.11713038
_cell_length_c   8.44917600
_cell_angle_alpha   90.00000000
_cell_angle_beta   90.00000000
_cell_angle_gamma   119.31255084
_symmetry_Int_Tables_number   1
_chemical_formula_structural   Sc4MnAl3FeOs3
_chemical_formula_sum   'Sc4 Mn1 Al3 Fe1 Os3'
_cell_volume   195.20281245
_cell_formula_units_Z   1
loop_
 _symmetry_equiv_pos_site_id
 _symmetry_equiv_pos_as_xyz
  1  'x, y, z'
loop_
 _atom_site_type_symbol
 _atom_site_label
 _atom_site_symmetry_multiplicity
 _atom_site_fract_x
 _atom_site_fract_y
 _atom_site_fract_z
 _atom_site_occupancy
  Sc  Sc0  1  0.661023  0.334365  0.683246  1
  Sc  Sc1  1  0.329204  0.664096  0.804093  1
  Sc  Sc2  1  0.329204  0.664096  0.195907  1
  Sc  Sc3  1  0.661023  0.334365  0.316754  1
  Mn  Mn4  1  0.846958  0.158625  0.000000  1
  Al  Al5  1  0.168802  0.834897  0.500000  1
  Al  Al6  1  0.349683  0.156467  0.000000  1
  Al  Al7  1  0.845649  0.653453  0.000000  1
  Fe  Fe8  1  0.170054  0.342850  0.500000  1
  Os  Os9  1  0.990396  0.012063  0.245703  1
  Os  Os10  1  0.990396  0.012063  0.754297  1
  Os  Os11  1  0.658165  0.832101  0.500000  1
