# generated using pymatgen
data_Y8Tc3B24Os
_symmetry_space_group_name_H-M   'P 1'
_cell_length_a   3.68025900
_cell_length_b   9.17451597
_cell_length_c   11.55729022
_cell_angle_alpha   89.94742689
_cell_angle_beta   90.00000000
_cell_angle_gamma   90.00000000
_symmetry_Int_Tables_number   1
_chemical_formula_structural   Y8Tc3B24Os
_chemical_formula_sum   'Y8 Tc3 B24 Os1'
_cell_volume   390.22705863
_cell_formula_units_Z   1
loop_
 _symmetry_equiv_pos_site_id
 _symmetry_equiv_pos_as_xyz
  1  'x, y, z'
loop_
 _atom_site_type_symbol
 _atom_site_label
 _atom_site_symmetry_multiplicity
 _atom_site_fract_x
 _atom_site_fract_y
 _atom_site_fract_z
 _atom_site_occupancy
  Y  Y0  1  0.000000  0.323591  0.413963  1
  Y  Y1  1  0.000000  0.675529  0.584653  1
  Y  Y2  1  0.000000  0.823259  0.087122  1
  Y  Y3  1  0.000000  0.177945  0.914359  1
  Y  Y4  1  0.000000  0.942795  0.370177  1
  Y  Y5  1  0.000000  0.058078  0.629990  1
  Y  Y6  1  0.000000  0.442824  0.129991  1
  Y  Y7  1  0.000000  0.556867  0.869547  1
  Tc  Tc8  1  0.000000  0.638458  0.320408  1
  Tc  Tc9  1  0.000000  0.361635  0.680007  1
  Tc  Tc10  1  0.000000  0.137901  0.178221  1
  B  B11  1  0.500000  0.553105  0.432745  1
  B  B12  1  0.500000  0.446708  0.567005  1
  B  B13  1  0.500000  0.053092  0.067138  1
  B  B14  1  0.500000  0.946233  0.932739  1
  B  B15  1  0.500000  0.748153  0.418686  1
  B  B16  1  0.500000  0.251477  0.581419  1
  B  B17  1  0.500000  0.248591  0.081460  1
  B  B18  1  0.500000  0.751657  0.918281  1
  B  B19  1  0.500000  0.791693  0.265656  1
  B  B20  1  0.500000  0.208659  0.734775  1
  B  B21  1  0.500000  0.291506  0.234608  1
  B  B22  1  0.500000  0.709282  0.765455  1
  B  B23  1  0.500000  0.631126  0.185787  1
  B  B24  1  0.500000  0.368759  0.814720  1
  B  B25  1  0.500000  0.130709  0.313792  1
  B  B26  1  0.500000  0.868868  0.685960  1
  B  B27  1  0.500000  0.982306  0.211749  1
  B  B28  1  0.500000  0.016488  0.788298  1
  B  B29  1  0.500000  0.482414  0.288165  1
  B  B30  1  0.500000  0.517172  0.711609  1
  B  B31  1  0.500000  0.602630  0.028350  1
  B  B32  1  0.500000  0.398473  0.971459  1
  B  B33  1  0.500000  0.102511  0.471583  1
  B  B34  1  0.500000  0.897658  0.528890  1
  Os  Os35  1  0.000000  0.861848  0.821234  1
