# generated using pymatgen
data_CaNd3Ni4(SnH)4
_symmetry_space_group_name_H-M   'P 1'
_cell_length_a   4.38785000
_cell_length_b   7.22921856
_cell_length_c   8.44904017
_cell_angle_alpha   90.27978474
_cell_angle_beta   90.00000000
_cell_angle_gamma   90.00000000
_symmetry_Int_Tables_number   1
_chemical_formula_structural   CaNd3Ni4(SnH)4
_chemical_formula_sum   'Ca1 Nd3 Ni4 Sn4 H4'
_cell_volume   268.00649836
_cell_formula_units_Z   1
loop_
 _symmetry_equiv_pos_site_id
 _symmetry_equiv_pos_as_xyz
  1  'x, y, z'
loop_
 _atom_site_type_symbol
 _atom_site_label
 _atom_site_symmetry_multiplicity
 _atom_site_fract_x
 _atom_site_fract_y
 _atom_site_fract_z
 _atom_site_occupancy
  Ca  Ca0  1  0.750000  0.013197  0.685385  1
  Nd  Nd1  1  0.250000  0.987423  0.315878  1
  Nd  Nd2  1  0.250000  0.486953  0.188360  1
  Nd  Nd3  1  0.750000  0.512740  0.810320  1
  Ni  Ni4  1  0.750000  0.777481  0.102529  1
  Ni  Ni5  1  0.250000  0.222489  0.901232  1
  Ni  Ni6  1  0.250000  0.721343  0.601194  1
  Ni  Ni7  1  0.750000  0.278805  0.396781  1
  Sn  Sn8  1  0.750000  0.654368  0.433248  1
  Sn  Sn9  1  0.250000  0.345350  0.567343  1
  Sn  Sn10  1  0.250000  0.847256  0.929741  1
  Sn  Sn11  1  0.750000  0.152689  0.066199  1
  H  H12  1  0.250000  0.441401  0.919186  1
  H  H13  1  0.750000  0.559055  0.080426  1
  H  H14  1  0.750000  0.061006  0.420555  1
  H  H15  1  0.250000  0.938446  0.581621  1
