# generated using pymatgen
data_Sm2Dy2ReB12Os
_symmetry_space_group_name_H-M   'P 1'
_cell_length_a   3.69294700
_cell_length_b   9.20563680
_cell_length_c   11.62856900
_cell_angle_alpha   90.12467904
_cell_angle_beta   90.00000000
_cell_angle_gamma   90.00000000
_symmetry_Int_Tables_number   1
_chemical_formula_structural   Sm2Dy2ReB12Os
_chemical_formula_sum   'Sm4 Dy4 Re2 B24 Os2'
_cell_volume   395.32306764
_cell_formula_units_Z   2
loop_
 _symmetry_equiv_pos_site_id
 _symmetry_equiv_pos_as_xyz
  1  'x, y, z'
loop_
 _atom_site_type_symbol
 _atom_site_label
 _atom_site_symmetry_multiplicity
 _atom_site_fract_x
 _atom_site_fract_y
 _atom_site_fract_z
 _atom_site_occupancy
  Sm  Sm0  1  0.000000  0.321124  0.412744  1
  Sm  Sm1  1  0.000000  0.678876  0.587256  1
  Sm  Sm2  1  0.000000  0.824119  0.085081  1
  Sm  Sm3  1  0.000000  0.175881  0.914919  1
  Dy  Dy4  1  0.000000  0.943348  0.370431  1
  Dy  Dy5  1  0.000000  0.056652  0.629569  1
  Dy  Dy6  1  0.000000  0.442324  0.129168  1
  Dy  Dy7  1  0.000000  0.557676  0.870832  1
  Re  Re8  1  0.000000  0.138932  0.180380  1
  Re  Re9  1  0.000000  0.861068  0.819620  1
  B  B10  1  0.500000  0.554705  0.431548  1
  B  B11  1  0.500000  0.445295  0.568452  1
  B  B12  1  0.500000  0.053994  0.068216  1
  B  B13  1  0.500000  0.946006  0.931784  1
  B  B14  1  0.500000  0.748826  0.417347  1
  B  B15  1  0.500000  0.251174  0.582653  1
  B  B16  1  0.500000  0.248809  0.082567  1
  B  B17  1  0.500000  0.751191  0.917433  1
  B  B18  1  0.500000  0.790100  0.266413  1
  B  B19  1  0.500000  0.209900  0.733587  1
  B  B20  1  0.500000  0.290881  0.234090  1
  B  B21  1  0.500000  0.709119  0.765910  1
  B  B22  1  0.500000  0.630300  0.186566  1
  B  B23  1  0.500000  0.369700  0.813434  1
  B  B24  1  0.500000  0.130789  0.314345  1
  B  B25  1  0.500000  0.869211  0.685655  1
  B  B26  1  0.500000  0.984045  0.213095  1
  B  B27  1  0.500000  0.015955  0.786905  1
  B  B28  1  0.500000  0.484294  0.287468  1
  B  B29  1  0.500000  0.515706  0.712532  1
  B  B30  1  0.500000  0.600956  0.028041  1
  B  B31  1  0.500000  0.399044  0.971959  1
  B  B32  1  0.500000  0.101656  0.472098  1
  B  B33  1  0.500000  0.898344  0.527902  1
  Os  Os34  1  0.000000  0.638455  0.320736  1
  Os  Os35  1  0.000000  0.361545  0.679264  1
