# generated using pymatgen
data_Sr19TbAu16
_symmetry_space_group_name_H-M   'P 1'
_cell_length_a   8.26229300
_cell_length_b   8.50034656
_cell_length_c   16.08806600
_cell_angle_alpha   90.00000000
_cell_angle_beta   90.00000000
_cell_angle_gamma   90.04450690
_symmetry_Int_Tables_number   1
_chemical_formula_structural   Sr19TbAu16
_chemical_formula_sum   'Sr19 Tb1 Au16'
_cell_volume   1129.90240427
_cell_formula_units_Z   1
loop_
 _symmetry_equiv_pos_site_id
 _symmetry_equiv_pos_as_xyz
  1  'x, y, z'
loop_
 _atom_site_type_symbol
 _atom_site_label
 _atom_site_symmetry_multiplicity
 _atom_site_fract_x
 _atom_site_fract_y
 _atom_site_fract_z
 _atom_site_occupancy
  Sr  Sr0  1  0.000475  0.177171  0.401333  1
  Sr  Sr1  1  0.835370  0.666824  0.379442  1
  Sr  Sr2  1  0.496875  0.322155  0.098862  1
  Sr  Sr3  1  0.163358  0.337667  0.616455  1
  Sr  Sr4  1  0.338316  0.830791  0.378456  1
  Sr  Sr5  1  0.163358  0.337667  0.883545  1
  Sr  Sr6  1  0.338316  0.830791  0.121544  1
  Sr  Sr7  1  0.496875  0.322155  0.401138  1
  Sr  Sr8  1  0.827693  0.507819  0.750000  1
  Sr  Sr9  1  0.000850  0.823373  0.900352  1
  Sr  Sr10  1  0.000850  0.823373  0.599648  1
  Sr  Sr11  1  0.504827  0.681089  0.600133  1
  Sr  Sr12  1  0.663252  0.166360  0.619481  1
  Sr  Sr13  1  0.325775  0.993237  0.750000  1
  Sr  Sr14  1  0.663252  0.166360  0.880519  1
  Sr  Sr15  1  0.677229  0.018657  0.250000  1
  Sr  Sr16  1  0.835370  0.666824  0.120558  1
  Sr  Sr17  1  0.504827  0.681089  0.899867  1
  Sr  Sr18  1  0.000475  0.177171  0.098667  1
  Tb  Tb19  1  0.175409  0.485672  0.250000  1
  Au  Au20  1  0.813678  0.379094  0.250000  1
  Au  Au21  1  0.455976  0.384319  0.750000  1
  Au  Au22  1  0.708466  0.870227  0.750000  1
  Au  Au23  1  0.821503  0.477242  0.547177  1
  Au  Au24  1  0.673090  0.977604  0.048005  1
  Au  Au25  1  0.821503  0.477242  0.952823  1
  Au  Au26  1  0.173796  0.516120  0.439435  1
  Au  Au27  1  0.173796  0.516120  0.060565  1
  Au  Au28  1  0.208101  0.629839  0.750000  1
  Au  Au29  1  0.282568  0.142641  0.250000  1
  Au  Au30  1  0.526874  0.594378  0.250000  1
  Au  Au31  1  0.046377  0.876710  0.250000  1
  Au  Au32  1  0.324712  0.024120  0.953913  1
  Au  Au33  1  0.959005  0.116371  0.750000  1
  Au  Au34  1  0.673090  0.977604  0.451995  1
  Au  Au35  1  0.324712  0.024120  0.546087  1
