# generated using pymatgen
data_Eu4Ga4Si3Ge
_symmetry_space_group_name_H-M   'P 1'
_cell_length_a   4.23426700
_cell_length_b   4.23426743
_cell_length_c   17.64612600
_cell_angle_alpha   90.00000000
_cell_angle_beta   90.00000000
_cell_angle_gamma   120.00000443
_symmetry_Int_Tables_number   1
_chemical_formula_structural   Eu4Ga4Si3Ge
_chemical_formula_sum   'Eu4 Ga4 Si3 Ge1'
_cell_volume   273.99113559
_cell_formula_units_Z   1
loop_
 _symmetry_equiv_pos_site_id
 _symmetry_equiv_pos_as_xyz
  1  'x, y, z'
loop_
 _atom_site_type_symbol
 _atom_site_label
 _atom_site_symmetry_multiplicity
 _atom_site_fract_x
 _atom_site_fract_y
 _atom_site_fract_z
 _atom_site_occupancy
  Eu  Eu0  1  0.000000  0.000000  0.500012  1
  Eu  Eu1  1  0.000000  0.000000  0.999547  1
  Eu  Eu2  1  0.000000  0.000000  0.250396  1
  Eu  Eu3  1  0.000000  0.000000  0.750000  1
  Ga  Ga4  1  0.666667  0.333333  0.353185  1
  Ga  Ga5  1  0.333333  0.666667  0.646808  1
  Ga  Ga6  1  0.333333  0.666667  0.853164  1
  Ga  Ga7  1  0.666667  0.333333  0.147635  1
  Si  Si8  1  0.333333  0.666667  0.386838  1
  Si  Si9  1  0.666667  0.333333  0.613140  1
  Si  Si10  1  0.666667  0.333333  0.886887  1
  Ge  Ge11  1  0.333333  0.666667  0.112389  1
