# generated using pymatgen
data_Ta3Al2FeN
_symmetry_space_group_name_H-M   'P 1'
_cell_length_a   8.16217757
_cell_length_b   8.16217851
_cell_length_c   8.16217700
_cell_angle_alpha   60.00000208
_cell_angle_beta   59.99999825
_cell_angle_gamma   60.00000033
_symmetry_Int_Tables_number   1
_chemical_formula_structural   Ta3Al2FeN
_chemical_formula_sum   'Ta12 Al8 Fe4 N4'
_cell_volume   384.50601697
_cell_formula_units_Z   4
loop_
 _symmetry_equiv_pos_site_id
 _symmetry_equiv_pos_as_xyz
  1  'x, y, z'
loop_
 _atom_site_type_symbol
 _atom_site_label
 _atom_site_symmetry_multiplicity
 _atom_site_fract_x
 _atom_site_fract_y
 _atom_site_fract_z
 _atom_site_occupancy
  Ta  Ta0  1  0.557221  0.942779  0.557221  1
  Ta  Ta1  1  0.307221  0.692779  0.692779  1
  Ta  Ta2  1  0.692779  0.307221  0.307221  1
  Ta  Ta3  1  0.307221  0.692779  0.307221  1
  Ta  Ta4  1  0.692779  0.692779  0.307221  1
  Ta  Ta5  1  0.307221  0.307221  0.692779  1
  Ta  Ta6  1  0.557221  0.557221  0.942779  1
  Ta  Ta7  1  0.942779  0.557221  0.557221  1
  Ta  Ta8  1  0.557221  0.942779  0.942779  1
  Ta  Ta9  1  0.942779  0.942779  0.557221  1
  Ta  Ta10  1  0.692779  0.307221  0.692779  1
  Ta  Ta11  1  0.942779  0.557221  0.942779  1
  Al  Al12  1  0.917957  0.917957  0.917957  1
  Al  Al13  1  0.003870  0.332043  0.332043  1
  Al  Al14  1  0.332043  0.003870  0.332043  1
  Al  Al15  1  0.332043  0.332043  0.003870  1
  Al  Al16  1  0.917957  0.246130  0.917957  1
  Al  Al17  1  0.917957  0.917957  0.246130  1
  Al  Al18  1  0.246130  0.917957  0.917957  1
  Al  Al19  1  0.332043  0.332043  0.332043  1
  Fe  Fe20  1  0.125000  0.125000  0.125000  1
  Fe  Fe21  1  0.625000  0.125000  0.125000  1
  Fe  Fe22  1  0.125000  0.625000  0.125000  1
  Fe  Fe23  1  0.125000  0.125000  0.625000  1
  N  N24  1  0.625000  0.625000  0.625000  1
  N  N25  1  0.125000  0.625000  0.625000  1
  N  N26  1  0.625000  0.125000  0.625000  1
  N  N27  1  0.625000  0.625000  0.125000  1
