# generated using pymatgen
data_Li4Y3Sn4
_symmetry_space_group_name_H-M   'P 1'
_cell_length_a   4.62041070
_cell_length_b   7.04524791
_cell_length_c   8.64335799
_cell_angle_alpha   114.05118988
_cell_angle_beta   105.50253826
_cell_angle_gamma   90.00000636
_symmetry_Int_Tables_number   1
_chemical_formula_structural   Li4Y3Sn4
_chemical_formula_sum   'Li4 Y3 Sn4'
_cell_volume   245.67918215
_cell_formula_units_Z   1
loop_
 _symmetry_equiv_pos_site_id
 _symmetry_equiv_pos_as_xyz
  1  'x, y, z'
loop_
 _atom_site_type_symbol
 _atom_site_label
 _atom_site_symmetry_multiplicity
 _atom_site_fract_x
 _atom_site_fract_y
 _atom_site_fract_z
 _atom_site_occupancy
  Li  Li0  1  0.326645  0.017640  0.653289  1
  Li  Li1  1  0.673355  0.982360  0.346711  1
  Li  Li2  1  0.326645  0.635649  0.653289  1
  Li  Li3  1  0.673355  0.364351  0.346711  1
  Y  Y4  1  0.872005  0.372005  0.744009  1
  Y  Y5  1  0.127995  0.627995  0.255991  1
  Y  Y6  1  0.000000  0.000000  0.000000  1
  Sn  Sn7  1  0.212840  0.212840  0.425678  1
  Sn  Sn8  1  0.787160  0.787160  0.574322  1
  Sn  Sn9  1  0.500000  0.297777  0.000000  1
  Sn  Sn10  1  0.500000  0.702223  0.000000  1
