# generated using pymatgen
data_YErFe3Tc14C3
_symmetry_space_group_name_H-M   'P 1'
_cell_length_a   6.89294005
_cell_length_b   6.89293991
_cell_length_c   6.89293862
_cell_angle_alpha   82.44269601
_cell_angle_beta   82.44269732
_cell_angle_gamma   82.44268404
_symmetry_Int_Tables_number   1
_chemical_formula_structural   YErFe3Tc14C3
_chemical_formula_sum   'Y1 Er1 Fe3 Tc14 C3'
_cell_volume   319.65546018
_cell_formula_units_Z   1
loop_
 _symmetry_equiv_pos_site_id
 _symmetry_equiv_pos_as_xyz
  1  'x, y, z'
loop_
 _atom_site_type_symbol
 _atom_site_label
 _atom_site_symmetry_multiplicity
 _atom_site_fract_x
 _atom_site_fract_y
 _atom_site_fract_z
 _atom_site_occupancy
  Y  Y0  1  0.651752  0.651752  0.651752  1
  Er  Er1  1  0.348115  0.348115  0.348115  1
  Fe  Fe2  1  0.000090  0.000090  0.499975  1
  Fe  Fe3  1  0.499975  0.000090  0.000090  1
  Fe  Fe4  1  0.000090  0.499975  0.000090  1
  Tc  Tc5  1  0.724286  0.275452  0.000247  1
  Tc  Tc6  1  0.000247  0.724286  0.275452  1
  Tc  Tc7  1  0.275452  0.000247  0.724286  1
  Tc  Tc8  1  0.000247  0.275452  0.724286  1
  Tc  Tc9  1  0.724286  0.000247  0.275452  1
  Tc  Tc10  1  0.275452  0.724286  0.000247  1
  Tc  Tc11  1  0.348394  0.860895  0.348394  1
  Tc  Tc12  1  0.348394  0.348394  0.860895  1
  Tc  Tc13  1  0.860895  0.348394  0.348394  1
  Tc  Tc14  1  0.651164  0.139687  0.651164  1
  Tc  Tc15  1  0.651164  0.651164  0.139687  1
  Tc  Tc16  1  0.139687  0.651164  0.651164  1
  Tc  Tc17  1  0.899128  0.899128  0.899128  1
  Tc  Tc18  1  0.101177  0.101177  0.101177  1
  C  C19  1  0.499459  0.499459  0.001086  1
  C  C20  1  0.001086  0.499459  0.499459  1
  C  C21  1  0.499459  0.001086  0.499459  1
