# generated using pymatgen
data_Zr2Sc3Si12Ir19
_symmetry_space_group_name_H-M   'P 1'
_cell_length_a   12.74953100
_cell_length_b   12.74953148
_cell_length_c   3.92345500
_cell_angle_alpha   90.00000000
_cell_angle_beta   90.00000000
_cell_angle_gamma   120.00000134
_symmetry_Int_Tables_number   1
_chemical_formula_structural   Zr2Sc3Si12Ir19
_chemical_formula_sum   'Zr2 Sc3 Si12 Ir19'
_cell_volume   552.31614259
_cell_formula_units_Z   1
loop_
 _symmetry_equiv_pos_site_id
 _symmetry_equiv_pos_as_xyz
  1  'x, y, z'
loop_
 _atom_site_type_symbol
 _atom_site_label
 _atom_site_symmetry_multiplicity
 _atom_site_fract_x
 _atom_site_fract_y
 _atom_site_fract_z
 _atom_site_occupancy
  Zr  Zr0  1  0.333333  0.666667  0.000000  1
  Zr  Zr1  1  0.666667  0.333333  0.000000  1
  Sc  Sc2  1  0.815244  0.000000  0.500000  1
  Sc  Sc3  1  0.000000  0.815244  0.500000  1
  Sc  Sc4  1  0.184756  0.184756  0.500000  1
  Si  Si5  1  0.178380  0.000000  0.000000  1
  Si  Si6  1  0.000000  0.178380  0.000000  1
  Si  Si7  1  0.821620  0.821620  0.000000  1
  Si  Si8  1  0.169660  0.481615  0.500000  1
  Si  Si9  1  0.518385  0.688044  0.500000  1
  Si  Si10  1  0.311956  0.830340  0.500000  1
  Si  Si11  1  0.688044  0.518385  0.500000  1
  Si  Si12  1  0.830340  0.311956  0.500000  1
  Si  Si13  1  0.481615  0.169660  0.500000  1
  Si  Si14  1  0.636010  0.000000  0.000000  1
  Si  Si15  1  0.000000  0.636010  0.000000  1
  Si  Si16  1  0.363990  0.363990  0.000000  1
  Ir  Ir17  1  0.448362  0.000000  0.000000  1
  Ir  Ir18  1  0.000000  0.448362  0.000000  1
  Ir  Ir19  1  0.551638  0.551638  0.000000  1
  Ir  Ir20  1  0.361631  0.489918  0.500000  1
  Ir  Ir21  1  0.510082  0.871713  0.500000  1
  Ir  Ir22  1  0.128287  0.638369  0.500000  1
  Ir  Ir23  1  0.871713  0.510082  0.500000  1
  Ir  Ir24  1  0.638369  0.128287  0.500000  1
  Ir  Ir25  1  0.489918  0.361631  0.500000  1
  Ir  Ir26  1  0.182457  0.376114  0.000000  1
  Ir  Ir27  1  0.623886  0.806343  0.000000  1
  Ir  Ir28  1  0.193657  0.817543  0.000000  1
  Ir  Ir29  1  0.806343  0.623886  0.000000  1
  Ir  Ir30  1  0.817543  0.193657  0.000000  1
  Ir  Ir31  1  0.376114  0.182457  0.000000  1
  Ir  Ir32  1  0.281054  0.000000  0.500000  1
  Ir  Ir33  1  0.000000  0.281054  0.500000  1
  Ir  Ir34  1  0.718946  0.718946  0.500000  1
  Ir  Ir35  1  0.000000  0.000000  0.000000  1
