# generated using pymatgen
data_SmDy3Lu2(Si3Ru)8
_symmetry_space_group_name_H-M   'P 1'
_cell_length_a   10.10692837
_cell_length_b   10.10692730
_cell_length_c   8.14603017
_cell_angle_alpha   90.06944652
_cell_angle_beta   89.93054606
_cell_angle_gamma   132.52872425
_symmetry_Int_Tables_number   1
_chemical_formula_structural   SmDy3Lu2(Si3Ru)8
_chemical_formula_sum   'Sm1 Dy3 Lu2 Si24 Ru8'
_cell_volume   613.21848406
_cell_formula_units_Z   1
loop_
 _symmetry_equiv_pos_site_id
 _symmetry_equiv_pos_as_xyz
  1  'x, y, z'
loop_
 _atom_site_type_symbol
 _atom_site_label
 _atom_site_symmetry_multiplicity
 _atom_site_fract_x
 _atom_site_fract_y
 _atom_site_fract_z
 _atom_site_occupancy
  Sm  Sm0  1  0.502734  0.002734  0.750000  1
  Dy  Dy1  1  0.997719  0.497719  0.250000  1
  Dy  Dy2  1  0.497301  0.997301  0.250000  1
  Dy  Dy3  1  0.002788  0.502788  0.750000  1
  Lu  Lu4  1  0.500021  0.500027  0.499914  1
  Lu  Lu5  1  0.000027  0.000021  0.000086  1
  Si  Si6  1  0.795492  0.206234  0.498966  1
  Si  Si7  1  0.293928  0.704575  0.001043  1
  Si  Si8  1  0.204575  0.793928  0.498957  1
  Si  Si9  1  0.706234  0.295492  0.001034  1
  Si  Si10  1  0.332059  0.332017  0.832797  1
  Si  Si11  1  0.667981  0.668035  0.167030  1
  Si  Si12  1  0.168035  0.167981  0.332970  1
  Si  Si13  1  0.832017  0.832059  0.667203  1
  Si  Si14  1  0.121229  0.887277  0.728710  1
  Si  Si15  1  0.112541  0.878958  0.271389  1
  Si  Si16  1  0.611186  0.377471  0.228500  1
  Si  Si17  1  0.622600  0.388501  0.770788  1
  Si  Si18  1  0.877471  0.111186  0.271500  1
  Si  Si19  1  0.888501  0.122600  0.729212  1
  Si  Si20  1  0.387277  0.621229  0.771290  1
  Si  Si21  1  0.378958  0.612541  0.228611  1
  Si  Si22  1  0.345683  0.112669  0.503758  1
  Si  Si23  1  0.887870  0.655420  0.495329  1
  Si  Si24  1  0.387331  0.153794  0.006203  1
  Si  Si25  1  0.844740  0.612264  0.994890  1
  Si  Si26  1  0.653794  0.887331  0.493797  1
  Si  Si27  1  0.112264  0.344740  0.505110  1
  Si  Si28  1  0.612669  0.845683  0.996242  1
  Si  Si29  1  0.155420  0.387870  0.004671  1
  Ru  Ru30  1  0.670039  0.333738  0.498566  1
  Ru  Ru31  1  0.166182  0.829872  0.000670  1
  Ru  Ru32  1  0.329872  0.666182  0.499330  1
  Ru  Ru33  1  0.833738  0.170039  0.001434  1
  Ru  Ru34  1  0.126063  0.125923  0.627268  1
  Ru  Ru35  1  0.873875  0.873862  0.372965  1
  Ru  Ru36  1  0.373862  0.373875  0.127035  1
  Ru  Ru37  1  0.625923  0.626063  0.872732  1
