# generated using pymatgen
data_Hf4In2PtAu3
_symmetry_space_group_name_H-M   'P 1'
_cell_length_a   7.57176263
_cell_length_b   7.57176280
_cell_length_c   7.00808631
_cell_angle_alpha   90.26318376
_cell_angle_beta   90.26318253
_cell_angle_gamma   90.19864872
_symmetry_Int_Tables_number   1
_chemical_formula_structural   Hf4In2PtAu3
_chemical_formula_sum   'Hf8 In4 Pt2 Au6'
_cell_volume   401.77381346
_cell_formula_units_Z   2
loop_
 _symmetry_equiv_pos_site_id
 _symmetry_equiv_pos_as_xyz
  1  'x, y, z'
loop_
 _atom_site_type_symbol
 _atom_site_label
 _atom_site_symmetry_multiplicity
 _atom_site_fract_x
 _atom_site_fract_y
 _atom_site_fract_z
 _atom_site_occupancy
  Hf  Hf0  1  0.148975  0.148975  0.006645  1
  Hf  Hf1  1  0.851025  0.851025  0.993355  1
  Hf  Hf2  1  0.643706  0.356294  0.500000  1
  Hf  Hf3  1  0.356294  0.643706  0.500000  1
  Hf  Hf4  1  0.688091  0.311909  0.000000  1
  Hf  Hf5  1  0.311909  0.688091  0.000000  1
  Hf  Hf6  1  0.801522  0.801522  0.505417  1
  Hf  Hf7  1  0.198478  0.198478  0.494583  1
  In  In8  1  0.500359  0.003715  0.248462  1
  In  In9  1  0.499641  0.996285  0.751538  1
  In  In10  1  0.003715  0.500359  0.248462  1
  In  In11  1  0.996285  0.499641  0.751538  1
  Pt  Pt12  1  0.371068  0.371068  0.213581  1
  Pt  Pt13  1  0.628932  0.628932  0.786419  1
  Au  Au14  1  0.632252  0.632252  0.203220  1
  Au  Au15  1  0.869892  0.131321  0.707708  1
  Au  Au16  1  0.868679  0.130108  0.292292  1
  Au  Au17  1  0.367748  0.367748  0.796780  1
  Au  Au18  1  0.130108  0.868679  0.292292  1
  Au  Au19  1  0.131321  0.869892  0.707708  1
