# generated using pymatgen
data_HfZrAlGa5
_symmetry_space_group_name_H-M   'P 1'
_cell_length_a   9.16244887
_cell_length_b   9.16244854
_cell_length_c   9.16244908
_cell_angle_alpha   154.88217256
_cell_angle_beta   154.80924695
_cell_angle_gamma   35.87156479
_symmetry_Int_Tables_number   1
_chemical_formula_structural   HfZrAlGa5
_chemical_formula_sum   'Hf1 Zr1 Al1 Ga5'
_cell_volume   138.80016020
_cell_formula_units_Z   1
loop_
 _symmetry_equiv_pos_site_id
 _symmetry_equiv_pos_as_xyz
  1  'x, y, z'
loop_
 _atom_site_type_symbol
 _atom_site_label
 _atom_site_symmetry_multiplicity
 _atom_site_fract_x
 _atom_site_fract_y
 _atom_site_fract_z
 _atom_site_occupancy
  Hf  Hf0  1  0.881366  0.881366  0.000000  1
  Zr  Zr1  1  0.118368  0.118368  0.000000  1
  Al  Al2  1  0.251272  0.751272  0.500000  1
  Ga  Ga3  1  0.374185  0.374185  0.000000  1
  Ga  Ga4  1  0.498964  0.998964  0.500000  1
  Ga  Ga5  1  0.625920  0.625920  0.000000  1
  Ga  Ga6  1  0.751349  0.251349  0.500000  1
  Ga  Ga7  1  0.998575  0.498575  0.500000  1
