# generated using pymatgen
data_K10LaInSn11
_symmetry_space_group_name_H-M   'P 1'
_cell_length_a   10.53759547
_cell_length_b   10.53759629
_cell_length_c   10.56585219
_cell_angle_alpha   109.56250859
_cell_angle_beta   109.56250629
_cell_angle_gamma   108.98546301
_symmetry_Int_Tables_number   1
_chemical_formula_structural   K10LaInSn11
_chemical_formula_sum   'K10 La1 In1 Sn11'
_cell_volume   906.50276020
_cell_formula_units_Z   1
loop_
 _symmetry_equiv_pos_site_id
 _symmetry_equiv_pos_as_xyz
  1  'x, y, z'
loop_
 _atom_site_type_symbol
 _atom_site_label
 _atom_site_symmetry_multiplicity
 _atom_site_fract_x
 _atom_site_fract_y
 _atom_site_fract_z
 _atom_site_occupancy
  K  K0  1  0.249297  0.499321  0.749691  1
  K  K1  1  0.401674  0.401674  0.401981  1
  K  K2  1  0.999436  0.599300  0.999696  1
  K  K3  1  0.599300  0.999436  0.999696  1
  K  K4  1  0.998824  0.998824  0.597958  1
  K  K5  1  0.750451  0.501596  0.250498  1
  K  K6  1  0.250018  0.749638  0.500454  1
  K  K7  1  0.749638  0.250018  0.500454  1
  K  K8  1  0.499321  0.249297  0.749691  1
  K  K9  1  0.501596  0.750451  0.250498  1
  La  La10  1  0.997650  0.997650  0.998531  1
  In  In11  1  0.645860  0.645860  0.825827  1
  Sn  Sn12  1  0.000919  0.177711  0.349507  1
  Sn  Sn13  1  0.177711  0.000919  0.349507  1
  Sn  Sn14  1  0.824100  0.171843  0.822533  1
  Sn  Sn15  1  0.171843  0.824100  0.822533  1
  Sn  Sn16  1  0.831099  0.653253  0.653287  1
  Sn  Sn17  1  0.000005  0.347223  0.176701  1
  Sn  Sn18  1  0.347223  0.000005  0.176701  1
  Sn  Sn19  1  0.653253  0.831099  0.653287  1
  Sn  Sn20  1  0.176696  0.348334  0.000439  1
  Sn  Sn21  1  0.348334  0.176696  0.000439  1
  Sn  Sn22  1  0.825753  0.825753  0.170093  1
