# generated using pymatgen
data_Er4HfSc3Rh4
_symmetry_space_group_name_H-M   'P 1'
_cell_length_a   4.48417100
_cell_length_b   6.99664793
_cell_length_c   8.33096295
_cell_angle_alpha   89.16908577
_cell_angle_beta   90.00000000
_cell_angle_gamma   90.00000000
_symmetry_Int_Tables_number   1
_chemical_formula_structural   Er4HfSc3Rh4
_chemical_formula_sum   'Er4 Hf1 Sc3 Rh4'
_cell_volume   261.34952726
_cell_formula_units_Z   1
loop_
 _symmetry_equiv_pos_site_id
 _symmetry_equiv_pos_as_xyz
  1  'x, y, z'
loop_
 _atom_site_type_symbol
 _atom_site_label
 _atom_site_symmetry_multiplicity
 _atom_site_fract_x
 _atom_site_fract_y
 _atom_site_fract_z
 _atom_site_occupancy
  Er  Er0  1  0.250000  0.980784  0.324394  1
  Er  Er1  1  0.250000  0.479548  0.176046  1
  Er  Er2  1  0.750000  0.017764  0.672453  1
  Er  Er3  1  0.750000  0.520885  0.826645  1
  Hf  Hf4  1  0.750000  0.139162  0.072402  1
  Sc  Sc5  1  0.250000  0.356047  0.575751  1
  Sc  Sc6  1  0.250000  0.861661  0.926424  1
  Sc  Sc7  1  0.750000  0.639785  0.426228  1
  Rh  Rh8  1  0.250000  0.243342  0.913182  1
  Rh  Rh9  1  0.250000  0.742859  0.597497  1
  Rh  Rh10  1  0.750000  0.763332  0.095032  1
  Rh  Rh11  1  0.750000  0.254831  0.393947  1
