# generated using pymatgen
data_PdBr30
_symmetry_space_group_name_H-M   'P 1'
_cell_length_a   13.02059097
_cell_length_b   15.73893793
_cell_length_c   14.59383226
_cell_angle_alpha   141.37816510
_cell_angle_beta   116.58988276
_cell_angle_gamma   56.04320820
_symmetry_Int_Tables_number   1
_chemical_formula_structural   PdBr30
_chemical_formula_sum   'Pd1 Br30'
_cell_volume   1548.02067810
_cell_formula_units_Z   1
loop_
 _symmetry_equiv_pos_site_id
 _symmetry_equiv_pos_as_xyz
  1  'x, y, z'
loop_
 _atom_site_type_symbol
 _atom_site_label
 _atom_site_symmetry_multiplicity
 _atom_site_fract_x
 _atom_site_fract_y
 _atom_site_fract_z
 _atom_site_occupancy
  Pd  Pd0  1  0.000000  0.000014  0.000015  1
  Br  Br1  1  0.211006  0.937348  0.092437  1
  Br  Br2  1  0.788996  0.062662  0.907571  1
  Br  Br3  1  0.170870  0.141298  0.866308  1
  Br  Br4  1  0.829137  0.858687  0.133677  1
  Br  Br5  1  0.010388  0.317286  0.040530  1
  Br  Br6  1  0.989625  0.682715  0.959469  1
  Br  Br7  1  0.930866  0.240455  0.252120  1
  Br  Br8  1  0.069143  0.759569  0.747924  1
  Br  Br9  1  0.179838  0.013471  0.310747  1
  Br  Br10  1  0.820169  0.986534  0.689257  1
  Br  Br11  1  0.665973  0.356393  0.508859  1
  Br  Br12  1  0.334025  0.643595  0.491128  1
  Br  Br13  1  0.634123  0.667945  0.304463  1
  Br  Br14  1  0.365866  0.332047  0.695528  1
  Br  Br15  1  0.622335  0.095946  0.314936  1
  Br  Br16  1  0.377667  0.904037  0.685050  1
  Br  Br17  1  0.908921  0.223457  0.530322  1
  Br  Br18  1  0.091086  0.776548  0.469681  1
  Br  Br19  1  0.501632  0.202373  0.506756  1
  Br  Br20  1  0.498354  0.797628  0.493229  1
  Br  Br21  1  0.333675  0.409425  0.339469  1
  Br  Br22  1  0.666266  0.590586  0.660519  1
  Br  Br23  1  0.785480  0.448435  0.269053  1
  Br  Br24  1  0.214516  0.551570  0.730979  1
  Br  Br25  1  0.790337  0.479263  0.991680  1
  Br  Br26  1  0.209682  0.520722  0.008310  1
  Br  Br27  1  0.594481  0.628664  0.976232  1
  Br  Br28  1  0.405535  0.371316  0.023744  1
  Br  Br29  1  0.865307  0.900288  0.464399  1
  Br  Br30  1  0.134701  0.099722  0.535610  1
