# generated using pymatgen
data_Y5Ho2Tm13Pb16
_symmetry_space_group_name_H-M   'P 1'
_cell_length_a   8.15725348
_cell_length_b   15.50892615
_cell_length_c   8.21786176
_cell_angle_alpha   90.00547530
_cell_angle_beta   89.87862096
_cell_angle_gamma   90.09562463
_symmetry_Int_Tables_number   1
_chemical_formula_structural   Y5Ho2Tm13Pb16
_chemical_formula_sum   'Y5 Ho2 Tm13 Pb16'
_cell_volume   1039.63989372
_cell_formula_units_Z   1
loop_
 _symmetry_equiv_pos_site_id
 _symmetry_equiv_pos_as_xyz
  1  'x, y, z'
loop_
 _atom_site_type_symbol
 _atom_site_label
 _atom_site_symmetry_multiplicity
 _atom_site_fract_x
 _atom_site_fract_y
 _atom_site_fract_z
 _atom_site_occupancy
  Y  Y0  1  0.963545  0.900267  0.823386  1
  Y  Y1  1  0.536643  0.099559  0.323710  1
  Y  Y2  1  0.037011  0.400307  0.176162  1
  Y  Y3  1  0.537063  0.400388  0.323962  1
  Y  Y4  1  0.036603  0.099541  0.176433  1
  Ho  Ho5  1  0.463645  0.900437  0.676349  1
  Ho  Ho6  1  0.963211  0.599756  0.823525  1
  Tm  Tm7  1  0.623188  0.621559  0.158239  1
  Tm  Tm8  1  0.123714  0.878408  0.341902  1
  Tm  Tm9  1  0.376668  0.121474  0.841671  1
  Tm  Tm10  1  0.877140  0.378657  0.658564  1
  Tm  Tm11  1  0.377226  0.378868  0.841360  1
  Tm  Tm12  1  0.876479  0.121512  0.658305  1
  Tm  Tm13  1  0.623407  0.878237  0.158080  1
  Tm  Tm14  1  0.123211  0.621517  0.341943  1
  Tm  Tm15  1  0.462066  0.600024  0.675685  1
  Tm  Tm16  1  0.791291  0.749690  0.495419  1
  Tm  Tm17  1  0.291795  0.749773  0.004749  1
  Tm  Tm18  1  0.208362  0.250118  0.504903  1
  Tm  Tm19  1  0.708283  0.250098  0.995011  1
  Pb  Pb20  1  0.718097  0.457371  0.966076  1
  Pb  Pb21  1  0.217653  0.042591  0.534738  1
  Pb  Pb22  1  0.282793  0.957024  0.033974  1
  Pb  Pb23  1  0.781030  0.543026  0.467242  1
  Pb  Pb24  1  0.282386  0.543096  0.033060  1
  Pb  Pb25  1  0.782327  0.957038  0.465722  1
  Pb  Pb26  1  0.717447  0.042692  0.965700  1
  Pb  Pb27  1  0.218253  0.457819  0.534645  1
  Pb  Pb28  1  0.428842  0.750003  0.373103  1
  Pb  Pb29  1  0.928915  0.749939  0.127556  1
  Pb  Pb30  1  0.571073  0.250095  0.627479  1
  Pb  Pb31  1  0.071072  0.250011  0.872187  1
  Pb  Pb32  1  0.650807  0.749417  0.845066  1
  Pb  Pb33  1  0.152182  0.749747  0.653961  1
  Pb  Pb34  1  0.348328  0.250030  0.153743  1
  Pb  Pb35  1  0.848242  0.249913  0.346392  1
