# generated using pymatgen
data_Tm5PaMnTe2
_symmetry_space_group_name_H-M   'P 1'
_cell_length_a   3.84293800
_cell_length_b   8.37598198
_cell_length_c   8.39420900
_cell_angle_alpha   119.92819515
_cell_angle_beta   90.00000000
_cell_angle_gamma   90.00000000
_symmetry_Int_Tables_number   1
_chemical_formula_structural   Tm5PaMnTe2
_chemical_formula_sum   'Tm5 Pa1 Mn1 Te2'
_cell_volume   234.16571170
_cell_formula_units_Z   1
loop_
 _symmetry_equiv_pos_site_id
 _symmetry_equiv_pos_as_xyz
  1  'x, y, z'
loop_
 _atom_site_type_symbol
 _atom_site_label
 _atom_site_symmetry_multiplicity
 _atom_site_fract_x
 _atom_site_fract_y
 _atom_site_fract_z
 _atom_site_occupancy
  Tm  Tm0  1  0.500000  0.573990  0.000000  1
  Tm  Tm1  1  0.500000  0.393234  0.387276  1
  Tm  Tm2  1  0.500000  0.005957  0.612724  1
  Tm  Tm3  1  0.000000  0.758338  0.769935  1
  Tm  Tm4  1  0.000000  0.988403  0.230065  1
  Pa  Pa5  1  0.000000  0.222158  0.000000  1
  Mn  Mn6  1  0.500000  0.054374  0.000000  1
  Te  Te7  1  0.000000  0.328231  0.653015  1
  Te  Te8  1  0.000000  0.675216  0.346985  1
