# generated using pymatgen
data_Y5ScSi11GePt8
_symmetry_space_group_name_H-M   'P 1'
_cell_length_a   4.25200000
_cell_length_b   8.54568973
_cell_length_c   12.93173769
_cell_angle_alpha   80.33466852
_cell_angle_beta   90.00000000
_cell_angle_gamma   90.00000000
_symmetry_Int_Tables_number   1
_chemical_formula_structural   Y5ScSi11GePt8
_chemical_formula_sum   'Y5 Sc1 Si11 Ge1 Pt8'
_cell_volume   463.22115442
_cell_formula_units_Z   1
loop_
 _symmetry_equiv_pos_site_id
 _symmetry_equiv_pos_as_xyz
  1  'x, y, z'
loop_
 _atom_site_type_symbol
 _atom_site_label
 _atom_site_symmetry_multiplicity
 _atom_site_fract_x
 _atom_site_fract_y
 _atom_site_fract_z
 _atom_site_occupancy
  Y  Y0  1  0.250000  0.763909  0.439881  1
  Y  Y1  1  0.250000  0.584291  0.184862  1
  Y  Y2  1  0.750000  0.416863  0.813611  1
  Y  Y3  1  0.750000  0.926856  0.815230  1
  Y  Y4  1  0.250000  0.075316  0.184657  1
  Sc  Sc5  1  0.750000  0.233292  0.563192  1
  Si  Si6  1  0.750000  0.585593  0.571644  1
  Si  Si7  1  0.750000  0.127526  0.002747  1
  Si  Si8  1  0.750000  0.873991  0.574903  1
  Si  Si9  1  0.250000  0.698398  0.713561  1
  Si  Si10  1  0.750000  0.305142  0.284743  1
  Si  Si11  1  0.750000  0.807836  0.276600  1
  Si  Si12  1  0.250000  0.874378  0.995176  1
  Si  Si13  1  0.250000  0.195225  0.720450  1
  Si  Si14  1  0.250000  0.378612  0.000684  1
  Si  Si15  1  0.250000  0.116565  0.433536  1
  Si  Si16  1  0.750000  0.622489  0.997779  1
  Ge  Ge17  1  0.250000  0.401474  0.429804  1
  Pt  Pt18  1  0.750000  0.352190  0.097544  1
  Pt  Pt19  1  0.250000  0.974855  0.622803  1
  Pt  Pt20  1  0.750000  0.850884  0.088181  1
  Pt  Pt21  1  0.750000  0.031189  0.376967  1
  Pt  Pt22  1  0.250000  0.648807  0.901163  1
  Pt  Pt23  1  0.250000  0.151216  0.909670  1
  Pt  Pt24  1  0.750000  0.536822  0.374771  1
  Pt  Pt25  1  0.250000  0.466278  0.625841  1
