# generated using pymatgen
data_Pr3Mg2ZnIrPd2
_symmetry_space_group_name_H-M   'P 1'
_cell_length_a   7.60105969
_cell_length_b   7.57099338
_cell_length_c   4.06897200
_cell_angle_alpha   90.00000000
_cell_angle_beta   90.00000000
_cell_angle_gamma   119.63577198
_symmetry_Int_Tables_number   1
_chemical_formula_structural   Pr3Mg2ZnIrPd2
_chemical_formula_sum   'Pr3 Mg2 Zn1 Ir1 Pd2'
_cell_volume   203.52821315
_cell_formula_units_Z   1
loop_
 _symmetry_equiv_pos_site_id
 _symmetry_equiv_pos_as_xyz
  1  'x, y, z'
loop_
 _atom_site_type_symbol
 _atom_site_label
 _atom_site_symmetry_multiplicity
 _atom_site_fract_x
 _atom_site_fract_y
 _atom_site_fract_z
 _atom_site_occupancy
  Pr  Pr0  1  0.566818  0.990899  0.500000  1
  Pr  Pr1  1  0.406517  0.408832  0.500000  1
  Pr  Pr2  1  0.020128  0.603051  0.500000  1
  Mg  Mg3  1  0.756927  0.759595  0.000000  1
  Mg  Mg4  1  0.000240  0.241369  0.000000  1
  Zn  Zn5  1  0.243485  0.996694  0.000000  1
  Ir  Ir6  1  0.333301  0.664690  0.000000  1
  Pd  Pd7  1  0.004970  0.000489  0.500000  1
  Pd  Pd8  1  0.667612  0.334380  0.000000  1
