# generated using pymatgen
data_Hf3ScMn8
_symmetry_space_group_name_H-M   'P 1'
_cell_length_a   4.88356300
_cell_length_b   4.88356358
_cell_length_c   8.17296300
_cell_angle_alpha   90.00000000
_cell_angle_beta   90.00000000
_cell_angle_gamma   120.00000285
_symmetry_Int_Tables_number   1
_chemical_formula_structural   Hf3ScMn8
_chemical_formula_sum   'Hf3 Sc1 Mn8'
_cell_volume   168.80441180
_cell_formula_units_Z   1
loop_
 _symmetry_equiv_pos_site_id
 _symmetry_equiv_pos_as_xyz
  1  'x, y, z'
loop_
 _atom_site_type_symbol
 _atom_site_label
 _atom_site_symmetry_multiplicity
 _atom_site_fract_x
 _atom_site_fract_y
 _atom_site_fract_z
 _atom_site_occupancy
  Hf  Hf0  1  0.666667  0.333333  0.935814  1
  Hf  Hf1  1  0.666667  0.333333  0.561861  1
  Hf  Hf2  1  0.333333  0.666667  0.066258  1
  Sc  Sc3  1  0.333333  0.666667  0.437059  1
  Mn  Mn4  1  0.171247  0.342493  0.750754  1
  Mn  Mn5  1  0.829037  0.170963  0.249092  1
  Mn  Mn6  1  0.341927  0.170963  0.249092  1
  Mn  Mn7  1  0.657507  0.828753  0.750754  1
  Mn  Mn8  1  0.000000  0.000000  0.999755  1
  Mn  Mn9  1  0.000000  0.000000  0.499718  1
  Mn  Mn10  1  0.829037  0.658073  0.249092  1
  Mn  Mn11  1  0.171247  0.828753  0.750754  1
