# generated using pymatgen
data_LaNd7(SiBr6)2
_symmetry_space_group_name_H-M   'P 1'
_cell_length_a   4.22215200
_cell_length_b   13.77825455
_cell_length_c   14.59999993
_cell_angle_alpha   89.83882723
_cell_angle_beta   90.00000000
_cell_angle_gamma   90.00000000
_symmetry_Int_Tables_number   1
_chemical_formula_structural   LaNd7(SiBr6)2
_chemical_formula_sum   'La1 Nd7 Si2 Br12'
_cell_volume   849.33535653
_cell_formula_units_Z   1
loop_
 _symmetry_equiv_pos_site_id
 _symmetry_equiv_pos_as_xyz
  1  'x, y, z'
loop_
 _atom_site_type_symbol
 _atom_site_label
 _atom_site_symmetry_multiplicity
 _atom_site_fract_x
 _atom_site_fract_y
 _atom_site_fract_z
 _atom_site_occupancy
  La  La0  1  0.500000  0.379886  0.838704  1
  Nd  Nd1  1  0.500000  0.119052  0.341027  1
  Nd  Nd2  1  0.500000  0.881633  0.659321  1
  Nd  Nd3  1  0.500000  0.619039  0.159647  1
  Nd  Nd4  1  0.000000  0.118668  0.578839  1
  Nd  Nd5  1  0.000000  0.880999  0.421086  1
  Nd  Nd6  1  0.000000  0.620294  0.921822  1
  Nd  Nd7  1  0.000000  0.381214  0.080254  1
  Si  Si8  1  0.500000  0.000183  0.500087  1
  Si  Si9  1  0.500000  0.500371  0.000477  1
  Br  Br10  1  0.500000  0.243143  0.162007  1
  Br  Br11  1  0.500000  0.755931  0.836892  1
  Br  Br12  1  0.500000  0.744364  0.338476  1
  Br  Br13  1  0.500000  0.254378  0.660954  1
  Br  Br14  1  0.000000  0.253052  0.411897  1
  Br  Br15  1  0.000000  0.747751  0.588634  1
  Br  Br16  1  0.000000  0.753089  0.088732  1
  Br  Br17  1  0.000000  0.243108  0.913241  1
  Br  Br18  1  0.000000  0.002535  0.246126  1
  Br  Br19  1  0.000000  0.998040  0.754531  1
  Br  Br20  1  0.000000  0.502122  0.254479  1
  Br  Br21  1  0.000000  0.501145  0.742769  1
