# generated using pymatgen
data_Tb2Re7Si4Os
_symmetry_space_group_name_H-M   'P 1'
_cell_length_a   7.30181146
_cell_length_b   7.57629753
_cell_length_c   4.10750200
_cell_angle_alpha   90.00000000
_cell_angle_beta   90.00000000
_cell_angle_gamma   90.20575997
_symmetry_Int_Tables_number   1
_chemical_formula_structural   Tb2Re7Si4Os
_chemical_formula_sum   'Tb2 Re7 Si4 Os1'
_cell_volume   227.22840466
_cell_formula_units_Z   1
loop_
 _symmetry_equiv_pos_site_id
 _symmetry_equiv_pos_as_xyz
  1  'x, y, z'
loop_
 _atom_site_type_symbol
 _atom_site_label
 _atom_site_symmetry_multiplicity
 _atom_site_fract_x
 _atom_site_fract_y
 _atom_site_fract_z
 _atom_site_occupancy
  Tb  Tb0  1  0.000284  0.002047  0.000000  1
  Tb  Tb1  1  0.500905  0.500971  0.500000  1
  Re  Re2  1  0.577630  0.156644  0.000000  1
  Re  Re3  1  0.418414  0.838169  0.000000  1
  Re  Re4  1  0.656104  0.898954  0.500000  1
  Re  Re5  1  0.087814  0.340658  0.500000  1
  Re  Re6  1  0.347839  0.101447  0.500000  1
  Re  Re7  1  0.918779  0.656272  0.500000  1
  Re  Re8  1  0.153350  0.599060  0.000000  1
  Si  Si9  1  0.282057  0.302412  0.000000  1
  Si  Si10  1  0.720161  0.698951  0.000000  1
  Si  Si11  1  0.783037  0.203256  0.500000  1
  Si  Si12  1  0.219435  0.800257  0.500000  1
  Os  Os13  1  0.834191  0.400901  0.000000  1
