# generated using pymatgen
data_Li2Tb3AlSi2Pd
_symmetry_space_group_name_H-M   'P 1'
_cell_length_a   7.04030003
_cell_length_b   7.01192819
_cell_length_c   4.24564900
_cell_angle_alpha   90.00000000
_cell_angle_beta   90.00000000
_cell_angle_gamma   119.86677568
_symmetry_Int_Tables_number   1
_chemical_formula_structural   Li2Tb3AlSi2Pd
_chemical_formula_sum   'Li2 Tb3 Al1 Si2 Pd1'
_cell_volume   181.75434576
_cell_formula_units_Z   1
loop_
 _symmetry_equiv_pos_site_id
 _symmetry_equiv_pos_as_xyz
  1  'x, y, z'
loop_
 _atom_site_type_symbol
 _atom_site_label
 _atom_site_symmetry_multiplicity
 _atom_site_fract_x
 _atom_site_fract_y
 _atom_site_fract_z
 _atom_site_occupancy
  Li  Li0  1  0.762635  0.002089  0.500000  1
  Li  Li1  1  0.237364  0.239454  0.500000  1
  Tb  Tb2  1  0.420755  0.007334  0.000000  1
  Tb  Tb3  1  0.000000  0.416522  0.000000  1
  Tb  Tb4  1  0.579245  0.586578  0.000000  1
  Al  Al5  1  0.000000  0.759477  0.500000  1
  Si  Si6  1  0.673924  0.345157  0.500000  1
  Si  Si7  1  0.326075  0.671232  0.500000  1
  Pd  Pd8  1  0.000000  0.972155  0.000000  1
