# generated using pymatgen
data_La2NdMg3Si2Ag
_symmetry_space_group_name_H-M   'P 1'
_cell_length_a   7.57420700
_cell_length_b   7.55638827
_cell_length_c   4.47167500
_cell_angle_alpha   90.00000000
_cell_angle_beta   90.00000000
_cell_angle_gamma   120.07804044
_symmetry_Int_Tables_number   1
_chemical_formula_structural   La2NdMg3Si2Ag
_chemical_formula_sum   'La2 Nd1 Mg3 Si2 Ag1'
_cell_volume   221.46761957
_cell_formula_units_Z   1
loop_
 _symmetry_equiv_pos_site_id
 _symmetry_equiv_pos_as_xyz
  1  'x, y, z'
loop_
 _atom_site_type_symbol
 _atom_site_label
 _atom_site_symmetry_multiplicity
 _atom_site_fract_x
 _atom_site_fract_y
 _atom_site_fract_z
 _atom_site_occupancy
  La  La0  1  0.422784  0.421019  0.500000  1
  La  La1  1  0.001765  0.578981  0.500000  1
  Nd  Nd2  1  0.579412  0.000000  0.500000  1
  Mg  Mg3  1  0.754676  0.756930  0.000000  1
  Mg  Mg4  1  0.246739  0.000000  0.000000  1
  Mg  Mg5  1  0.997747  0.243070  0.000000  1
  Si  Si6  1  0.665412  0.329643  0.000000  1
  Si  Si7  1  0.335769  0.670357  0.000000  1
  Ag  Ag8  1  0.995695  0.000000  0.500000  1
