# generated using pymatgen
data_La14IrPd5
_symmetry_space_group_name_H-M   'P 1'
_cell_length_a   6.61567931
_cell_length_b   10.35983357
_cell_length_c   10.35418356
_cell_angle_alpha   120.00468209
_cell_angle_beta   89.93650716
_cell_angle_gamma   90.00117850
_symmetry_Int_Tables_number   1
_chemical_formula_structural   La14IrPd5
_chemical_formula_sum   'La14 Ir1 Pd5'
_cell_volume   614.54384615
_cell_formula_units_Z   1
loop_
 _symmetry_equiv_pos_site_id
 _symmetry_equiv_pos_as_xyz
  1  'x, y, z'
loop_
 _atom_site_type_symbol
 _atom_site_label
 _atom_site_symmetry_multiplicity
 _atom_site_fract_x
 _atom_site_fract_y
 _atom_site_fract_z
 _atom_site_occupancy
  La  La0  1  0.462859  0.330602  0.661215  1
  La  La1  1  0.957528  0.666532  0.333004  1
  La  La2  1  0.246965  0.126247  0.873280  1
  La  La3  1  0.246964  0.747011  0.873279  1
  La  La4  1  0.254272  0.127684  0.255419  1
  La  La5  1  0.744780  0.881326  0.131727  1
  La  La6  1  0.744850  0.250495  0.131737  1
  La  La7  1  0.746395  0.873313  0.746538  1
  La  La8  1  0.443216  0.537221  0.460640  1
  La  La9  1  0.443108  0.923387  0.460640  1
  La  La10  1  0.442645  0.538369  0.076846  1
  La  La11  1  0.938878  0.455233  0.535085  1
  La  La12  1  0.938791  0.079833  0.535105  1
  La  La13  1  0.944480  0.461443  0.922875  1
  Ir  Ir14  1  0.691264  0.188266  0.376503  1
  Pd  Pd15  1  0.191364  0.811434  0.187178  1
  Pd  Pd16  1  0.191350  0.375749  0.187213  1
  Pd  Pd17  1  0.190918  0.812535  0.625107  1
  Pd  Pd18  1  0.690683  0.187861  0.813319  1
  Pd  Pd19  1  0.690688  0.625458  0.813288  1
