# generated using pymatgen
data_Cs2ClOF5
_symmetry_space_group_name_H-M   'P 1'
_cell_length_a   6.70281748
_cell_length_b   6.70281696
_cell_length_c   8.88174300
_cell_angle_alpha   90.00000000
_cell_angle_beta   90.00000000
_cell_angle_gamma   95.55830258
_symmetry_Int_Tables_number   1
_chemical_formula_structural   Cs2ClOF5
_chemical_formula_sum   'Cs4 Cl2 O2 F10'
_cell_volume   397.16059628
_cell_formula_units_Z   2
loop_
 _symmetry_equiv_pos_site_id
 _symmetry_equiv_pos_as_xyz
  1  'x, y, z'
loop_
 _atom_site_type_symbol
 _atom_site_label
 _atom_site_symmetry_multiplicity
 _atom_site_fract_x
 _atom_site_fract_y
 _atom_site_fract_z
 _atom_site_occupancy
  Cs  Cs0  1  0.197404  0.802596  0.500000  1
  Cs  Cs1  1  0.197404  0.802596  0.000000  1
  Cs  Cs2  1  0.802596  0.197404  0.500000  1
  Cs  Cs3  1  0.802596  0.197404  0.000000  1
  Cl  Cl4  1  0.307887  0.307887  0.250000  1
  Cl  Cl5  1  0.692113  0.692113  0.750000  1
  O  O6  1  0.466855  0.466855  0.250000  1
  O  O7  1  0.533145  0.533145  0.750000  1
  F  F8  1  0.475709  0.092391  0.250000  1
  F  F9  1  0.907609  0.524291  0.750000  1
  F  F10  1  0.524291  0.907609  0.750000  1
  F  F11  1  0.092391  0.475709  0.250000  1
  F  F12  1  0.037937  0.037937  0.250000  1
  F  F13  1  0.962063  0.962063  0.750000  1
  F  F14  1  0.288144  0.288144  0.461744  1
  F  F15  1  0.711856  0.711856  0.538256  1
  F  F16  1  0.288144  0.288144  0.038256  1
  F  F17  1  0.711856  0.711856  0.961744  1
