# generated using pymatgen
data_HoLu(AgTe2)2
_symmetry_space_group_name_H-M   'P 1'
_cell_length_a   7.06128996
_cell_length_b   7.06128996
_cell_length_c   4.68956900
_cell_angle_alpha   90.00000000
_cell_angle_beta   90.00000000
_cell_angle_gamma   90.05980068
_symmetry_Int_Tables_number   1
_chemical_formula_structural   HoLu(AgTe2)2
_chemical_formula_sum   'Ho1 Lu1 Ag2 Te4'
_cell_volume   233.83029886
_cell_formula_units_Z   1
loop_
 _symmetry_equiv_pos_site_id
 _symmetry_equiv_pos_as_xyz
  1  'x, y, z'
loop_
 _atom_site_type_symbol
 _atom_site_label
 _atom_site_symmetry_multiplicity
 _atom_site_fract_x
 _atom_site_fract_y
 _atom_site_fract_z
 _atom_site_occupancy
  Ho  Ho0  1  0.000000  0.500000  0.810277  1
  Lu  Lu1  1  0.500000  0.000000  0.190124  1
  Ag  Ag2  1  0.000000  0.000000  0.999111  1
  Ag  Ag3  1  0.500000  0.500000  0.999111  1
  Te  Te4  1  0.204038  0.295962  0.292714  1
  Te  Te5  1  0.699164  0.199164  0.707975  1
  Te  Te6  1  0.795962  0.704038  0.292714  1
  Te  Te7  1  0.300836  0.800836  0.707975  1
