# generated using pymatgen
data_Nd2Re2Br
_symmetry_space_group_name_H-M   'P 1'
_cell_length_a   4.18605800
_cell_length_b   4.18605787
_cell_length_c   17.67501900
_cell_angle_alpha   90.00000000
_cell_angle_beta   90.00000000
_cell_angle_gamma   119.99998520
_symmetry_Int_Tables_number   1
_chemical_formula_structural   Nd2Re2Br
_chemical_formula_sum   'Nd4 Re4 Br2'
_cell_volume   268.22611259
_cell_formula_units_Z   2
loop_
 _symmetry_equiv_pos_site_id
 _symmetry_equiv_pos_as_xyz
  1  'x, y, z'
loop_
 _atom_site_type_symbol
 _atom_site_label
 _atom_site_symmetry_multiplicity
 _atom_site_fract_x
 _atom_site_fract_y
 _atom_site_fract_z
 _atom_site_occupancy
  Nd  Nd0  1  0.000000  0.000000  0.118674  1
  Nd  Nd1  1  0.000000  0.000000  0.381326  1
  Nd  Nd2  1  0.000000  0.000000  0.618674  1
  Nd  Nd3  1  0.000000  0.000000  0.881327  1
  Re  Re4  1  0.666666  0.333332  0.016335  1
  Re  Re5  1  0.333334  0.666667  0.983665  1
  Re  Re6  1  0.666666  0.333332  0.483665  1
  Re  Re7  1  0.333334  0.666667  0.516335  1
  Br  Br8  1  0.333334  0.666667  0.250000  1
  Br  Br9  1  0.666666  0.333332  0.750000  1
