# generated using pymatgen
data_Sm2Ga4PdPt3
_symmetry_space_group_name_H-M   'P 1'
_cell_length_a   4.32710000
_cell_length_b   4.32710000
_cell_length_c   10.25642600
_cell_angle_alpha   90.00000000
_cell_angle_beta   90.00000000
_cell_angle_gamma   90.00000000
_symmetry_Int_Tables_number   1
_chemical_formula_structural   Sm2Ga4PdPt3
_chemical_formula_sum   'Sm2 Ga4 Pd1 Pt3'
_cell_volume   192.03921181
_cell_formula_units_Z   1
loop_
 _symmetry_equiv_pos_site_id
 _symmetry_equiv_pos_as_xyz
  1  'x, y, z'
loop_
 _atom_site_type_symbol
 _atom_site_label
 _atom_site_symmetry_multiplicity
 _atom_site_fract_x
 _atom_site_fract_y
 _atom_site_fract_z
 _atom_site_occupancy
  Sm  Sm0  1  0.000000  0.500000  0.250315  1
  Sm  Sm1  1  0.500000  0.000000  0.749685  1
  Ga  Ga2  1  0.000000  0.000000  0.500000  1
  Ga  Ga3  1  0.500000  0.500000  0.500000  1
  Ga  Ga4  1  0.000000  0.500000  0.873487  1
  Ga  Ga5  1  0.500000  0.000000  0.126513  1
  Pd  Pd6  1  0.500000  0.500000  0.000000  1
  Pt  Pt7  1  0.000000  0.000000  0.000000  1
  Pt  Pt8  1  0.000000  0.500000  0.633028  1
  Pt  Pt9  1  0.500000  0.000000  0.366972  1
