# generated using pymatgen
data_Hf4Ti5Rh11
_symmetry_space_group_name_H-M   'P 1'
_cell_length_a   6.95757301
_cell_length_b   7.61007308
_cell_length_c   7.61007288
_cell_angle_alpha   77.93816848
_cell_angle_beta   62.79798737
_cell_angle_gamma   62.79798070
_symmetry_Int_Tables_number   1
_chemical_formula_structural   Hf4Ti5Rh11
_chemical_formula_sum   'Hf4 Ti5 Rh11'
_cell_volume   318.73514139
_cell_formula_units_Z   1
loop_
 _symmetry_equiv_pos_site_id
 _symmetry_equiv_pos_as_xyz
  1  'x, y, z'
loop_
 _atom_site_type_symbol
 _atom_site_label
 _atom_site_symmetry_multiplicity
 _atom_site_fract_x
 _atom_site_fract_y
 _atom_site_fract_z
 _atom_site_occupancy
  Hf  Hf0  1  0.762204  0.649598  0.825995  1
  Hf  Hf1  1  0.237796  0.350402  0.174005  1
  Hf  Hf2  1  0.411801  0.825995  0.350402  1
  Hf  Hf3  1  0.588199  0.174005  0.649598  1
  Ti  Ti4  1  0.000000  0.000000  0.000000  1
  Ti  Ti5  1  0.691302  0.401856  0.215542  1
  Ti  Ti6  1  0.308698  0.598144  0.784458  1
  Ti  Ti7  1  0.093156  0.215542  0.598144  1
  Ti  Ti8  1  0.906844  0.784458  0.401856  1
  Rh  Rh9  1  0.500000  0.000000  0.000000  1
  Rh  Rh10  1  0.250000  0.500000  0.500000  1
  Rh  Rh11  1  0.750000  0.500000  0.500000  1
  Rh  Rh12  1  0.683502  0.309017  0.897961  1
  Rh  Rh13  1  0.890481  0.690983  0.102039  1
  Rh  Rh14  1  0.992520  0.897961  0.690983  1
  Rh  Rh15  1  0.581464  0.102039  0.309017  1
  Rh  Rh16  1  0.316498  0.690983  0.102039  1
  Rh  Rh17  1  0.109519  0.309017  0.897961  1
  Rh  Rh18  1  0.007480  0.102039  0.309017  1
  Rh  Rh19  1  0.418536  0.897961  0.690983  1
