# generated using pymatgen
data_CeSmNi2Sn
_symmetry_space_group_name_H-M   'P 1'
_cell_length_a   5.56246220
_cell_length_b   5.56246242
_cell_length_c   5.56246159
_cell_angle_alpha   134.62723159
_cell_angle_beta   117.86958318
_cell_angle_gamma   80.21497620
_symmetry_Int_Tables_number   1
_chemical_formula_structural   CeSmNi2Sn
_chemical_formula_sum   'Ce1 Sm1 Ni2 Sn1'
_cell_volume   104.79144907
_cell_formula_units_Z   1
loop_
 _symmetry_equiv_pos_site_id
 _symmetry_equiv_pos_as_xyz
  1  'x, y, z'
loop_
 _atom_site_type_symbol
 _atom_site_label
 _atom_site_symmetry_multiplicity
 _atom_site_fract_x
 _atom_site_fract_y
 _atom_site_fract_z
 _atom_site_occupancy
  Ce  Ce0  1  0.298313  0.798313  0.500000  1
  Sm  Sm1  1  0.702690  0.202690  0.500000  1
  Ni  Ni2  1  0.289007  0.499566  0.789441  1
  Ni  Ni3  1  0.710124  0.499566  0.210559  1
  Sn  Sn4  1  0.999866  0.999866  0.000000  1
