# generated using pymatgen
data_Th2Fe2I
_symmetry_space_group_name_H-M   'P 1'
_cell_length_a   3.99014700
_cell_length_b   3.99014617
_cell_length_c   17.96626100
_cell_angle_alpha   90.00000000
_cell_angle_beta   90.00000000
_cell_angle_gamma   119.99999857
_symmetry_Int_Tables_number   1
_chemical_formula_structural   Th2Fe2I
_chemical_formula_sum   'Th4 Fe4 I2'
_cell_volume   247.72283629
_cell_formula_units_Z   2
loop_
 _symmetry_equiv_pos_site_id
 _symmetry_equiv_pos_as_xyz
  1  'x, y, z'
loop_
 _atom_site_type_symbol
 _atom_site_label
 _atom_site_symmetry_multiplicity
 _atom_site_fract_x
 _atom_site_fract_y
 _atom_site_fract_z
 _atom_site_occupancy
  Th  Th0  1  0.000000  0.000000  0.102935  1
  Th  Th1  1  0.000000  0.000000  0.397065  1
  Th  Th2  1  0.000000  0.000000  0.602935  1
  Th  Th3  1  0.000000  0.000000  0.897065  1
  Fe  Fe4  1  0.333333  0.666666  0.997351  1
  Fe  Fe5  1  0.333333  0.666666  0.502649  1
  Fe  Fe6  1  0.666667  0.333335  0.497351  1
  Fe  Fe7  1  0.666667  0.333335  0.002649  1
  I  I8  1  0.666667  0.333335  0.250000  1
  I  I9  1  0.333333  0.666666  0.750000  1
