# generated using pymatgen
data_Al2ReH7
_symmetry_space_group_name_H-M   'P 1'
_cell_length_a   4.44536346
_cell_length_b   4.41812573
_cell_length_c   5.62913738
_cell_angle_alpha   112.49778682
_cell_angle_beta   112.21897971
_cell_angle_gamma   60.26087998
_symmetry_Int_Tables_number   1
_chemical_formula_structural   Al2ReH7
_chemical_formula_sum   'Al2 Re1 H7'
_cell_volume   86.21144329
_cell_formula_units_Z   1
loop_
 _symmetry_equiv_pos_site_id
 _symmetry_equiv_pos_as_xyz
  1  'x, y, z'
loop_
 _atom_site_type_symbol
 _atom_site_label
 _atom_site_symmetry_multiplicity
 _atom_site_fract_x
 _atom_site_fract_y
 _atom_site_fract_z
 _atom_site_occupancy
  Al  Al0  1  0.211586  0.729906  0.043881  1
  Al  Al1  1  0.441679  0.956927  0.718546  1
  Re  Re2  1  0.825983  0.342874  0.881350  1
  H  H3  1  0.458378  0.316819  0.626772  1
  H  H4  1  0.325166  0.843109  0.381306  1
  H  H5  1  0.659989  0.735473  0.117224  1
  H  H6  1  0.198455  0.366235  0.131870  1
  H  H7  1  0.831606  0.188057  0.125321  1
  H  H8  1  0.995360  0.949307  0.647509  1
  H  H9  1  0.823358  0.499223  0.639143  1
