# generated using pymatgen
data_HoTm3Lu4(B6Rh)4
_symmetry_space_group_name_H-M   'P 1'
_cell_length_a   3.60568000
_cell_length_b   9.09004702
_cell_length_c   11.42020702
_cell_angle_alpha   90.00719632
_cell_angle_beta   90.00000000
_cell_angle_gamma   90.00000000
_symmetry_Int_Tables_number   1
_chemical_formula_structural   HoTm3Lu4(B6Rh)4
_chemical_formula_sum   'Ho1 Tm3 Lu4 B24 Rh4'
_cell_volume   374.30642673
_cell_formula_units_Z   1
loop_
 _symmetry_equiv_pos_site_id
 _symmetry_equiv_pos_as_xyz
  1  'x, y, z'
loop_
 _atom_site_type_symbol
 _atom_site_label
 _atom_site_symmetry_multiplicity
 _atom_site_fract_x
 _atom_site_fract_y
 _atom_site_fract_z
 _atom_site_occupancy
  Ho  Ho0  1  0.500000  0.321592  0.413754  1
  Tm  Tm1  1  0.500000  0.678622  0.586259  1
  Tm  Tm2  1  0.500000  0.178615  0.913782  1
  Tm  Tm3  1  0.500000  0.821353  0.086195  1
  Lu  Lu4  1  0.500000  0.444416  0.126656  1
  Lu  Lu5  1  0.500000  0.555668  0.873270  1
  Lu  Lu6  1  0.500000  0.055508  0.626881  1
  Lu  Lu7  1  0.500000  0.944182  0.373216  1
  B  B8  1  0.000000  0.106378  0.471254  1
  B  B9  1  0.000000  0.892972  0.528957  1
  B  B10  1  0.000000  0.392875  0.970981  1
  B  B11  1  0.000000  0.607214  0.028932  1
  B  B12  1  0.000000  0.132196  0.316670  1
  B  B13  1  0.000000  0.867347  0.683128  1
  B  B14  1  0.000000  0.367393  0.816970  1
  B  B15  1  0.000000  0.632688  0.182967  1
  B  B16  1  0.000000  0.054052  0.064907  1
  B  B17  1  0.000000  0.945911  0.935001  1
  B  B18  1  0.000000  0.446238  0.565434  1
  B  B19  1  0.000000  0.554516  0.435009  1
  B  B20  1  0.000000  0.482623  0.286126  1
  B  B21  1  0.000000  0.517959  0.713597  1
  B  B22  1  0.000000  0.017769  0.786537  1
  B  B23  1  0.000000  0.982034  0.213478  1
  B  B24  1  0.000000  0.250595  0.079159  1
  B  B25  1  0.000000  0.749424  0.920700  1
  B  B26  1  0.000000  0.249190  0.579822  1
  B  B27  1  0.000000  0.750672  0.420756  1
  B  B28  1  0.000000  0.294882  0.235851  1
  B  B29  1  0.000000  0.704979  0.763705  1
  B  B30  1  0.000000  0.204883  0.736507  1
  B  B31  1  0.000000  0.795077  0.263560  1
  Rh  Rh32  1  0.500000  0.139801  0.179104  1
  Rh  Rh33  1  0.500000  0.860021  0.820701  1
  Rh  Rh34  1  0.500000  0.359988  0.679684  1
  Rh  Rh35  1  0.500000  0.640366  0.320487  1
