# generated using pymatgen
data_Na(AsPd2)2
_symmetry_space_group_name_H-M   'P 1'
_cell_length_a   7.98446600
_cell_length_b   7.98446600
_cell_length_c   3.87808100
_cell_angle_alpha   90.00000000
_cell_angle_beta   90.00000000
_cell_angle_gamma   90.00000000
_symmetry_Int_Tables_number   1
_chemical_formula_structural   Na(AsPd2)2
_chemical_formula_sum   'Na2 As4 Pd8'
_cell_volume   247.23424604
_cell_formula_units_Z   2
loop_
 _symmetry_equiv_pos_site_id
 _symmetry_equiv_pos_as_xyz
  1  'x, y, z'
loop_
 _atom_site_type_symbol
 _atom_site_label
 _atom_site_symmetry_multiplicity
 _atom_site_fract_x
 _atom_site_fract_y
 _atom_site_fract_z
 _atom_site_occupancy
  Na  Na0  1  0.500000  0.500000  0.000000  1
  Na  Na1  1  0.000000  0.000000  0.500000  1
  As  As2  1  0.771968  0.228032  0.000000  1
  As  As3  1  0.228032  0.771968  0.000000  1
  As  As4  1  0.271969  0.271969  0.500000  1
  As  As5  1  0.728031  0.728031  0.500000  1
  Pd  Pd6  1  0.329241  0.076735  0.000000  1
  Pd  Pd7  1  0.076735  0.329241  0.000000  1
  Pd  Pd8  1  0.923265  0.670760  0.000000  1
  Pd  Pd9  1  0.670760  0.923265  0.000000  1
  Pd  Pd10  1  0.576735  0.170760  0.500000  1
  Pd  Pd11  1  0.829240  0.423266  0.500000  1
  Pd  Pd12  1  0.170760  0.576735  0.500000  1
  Pd  Pd13  1  0.423266  0.829240  0.500000  1
