# generated using pymatgen
data_Ho5Tm7Lu8(CoSb2)4
_symmetry_space_group_name_H-M   'P 1'
_cell_length_a   7.71730035
_cell_length_b   8.72644700
_cell_length_c   12.04051854
_cell_angle_alpha   90.00000000
_cell_angle_beta   89.96567342
_cell_angle_gamma   90.00000000
_symmetry_Int_Tables_number   1
_chemical_formula_structural   Ho5Tm7Lu8(CoSb2)4
_chemical_formula_sum   'Ho5 Tm7 Lu8 Co4 Sb8'
_cell_volume   810.86390932
_cell_formula_units_Z   1
loop_
 _symmetry_equiv_pos_site_id
 _symmetry_equiv_pos_as_xyz
  1  'x, y, z'
loop_
 _atom_site_type_symbol
 _atom_site_label
 _atom_site_symmetry_multiplicity
 _atom_site_fract_x
 _atom_site_fract_y
 _atom_site_fract_z
 _atom_site_occupancy
  Ho  Ho0  1  0.050080  0.750000  0.497754  1
  Ho  Ho1  1  0.623359  0.750000  0.308622  1
  Ho  Ho2  1  0.123289  0.250000  0.191188  1
  Ho  Ho3  1  0.376690  0.250000  0.691346  1
  Ho  Ho4  1  0.876655  0.750000  0.808737  1
  Tm  Tm5  1  0.155397  0.750000  0.203656  1
  Tm  Tm6  1  0.655397  0.250000  0.296087  1
  Tm  Tm7  1  0.844657  0.250000  0.796293  1
  Tm  Tm8  1  0.344843  0.750000  0.704082  1
  Tm  Tm9  1  0.449548  0.750000  0.997700  1
  Tm  Tm10  1  0.949579  0.250000  0.502273  1
  Tm  Tm11  1  0.550483  0.250000  0.002321  1
  Lu  Lu12  1  0.825048  0.963529  0.065230  1
  Lu  Lu13  1  0.325377  0.036923  0.434609  1
  Lu  Lu14  1  0.174903  0.463426  0.934768  1
  Lu  Lu15  1  0.674732  0.536349  0.565292  1
  Lu  Lu16  1  0.174903  0.036574  0.934768  1
  Lu  Lu17  1  0.674732  0.963651  0.565292  1
  Lu  Lu18  1  0.825048  0.536471  0.065230  1
  Lu  Lu19  1  0.325377  0.463077  0.434609  1
  Co  Co20  1  0.433810  0.750000  0.491669  1
  Co  Co21  1  0.933428  0.250000  0.008398  1
  Co  Co22  1  0.566524  0.250000  0.508364  1
  Co  Co23  1  0.066596  0.750000  0.991601  1
  Sb  Sb24  1  0.931696  0.992540  0.327440  1
  Sb  Sb25  1  0.432012  0.007906  0.172137  1
  Sb  Sb26  1  0.068053  0.491678  0.672595  1
  Sb  Sb27  1  0.568012  0.507812  0.827883  1
  Sb  Sb28  1  0.068053  0.008322  0.672595  1
  Sb  Sb29  1  0.568012  0.992188  0.827883  1
  Sb  Sb30  1  0.931696  0.507460  0.327440  1
  Sb  Sb31  1  0.432012  0.492094  0.172137  1
