# generated using pymatgen
data_PrNd3(Ga3Ru)6
_symmetry_space_group_name_H-M   'P 1'
_cell_length_a   7.55230729
_cell_length_b   7.55535993
_cell_length_c   9.89958904
_cell_angle_alpha   90.00123502
_cell_angle_beta   89.99090426
_cell_angle_gamma   119.07413535
_symmetry_Int_Tables_number   1
_chemical_formula_structural   PrNd3(Ga3Ru)6
_chemical_formula_sum   'Pr1 Nd3 Ga18 Ru6'
_cell_volume   493.69561257
_cell_formula_units_Z   1
loop_
 _symmetry_equiv_pos_site_id
 _symmetry_equiv_pos_as_xyz
  1  'x, y, z'
loop_
 _atom_site_type_symbol
 _atom_site_label
 _atom_site_symmetry_multiplicity
 _atom_site_fract_x
 _atom_site_fract_y
 _atom_site_fract_z
 _atom_site_occupancy
  Pr  Pr0  1  0.997819  0.671605  0.249827  1
  Nd  Nd1  1  0.002081  0.328400  0.750234  1
  Nd  Nd2  1  0.671591  0.997801  0.249765  1
  Nd  Nd3  1  0.328293  0.002066  0.750141  1
  Ga  Ga4  1  0.130972  0.131379  0.249900  1
  Ga  Ga5  1  0.869229  0.869243  0.750106  1
  Ga  Ga6  1  0.009818  0.336472  0.073162  1
  Ga  Ga7  1  0.990621  0.663763  0.926284  1
  Ga  Ga8  1  0.990293  0.663249  0.573952  1
  Ga  Ga9  1  0.337275  0.010156  0.426698  1
  Ga  Ga10  1  0.009566  0.335977  0.426886  1
  Ga  Ga11  1  0.663508  0.990487  0.573565  1
  Ga  Ga12  1  0.663077  0.990244  0.926385  1
  Ga  Ga13  1  0.336770  0.009838  0.073122  1
  Ga  Ga14  1  0.339126  0.339185  0.556334  1
  Ga  Ga15  1  0.660404  0.660759  0.444050  1
  Ga  Ga16  1  0.660590  0.660865  0.055900  1
  Ga  Ga17  1  0.339033  0.338951  0.943724  1
  Ga  Ga18  1  0.338663  0.547702  0.249879  1
  Ga  Ga19  1  0.661914  0.452130  0.750125  1
  Ga  Ga20  1  0.547182  0.337538  0.249918  1
  Ga  Ga21  1  0.452149  0.661955  0.750100  1
  Ru  Ru22  1  0.674526  0.325522  0.999857  1
  Ru  Ru23  1  0.325614  0.674314  0.999869  1
  Ru  Ru24  1  0.325543  0.674409  0.500081  1
  Ru  Ru25  1  0.674449  0.325646  0.500136  1
  Ru  Ru26  1  0.999637  0.000489  0.999902  1
  Ru  Ru27  1  0.000258  0.999856  0.500093  1
