# generated using pymatgen
data_Th14ReOs3Pt2
_symmetry_space_group_name_H-M   'P 1'
_cell_length_a   10.11370511
_cell_length_b   10.08913532
_cell_length_c   6.33283425
_cell_angle_alpha   90.00000070
_cell_angle_beta   89.90121427
_cell_angle_gamma   119.91967485
_symmetry_Int_Tables_number   1
_chemical_formula_structural   Th14ReOs3Pt2
_chemical_formula_sum   'Th14 Re1 Os3 Pt2'
_cell_volume   560.07099333
_cell_formula_units_Z   1
loop_
 _symmetry_equiv_pos_site_id
 _symmetry_equiv_pos_as_xyz
  1  'x, y, z'
loop_
 _atom_site_type_symbol
 _atom_site_label
 _atom_site_symmetry_multiplicity
 _atom_site_fract_x
 _atom_site_fract_y
 _atom_site_fract_z
 _atom_site_occupancy
  Th  Th0  1  0.454628  0.540321  0.298576  1
  Th  Th1  1  0.084872  0.542436  0.292944  1
  Th  Th2  1  0.923440  0.461721  0.786194  1
  Th  Th3  1  0.253716  0.126858  0.495276  1
  Th  Th4  1  0.538006  0.081110  0.793299  1
  Th  Th5  1  0.738281  0.869140  0.001701  1
  Th  Th6  1  0.662877  0.331438  0.306561  1
  Th  Th7  1  0.133070  0.877729  0.998360  1
  Th  Th8  1  0.454628  0.914306  0.298576  1
  Th  Th9  1  0.538006  0.456895  0.793299  1
  Th  Th10  1  0.875658  0.123363  0.505587  1
  Th  Th11  1  0.133070  0.255342  0.998360  1
  Th  Th12  1  0.875658  0.752296  0.505587  1
  Th  Th13  1  0.332562  0.666282  0.786373  1
  Re  Re14  1  0.627348  0.813675  0.553983  1
  Os  Os15  1  0.379585  0.189792  0.052666  1
  Os  Os16  1  0.182413  0.372502  0.552476  1
  Os  Os17  1  0.182413  0.809911  0.552476  1
  Pt  Pt18  1  0.814885  0.623179  0.055850  1
  Pt  Pt19  1  0.814885  0.191707  0.055850  1
