# generated using pymatgen
data_Sm3Ta(Co4P3)2
_symmetry_space_group_name_H-M   'P 1'
_cell_length_a   3.76510300
_cell_length_b   10.75873000
_cell_length_c   12.48264000
_cell_angle_alpha   90.00000000
_cell_angle_beta   90.00000000
_cell_angle_gamma   90.00000000
_symmetry_Int_Tables_number   1
_chemical_formula_structural   Sm3Ta(Co4P3)2
_chemical_formula_sum   'Sm6 Ta2 Co16 P12'
_cell_volume   505.64336836
_cell_formula_units_Z   2
loop_
 _symmetry_equiv_pos_site_id
 _symmetry_equiv_pos_as_xyz
  1  'x, y, z'
loop_
 _atom_site_type_symbol
 _atom_site_label
 _atom_site_symmetry_multiplicity
 _atom_site_fract_x
 _atom_site_fract_y
 _atom_site_fract_z
 _atom_site_occupancy
  Sm  Sm0  1  0.000000  0.500000  0.525647  1
  Sm  Sm1  1  0.500000  0.000000  0.474353  1
  Sm  Sm2  1  0.500000  0.819973  0.204999  1
  Sm  Sm3  1  0.500000  0.180027  0.204999  1
  Sm  Sm4  1  0.000000  0.680027  0.795001  1
  Sm  Sm5  1  0.000000  0.319973  0.795001  1
  Ta  Ta6  1  0.500000  0.500000  0.154501  1
  Ta  Ta7  1  0.000000  0.000000  0.845499  1
  Co  Co8  1  0.500000  0.500000  0.702677  1
  Co  Co9  1  0.000000  0.000000  0.297323  1
  Co  Co10  1  0.000000  0.500000  0.987378  1
  Co  Co11  1  0.500000  0.000000  0.012622  1
  Co  Co12  1  0.500000  0.332846  0.992760  1
  Co  Co13  1  0.500000  0.667154  0.992760  1
  Co  Co14  1  0.000000  0.167154  0.007240  1
  Co  Co15  1  0.000000  0.832846  0.007240  1
  Co  Co16  1  0.500000  0.295296  0.431892  1
  Co  Co17  1  0.500000  0.704704  0.431892  1
  Co  Co18  1  0.000000  0.204704  0.568108  1
  Co  Co19  1  0.000000  0.795296  0.568108  1
  Co  Co20  1  0.500000  0.879286  0.706490  1
  Co  Co21  1  0.500000  0.120714  0.706490  1
  Co  Co22  1  0.000000  0.620714  0.293510  1
  Co  Co23  1  0.000000  0.379286  0.293510  1
  P  P24  1  0.500000  0.500000  0.884251  1
  P  P25  1  0.000000  0.000000  0.115749  1
  P  P26  1  0.500000  0.500000  0.352724  1
  P  P27  1  0.000000  0.000000  0.647276  1
  P  P28  1  0.500000  0.308139  0.614652  1
  P  P29  1  0.500000  0.691861  0.614652  1
  P  P30  1  0.000000  0.191861  0.385348  1
  P  P31  1  0.000000  0.808139  0.385348  1
  P  P32  1  0.500000  0.842615  0.895241  1
  P  P33  1  0.500000  0.157385  0.895241  1
  P  P34  1  0.000000  0.657385  0.104759  1
  P  P35  1  0.000000  0.342615  0.104759  1
