# generated using pymatgen
data_Cs2Nd5Dy(CBr6)2
_symmetry_space_group_name_H-M   'P 1'
_cell_length_a   9.04654763
_cell_length_b   9.08647383
_cell_length_c   9.67800992
_cell_angle_alpha   70.59838066
_cell_angle_beta   85.15069342
_cell_angle_gamma   89.30640093
_symmetry_Int_Tables_number   1
_chemical_formula_structural   Cs2Nd5Dy(CBr6)2
_chemical_formula_sum   'Cs2 Nd5 Dy1 C2 Br12'
_cell_volume   747.57385885
_cell_formula_units_Z   1
loop_
 _symmetry_equiv_pos_site_id
 _symmetry_equiv_pos_as_xyz
  1  'x, y, z'
loop_
 _atom_site_type_symbol
 _atom_site_label
 _atom_site_symmetry_multiplicity
 _atom_site_fract_x
 _atom_site_fract_y
 _atom_site_fract_z
 _atom_site_occupancy
  Cs  Cs0  1  0.468054  0.358976  0.331620  1
  Cs  Cs1  1  0.530666  0.643220  0.667482  1
  Nd  Nd2  1  0.915638  0.737665  0.005900  1
  Nd  Nd3  1  0.084448  0.261979  0.996723  1
  Nd  Nd4  1  0.737463  0.086561  0.000343  1
  Nd  Nd5  1  0.263617  0.913884  0.998700  1
  Nd  Nd6  1  0.975149  0.883423  0.328914  1
  Dy  Dy7  1  0.026708  0.113284  0.679822  1
  C  C8  1  0.006762  0.026931  0.922252  1
  C  C9  1  0.994714  0.973787  0.076957  1
  Br  Br10  1  0.077554  0.196536  0.333554  1
  Br  Br11  1  0.922683  0.811139  0.674089  1
  Br  Br12  1  0.209917  0.591184  0.998738  1
  Br  Br13  1  0.790330  0.409995  0.997668  1
  Br  Br14  1  0.405932  0.206684  0.000510  1
  Br  Br15  1  0.594815  0.795450  0.994617  1
  Br  Br16  1  0.665116  0.999719  0.328482  1
  Br  Br17  1  0.326008  0.003367  0.668627  1
  Br  Br18  1  0.284654  0.769340  0.324851  1
  Br  Br19  1  0.728178  0.224693  0.671505  1
  Br  Br20  1  0.845263  0.586822  0.329501  1
  Br  Br21  1  0.146327  0.405363  0.669144  1
