# generated using pymatgen
data_Li6ZnSb5Rh12
_symmetry_space_group_name_H-M   'P 1'
_cell_length_a   4.34924200
_cell_length_b   6.13651800
_cell_length_c   13.09020200
_cell_angle_alpha   89.99966561
_cell_angle_beta   90.00085051
_cell_angle_gamma   90.00037117
_symmetry_Int_Tables_number   1
_chemical_formula_structural   Li6ZnSb5Rh12
_chemical_formula_sum   'Li6 Zn1 Sb5 Rh12'
_cell_volume   349.36704301
_cell_formula_units_Z   1
loop_
 _symmetry_equiv_pos_site_id
 _symmetry_equiv_pos_as_xyz
  1  'x, y, z'
loop_
 _atom_site_type_symbol
 _atom_site_label
 _atom_site_symmetry_multiplicity
 _atom_site_fract_x
 _atom_site_fract_y
 _atom_site_fract_z
 _atom_site_occupancy
  Li  Li0  1  0.000000  0.000000  0.000000  1
  Li  Li1  1  0.499644  0.499998  0.162994  1
  Li  Li2  1  0.999764  0.000001  0.330334  1
  Li  Li3  1  0.500000  0.500000  0.500000  1
  Li  Li4  1  0.000234  0.999999  0.669666  1
  Li  Li5  1  0.500356  0.500002  0.837005  1
  Zn  Zn6  1  0.000000  0.500000  0.000000  1
  Sb  Sb7  1  0.499753  0.000000  0.160802  1
  Sb  Sb8  1  0.999785  0.500007  0.330452  1
  Sb  Sb9  1  0.500000  0.000000  0.500000  1
  Sb  Sb10  1  0.000216  0.499993  0.669548  1
  Sb  Sb11  1  0.500245  0.000000  0.839198  1
  Rh  Rh12  1  0.499996  0.259019  0.999999  1
  Rh  Rh13  1  0.500004  0.740983  0.000001  1
  Rh  Rh14  1  0.999759  0.252012  0.166059  1
  Rh  Rh15  1  0.999755  0.747981  0.166053  1
  Rh  Rh16  1  0.499882  0.248389  0.332792  1
  Rh  Rh17  1  0.499886  0.751589  0.332763  1
  Rh  Rh18  1  0.999995  0.251116  0.500014  1
  Rh  Rh19  1  0.000005  0.748885  0.499986  1
  Rh  Rh20  1  0.500114  0.248410  0.667237  1
  Rh  Rh21  1  0.500118  0.751610  0.667208  1
  Rh  Rh22  1  0.000244  0.252017  0.833947  1
  Rh  Rh23  1  0.000240  0.747986  0.833941  1
