# generated using pymatgen
data_Cu(RhSe4)2
_symmetry_space_group_name_H-M   'P 1'
_cell_length_a   6.15510442
_cell_length_b   6.04394339
_cell_length_c   6.04983524
_cell_angle_alpha   90.37397558
_cell_angle_beta   91.37979054
_cell_angle_gamma   92.26801948
_symmetry_Int_Tables_number   1
_chemical_formula_structural   Cu(RhSe4)2
_chemical_formula_sum   'Cu1 Rh2 Se8'
_cell_volume   224.81272918
_cell_formula_units_Z   1
loop_
 _symmetry_equiv_pos_site_id
 _symmetry_equiv_pos_as_xyz
  1  'x, y, z'
loop_
 _atom_site_type_symbol
 _atom_site_label
 _atom_site_symmetry_multiplicity
 _atom_site_fract_x
 _atom_site_fract_y
 _atom_site_fract_z
 _atom_site_occupancy
  Cu  Cu0  1  0.000000  0.500000  0.500000  1
  Rh  Rh1  1  0.500000  0.000000  0.500000  1
  Rh  Rh2  1  0.500000  0.500000  0.000000  1
  Se  Se3  1  0.384887  0.878972  0.112805  1
  Se  Se4  1  0.111090  0.385276  0.887715  1
  Se  Se5  1  0.882206  0.106634  0.385073  1
  Se  Se6  1  0.615113  0.121028  0.887195  1
  Se  Se7  1  0.888910  0.614724  0.112285  1
  Se  Se8  1  0.117794  0.893366  0.614927  1
  Se  Se9  1  0.610261  0.624414  0.623270  1
  Se  Se10  1  0.389739  0.375586  0.376730  1
