# generated using pymatgen
data_Tm2Si2NiPt2
_symmetry_space_group_name_H-M   'P 1'
_cell_length_a   4.00717400
_cell_length_b   6.67406100
_cell_length_c   8.75661300
_cell_angle_alpha   90.00000000
_cell_angle_beta   90.00000000
_cell_angle_gamma   90.00000000
_symmetry_Int_Tables_number   1
_chemical_formula_structural   Tm2Si2NiPt2
_chemical_formula_sum   'Tm4 Si4 Ni2 Pt4'
_cell_volume   234.18794138
_cell_formula_units_Z   2
loop_
 _symmetry_equiv_pos_site_id
 _symmetry_equiv_pos_as_xyz
  1  'x, y, z'
loop_
 _atom_site_type_symbol
 _atom_site_label
 _atom_site_symmetry_multiplicity
 _atom_site_fract_x
 _atom_site_fract_y
 _atom_site_fract_z
 _atom_site_occupancy
  Tm  Tm0  1  0.000000  0.879746  0.328195  1
  Tm  Tm1  1  0.000000  0.120254  0.671805  1
  Tm  Tm2  1  0.000000  0.379746  0.171805  1
  Tm  Tm3  1  0.000000  0.620254  0.828195  1
  Si  Si4  1  0.500000  0.567938  0.361674  1
  Si  Si5  1  0.500000  0.432062  0.638326  1
  Si  Si6  1  0.500000  0.067938  0.138326  1
  Si  Si7  1  0.500000  0.932062  0.861674  1
  Ni  Ni8  1  0.000000  0.500000  0.500000  1
  Ni  Ni9  1  0.000000  0.000000  0.000000  1
  Pt  Pt10  1  0.500000  0.694772  0.088239  1
  Pt  Pt11  1  0.500000  0.305228  0.911761  1
  Pt  Pt12  1  0.500000  0.194772  0.411761  1
  Pt  Pt13  1  0.500000  0.805228  0.588239  1
