# generated using pymatgen
data_Pr5Tm5(Pb3Cl)2
_symmetry_space_group_name_H-M   'P 1'
_cell_length_a   9.39556222
_cell_length_b   9.39556243
_cell_length_c   6.68643400
_cell_angle_alpha   90.00000000
_cell_angle_beta   90.00000000
_cell_angle_gamma   120.23175645
_symmetry_Int_Tables_number   1
_chemical_formula_structural   Pr5Tm5(Pb3Cl)2
_chemical_formula_sum   'Pr5 Tm5 Pb6 Cl2'
_cell_volume   509.97840098
_cell_formula_units_Z   1
loop_
 _symmetry_equiv_pos_site_id
 _symmetry_equiv_pos_as_xyz
  1  'x, y, z'
loop_
 _atom_site_type_symbol
 _atom_site_label
 _atom_site_symmetry_multiplicity
 _atom_site_fract_x
 _atom_site_fract_y
 _atom_site_fract_z
 _atom_site_occupancy
  Pr  Pr0  1  0.259143  0.001230  0.250000  1
  Pr  Pr1  1  0.737208  0.997776  0.750000  1
  Pr  Pr2  1  0.001230  0.259143  0.250000  1
  Pr  Pr3  1  0.997776  0.737208  0.750000  1
  Pr  Pr4  1  0.742147  0.742147  0.250000  1
  Tm  Tm5  1  0.260779  0.260779  0.750000  1
  Tm  Tm6  1  0.333215  0.665420  0.999587  1
  Tm  Tm7  1  0.665420  0.333215  0.999587  1
  Tm  Tm8  1  0.665420  0.333215  0.500413  1
  Tm  Tm9  1  0.333215  0.665420  0.500413  1
  Pb  Pb10  1  0.606570  0.000247  0.250000  1
  Pb  Pb11  1  0.390892  0.005072  0.750000  1
  Pb  Pb12  1  0.000247  0.606570  0.250000  1
  Pb  Pb13  1  0.005072  0.390892  0.750000  1
  Pb  Pb14  1  0.393722  0.393722  0.250000  1
  Pb  Pb15  1  0.599647  0.599647  0.750000  1
  Cl  Cl16  1  0.004148  0.004148  0.994427  1
  Cl  Cl17  1  0.004148  0.004148  0.505573  1
