# generated using pymatgen
data_Dy3Mo(P3Rh4)2
_symmetry_space_group_name_H-M   'P 1'
_cell_length_a   3.93717600
_cell_length_b   11.14253600
_cell_length_c   12.80844600
_cell_angle_alpha   90.00000000
_cell_angle_beta   90.00000000
_cell_angle_gamma   90.00000000
_symmetry_Int_Tables_number   1
_chemical_formula_structural   Dy3Mo(P3Rh4)2
_chemical_formula_sum   'Dy6 Mo2 P12 Rh16'
_cell_volume   561.90813115
_cell_formula_units_Z   2
loop_
 _symmetry_equiv_pos_site_id
 _symmetry_equiv_pos_as_xyz
  1  'x, y, z'
loop_
 _atom_site_type_symbol
 _atom_site_label
 _atom_site_symmetry_multiplicity
 _atom_site_fract_x
 _atom_site_fract_y
 _atom_site_fract_z
 _atom_site_occupancy
  Dy  Dy0  1  0.000000  0.500000  0.521690  1
  Dy  Dy1  1  0.500000  0.000000  0.478310  1
  Dy  Dy2  1  0.500000  0.816423  0.203169  1
  Dy  Dy3  1  0.500000  0.183577  0.203169  1
  Dy  Dy4  1  0.000000  0.683577  0.796831  1
  Dy  Dy5  1  0.000000  0.316423  0.796831  1
  Mo  Mo6  1  0.500000  0.500000  0.157080  1
  Mo  Mo7  1  0.000000  0.000000  0.842920  1
  P  P8  1  0.500000  0.500000  0.875250  1
  P  P9  1  0.000000  0.000000  0.124750  1
  P  P10  1  0.500000  0.500000  0.345513  1
  P  P11  1  0.000000  0.000000  0.654487  1
  P  P12  1  0.500000  0.314750  0.617765  1
  P  P13  1  0.500000  0.685250  0.617765  1
  P  P14  1  0.000000  0.185250  0.382235  1
  P  P15  1  0.000000  0.814750  0.382235  1
  P  P16  1  0.500000  0.847558  0.887837  1
  P  P17  1  0.500000  0.152442  0.887837  1
  P  P18  1  0.000000  0.652442  0.112163  1
  P  P19  1  0.000000  0.347558  0.112163  1
  Rh  Rh20  1  0.500000  0.500000  0.698242  1
  Rh  Rh21  1  0.000000  0.000000  0.301758  1
  Rh  Rh22  1  0.000000  0.500000  0.987923  1
  Rh  Rh23  1  0.500000  0.000000  0.012077  1
  Rh  Rh24  1  0.500000  0.331618  0.984398  1
  Rh  Rh25  1  0.500000  0.668382  0.984398  1
  Rh  Rh26  1  0.000000  0.168382  0.015602  1
  Rh  Rh27  1  0.000000  0.831618  0.015602  1
  Rh  Rh28  1  0.500000  0.294930  0.431860  1
  Rh  Rh29  1  0.500000  0.705070  0.431860  1
  Rh  Rh30  1  0.000000  0.205070  0.568140  1
  Rh  Rh31  1  0.000000  0.794930  0.568140  1
  Rh  Rh32  1  0.500000  0.875072  0.708368  1
  Rh  Rh33  1  0.500000  0.124928  0.708368  1
  Rh  Rh34  1  0.000000  0.624928  0.291632  1
  Rh  Rh35  1  0.000000  0.375072  0.291632  1
