# generated using pymatgen
data_Ca5La3(Si3Pt)4
_symmetry_space_group_name_H-M   'P 1'
_cell_length_a   8.23810300
_cell_length_b   8.23767712
_cell_length_c   8.61644800
_cell_angle_alpha   90.00000000
_cell_angle_beta   90.00000000
_cell_angle_gamma   120.00170618
_symmetry_Int_Tables_number   1
_chemical_formula_structural   Ca5La3(Si3Pt)4
_chemical_formula_sum   'Ca5 La3 Si12 Pt4'
_cell_volume   506.38801620
_cell_formula_units_Z   1
loop_
 _symmetry_equiv_pos_site_id
 _symmetry_equiv_pos_as_xyz
  1  'x, y, z'
loop_
 _atom_site_type_symbol
 _atom_site_label
 _atom_site_symmetry_multiplicity
 _atom_site_fract_x
 _atom_site_fract_y
 _atom_site_fract_z
 _atom_site_occupancy
  Ca  Ca0  1  0.499709  0.500594  0.750000  1
  Ca  Ca1  1  0.500673  0.499708  0.250000  1
  Ca  Ca2  1  0.000885  0.500594  0.750000  1
  Ca  Ca3  1  0.999034  0.499708  0.250000  1
  Ca  Ca4  1  0.500523  0.001046  0.250000  1
  La  La5  1  0.499638  0.999275  0.750000  1
  La  La6  1  0.999980  0.999960  0.750000  1
  La  La7  1  0.999979  0.999958  0.250000  1
  Si  Si8  1  0.834826  0.166819  0.999952  1
  Si  Si9  1  0.165153  0.833104  0.001406  1
  Si  Si10  1  0.331993  0.166819  0.999952  1
  Si  Si11  1  0.165153  0.833104  0.498594  1
  Si  Si12  1  0.667951  0.833104  0.001406  1
  Si  Si13  1  0.834826  0.166819  0.500048  1
  Si  Si14  1  0.833345  0.666689  0.999405  1
  Si  Si15  1  0.667951  0.833104  0.498594  1
  Si  Si16  1  0.166566  0.333133  0.000832  1
  Si  Si17  1  0.331993  0.166819  0.500048  1
  Si  Si18  1  0.166566  0.333133  0.499168  1
  Si  Si19  1  0.833345  0.666689  0.500595  1
  Pt  Pt20  1  0.666792  0.333584  0.000796  1
  Pt  Pt21  1  0.333164  0.666327  0.001197  1
  Pt  Pt22  1  0.333164  0.666327  0.498803  1
  Pt  Pt23  1  0.666792  0.333584  0.499204  1
