# generated using pymatgen
data_Tm8Si15GeW12
_symmetry_space_group_name_H-M   'P 1'
_cell_length_a   6.73401246
_cell_length_b   6.91216396
_cell_length_c   12.87771548
_cell_angle_alpha   90.06971412
_cell_angle_beta   89.96448083
_cell_angle_gamma   90.01339712
_symmetry_Int_Tables_number   1
_chemical_formula_structural   Tm8Si15GeW12
_chemical_formula_sum   'Tm8 Si15 Ge1 W12'
_cell_volume   599.41327393
_cell_formula_units_Z   1
loop_
 _symmetry_equiv_pos_site_id
 _symmetry_equiv_pos_as_xyz
  1  'x, y, z'
loop_
 _atom_site_type_symbol
 _atom_site_label
 _atom_site_symmetry_multiplicity
 _atom_site_fract_x
 _atom_site_fract_y
 _atom_site_fract_z
 _atom_site_occupancy
  Tm  Tm0  1  0.996462  0.168407  0.093135  1
  Tm  Tm1  1  0.003521  0.832043  0.907284  1
  Tm  Tm2  1  0.503455  0.667872  0.907317  1
  Tm  Tm3  1  0.004254  0.831851  0.593204  1
  Tm  Tm4  1  0.496356  0.332059  0.092956  1
  Tm  Tm5  1  0.994920  0.168132  0.406552  1
  Tm  Tm6  1  0.496779  0.330629  0.405656  1
  Tm  Tm7  1  0.508064  0.670198  0.593870  1
  Si  Si8  1  0.033202  0.128824  0.750078  1
  Si  Si9  1  0.965788  0.873117  0.248627  1
  Si  Si10  1  0.466033  0.628930  0.249863  1
  Si  Si11  1  0.532495  0.371481  0.750664  1
  Si  Si12  1  0.300798  0.862463  0.750890  1
  Si  Si13  1  0.699089  0.135933  0.249389  1
  Si  Si14  1  0.198744  0.364955  0.249759  1
  Si  Si15  1  0.802428  0.635570  0.750535  1
  Si  Si16  1  0.834312  0.542482  0.452476  1
  Si  Si17  1  0.337532  0.958286  0.453435  1
  Si  Si18  1  0.838697  0.541119  0.046922  1
  Si  Si19  1  0.663164  0.041650  0.546266  1
  Si  Si20  1  0.161119  0.458258  0.953575  1
  Si  Si21  1  0.661178  0.040643  0.953138  1
  Si  Si22  1  0.338151  0.959088  0.047085  1
  Ge  Ge23  1  0.168562  0.458984  0.546141  1
  W  W24  1  0.165045  0.500199  0.751484  1
  W  W25  1  0.834477  0.499031  0.250263  1
  W  W26  1  0.334278  0.002342  0.250006  1
  W  W27  1  0.665788  0.998497  0.750126  1
  W  W28  1  0.332578  0.156575  0.626770  1
  W  W29  1  0.670333  0.838814  0.374547  1
  W  W30  1  0.167703  0.666397  0.371705  1
  W  W31  1  0.669782  0.836884  0.125154  1
  W  W32  1  0.826625  0.336923  0.626168  1
  W  W33  1  0.328880  0.161780  0.875347  1
  W  W34  1  0.828428  0.337091  0.875649  1
  W  W35  1  0.170984  0.662493  0.123963  1
