# generated using pymatgen
data_Ho2AlZnNi2
_symmetry_space_group_name_H-M   'P 1'
_cell_length_a   4.08999400
_cell_length_b   6.69037949
_cell_length_c   7.76680407
_cell_angle_alpha   90.40580369
_cell_angle_beta   90.00000000
_cell_angle_gamma   90.00000000
_symmetry_Int_Tables_number   1
_chemical_formula_structural   Ho2AlZnNi2
_chemical_formula_sum   'Ho4 Al2 Zn2 Ni4'
_cell_volume   212.52248233
_cell_formula_units_Z   2
loop_
 _symmetry_equiv_pos_site_id
 _symmetry_equiv_pos_as_xyz
  1  'x, y, z'
loop_
 _atom_site_type_symbol
 _atom_site_label
 _atom_site_symmetry_multiplicity
 _atom_site_fract_x
 _atom_site_fract_y
 _atom_site_fract_z
 _atom_site_occupancy
  Ho  Ho0  1  0.250000  0.534446  0.184578  1
  Ho  Ho1  1  0.750000  0.465554  0.815422  1
  Ho  Ho2  1  0.250000  0.039430  0.323126  1
  Ho  Ho3  1  0.750000  0.960570  0.676874  1
  Al  Al4  1  0.250000  0.136318  0.940903  1
  Al  Al5  1  0.750000  0.863682  0.059097  1
  Zn  Zn6  1  0.250000  0.638078  0.559533  1
  Zn  Zn7  1  0.750000  0.361922  0.440467  1
  Ni  Ni8  1  0.750000  0.740509  0.368925  1
  Ni  Ni9  1  0.250000  0.259491  0.631075  1
  Ni  Ni10  1  0.750000  0.232255  0.116972  1
  Ni  Ni11  1  0.250000  0.767745  0.883028  1
