# generated using pymatgen
data_Y2Ho2Si4Ir3Os
_symmetry_space_group_name_H-M   'P 1'
_cell_length_a   4.26834000
_cell_length_b   6.88869331
_cell_length_c   7.36699567
_cell_angle_alpha   90.13715585
_cell_angle_beta   90.00000000
_cell_angle_gamma   90.00000000
_symmetry_Int_Tables_number   1
_chemical_formula_structural   Y2Ho2Si4Ir3Os
_chemical_formula_sum   'Y2 Ho2 Si4 Ir3 Os1'
_cell_volume   216.61325429
_cell_formula_units_Z   1
loop_
 _symmetry_equiv_pos_site_id
 _symmetry_equiv_pos_as_xyz
  1  'x, y, z'
loop_
 _atom_site_type_symbol
 _atom_site_label
 _atom_site_symmetry_multiplicity
 _atom_site_fract_x
 _atom_site_fract_y
 _atom_site_fract_z
 _atom_site_occupancy
  Y  Y0  1  0.250000  0.995252  0.314138  1
  Y  Y1  1  0.250000  0.500013  0.184663  1
  Ho  Ho2  1  0.750000  0.501898  0.813736  1
  Ho  Ho3  1  0.750000  0.002833  0.687997  1
  Si  Si4  1  0.250000  0.799740  0.882975  1
  Si  Si5  1  0.250000  0.302242  0.609814  1
  Si  Si6  1  0.750000  0.199909  0.111102  1
  Si  Si7  1  0.750000  0.699834  0.397127  1
  Ir  Ir8  1  0.250000  0.158089  0.933667  1
  Ir  Ir9  1  0.750000  0.842806  0.063750  1
  Ir  Ir10  1  0.750000  0.341371  0.434796  1
  Os  Os11  1  0.250000  0.656013  0.566235  1
