# generated using pymatgen
data_Y10Tm2InCo4Ir
_symmetry_space_group_name_H-M   'P 1'
_cell_length_a   8.31728666
_cell_length_b   8.34351942
_cell_length_c   8.31728703
_cell_angle_alpha   111.14694212
_cell_angle_beta   110.38849337
_cell_angle_gamma   106.78651617
_symmetry_Int_Tables_number   1
_chemical_formula_structural   Y10Tm2InCo4Ir
_chemical_formula_sum   'Y10 Tm2 In1 Co4 Ir1'
_cell_volume   444.27056369
_cell_formula_units_Z   1
loop_
 _symmetry_equiv_pos_site_id
 _symmetry_equiv_pos_as_xyz
  1  'x, y, z'
loop_
 _atom_site_type_symbol
 _atom_site_label
 _atom_site_symmetry_multiplicity
 _atom_site_fract_x
 _atom_site_fract_y
 _atom_site_fract_z
 _atom_site_occupancy
  Y  Y0  1  0.411670  0.216230  0.192543  1
  Y  Y1  1  0.588330  0.783770  0.807457  1
  Y  Y2  1  0.023688  0.216230  0.804560  1
  Y  Y3  1  0.976312  0.783770  0.195440  1
  Y  Y4  1  0.182209  0.284346  0.469125  1
  Y  Y5  1  0.817791  0.715654  0.530875  1
  Y  Y6  1  0.184780  0.715654  0.897863  1
  Y  Y7  1  0.815220  0.284346  0.102137  1
  Y  Y8  1  0.315605  0.621125  0.305520  1
  Y  Y9  1  0.684395  0.378875  0.694480  1
  Tm  Tm10  1  0.315949  0.007080  0.691131  1
  Tm  Tm11  1  0.684051  0.992920  0.308869  1
  In  In12  1  0.500000  0.500000  0.000000  1
  Co  Co13  1  0.379985  0.000000  0.379985  1
  Co  Co14  1  0.620015  0.000000  0.620015  1
  Co  Co15  1  0.111151  0.612734  0.501583  1
  Co  Co16  1  0.888849  0.387266  0.498417  1
  Ir  Ir17  1  0.000000  0.000000  0.000000  1
