# generated using pymatgen
data_Rb2FeSi3O8
_symmetry_space_group_name_H-M   'P 1'
_cell_length_a   5.39669562
_cell_length_b   7.02207999
_cell_length_c   7.00680762
_cell_angle_alpha   77.87842493
_cell_angle_beta   69.48432186
_cell_angle_gamma   67.59573863
_symmetry_Int_Tables_number   1
_chemical_formula_structural   Rb2FeSi3O8
_chemical_formula_sum   'Rb2 Fe1 Si3 O8'
_cell_volume   229.02064572
_cell_formula_units_Z   1
loop_
 _symmetry_equiv_pos_site_id
 _symmetry_equiv_pos_as_xyz
  1  'x, y, z'
loop_
 _atom_site_type_symbol
 _atom_site_label
 _atom_site_symmetry_multiplicity
 _atom_site_fract_x
 _atom_site_fract_y
 _atom_site_fract_z
 _atom_site_occupancy
  Rb  Rb0  1  0.956449  0.291111  0.815938  1
  Rb  Rb1  1  0.099497  0.676254  0.146991  1
  Fe  Fe2  1  0.666261  0.887787  0.776176  1
  Si  Si3  1  0.319547  0.090593  0.262844  1
  Si  Si4  1  0.655616  0.291038  0.405211  1
  Si  Si5  1  0.347208  0.703791  0.599702  1
  O  O6  1  0.993411  0.253216  0.273626  1
  O  O7  1  0.533507  0.668301  0.747751  1
  O  O8  1  0.508541  0.234216  0.259743  1
  O  O9  1  0.048837  0.679237  0.732261  1
  O  O10  1  0.297383  0.940686  0.476990  1
  O  O11  1  0.611949  0.170350  0.627303  1
  O  O12  1  0.448527  0.970244  0.063270  1
  O  O13  1  0.513266  0.545176  0.410193  1
