# generated using pymatgen
data_Li4HfU3Ir8
_symmetry_space_group_name_H-M   'P 1'
_cell_length_a   5.87971200
_cell_length_b   5.87949100
_cell_length_c   7.39887800
_cell_angle_alpha   90.00000000
_cell_angle_beta   89.99992230
_cell_angle_gamma   90.00000000
_symmetry_Int_Tables_number   1
_chemical_formula_structural   Li4HfU3Ir8
_chemical_formula_sum   'Li4 Hf1 U3 Ir8'
_cell_volume   255.77709480
_cell_formula_units_Z   1
loop_
 _symmetry_equiv_pos_site_id
 _symmetry_equiv_pos_as_xyz
  1  'x, y, z'
loop_
 _atom_site_type_symbol
 _atom_site_label
 _atom_site_symmetry_multiplicity
 _atom_site_fract_x
 _atom_site_fract_y
 _atom_site_fract_z
 _atom_site_occupancy
  Li  Li0  1  0.750073  0.249999  0.000008  1
  Li  Li1  1  0.249926  0.749999  0.000011  1
  Li  Li2  1  0.250063  0.749999  0.499978  1
  Li  Li3  1  0.749929  0.249999  0.500002  1
  Hf  Hf4  1  0.750178  0.749999  0.500001  1
  U  U5  1  0.250169  0.249999  0.000000  1
  U  U6  1  0.749851  0.749999  0.999998  1
  U  U7  1  0.249816  0.249999  0.499999  1
  Ir  Ir8  1  0.999440  0.999446  0.251260  1
  Ir  Ir9  1  0.999440  0.500559  0.251260  1
  Ir  Ir10  1  0.500566  0.999433  0.251389  1
  Ir  Ir11  1  0.500566  0.500562  0.251389  1
  Ir  Ir12  1  0.500555  0.999435  0.748612  1
  Ir  Ir13  1  0.500555  0.500570  0.748612  1
  Ir  Ir14  1  0.999437  0.999438  0.748742  1
  Ir  Ir15  1  0.999437  0.500557  0.748742  1
