# generated using pymatgen
data_Tm7Pa(Si4W3)4
_symmetry_space_group_name_H-M   'P 1'
_cell_length_a   6.74216206
_cell_length_b   6.91220124
_cell_length_c   12.86682700
_cell_angle_alpha   90.03696100
_cell_angle_beta   90.00768231
_cell_angle_gamma   90.02750650
_symmetry_Int_Tables_number   1
_chemical_formula_structural   Tm7Pa(Si4W3)4
_chemical_formula_sum   'Tm7 Pa1 Si16 W12'
_cell_volume   599.63486729
_cell_formula_units_Z   1
loop_
 _symmetry_equiv_pos_site_id
 _symmetry_equiv_pos_as_xyz
  1  'x, y, z'
loop_
 _atom_site_type_symbol
 _atom_site_label
 _atom_site_symmetry_multiplicity
 _atom_site_fract_x
 _atom_site_fract_y
 _atom_site_fract_z
 _atom_site_occupancy
  Tm  Tm0  1  0.494863  0.331577  0.092724  1
  Tm  Tm1  1  0.993446  0.167473  0.407316  1
  Tm  Tm2  1  0.504370  0.667538  0.593530  1
  Tm  Tm3  1  0.004728  0.833487  0.905618  1
  Tm  Tm4  1  0.503892  0.668452  0.905123  1
  Tm  Tm5  1  0.004494  0.831613  0.593516  1
  Tm  Tm6  1  0.494621  0.332025  0.408081  1
  Pa  Pa7  1  0.995822  0.170370  0.095430  1
  Si  Si8  1  0.803130  0.634988  0.749516  1
  Si  Si9  1  0.303642  0.865468  0.749435  1
  Si  Si10  1  0.199582  0.367387  0.252442  1
  Si  Si11  1  0.692820  0.133356  0.252241  1
  Si  Si12  1  0.536477  0.371742  0.749895  1
  Si  Si13  1  0.037110  0.128343  0.749341  1
  Si  Si14  1  0.464449  0.628402  0.248928  1
  Si  Si15  1  0.962723  0.869315  0.251783  1
  Si  Si16  1  0.662364  0.040605  0.545641  1
  Si  Si17  1  0.164159  0.460360  0.954041  1
  Si  Si18  1  0.340283  0.955949  0.044817  1
  Si  Si19  1  0.838012  0.540186  0.454105  1
  Si  Si20  1  0.336497  0.959472  0.454112  1
  Si  Si21  1  0.835873  0.546248  0.044599  1
  Si  Si22  1  0.661978  0.041354  0.953309  1
  Si  Si23  1  0.162446  0.458907  0.545490  1
  W  W24  1  0.667034  0.000163  0.749429  1
  W  W25  1  0.165909  0.501042  0.750299  1
  W  W26  1  0.330430  0.003072  0.248663  1
  W  W27  1  0.833959  0.493081  0.248484  1
  W  W28  1  0.833855  0.335137  0.624812  1
  W  W29  1  0.333315  0.163316  0.875201  1
  W  W30  1  0.167663  0.661639  0.125256  1
  W  W31  1  0.664766  0.833768  0.375416  1
  W  W32  1  0.167551  0.664322  0.375505  1
  W  W33  1  0.670139  0.840397  0.125165  1
  W  W34  1  0.834615  0.334706  0.876080  1
  W  W35  1  0.332987  0.164736  0.624654  1
