# generated using pymatgen
data_Tm8Hf12Si15Sb
_symmetry_space_group_name_H-M   'P 1'
_cell_length_a   7.08507865
_cell_length_b   7.23435462
_cell_length_c   13.80073689
_cell_angle_alpha   90.12710312
_cell_angle_beta   89.17319232
_cell_angle_gamma   90.07741088
_symmetry_Int_Tables_number   1
_chemical_formula_structural   Tm8Hf12Si15Sb
_chemical_formula_sum   'Tm8 Hf12 Si15 Sb1'
_cell_volume   707.29417041
_cell_formula_units_Z   1
loop_
 _symmetry_equiv_pos_site_id
 _symmetry_equiv_pos_as_xyz
  1  'x, y, z'
loop_
 _atom_site_type_symbol
 _atom_site_label
 _atom_site_symmetry_multiplicity
 _atom_site_fract_x
 _atom_site_fract_y
 _atom_site_fract_z
 _atom_site_occupancy
  Tm  Tm0  1  0.010633  0.176660  0.095541  1
  Tm  Tm1  1  0.989015  0.824370  0.904882  1
  Tm  Tm2  1  0.489441  0.675756  0.904959  1
  Tm  Tm3  1  0.992748  0.829016  0.597815  1
  Tm  Tm4  1  0.510318  0.324390  0.096232  1
  Tm  Tm5  1  0.000776  0.171971  0.400702  1
  Tm  Tm6  1  0.508989  0.319281  0.400222  1
  Tm  Tm7  1  0.507983  0.684300  0.600316  1
  Hf  Hf8  1  0.161328  0.497350  0.754836  1
  Hf  Hf9  1  0.837892  0.501393  0.249920  1
  Hf  Hf10  1  0.337826  0.000224  0.249323  1
  Hf  Hf11  1  0.663125  0.999118  0.751867  1
  Hf  Hf12  1  0.345472  0.160965  0.630397  1
  Hf  Hf13  1  0.662679  0.826473  0.372713  1
  Hf  Hf14  1  0.157998  0.683229  0.369283  1
  Hf  Hf15  1  0.667187  0.823534  0.123747  1
  Hf  Hf16  1  0.827963  0.324344  0.625880  1
  Hf  Hf17  1  0.330209  0.175977  0.876156  1
  Hf  Hf18  1  0.831658  0.323693  0.876101  1
  Hf  Hf19  1  0.168549  0.676472  0.124486  1
  Si  Si20  1  0.036679  0.118351  0.750247  1
  Si  Si21  1  0.960189  0.885388  0.246759  1
  Si  Si22  1  0.461637  0.617169  0.248812  1
  Si  Si23  1  0.537102  0.383118  0.752056  1
  Si  Si24  1  0.290924  0.864933  0.752500  1
  Si  Si25  1  0.708679  0.131084  0.247570  1
  Si  Si26  1  0.208191  0.369291  0.249201  1
  Si  Si27  1  0.794170  0.631268  0.751424  1
  Si  Si28  1  0.818717  0.536122  0.458107  1
  Si  Si29  1  0.332859  0.965575  0.459499  1
  Si  Si30  1  0.840896  0.531817  0.041331  1
  Si  Si31  1  0.669192  0.035129  0.538348  1
  Si  Si32  1  0.158683  0.468432  0.960067  1
  Si  Si33  1  0.657982  0.031934  0.959206  1
  Si  Si34  1  0.340975  0.968352  0.041089  1
  Sb  Sb35  1  0.181332  0.463515  0.538405  1
