# generated using pymatgen
data_Tb3Ce(CrB4)4
_symmetry_space_group_name_H-M   'P 1'
_cell_length_a   3.46931900
_cell_length_b   5.94869418
_cell_length_c   11.51218553
_cell_angle_alpha   90.08762698
_cell_angle_beta   90.00000000
_cell_angle_gamma   90.00000000
_symmetry_Int_Tables_number   1
_chemical_formula_structural   Tb3Ce(CrB4)4
_chemical_formula_sum   'Tb3 Ce1 Cr4 B16'
_cell_volume   237.58725995
_cell_formula_units_Z   1
loop_
 _symmetry_equiv_pos_site_id
 _symmetry_equiv_pos_as_xyz
  1  'x, y, z'
loop_
 _atom_site_type_symbol
 _atom_site_label
 _atom_site_symmetry_multiplicity
 _atom_site_fract_x
 _atom_site_fract_y
 _atom_site_fract_z
 _atom_site_occupancy
  Tb  Tb0  1  0.000000  0.623785  0.349086  1
  Tb  Tb1  1  0.000000  0.376446  0.650017  1
  Tb  Tb2  1  0.000000  0.124522  0.151984  1
  Ce  Ce3  1  0.000000  0.875968  0.848977  1
  Cr  Cr4  1  0.000000  0.623658  0.081114  1
  Cr  Cr5  1  0.000000  0.376005  0.918616  1
  Cr  Cr6  1  0.000000  0.123915  0.418656  1
  Cr  Cr7  1  0.000000  0.876981  0.581312  1
  B  B8  1  0.500000  0.780261  0.185026  1
  B  B9  1  0.500000  0.220627  0.816328  1
  B  B10  1  0.500000  0.280898  0.315862  1
  B  B11  1  0.500000  0.719082  0.682968  1
  B  B12  1  0.500000  0.861037  0.033880  1
  B  B13  1  0.500000  0.138968  0.967530  1
  B  B14  1  0.500000  0.362367  0.466763  1
  B  B15  1  0.500000  0.637540  0.532024  1
  B  B16  1  0.500000  0.886733  0.453194  1
  B  B17  1  0.500000  0.114043  0.545631  1
  B  B18  1  0.500000  0.386130  0.047191  1
  B  B19  1  0.500000  0.611503  0.954222  1
  B  B20  1  0.500000  0.974667  0.308951  1
  B  B21  1  0.500000  0.025441  0.689698  1
  B  B22  1  0.500000  0.474611  0.191627  1
  B  B23  1  0.500000  0.524813  0.809342  1
