# generated using pymatgen
data_Ho10GaB16Au3
_symmetry_space_group_name_H-M   'P 1'
_cell_length_a   7.18672483
_cell_length_b   7.18672483
_cell_length_c   8.43529100
_cell_angle_alpha   90.00000000
_cell_angle_beta   90.00000000
_cell_angle_gamma   89.75951895
_symmetry_Int_Tables_number   1
_chemical_formula_structural   Ho10GaB16Au3
_chemical_formula_sum   'Ho10 Ga1 B16 Au3'
_cell_volume   435.67062307
_cell_formula_units_Z   1
loop_
 _symmetry_equiv_pos_site_id
 _symmetry_equiv_pos_as_xyz
  1  'x, y, z'
loop_
 _atom_site_type_symbol
 _atom_site_label
 _atom_site_symmetry_multiplicity
 _atom_site_fract_x
 _atom_site_fract_y
 _atom_site_fract_z
 _atom_site_occupancy
  Ho  Ho0  1  0.681104  0.179665  0.211635  1
  Ho  Ho1  1  0.320335  0.818896  0.788365  1
  Ho  Ho2  1  0.320335  0.818896  0.211635  1
  Ho  Ho3  1  0.818235  0.681765  0.211974  1
  Ho  Ho4  1  0.818235  0.681765  0.788026  1
  Ho  Ho5  1  0.681104  0.179665  0.788365  1
  Ho  Ho6  1  0.181340  0.318660  0.788818  1
  Ho  Ho7  1  0.181340  0.318660  0.211182  1
  Ho  Ho8  1  0.003227  0.001264  0.500000  1
  Ho  Ho9  1  0.498736  0.496773  0.500000  1
  Ga  Ga10  1  0.621221  0.878779  0.500000  1
  B  B11  1  0.171682  0.040215  0.000000  1
  B  B12  1  0.828585  0.959392  0.000000  1
  B  B13  1  0.959353  0.172108  0.000000  1
  B  B14  1  0.327892  0.540647  0.000000  1
  B  B15  1  0.040736  0.827662  0.000000  1
  B  B16  1  0.672338  0.459264  0.000000  1
  B  B17  1  0.540608  0.671415  0.000000  1
  B  B18  1  0.459785  0.328318  0.000000  1
  B  B19  1  0.090052  0.590266  0.000000  1
  B  B20  1  0.909734  0.409948  0.000000  1
  B  B21  1  0.409503  0.090497  0.000000  1
  B  B22  1  0.590788  0.909212  0.000000  1
  B  B23  1  0.000036  0.000044  0.156687  1
  B  B24  1  0.000036  0.000044  0.843313  1
  B  B25  1  0.499956  0.499964  0.843313  1
  B  B26  1  0.499956  0.499964  0.156687  1
  Au  Au27  1  0.130035  0.631009  0.500000  1
  Au  Au28  1  0.868991  0.369965  0.500000  1
  Au  Au29  1  0.374721  0.125279  0.500000  1
