# generated using pymatgen
data_CeDy7(CoAg)2
_symmetry_space_group_name_H-M   'P 1'
_cell_length_a   9.25908300
_cell_length_b   9.53696543
_cell_length_c   9.53696449
_cell_angle_alpha   58.08147778
_cell_angle_beta   60.95926715
_cell_angle_gamma   60.95925906
_symmetry_Int_Tables_number   1
_chemical_formula_structural   CeDy7(CoAg)2
_chemical_formula_sum   'Ce2 Dy14 Co4 Ag4'
_cell_volume   594.50580293
_cell_formula_units_Z   2
loop_
 _symmetry_equiv_pos_site_id
 _symmetry_equiv_pos_as_xyz
  1  'x, y, z'
loop_
 _atom_site_type_symbol
 _atom_site_label
 _atom_site_symmetry_multiplicity
 _atom_site_fract_x
 _atom_site_fract_y
 _atom_site_fract_z
 _atom_site_occupancy
  Ce  Ce0  1  0.818539  0.181461  0.181461  1
  Ce  Ce1  1  0.181461  0.818539  0.818539  1
  Dy  Dy2  1  0.191670  0.808330  0.191670  1
  Dy  Dy3  1  0.808330  0.191670  0.808330  1
  Dy  Dy4  1  0.191670  0.191670  0.808330  1
  Dy  Dy5  1  0.808330  0.808330  0.191670  1
  Dy  Dy6  1  0.925691  0.574309  0.574309  1
  Dy  Dy7  1  0.574309  0.925691  0.925691  1
  Dy  Dy8  1  0.559471  0.940529  0.559471  1
  Dy  Dy9  1  0.940529  0.559471  0.940529  1
  Dy  Dy10  1  0.559471  0.559471  0.940529  1
  Dy  Dy11  1  0.940529  0.940529  0.559471  1
  Dy  Dy12  1  0.339059  0.351446  0.351446  1
  Dy  Dy13  1  0.351446  0.339059  0.958050  1
  Dy  Dy14  1  0.351446  0.958050  0.339059  1
  Dy  Dy15  1  0.958050  0.351446  0.351446  1
  Co  Co16  1  0.096919  0.155989  0.155989  1
  Co  Co17  1  0.155989  0.096919  0.591102  1
  Co  Co18  1  0.155989  0.591102  0.096919  1
  Co  Co19  1  0.591102  0.155989  0.155989  1
  Ag  Ag20  1  0.585625  0.579731  0.579731  1
  Ag  Ag21  1  0.579731  0.585625  0.254914  1
  Ag  Ag22  1  0.579731  0.254914  0.585625  1
  Ag  Ag23  1  0.254914  0.579731  0.579731  1
