# generated using pymatgen
data_Dy3Cd3CuPtAu
_symmetry_space_group_name_H-M   'P 1'
_cell_length_a   7.72598300
_cell_length_b   7.72598328
_cell_length_c   3.80740900
_cell_angle_alpha   90.00000000
_cell_angle_beta   90.00000000
_cell_angle_gamma   120.00001166
_symmetry_Int_Tables_number   1
_chemical_formula_structural   Dy3Cd3CuPtAu
_chemical_formula_sum   'Dy3 Cd3 Cu1 Pt1 Au1'
_cell_volume   196.81927365
_cell_formula_units_Z   1
loop_
 _symmetry_equiv_pos_site_id
 _symmetry_equiv_pos_as_xyz
  1  'x, y, z'
loop_
 _atom_site_type_symbol
 _atom_site_label
 _atom_site_symmetry_multiplicity
 _atom_site_fract_x
 _atom_site_fract_y
 _atom_site_fract_z
 _atom_site_occupancy
  Dy  Dy0  1  0.015610  0.416212  0.500000  1
  Dy  Dy1  1  0.583788  0.599398  0.500000  1
  Dy  Dy2  1  0.400602  0.984390  0.500000  1
  Cd  Cd3  1  0.997111  0.750161  0.000000  1
  Cd  Cd4  1  0.249839  0.246949  0.000000  1
  Cd  Cd5  1  0.753051  0.002889  0.000000  1
  Cu  Cu6  1  0.000000  0.000000  0.500000  1
  Pt  Pt7  1  0.333333  0.666667  0.000000  1
  Au  Au8  1  0.666667  0.333333  0.000000  1
