# generated using pymatgen
data_Y4CdInPd4
_symmetry_space_group_name_H-M   'P 1'
_cell_length_a   7.76938900
_cell_length_b   7.76938900
_cell_length_c   3.74100200
_cell_angle_alpha   90.00000000
_cell_angle_beta   90.00000000
_cell_angle_gamma   90.00000000
_symmetry_Int_Tables_number   1
_chemical_formula_structural   Y4CdInPd4
_chemical_formula_sum   'Y4 Cd1 In1 Pd4'
_cell_volume   225.81962045
_cell_formula_units_Z   1
loop_
 _symmetry_equiv_pos_site_id
 _symmetry_equiv_pos_as_xyz
  1  'x, y, z'
loop_
 _atom_site_type_symbol
 _atom_site_label
 _atom_site_symmetry_multiplicity
 _atom_site_fract_x
 _atom_site_fract_y
 _atom_site_fract_z
 _atom_site_occupancy
  Y  Y0  1  0.674979  0.165192  0.500000  1
  Y  Y1  1  0.325021  0.834808  0.500000  1
  Y  Y2  1  0.165192  0.325021  0.500000  1
  Y  Y3  1  0.834808  0.674979  0.500000  1
  Cd  Cd4  1  0.500000  0.500000  0.000000  1
  In  In5  1  0.000000  0.000000  0.000000  1
  Pd  Pd6  1  0.131231  0.627132  0.000000  1
  Pd  Pd7  1  0.868769  0.372868  0.000000  1
  Pd  Pd8  1  0.627132  0.868769  0.000000  1
  Pd  Pd9  1  0.372868  0.131231  0.000000  1
