# generated using pymatgen
data_Th3Al7Cu2
_symmetry_space_group_name_H-M   'P 1'
_cell_length_a   9.18996969
_cell_length_b   9.18996924
_cell_length_c   9.18996969
_cell_angle_alpha   35.56711177
_cell_angle_beta   35.56711319
_cell_angle_gamma   35.56711431
_symmetry_Int_Tables_number   1
_chemical_formula_structural   Th3Al7Cu2
_chemical_formula_sum   'Th3 Al7 Cu2'
_cell_volume   234.68871377
_cell_formula_units_Z   1
loop_
 _symmetry_equiv_pos_site_id
 _symmetry_equiv_pos_as_xyz
  1  'x, y, z'
loop_
 _atom_site_type_symbol
 _atom_site_label
 _atom_site_symmetry_multiplicity
 _atom_site_fract_x
 _atom_site_fract_y
 _atom_site_fract_z
 _atom_site_occupancy
  Th  Th0  1  0.000000  0.000000  0.000000  1
  Th  Th1  1  0.141103  0.141103  0.141103  1
  Th  Th2  1  0.858897  0.858897  0.858897  1
  Al  Al3  1  0.500000  0.500000  0.500000  1
  Al  Al4  1  0.070375  0.580737  0.580737  1
  Al  Al5  1  0.580737  0.580737  0.070375  1
  Al  Al6  1  0.580737  0.070375  0.580737  1
  Al  Al7  1  0.419263  0.929625  0.419263  1
  Al  Al8  1  0.929625  0.419263  0.419263  1
  Al  Al9  1  0.419263  0.419263  0.929625  1
  Cu  Cu10  1  0.335470  0.335470  0.335470  1
  Cu  Cu11  1  0.664530  0.664530  0.664530  1
