# generated using pymatgen
data_HoPu3Tc4F28
_symmetry_space_group_name_H-M   'P 1'
_cell_length_a   5.67278166
_cell_length_b   9.03808111
_cell_length_c   12.23196800
_cell_angle_alpha   62.73587006
_cell_angle_beta   90.02770463
_cell_angle_gamma   90.00073524
_symmetry_Int_Tables_number   1
_chemical_formula_structural   HoPu3Tc4F28
_chemical_formula_sum   'Ho1 Pu3 Tc4 F28'
_cell_volume   557.47260801
_cell_formula_units_Z   1
loop_
 _symmetry_equiv_pos_site_id
 _symmetry_equiv_pos_as_xyz
  1  'x, y, z'
loop_
 _atom_site_type_symbol
 _atom_site_label
 _atom_site_symmetry_multiplicity
 _atom_site_fract_x
 _atom_site_fract_y
 _atom_site_fract_z
 _atom_site_occupancy
  Ho  Ho0  1  0.741026  0.807110  0.265532  1
  Pu  Pu1  1  0.755894  0.807667  0.766419  1
  Pu  Pu2  1  0.253999  0.191774  0.731877  1
  Pu  Pu3  1  0.240627  0.184573  0.236878  1
  Tc  Tc4  1  0.755965  0.269345  0.959894  1
  Tc  Tc5  1  0.257063  0.729550  0.537900  1
  Tc  Tc6  1  0.241638  0.728421  0.046448  1
  Tc  Tc7  1  0.742024  0.275715  0.455552  1
  F  F8  1  0.440501  0.707296  0.922340  1
  F  F9  1  0.939929  0.293918  0.581576  1
  F  F10  1  0.559529  0.292133  0.083024  1
  F  F11  1  0.052835  0.709985  0.414788  1
  F  F12  1  0.450441  0.277761  0.544124  1
  F  F13  1  0.952154  0.722506  0.957878  1
  F  F14  1  0.549561  0.724967  0.449754  1
  F  F15  1  0.051490  0.278122  0.042753  1
  F  F16  1  0.775757  0.513655  0.860930  1
  F  F17  1  0.274177  0.486041  0.636488  1
  F  F18  1  0.223544  0.484055  0.142065  1
  F  F19  1  0.727858  0.521722  0.359769  1
  F  F20  1  0.755106  0.026544  0.055213  1
  F  F21  1  0.254441  0.974195  0.446460  1
  F  F22  1  0.244564  0.971118  0.948472  1
  F  F23  1  0.744183  0.031443  0.551531  1
  F  F24  1  0.978312  0.728961  0.633675  1
  F  F25  1  0.473896  0.270911  0.865832  1
  F  F26  1  0.025710  0.270583  0.365090  1
  F  F27  1  0.523038  0.730903  0.141303  1
  F  F28  1  0.042258  0.749672  0.171768  1
  F  F29  1  0.553198  0.259003  0.325769  1
  F  F30  1  0.947357  0.251935  0.831278  1
  F  F31  1  0.449265  0.745200  0.667579  1
  F  F32  1  0.425180  0.963489  0.235061  1
  F  F33  1  0.913616  0.022888  0.265619  1
  F  F34  1  0.592160  0.033337  0.767901  1
  F  F35  1  0.091709  0.963500  0.731461  1
