# generated using pymatgen
data_Hf6Al16Cu3NiIr3
_symmetry_space_group_name_H-M   'P 1'
_cell_length_a   8.60623569
_cell_length_b   8.66949929
_cell_length_c   8.64932259
_cell_angle_alpha   59.59499165
_cell_angle_beta   60.14500167
_cell_angle_gamma   60.08634925
_symmetry_Int_Tables_number   1
_chemical_formula_structural   Hf6Al16Cu3NiIr3
_chemical_formula_sum   'Hf6 Al16 Cu3 Ni1 Ir3'
_cell_volume   455.70069485
_cell_formula_units_Z   1
loop_
 _symmetry_equiv_pos_site_id
 _symmetry_equiv_pos_as_xyz
  1  'x, y, z'
loop_
 _atom_site_type_symbol
 _atom_site_label
 _atom_site_symmetry_multiplicity
 _atom_site_fract_x
 _atom_site_fract_y
 _atom_site_fract_z
 _atom_site_occupancy
  Hf  Hf0  1  0.689976  0.310040  0.310029  1
  Hf  Hf1  1  0.310024  0.689960  0.689971  1
  Hf  Hf2  1  0.315327  0.684675  0.315324  1
  Hf  Hf3  1  0.684673  0.315325  0.684676  1
  Hf  Hf4  1  0.315792  0.315267  0.684205  1
  Hf  Hf5  1  0.684208  0.684733  0.315795  1
  Al  Al6  1  0.339367  0.329202  0.335327  1
  Al  Al7  1  0.660633  0.670798  0.664673  1
  Al  Al8  1  0.333384  0.336827  0.997139  1
  Al  Al9  1  0.335340  0.996096  0.339385  1
  Al  Al10  1  0.666616  0.663173  0.002861  1
  Al  Al11  1  0.664660  0.003904  0.660615  1
  Al  Al12  1  0.997117  0.332685  0.333379  1
  Al  Al13  1  0.002883  0.667315  0.666621  1
  Al  Al14  1  0.125333  0.115936  0.117348  1
  Al  Al15  1  0.874667  0.884064  0.882652  1
  Al  Al16  1  0.122976  0.122544  0.640379  1
  Al  Al17  1  0.117322  0.641399  0.125362  1
  Al  Al18  1  0.877024  0.877456  0.359621  1
  Al  Al19  1  0.882678  0.358601  0.874638  1
  Al  Al20  1  0.640344  0.114134  0.122962  1
  Al  Al21  1  0.359656  0.885866  0.877038  1
  Cu  Cu22  1  0.000000  0.500000  0.000000  1
  Cu  Cu23  1  0.000000  0.000000  0.500000  1
  Cu  Cu24  1  0.500000  0.500000  0.000000  1
  Ni  Ni25  1  0.500000  0.000000  0.500000  1
  Ir  Ir26  1  0.500000  0.000000  0.000000  1
  Ir  Ir27  1  0.000000  0.500000  0.500000  1
  Ir  Ir28  1  0.000000  0.000000  0.000000  1
