# generated using pymatgen
data_Rb3NaCrO4
_symmetry_space_group_name_H-M   'P 1'
_cell_length_a   10.79675471
_cell_length_b   6.46643700
_cell_length_c   10.94207464
_cell_angle_alpha   90.00000000
_cell_angle_beta   112.41802355
_cell_angle_gamma   90.00000000
_symmetry_Int_Tables_number   1
_chemical_formula_structural   Rb3NaCrO4
_chemical_formula_sum   'Rb12 Na4 Cr4 O16'
_cell_volume   706.20398566
_cell_formula_units_Z   4
loop_
 _symmetry_equiv_pos_site_id
 _symmetry_equiv_pos_as_xyz
  1  'x, y, z'
loop_
 _atom_site_type_symbol
 _atom_site_label
 _atom_site_symmetry_multiplicity
 _atom_site_fract_x
 _atom_site_fract_y
 _atom_site_fract_z
 _atom_site_occupancy
  Rb  Rb0  1  0.679660  0.377087  0.103956  1
  Rb  Rb1  1  0.039975  0.152476  0.169621  1
  Rb  Rb2  1  0.544016  0.884829  0.188174  1
  Rb  Rb3  1  0.455984  0.384829  0.311826  1
  Rb  Rb4  1  0.960026  0.652476  0.330379  1
  Rb  Rb5  1  0.320340  0.877087  0.396044  1
  Rb  Rb6  1  0.679660  0.122913  0.603956  1
  Rb  Rb7  1  0.039975  0.347524  0.669621  1
  Rb  Rb8  1  0.544016  0.615171  0.688174  1
  Rb  Rb9  1  0.455984  0.115171  0.811826  1
  Rb  Rb10  1  0.960026  0.847524  0.830379  1
  Rb  Rb11  1  0.320340  0.622913  0.896044  1
  Na  Na12  1  0.128187  0.612499  0.109039  1
  Na  Na13  1  0.871813  0.112499  0.390961  1
  Na  Na14  1  0.128187  0.887501  0.609039  1
  Na  Na15  1  0.871813  0.387501  0.890961  1
  Cr  Cr16  1  0.758670  0.864306  0.014513  1
  Cr  Cr17  1  0.241329  0.364306  0.485487  1
  Cr  Cr18  1  0.758670  0.635694  0.514513  1
  Cr  Cr19  1  0.241329  0.135694  0.985487  1
  O  O20  1  0.885715  0.663149  0.037519  1
  O  O21  1  0.407545  0.249451  0.044382  1
  O  O22  1  0.234896  0.929307  0.096976  1
  O  O23  1  0.792394  0.978899  0.176244  1
  O  O24  1  0.207606  0.478899  0.323756  1
  O  O25  1  0.765104  0.429307  0.403024  1
  O  O26  1  0.592455  0.749451  0.455618  1
  O  O27  1  0.114285  0.163149  0.462481  1
  O  O28  1  0.885715  0.836851  0.537519  1
  O  O29  1  0.407545  0.250549  0.544382  1
  O  O30  1  0.234896  0.570694  0.596976  1
  O  O31  1  0.792394  0.521101  0.676244  1
  O  O32  1  0.207606  0.021101  0.823756  1
  O  O33  1  0.765104  0.070694  0.903024  1
  O  O34  1  0.592454  0.750549  0.955617  1
  O  O35  1  0.114285  0.336851  0.962481  1
