# generated using pymatgen
data_Tb8Si12Ni3Ag
_symmetry_space_group_name_H-M   'P 1'
_cell_length_a   8.04516100
_cell_length_b   8.04516055
_cell_length_c   8.20045400
_cell_angle_alpha   90.00000000
_cell_angle_beta   90.00000000
_cell_angle_gamma   120.00000595
_symmetry_Int_Tables_number   1
_chemical_formula_structural   Tb8Si12Ni3Ag
_chemical_formula_sum   'Tb8 Si12 Ni3 Ag1'
_cell_volume   459.66131768
_cell_formula_units_Z   1
loop_
 _symmetry_equiv_pos_site_id
 _symmetry_equiv_pos_as_xyz
  1  'x, y, z'
loop_
 _atom_site_type_symbol
 _atom_site_label
 _atom_site_symmetry_multiplicity
 _atom_site_fract_x
 _atom_site_fract_y
 _atom_site_fract_z
 _atom_site_occupancy
  Tb  Tb0  1  0.503196  0.006393  0.246373  1
  Tb  Tb1  1  0.502865  0.005731  0.753628  1
  Tb  Tb2  1  0.993607  0.496804  0.246373  1
  Tb  Tb3  1  0.994269  0.497135  0.753628  1
  Tb  Tb4  1  0.503196  0.496804  0.246373  1
  Tb  Tb5  1  0.502865  0.497135  0.753628  1
  Tb  Tb6  1  0.000000  0.000000  0.247872  1
  Tb  Tb7  1  0.000000  0.000000  0.752101  1
  Si  Si8  1  0.171699  0.343400  0.000259  1
  Si  Si9  1  0.829247  0.658492  0.999829  1
  Si  Si10  1  0.656600  0.828301  0.000259  1
  Si  Si11  1  0.826709  0.653418  0.500136  1
  Si  Si12  1  0.341508  0.170753  0.999829  1
  Si  Si13  1  0.160829  0.321658  0.499840  1
  Si  Si14  1  0.171699  0.828301  0.000259  1
  Si  Si15  1  0.346582  0.173291  0.500136  1
  Si  Si16  1  0.829247  0.170753  0.999829  1
  Si  Si17  1  0.678342  0.839171  0.499840  1
  Si  Si18  1  0.826709  0.173291  0.500136  1
  Si  Si19  1  0.160829  0.839171  0.499840  1
  Ni  Ni20  1  0.333333  0.666667  0.000285  1
  Ni  Ni21  1  0.666667  0.333333  0.999132  1
  Ni  Ni22  1  0.666667  0.333333  0.500823  1
  Ag  Ag23  1  0.333333  0.666667  0.499588  1
