# generated using pymatgen
data_Ca3La(H6Pd)2
_symmetry_space_group_name_H-M   'P 1'
_cell_length_a   7.14298000
_cell_length_b   7.14297908
_cell_length_c   5.33377400
_cell_angle_alpha   90.00124330
_cell_angle_beta   90.00125132
_cell_angle_gamma   136.22769068
_symmetry_Int_Tables_number   1
_chemical_formula_structural   Ca3La(H6Pd)2
_chemical_formula_sum   'Ca3 La1 H12 Pd2'
_cell_volume   188.26534436
_cell_formula_units_Z   1
loop_
 _symmetry_equiv_pos_site_id
 _symmetry_equiv_pos_as_xyz
  1  'x, y, z'
loop_
 _atom_site_type_symbol
 _atom_site_label
 _atom_site_symmetry_multiplicity
 _atom_site_fract_x
 _atom_site_fract_y
 _atom_site_fract_z
 _atom_site_occupancy
  Ca  Ca0  1  0.652380  0.347620  0.000000  1
  Ca  Ca1  1  0.853113  0.146887  0.500000  1
  Ca  Ca2  1  0.355551  0.644449  0.000000  1
  La  La3  1  0.147421  0.852579  0.500000  1
  H  H4  1  0.000903  0.499379  0.751220  1
  H  H5  1  0.500621  0.999097  0.248780  1
  H  H6  1  0.000893  0.499359  0.248777  1
  H  H7  1  0.500641  0.999107  0.751223  1
  H  H8  1  0.368215  0.631785  0.500000  1
  H  H9  1  0.869953  0.130047  0.000000  1
  H  H10  1  0.628248  0.371752  0.500000  1
  H  H11  1  0.128259  0.871741  0.000000  1
  H  H12  1  0.246677  0.248375  0.747357  1
  H  H13  1  0.751625  0.753323  0.252643  1
  H  H14  1  0.246754  0.248429  0.252616  1
  H  H15  1  0.751571  0.753246  0.747384  1
  Pd  Pd16  1  0.498189  0.501811  0.500000  1
  Pd  Pd17  1  0.998983  0.001017  0.000000  1
