# generated using pymatgen
data_Tm12IrOs2Rh
_symmetry_space_group_name_H-M   'P 1'
_cell_length_a   7.25160546
_cell_length_b   8.95532200
_cell_length_c   6.29561600
_cell_angle_alpha   90.00000000
_cell_angle_beta   89.90832907
_cell_angle_gamma   90.00000000
_symmetry_Int_Tables_number   1
_chemical_formula_structural   Tm12IrOs2Rh
_chemical_formula_sum   'Tm12 Ir1 Os2 Rh1'
_cell_volume   408.83968788
_cell_formula_units_Z   1
loop_
 _symmetry_equiv_pos_site_id
 _symmetry_equiv_pos_as_xyz
  1  'x, y, z'
loop_
 _atom_site_type_symbol
 _atom_site_label
 _atom_site_symmetry_multiplicity
 _atom_site_fract_x
 _atom_site_fract_y
 _atom_site_fract_z
 _atom_site_occupancy
  Tm  Tm0  1  0.038144  0.250000  0.626074  1
  Tm  Tm1  1  0.964007  0.750000  0.377672  1
  Tm  Tm2  1  0.464431  0.750000  0.126066  1
  Tm  Tm3  1  0.536929  0.250000  0.871215  1
  Tm  Tm4  1  0.173187  0.059434  0.167205  1
  Tm  Tm5  1  0.824833  0.938750  0.830230  1
  Tm  Tm6  1  0.320711  0.934681  0.675103  1
  Tm  Tm7  1  0.824833  0.561250  0.830230  1
  Tm  Tm8  1  0.679702  0.062609  0.327340  1
  Tm  Tm9  1  0.173187  0.440566  0.167205  1
  Tm  Tm10  1  0.679702  0.437391  0.327340  1
  Tm  Tm11  1  0.320711  0.565319  0.675103  1
  Ir  Ir12  1  0.614585  0.750000  0.539285  1
  Os  Os13  1  0.115575  0.750000  0.965000  1
  Os  Os14  1  0.883456  0.250000  0.035960  1
  Rh  Rh15  1  0.386008  0.250000  0.458971  1
