# generated using pymatgen
data_Pr2Y9In9Pd4
_symmetry_space_group_name_H-M   'P 1'
_cell_length_a   13.25929847
_cell_length_b   13.25929851
_cell_length_c   3.71288800
_cell_angle_alpha   90.00000000
_cell_angle_beta   90.00000000
_cell_angle_gamma   111.09082981
_symmetry_Int_Tables_number   1
_chemical_formula_structural   Pr2Y9In9Pd4
_chemical_formula_sum   'Pr2 Y9 In9 Pd4'
_cell_volume   609.03152459
_cell_formula_units_Z   1
loop_
 _symmetry_equiv_pos_site_id
 _symmetry_equiv_pos_as_xyz
  1  'x, y, z'
loop_
 _atom_site_type_symbol
 _atom_site_label
 _atom_site_symmetry_multiplicity
 _atom_site_fract_x
 _atom_site_fract_y
 _atom_site_fract_z
 _atom_site_occupancy
  Pr  Pr0  1  0.342836  0.657164  0.500000  1
  Pr  Pr1  1  0.657164  0.342836  0.500000  1
  Y  Y2  1  0.500000  0.500000  0.500000  1
  Y  Y3  1  0.811922  0.811922  0.500000  1
  Y  Y4  1  0.188078  0.188078  0.500000  1
  Y  Y5  1  0.572092  0.916751  0.500000  1
  Y  Y6  1  0.427908  0.083249  0.500000  1
  Y  Y7  1  0.916751  0.572092  0.500000  1
  Y  Y8  1  0.083249  0.427908  0.500000  1
  Y  Y9  1  0.128851  0.871149  0.500000  1
  Y  Y10  1  0.871149  0.128851  0.500000  1
  In  In11  1  0.341426  0.870432  0.000000  1
  In  In12  1  0.658574  0.129568  0.000000  1
  In  In13  1  0.870432  0.341426  0.000000  1
  In  In14  1  0.129568  0.658574  0.000000  1
  In  In15  1  0.580313  0.719920  0.000000  1
  In  In16  1  0.419687  0.280080  0.000000  1
  In  In17  1  0.719920  0.580313  0.000000  1
  In  In18  1  0.280080  0.419687  0.000000  1
  In  In19  1  0.000000  0.000000  0.000000  1
  Pd  Pd20  1  0.747839  0.951689  0.000000  1
  Pd  Pd21  1  0.252161  0.048311  0.000000  1
  Pd  Pd22  1  0.951689  0.747839  0.000000  1
  Pd  Pd23  1  0.048311  0.252161  0.000000  1
