# generated using pymatgen
data_TbErB6Os
_symmetry_space_group_name_H-M   'P 1'
_cell_length_a   3.64803300
_cell_length_b   9.14313200
_cell_length_c   11.53639400
_cell_angle_alpha   90.00000000
_cell_angle_beta   90.00000000
_cell_angle_gamma   90.00000000
_symmetry_Int_Tables_number   1
_chemical_formula_structural   TbErB6Os
_chemical_formula_sum   'Tb4 Er4 B24 Os4'
_cell_volume   384.79004524
_cell_formula_units_Z   4
loop_
 _symmetry_equiv_pos_site_id
 _symmetry_equiv_pos_as_xyz
  1  'x, y, z'
loop_
 _atom_site_type_symbol
 _atom_site_label
 _atom_site_symmetry_multiplicity
 _atom_site_fract_x
 _atom_site_fract_y
 _atom_site_fract_z
 _atom_site_occupancy
  Tb  Tb0  1  0.000000  0.322522  0.413635  1
  Tb  Tb1  1  0.000000  0.677478  0.586365  1
  Tb  Tb2  1  0.000000  0.822522  0.086365  1
  Tb  Tb3  1  0.000000  0.177478  0.913635  1
  Er  Er4  1  0.000000  0.944514  0.373101  1
  Er  Er5  1  0.000000  0.055486  0.626899  1
  Er  Er6  1  0.000000  0.444514  0.126899  1
  Er  Er7  1  0.000000  0.555486  0.873101  1
  B  B8  1  0.500000  0.554419  0.432672  1
  B  B9  1  0.500000  0.445581  0.567328  1
  B  B10  1  0.500000  0.054419  0.067328  1
  B  B11  1  0.500000  0.945581  0.932672  1
  B  B12  1  0.500000  0.748661  0.419745  1
  B  B13  1  0.500000  0.251339  0.580255  1
  B  B14  1  0.500000  0.248661  0.080255  1
  B  B15  1  0.500000  0.751339  0.919745  1
  B  B16  1  0.500000  0.791799  0.266957  1
  B  B17  1  0.500000  0.208201  0.733043  1
  B  B18  1  0.500000  0.291799  0.233043  1
  B  B19  1  0.500000  0.708201  0.766957  1
  B  B20  1  0.500000  0.631904  0.185513  1
  B  B21  1  0.500000  0.368096  0.814487  1
  B  B22  1  0.500000  0.131904  0.314487  1
  B  B23  1  0.500000  0.868096  0.685513  1
  B  B24  1  0.500000  0.983771  0.213491  1
  B  B25  1  0.500000  0.016229  0.786509  1
  B  B26  1  0.500000  0.483771  0.286509  1
  B  B27  1  0.500000  0.516229  0.713491  1
  B  B28  1  0.500000  0.606778  0.029621  1
  B  B29  1  0.500000  0.393222  0.970379  1
  B  B30  1  0.500000  0.106778  0.470379  1
  B  B31  1  0.500000  0.893222  0.529621  1
  Os  Os32  1  0.000000  0.638328  0.320990  1
  Os  Os33  1  0.000000  0.361672  0.679010  1
  Os  Os34  1  0.000000  0.138328  0.179010  1
  Os  Os35  1  0.000000  0.861672  0.820990  1
