# generated using pymatgen
data_Li4TbP12Ir19
_symmetry_space_group_name_H-M   'P 1'
_cell_length_a   12.59002479
_cell_length_b   12.59002496
_cell_length_c   3.92182300
_cell_angle_alpha   90.00000000
_cell_angle_beta   90.00000000
_cell_angle_gamma   120.06999290
_symmetry_Int_Tables_number   1
_chemical_formula_structural   Li4TbP12Ir19
_chemical_formula_sum   'Li4 Tb1 P12 Ir19'
_cell_volume   537.97867289
_cell_formula_units_Z   1
loop_
 _symmetry_equiv_pos_site_id
 _symmetry_equiv_pos_as_xyz
  1  'x, y, z'
loop_
 _atom_site_type_symbol
 _atom_site_label
 _atom_site_symmetry_multiplicity
 _atom_site_fract_x
 _atom_site_fract_y
 _atom_site_fract_z
 _atom_site_occupancy
  Li  Li0  1  0.334380  0.666499  0.000000  1
  Li  Li1  1  0.666499  0.334380  0.000000  1
  Li  Li2  1  0.822523  0.998587  0.500000  1
  Li  Li3  1  0.998587  0.822523  0.500000  1
  Tb  Tb4  1  0.176314  0.176314  0.500000  1
  P  P5  1  0.175383  0.992260  0.000000  1
  P  P6  1  0.992260  0.175383  0.000000  1
  P  P7  1  0.819646  0.819646  0.000000  1
  P  P8  1  0.176479  0.489097  0.500000  1
  P  P9  1  0.512466  0.689315  0.500000  1
  P  P10  1  0.313147  0.823593  0.500000  1
  P  P11  1  0.689315  0.512466  0.500000  1
  P  P12  1  0.823593  0.313147  0.500000  1
  P  P13  1  0.489097  0.176479  0.500000  1
  P  P14  1  0.641524  0.000338  0.000000  1
  P  P15  1  0.000338  0.641524  0.000000  1
  P  P16  1  0.360211  0.360211  0.000000  1
  Ir  Ir17  1  0.460277  0.004064  0.000000  1
  Ir  Ir18  1  0.004064  0.460277  0.000000  1
  Ir  Ir19  1  0.542008  0.542008  0.000000  1
  Ir  Ir20  1  0.360022  0.492167  0.500000  1
  Ir  Ir21  1  0.510528  0.871265  0.500000  1
  Ir  Ir22  1  0.132167  0.640411  0.500000  1
  Ir  Ir23  1  0.871265  0.510528  0.500000  1
  Ir  Ir24  1  0.640411  0.132167  0.500000  1
  Ir  Ir25  1  0.492167  0.360022  0.500000  1
  Ir  Ir26  1  0.179835  0.373826  0.000000  1
  Ir  Ir27  1  0.622998  0.805624  0.000000  1
  Ir  Ir28  1  0.195812  0.816935  0.000000  1
  Ir  Ir29  1  0.805624  0.622998  0.000000  1
  Ir  Ir30  1  0.816935  0.195812  0.000000  1
  Ir  Ir31  1  0.373826  0.179835  0.000000  1
  Ir  Ir32  1  0.290967  0.000257  0.500000  1
  Ir  Ir33  1  0.000257  0.290967  0.500000  1
  Ir  Ir34  1  0.709342  0.709342  0.500000  1
  Ir  Ir35  1  0.999734  0.999734  0.000000  1
