# generated using pymatgen
data_Sr3Zr2Ga2SiO12
_symmetry_space_group_name_H-M   'P 1'
_cell_length_a   11.25757918
_cell_length_b   11.25756792
_cell_length_c   11.25757873
_cell_angle_alpha   109.19080959
_cell_angle_beta   109.19088916
_cell_angle_gamma   110.03347493
_symmetry_Int_Tables_number   1
_chemical_formula_structural   Sr3Zr2Ga2SiO12
_chemical_formula_sum   'Sr12 Zr8 Ga8 Si4 O48'
_cell_volume   1098.19900953
_cell_formula_units_Z   4
loop_
 _symmetry_equiv_pos_site_id
 _symmetry_equiv_pos_as_xyz
  1  'x, y, z'
loop_
 _atom_site_type_symbol
 _atom_site_label
 _atom_site_symmetry_multiplicity
 _atom_site_fract_x
 _atom_site_fract_y
 _atom_site_fract_z
 _atom_site_occupancy
  Sr  Sr0  1  0.250000  0.250000  0.000000  1
  Sr  Sr1  1  0.375000  0.749021  0.874021  1
  Sr  Sr2  1  0.999021  0.625000  0.874021  1
  Sr  Sr3  1  0.750000  0.750000  0.000000  1
  Sr  Sr4  1  0.375000  0.249021  0.374021  1
  Sr  Sr5  1  0.750979  0.125000  0.125979  1
  Sr  Sr6  1  0.499021  0.625000  0.374021  1
  Sr  Sr7  1  0.500000  0.000000  0.500000  1
  Sr  Sr8  1  0.875000  0.500979  0.125979  1
  Sr  Sr9  1  0.250979  0.125000  0.625979  1
  Sr  Sr10  1  0.875000  0.000979  0.625979  1
  Sr  Sr11  1  0.000000  0.500000  0.500000  1
  Zr  Zr12  1  0.125000  0.875000  0.750000  1
  Zr  Zr13  1  0.625000  0.875000  0.750000  1
  Zr  Zr14  1  0.625000  0.375000  0.750000  1
  Zr  Zr15  1  0.125000  0.875000  0.250000  1
  Zr  Zr16  1  0.125000  0.375000  0.250000  1
  Zr  Zr17  1  0.625000  0.875000  0.250000  1
  Zr  Zr18  1  0.625000  0.375000  0.250000  1
  Zr  Zr19  1  0.125000  0.375000  0.750000  1
  Ga  Ga20  1  0.501061  0.125000  0.876061  1
  Ga  Ga21  1  0.875000  0.251062  0.876062  1
  Ga  Ga22  1  0.375000  0.998938  0.123938  1
  Ga  Ga23  1  0.248939  0.625000  0.123939  1
  Ga  Ga24  1  0.001061  0.125000  0.376061  1
  Ga  Ga25  1  0.875000  0.751062  0.376062  1
  Ga  Ga26  1  0.375000  0.498938  0.623938  1
  Ga  Ga27  1  0.748939  0.625000  0.623939  1
  Si  Si28  1  0.500000  0.500000  0.000000  1
  Si  Si29  1  0.000000  0.000000  0.000000  1
  Si  Si30  1  0.250000  0.750000  0.500000  1
  Si  Si31  1  0.750000  0.250000  0.500000  1
  O  O32  1  0.328448  0.381061  0.866501  1
  O  O33  1  0.545213  0.976692  0.869069  1
  O  O34  1  0.526446  0.691033  0.768676  1
  O  O35  1  0.308967  0.077643  0.835413  1
  O  O36  1  0.026446  0.257771  0.835413  1
  O  O37  1  0.038053  0.985440  0.866501  1
  O  O38  1  0.226692  0.857623  0.931478  1
  O  O39  1  0.422357  0.191033  0.164587  1
  O  O40  1  0.538053  0.671553  0.052614  1
  O  O41  1  0.523308  0.954787  0.130931  1
  O  O42  1  0.926144  0.295213  0.068522  1
  O  O43  1  0.742229  0.577643  0.768675  1
  O  O44  1  0.204787  0.573856  0.931479  1
  O  O45  1  0.828447  0.961947  0.947386  1
  O  O46  1  0.118939  0.171553  0.133499  1
  O  O47  1  0.642377  0.273308  0.068521  1
  O  O48  1  0.014561  0.881061  0.052613  1
  O  O49  1  0.823856  0.392377  0.869069  1
  O  O50  1  0.514561  0.461947  0.133500  1
  O  O51  1  0.327643  0.992229  0.268675  1
  O  O52  1  0.441033  0.776446  0.268675  1
  O  O53  1  0.107623  0.676144  0.130931  1
  O  O54  1  0.007771  0.276446  0.335413  1
  O  O55  1  0.618939  0.485440  0.947387  1
  O  O56  1  0.631061  0.264560  0.552613  1
  O  O57  1  0.242229  0.473554  0.164587  1
  O  O58  1  0.142377  0.073856  0.369069  1
  O  O59  1  0.808967  0.973554  0.231325  1
  O  O60  1  0.922357  0.757771  0.231325  1
  O  O61  1  0.735439  0.288053  0.366500  1
  O  O62  1  0.426144  0.357623  0.630931  1
  O  O63  1  0.235439  0.868939  0.447387  1
  O  O64  1  0.607623  0.476692  0.431479  1
  O  O65  1  0.131061  0.578447  0.366501  1
  O  O66  1  0.421553  0.788053  0.552614  1
  O  O67  1  0.045213  0.176144  0.568521  1
  O  O68  1  0.507771  0.172357  0.731325  1
  O  O69  1  0.323856  0.454787  0.431478  1
  O  O70  1  0.726692  0.795213  0.369069  1
  O  O71  1  0.711947  0.078447  0.447386  1
  O  O72  1  0.827643  0.558967  0.335413  1
  O  O73  1  0.023308  0.892377  0.568522  1
  O  O74  1  0.211947  0.764560  0.633499  1
  O  O75  1  0.223554  0.492229  0.664587  1
  O  O76  1  0.941033  0.672357  0.664587  1
  O  O77  1  0.723554  0.058967  0.731324  1
  O  O78  1  0.704787  0.773308  0.630931  1
  O  O79  1  0.921552  0.368939  0.633499  1
