# generated using pymatgen
data_Pr8Lu11ScSi15Ir
_symmetry_space_group_name_H-M   'P 1'
_cell_length_a   7.39675473
_cell_length_b   7.71142397
_cell_length_c   14.66265000
_cell_angle_alpha   90.00000000
_cell_angle_beta   90.00000000
_cell_angle_gamma   90.41775820
_symmetry_Int_Tables_number   1
_chemical_formula_structural   Pr8Lu11ScSi15Ir
_chemical_formula_sum   'Pr8 Lu11 Sc1 Si15 Ir1'
_cell_volume   836.32816507
_cell_formula_units_Z   1
loop_
 _symmetry_equiv_pos_site_id
 _symmetry_equiv_pos_as_xyz
  1  'x, y, z'
loop_
 _atom_site_type_symbol
 _atom_site_label
 _atom_site_symmetry_multiplicity
 _atom_site_fract_x
 _atom_site_fract_y
 _atom_site_fract_z
 _atom_site_occupancy
  Pr  Pr0  1  0.018867  0.175661  0.400355  1
  Pr  Pr1  1  0.516973  0.324951  0.401170  1
  Pr  Pr2  1  0.477034  0.678377  0.902789  1
  Pr  Pr3  1  0.477034  0.678377  0.597211  1
  Pr  Pr4  1  0.982300  0.824230  0.596158  1
  Pr  Pr5  1  0.982300  0.824230  0.903842  1
  Pr  Pr6  1  0.516973  0.324951  0.098830  1
  Pr  Pr7  1  0.018867  0.175661  0.099645  1
  Lu  Lu8  1  0.318715  0.172328  0.624905  1
  Lu  Lu9  1  0.679545  0.825622  0.374971  1
  Lu  Lu10  1  0.639506  0.984009  0.750000  1
  Lu  Lu11  1  0.179382  0.676802  0.374597  1
  Lu  Lu12  1  0.825278  0.321864  0.877009  1
  Lu  Lu13  1  0.825278  0.321864  0.622991  1
  Lu  Lu14  1  0.845639  0.495910  0.250000  1
  Lu  Lu15  1  0.318715  0.172328  0.875095  1
  Lu  Lu16  1  0.179382  0.676802  0.125403  1
  Lu  Lu17  1  0.679545  0.825622  0.125029  1
  Lu  Lu18  1  0.162243  0.517734  0.750000  1
  Sc  Sc19  1  0.346545  0.006888  0.250000  1
  Si  Si20  1  0.474518  0.620240  0.250000  1
  Si  Si21  1  0.023147  0.111999  0.750000  1
  Si  Si22  1  0.533536  0.381233  0.750000  1
  Si  Si23  1  0.149001  0.465678  0.537785  1
  Si  Si24  1  0.979541  0.884625  0.250000  1
  Si  Si25  1  0.716942  0.124558  0.250000  1
  Si  Si26  1  0.852785  0.531349  0.041219  1
  Si  Si27  1  0.354296  0.967548  0.042026  1
  Si  Si28  1  0.149001  0.465678  0.962215  1
  Si  Si29  1  0.648594  0.036552  0.537113  1
  Si  Si30  1  0.354296  0.967548  0.457974  1
  Si  Si31  1  0.852785  0.531349  0.458781  1
  Si  Si32  1  0.775123  0.612684  0.750000  1
  Si  Si33  1  0.224041  0.375438  0.250000  1
  Si  Si34  1  0.648594  0.036552  0.962887  1
  Ir  Ir35  1  0.273676  0.882759  0.750000  1
