# generated using pymatgen
data_YbTm3Sb6Ru2Rh5
_symmetry_space_group_name_H-M   'P 1'
_cell_length_a   7.54698653
_cell_length_b   7.56162015
_cell_length_c   7.56162056
_cell_angle_alpha   109.62080344
_cell_angle_beta   109.40061963
_cell_angle_gamma   109.40062794
_symmetry_Int_Tables_number   1
_chemical_formula_structural   YbTm3Sb6Ru2Rh5
_chemical_formula_sum   'Yb1 Tm3 Sb6 Ru2 Rh5'
_cell_volume   332.15045069
_cell_formula_units_Z   1
loop_
 _symmetry_equiv_pos_site_id
 _symmetry_equiv_pos_as_xyz
  1  'x, y, z'
loop_
 _atom_site_type_symbol
 _atom_site_label
 _atom_site_symmetry_multiplicity
 _atom_site_fract_x
 _atom_site_fract_y
 _atom_site_fract_z
 _atom_site_occupancy
  Yb  Yb0  1  0.500000  0.500232  0.499768  1
  Tm  Tm1  1  0.500000  0.998459  0.001541  1
  Tm  Tm2  1  0.002662  0.501331  0.001116  1
  Tm  Tm3  1  0.997338  0.998884  0.498669  1
  Sb  Sb4  1  0.002328  0.315707  0.315424  1
  Sb  Sb5  1  0.683551  0.996443  0.682814  1
  Sb  Sb6  1  0.684027  0.684553  0.998162  1
  Sb  Sb7  1  0.997672  0.684576  0.684293  1
  Sb  Sb8  1  0.315973  0.001838  0.315447  1
  Sb  Sb9  1  0.316449  0.317186  0.003557  1
  Ru  Ru10  1  0.000000  0.000157  0.999843  1
  Ru  Ru11  1  0.500000  0.752582  0.247418  1
  Rh  Rh12  1  0.752400  0.500566  0.249221  1
  Rh  Rh13  1  0.247600  0.750779  0.499434  1
  Rh  Rh14  1  0.247370  0.500143  0.751448  1
  Rh  Rh15  1  0.500000  0.248012  0.751988  1
  Rh  Rh16  1  0.752630  0.248552  0.499857  1
