# generated using pymatgen
data_Tb4Sn2Bi4Rh7
_symmetry_space_group_name_H-M   'P 1'
_cell_length_a   7.75231289
_cell_length_b   7.74905561
_cell_length_c   7.74905398
_cell_angle_alpha   109.58618932
_cell_angle_beta   109.40527491
_cell_angle_gamma   109.40527664
_symmetry_Int_Tables_number   1
_chemical_formula_structural   Tb4Sn2Bi4Rh7
_chemical_formula_sum   'Tb4 Sn2 Bi4 Rh7'
_cell_volume   358.42347210
_cell_formula_units_Z   1
loop_
 _symmetry_equiv_pos_site_id
 _symmetry_equiv_pos_as_xyz
  1  'x, y, z'
loop_
 _atom_site_type_symbol
 _atom_site_label
 _atom_site_symmetry_multiplicity
 _atom_site_fract_x
 _atom_site_fract_y
 _atom_site_fract_z
 _atom_site_occupancy
  Tb  Tb0  1  0.473805  0.004108  0.004108  1
  Tb  Tb1  1  0.004994  0.502497  0.002497  1
  Tb  Tb2  1  0.004994  0.002497  0.502497  1
  Tb  Tb3  1  0.473805  0.469697  0.469697  1
  Sn  Sn4  1  0.323847  0.993725  0.330122  1
  Sn  Sn5  1  0.323847  0.330122  0.993725  1
  Bi  Bi6  1  0.987716  0.307152  0.307152  1
  Bi  Bi7  1  0.688607  0.993582  0.695025  1
  Bi  Bi8  1  0.688607  0.695025  0.993582  1
  Bi  Bi9  1  0.987716  0.680563  0.680563  1
  Rh  Rh10  1  0.055191  0.027595  0.027595  1
  Rh  Rh11  1  0.501124  0.750562  0.250562  1
  Rh  Rh12  1  0.745014  0.501008  0.244005  1
  Rh  Rh13  1  0.247299  0.746607  0.500692  1
  Rh  Rh14  1  0.247299  0.500692  0.746607  1
  Rh  Rh15  1  0.501124  0.250562  0.750562  1
  Rh  Rh16  1  0.745014  0.244005  0.501008  1
