# generated using pymatgen
data_La8Si12PdPt3
_symmetry_space_group_name_H-M   'P 1'
_cell_length_a   8.32942800
_cell_length_b   8.32942865
_cell_length_c   8.77485900
_cell_angle_alpha   90.00000000
_cell_angle_beta   90.00000000
_cell_angle_gamma   119.99999741
_symmetry_Int_Tables_number   1
_chemical_formula_structural   La8Si12PdPt3
_chemical_formula_sum   'La8 Si12 Pd1 Pt3'
_cell_volume   527.23129475
_cell_formula_units_Z   1
loop_
 _symmetry_equiv_pos_site_id
 _symmetry_equiv_pos_as_xyz
  1  'x, y, z'
loop_
 _atom_site_type_symbol
 _atom_site_label
 _atom_site_symmetry_multiplicity
 _atom_site_fract_x
 _atom_site_fract_y
 _atom_site_fract_z
 _atom_site_occupancy
  La  La0  1  0.000000  0.000000  0.250902  1
  La  La1  1  0.000000  0.000000  0.749270  1
  La  La2  1  0.500806  0.499194  0.250341  1
  La  La3  1  0.500806  0.001614  0.250341  1
  La  La4  1  0.998386  0.499194  0.250341  1
  La  La5  1  0.499746  0.500254  0.749605  1
  La  La6  1  0.499746  0.999489  0.749605  1
  La  La7  1  0.000511  0.500254  0.749605  1
  Si  Si8  1  0.165053  0.834947  0.500494  1
  Si  Si9  1  0.165053  0.330106  0.500494  1
  Si  Si10  1  0.669894  0.834947  0.500494  1
  Si  Si11  1  0.834867  0.165133  0.499627  1
  Si  Si12  1  0.834867  0.669733  0.499627  1
  Si  Si13  1  0.330267  0.165133  0.499627  1
  Si  Si14  1  0.834420  0.165580  0.000420  1
  Si  Si15  1  0.834420  0.668839  0.000420  1
  Si  Si16  1  0.331161  0.165580  0.000420  1
  Si  Si17  1  0.165618  0.834382  0.999474  1
  Si  Si18  1  0.165618  0.331237  0.999474  1
  Si  Si19  1  0.668763  0.834382  0.999474  1
  Pd  Pd20  1  0.333333  0.666667  0.497963  1
  Pt  Pt21  1  0.666667  0.333333  0.501286  1
  Pt  Pt22  1  0.666667  0.333333  0.999082  1
  Pt  Pt23  1  0.333333  0.666667  0.001611  1
