# generated using pymatgen
data_CeY3(SiIr2)4
_symmetry_space_group_name_H-M   'P 1'
_cell_length_a   17.76600987
_cell_length_b   4.08066627
_cell_length_c   4.07658100
_cell_angle_alpha   90.00000000
_cell_angle_beta   96.58804136
_cell_angle_gamma   96.59467268
_symmetry_Int_Tables_number   1
_chemical_formula_structural   CeY3(SiIr2)4
_chemical_formula_sum   'Ce1 Y3 Si4 Ir8'
_cell_volume   291.62045561
_cell_formula_units_Z   1
loop_
 _symmetry_equiv_pos_site_id
 _symmetry_equiv_pos_as_xyz
  1  'x, y, z'
loop_
 _atom_site_type_symbol
 _atom_site_label
 _atom_site_symmetry_multiplicity
 _atom_site_fract_x
 _atom_site_fract_y
 _atom_site_fract_z
 _atom_site_occupancy
  Ce  Ce0  1  0.099805  0.549903  0.799902  1
  Y  Y1  1  0.894490  0.447245  0.197246  1
  Y  Y2  1  0.399149  0.199574  0.449574  1
  Y  Y3  1  0.600885  0.800444  0.550442  1
  Si  Si4  1  0.674857  0.337428  0.087429  1
  Si  Si5  1  0.177834  0.088917  0.338917  1
  Si  Si6  1  0.823513  0.911757  0.661755  1
  Si  Si7  1  0.326157  0.663080  0.913079  1
  Ir  Ir8  1  0.542047  0.271024  0.021024  1
  Ir  Ir9  1  0.749588  0.874795  0.124795  1
  Ir  Ir10  1  0.042619  0.021310  0.271309  1
  Ir  Ir11  1  0.250909  0.625456  0.375454  1
  Ir  Ir12  1  0.749862  0.374931  0.624930  1
  Ir  Ir13  1  0.957484  0.978744  0.728742  1
  Ir  Ir14  1  0.251394  0.125697  0.875698  1
  Ir  Ir15  1  0.459409  0.729706  0.979705  1
