# generated using pymatgen
data_Nd4ScPt3
_symmetry_space_group_name_H-M   'P 1'
_cell_length_a   11.26515200
_cell_length_b   11.26515200
_cell_length_c   6.40703900
_cell_angle_alpha   90.00000000
_cell_angle_beta   90.00000000
_cell_angle_gamma   90.00000000
_symmetry_Int_Tables_number   1
_chemical_formula_structural   Nd4ScPt3
_chemical_formula_sum   'Nd16 Sc4 Pt12'
_cell_volume   813.07663212
_cell_formula_units_Z   4
loop_
 _symmetry_equiv_pos_site_id
 _symmetry_equiv_pos_as_xyz
  1  'x, y, z'
loop_
 _atom_site_type_symbol
 _atom_site_label
 _atom_site_symmetry_multiplicity
 _atom_site_fract_x
 _atom_site_fract_y
 _atom_site_fract_z
 _atom_site_occupancy
  Nd  Nd0  1  0.087503  0.286506  0.121519  1
  Nd  Nd1  1  0.786506  0.412497  0.121519  1
  Nd  Nd2  1  0.213494  0.587503  0.121519  1
  Nd  Nd3  1  0.912497  0.713494  0.121519  1
  Nd  Nd4  1  0.412805  0.786334  0.377965  1
  Nd  Nd5  1  0.587195  0.213666  0.377965  1
  Nd  Nd6  1  0.286334  0.087195  0.377965  1
  Nd  Nd7  1  0.713666  0.912805  0.377965  1
  Nd  Nd8  1  0.413117  0.213470  0.878547  1
  Nd  Nd9  1  0.713470  0.086883  0.878547  1
  Nd  Nd10  1  0.286530  0.913117  0.878547  1
  Nd  Nd11  1  0.586883  0.786530  0.878547  1
  Nd  Nd12  1  0.087096  0.714130  0.622764  1
  Nd  Nd13  1  0.912904  0.285870  0.622764  1
  Nd  Nd14  1  0.214130  0.412904  0.622764  1
  Nd  Nd15  1  0.785870  0.587096  0.622764  1
  Sc  Sc16  1  0.000000  0.000000  0.999674  1
  Sc  Sc17  1  0.500000  0.500000  0.999674  1
  Sc  Sc18  1  0.500000  0.500000  0.499529  1
  Sc  Sc19  1  0.000000  0.000000  0.499529  1
  Pt  Pt20  1  0.500000  0.000000  0.116555  1
  Pt  Pt21  1  0.500000  0.000000  0.615597  1
  Pt  Pt22  1  0.000000  0.500000  0.883496  1
  Pt  Pt23  1  0.141217  0.857743  0.249565  1
  Pt  Pt24  1  0.357743  0.358783  0.249565  1
  Pt  Pt25  1  0.642257  0.641217  0.249565  1
  Pt  Pt26  1  0.858783  0.142257  0.249565  1
  Pt  Pt27  1  0.358701  0.641852  0.749770  1
  Pt  Pt28  1  0.141852  0.141299  0.749770  1
  Pt  Pt29  1  0.858148  0.858701  0.749770  1
  Pt  Pt30  1  0.641299  0.358148  0.749770  1
  Pt  Pt31  1  0.000000  0.500000  0.385428  1
