# generated using pymatgen
data_NbAl2B4Ru10W3
_symmetry_space_group_name_H-M   'P 1'
_cell_length_a   9.32115244
_cell_length_b   9.32115244
_cell_length_c   2.93352100
_cell_angle_alpha   90.00000000
_cell_angle_beta   90.00000000
_cell_angle_gamma   89.96477852
_symmetry_Int_Tables_number   1
_chemical_formula_structural   NbAl2B4Ru10W3
_chemical_formula_sum   'Nb1 Al2 B4 Ru10 W3'
_cell_volume   254.87564664
_cell_formula_units_Z   1
loop_
 _symmetry_equiv_pos_site_id
 _symmetry_equiv_pos_as_xyz
  1  'x, y, z'
loop_
 _atom_site_type_symbol
 _atom_site_label
 _atom_site_symmetry_multiplicity
 _atom_site_fract_x
 _atom_site_fract_y
 _atom_site_fract_z
 _atom_site_occupancy
  Nb  Nb0  1  0.678113  0.178113  0.000000  1
  Al  Al1  1  0.500734  0.499089  0.000000  1
  Al  Al2  1  0.999089  0.000734  0.000000  1
  B  B3  1  0.625533  0.875628  0.000000  1
  B  B4  1  0.375628  0.125533  0.000000  1
  B  B5  1  0.125421  0.625421  0.000000  1
  B  B6  1  0.874763  0.374763  0.000000  1
  Ru  Ru7  1  0.566964  0.715171  0.500000  1
  Ru  Ru8  1  0.427062  0.285908  0.500000  1
  Ru  Ru9  1  0.068378  0.784729  0.500000  1
  Ru  Ru10  1  0.937205  0.217439  0.500000  1
  Ru  Ru11  1  0.284729  0.568378  0.500000  1
  Ru  Ru12  1  0.717439  0.437205  0.500000  1
  Ru  Ru13  1  0.215171  0.066964  0.500000  1
  Ru  Ru14  1  0.785908  0.927062  0.500000  1
  Ru  Ru15  1  0.496930  0.996930  0.500000  1
  Ru  Ru16  1  0.000765  0.500765  0.500000  1
  W  W17  1  0.821046  0.678159  0.000000  1
  W  W18  1  0.178159  0.321046  0.000000  1
  W  W19  1  0.320965  0.820965  0.000000  1
