# generated using pymatgen
data_CaYb9Si5Ag
_symmetry_space_group_name_H-M   'P 1'
_cell_length_a   9.10161402
_cell_length_b   9.09954079
_cell_length_c   9.10455393
_cell_angle_alpha   130.08723748
_cell_angle_beta   130.09960271
_cell_angle_gamma   73.24599656
_symmetry_Int_Tables_number   1
_chemical_formula_structural   CaYb9Si5Ag
_chemical_formula_sum   'Ca1 Yb9 Si5 Ag1'
_cell_volume   430.84412062
_cell_formula_units_Z   1
loop_
 _symmetry_equiv_pos_site_id
 _symmetry_equiv_pos_as_xyz
  1  'x, y, z'
loop_
 _atom_site_type_symbol
 _atom_site_label
 _atom_site_symmetry_multiplicity
 _atom_site_fract_x
 _atom_site_fract_y
 _atom_site_fract_z
 _atom_site_occupancy
  Ca  Ca0  1  0.325831  0.474587  0.515740  1
  Yb  Yb1  1  0.474276  0.959327  0.148374  1
  Yb  Yb2  1  0.174143  0.688950  0.148317  1
  Yb  Yb3  1  0.540680  0.025851  0.851668  1
  Yb  Yb4  1  0.025947  0.174059  0.485083  1
  Yb  Yb5  1  0.689107  0.540825  0.514908  1
  Yb  Yb6  1  0.959157  0.811185  0.485118  1
  Yb  Yb7  1  0.002496  0.002433  0.999755  1
  Yb  Yb8  1  0.497417  0.497292  0.000339  1
  Yb  Yb9  1  0.811096  0.325855  0.851783  1
  Si  Si10  1  0.112601  0.612726  0.725292  1
  Si  Si11  1  0.612883  0.887400  0.500044  1
  Si  Si12  1  0.387120  0.112333  0.499815  1
  Si  Si13  1  0.887272  0.387425  0.274643  1
  Si  Si14  1  0.750096  0.750078  0.999989  1
  Ag  Ag15  1  0.249878  0.249672  0.999131  1
