# generated using pymatgen
data_Ba4NiWO8
_symmetry_space_group_name_H-M   'P 1'
_cell_length_a   7.34472552
_cell_length_b   7.34472574
_cell_length_c   5.82987200
_cell_angle_alpha   90.00000000
_cell_angle_beta   90.00000000
_cell_angle_gamma   133.23849448
_symmetry_Int_Tables_number   1
_chemical_formula_structural   Ba4NiWO8
_chemical_formula_sum   'Ba4 Ni1 W1 O8'
_cell_volume   229.11041082
_cell_formula_units_Z   1
loop_
 _symmetry_equiv_pos_site_id
 _symmetry_equiv_pos_as_xyz
  1  'x, y, z'
loop_
 _atom_site_type_symbol
 _atom_site_label
 _atom_site_symmetry_multiplicity
 _atom_site_fract_x
 _atom_site_fract_y
 _atom_site_fract_z
 _atom_site_occupancy
  Ba  Ba0  1  0.351968  0.648032  0.000000  1
  Ba  Ba1  1  0.856327  0.143673  0.500000  1
  Ba  Ba2  1  0.143673  0.856327  0.500000  1
  Ba  Ba3  1  0.648032  0.351968  0.000000  1
  Ni  Ni4  1  0.000000  0.000000  0.000000  1
  W  W5  1  0.500000  0.500000  0.500000  1
  O  O6  1  0.262570  0.262570  0.734383  1
  O  O7  1  0.737430  0.737430  0.265617  1
  O  O8  1  0.737430  0.737430  0.734383  1
  O  O9  1  0.262570  0.262570  0.265617  1
  O  O10  1  0.157943  0.842057  0.000000  1
  O  O11  1  0.648560  0.351440  0.500000  1
  O  O12  1  0.351440  0.648560  0.500000  1
  O  O13  1  0.842057  0.157943  0.000000  1
