# generated using pymatgen
data_La6Ho2Cd2RuPt
_symmetry_space_group_name_H-M   'P 1'
_cell_length_a   9.99844746
_cell_length_b   9.98455593
_cell_length_c   9.99756239
_cell_angle_alpha   60.13006183
_cell_angle_beta   59.88894562
_cell_angle_gamma   60.63211473
_symmetry_Int_Tables_number   1
_chemical_formula_structural   La6Ho2Cd2RuPt
_chemical_formula_sum   'La12 Ho4 Cd4 Ru2 Pt2'
_cell_volume   709.13920503
_cell_formula_units_Z   2
loop_
 _symmetry_equiv_pos_site_id
 _symmetry_equiv_pos_as_xyz
  1  'x, y, z'
loop_
 _atom_site_type_symbol
 _atom_site_label
 _atom_site_symmetry_multiplicity
 _atom_site_fract_x
 _atom_site_fract_y
 _atom_site_fract_z
 _atom_site_occupancy
  La  La0  1  0.312966  0.690316  0.309649  1
  La  La1  1  0.691805  0.696042  0.302452  1
  La  La2  1  0.687788  0.310086  0.309666  1
  La  La3  1  0.299575  0.887258  0.907160  1
  La  La4  1  0.887456  0.298176  0.905110  1
  La  La5  1  0.302882  0.691986  0.693015  1
  La  La6  1  0.902259  0.900253  0.297650  1
  La  La7  1  0.066445  0.443860  0.061868  1
  La  La8  1  0.310514  0.301549  0.697394  1
  La  La9  1  0.066922  0.444013  0.430880  1
  La  La10  1  0.443503  0.063136  0.423089  1
  La  La11  1  0.687652  0.310235  0.689197  1
  Ho  Ho12  1  0.895976  0.907318  0.905480  1
  Ho  Ho13  1  0.442064  0.436654  0.058240  1
  Ho  Ho14  1  0.058307  0.056308  0.441638  1
  Ho  Ho15  1  0.445363  0.062478  0.057301  1
  Cd  Cd16  1  0.670401  0.674209  0.988198  1
  Cd  Cd17  1  0.987191  0.676801  0.670389  1
  Cd  Cd18  1  0.674208  0.988746  0.674384  1
  Cd  Cd19  1  0.669636  0.669626  0.672579  1
  Ru  Ru20  1  0.106684  0.669623  0.108520  1
  Ru  Ru21  1  0.670737  0.110953  0.110909  1
  Pt  Pt22  1  0.104447  0.102087  0.676517  1
  Pt  Pt23  1  0.115214  0.108283  0.108719  1
