# generated using pymatgen
data_DyEr7Mg2(SiB4)4
_symmetry_space_group_name_H-M   'P 1'
_cell_length_a   7.13620002
_cell_length_b   7.13620002
_cell_length_c   7.77315100
_cell_angle_alpha   90.00000737
_cell_angle_beta   89.99999263
_cell_angle_gamma   89.99076677
_symmetry_Int_Tables_number   1
_chemical_formula_structural   DyEr7Mg2(SiB4)4
_chemical_formula_sum   'Dy1 Er7 Mg2 Si4 B16'
_cell_volume   395.85043613
_cell_formula_units_Z   1
loop_
 _symmetry_equiv_pos_site_id
 _symmetry_equiv_pos_as_xyz
  1  'x, y, z'
loop_
 _atom_site_type_symbol
 _atom_site_label
 _atom_site_symmetry_multiplicity
 _atom_site_fract_x
 _atom_site_fract_y
 _atom_site_fract_z
 _atom_site_occupancy
  Dy  Dy0  1  0.182572  0.317428  0.233741  1
  Er  Er1  1  0.682524  0.182471  0.232526  1
  Er  Er2  1  0.317511  0.817451  0.767519  1
  Er  Er3  1  0.317529  0.817476  0.232526  1
  Er  Er4  1  0.817362  0.682638  0.232507  1
  Er  Er5  1  0.817429  0.682571  0.767514  1
  Er  Er6  1  0.682549  0.182489  0.767519  1
  Er  Er7  1  0.182505  0.317495  0.767412  1
  Mg  Mg8  1  0.999865  0.999762  0.500195  1
  Mg  Mg9  1  0.500238  0.500135  0.500195  1
  Si  Si10  1  0.115325  0.616022  0.500421  1
  Si  Si11  1  0.883978  0.384675  0.500421  1
  Si  Si12  1  0.384873  0.115127  0.500558  1
  Si  Si13  1  0.615694  0.884306  0.500089  1
  B  B14  1  0.173948  0.039442  0.999788  1
  B  B15  1  0.825854  0.960200  0.999873  1
  B  B16  1  0.960039  0.173902  0.999710  1
  B  B17  1  0.326098  0.539961  0.999710  1
  B  B18  1  0.039613  0.825870  0.999856  1
  B  B19  1  0.674130  0.460387  0.999856  1
  B  B20  1  0.539800  0.674146  0.999873  1
  B  B21  1  0.460558  0.326052  0.999788  1
  B  B22  1  0.088799  0.589028  0.999651  1
  B  B23  1  0.910972  0.411201  0.999651  1
  B  B24  1  0.411171  0.088829  0.999919  1
  B  B25  1  0.588898  0.911102  0.999914  1
  B  B26  1  0.999770  0.999563  0.164112  1
  B  B27  1  0.999929  0.999971  0.835522  1
  B  B28  1  0.500029  0.500071  0.835522  1
  B  B29  1  0.500437  0.500230  0.164112  1
