# generated using pymatgen
data_Sr12Y5Ho3(GeO4)12
_symmetry_space_group_name_H-M   'P 1'
_cell_length_a   11.47371677
_cell_length_b   11.47795198
_cell_length_c   11.47795110
_cell_angle_alpha   109.47869417
_cell_angle_beta   109.46374654
_cell_angle_gamma   109.46374343
_symmetry_Int_Tables_number   1
_chemical_formula_structural   Sr12Y5Ho3(GeO4)12
_chemical_formula_sum   'Sr12 Y5 Ho3 Ge12 O48'
_cell_volume   1163.72689969
_cell_formula_units_Z   1
loop_
 _symmetry_equiv_pos_site_id
 _symmetry_equiv_pos_as_xyz
  1  'x, y, z'
loop_
 _atom_site_type_symbol
 _atom_site_label
 _atom_site_symmetry_multiplicity
 _atom_site_fract_x
 _atom_site_fract_y
 _atom_site_fract_z
 _atom_site_occupancy
  Sr  Sr0  1  0.749990  0.125073  0.375071  1
  Sr  Sr1  1  0.249874  0.374851  0.124985  1
  Sr  Sr2  1  0.124916  0.249998  0.374927  1
  Sr  Sr3  1  0.375023  0.750134  0.125149  1
  Sr  Sr4  1  0.750126  0.625149  0.875015  1
  Sr  Sr5  1  0.124889  0.375015  0.749866  1
  Sr  Sr6  1  0.625082  0.875071  0.749998  1
  Sr  Sr7  1  0.250010  0.874927  0.624929  1
  Sr  Sr8  1  0.875111  0.624985  0.250134  1
  Sr  Sr9  1  0.624977  0.249866  0.874851  1
  Sr  Sr10  1  0.875084  0.750002  0.625073  1
  Sr  Sr11  1  0.374918  0.124929  0.250002  1
  Y  Y12  1  0.500000  0.000000  0.000000  1
  Y  Y13  1  0.000000  0.500000  0.000000  1
  Y  Y14  1  0.500000  0.500000  0.000000  1
  Y  Y15  1  0.500000  0.500000  0.500000  1
  Y  Y16  1  0.000000  0.000000  0.500000  1
  Ho  Ho17  1  0.000000  0.000000  0.000000  1
  Ho  Ho18  1  0.000000  0.500000  0.500000  1
  Ho  Ho19  1  0.500000  0.000000  0.500000  1
  Ge  Ge20  1  0.125267  0.875285  0.249978  1
  Ge  Ge21  1  0.874733  0.124715  0.750022  1
  Ge  Ge22  1  0.250018  0.625307  0.375285  1
  Ge  Ge23  1  0.375132  0.249664  0.624808  1
  Ge  Ge24  1  0.750324  0.875192  0.124856  1
  Ge  Ge25  1  0.124711  0.749978  0.874693  1
  Ge  Ge26  1  0.374532  0.624856  0.749664  1
  Ge  Ge27  1  0.624868  0.750336  0.375192  1
  Ge  Ge28  1  0.875289  0.250022  0.125307  1
  Ge  Ge29  1  0.249676  0.124808  0.875144  1
  Ge  Ge30  1  0.749982  0.374693  0.624715  1
  Ge  Ge31  1  0.625468  0.375144  0.250336  1
  O  O32  1  0.409276  0.802242  0.789288  1
  O  O33  1  0.880157  0.392826  0.090706  1
  O  O34  1  0.107034  0.987045  0.697758  1
  O  O35  1  0.512659  0.619887  0.710614  1
  O  O36  1  0.696931  0.089969  0.709361  1
  O  O37  1  0.619988  0.710712  0.512955  1
  O  O38  1  0.620108  0.409429  0.107320  1
  O  O39  1  0.710609  0.512667  0.619867  1
  O  O40  1  0.803219  0.512553  0.393298  1
  O  O41  1  0.987570  0.790639  0.880608  1
  O  O42  1  0.790666  0.880745  0.987447  1
  O  O43  1  0.710679  0.697891  0.090571  1
  O  O44  1  0.409922  0.106702  0.619255  1
  O  O45  1  0.393033  0.803039  0.512379  1
  O  O46  1  0.089994  0.709340  0.696961  1
  O  O47  1  0.106963  0.619392  0.410031  1
  O  O48  1  0.512789  0.392680  0.802109  1
  O  O49  1  0.090743  0.880133  0.392801  1
  O  O50  1  0.987332  0.697880  0.107174  1
  O  O51  1  0.196781  0.487447  0.606702  1
  O  O52  1  0.697942  0.107199  0.987333  1
  O  O53  1  0.789451  0.409294  0.802120  1
  O  O54  1  0.392771  0.090726  0.880113  1
  O  O55  1  0.880654  0.987621  0.790660  1
  O  O56  1  0.590724  0.197758  0.210712  1
  O  O57  1  0.119843  0.607174  0.909294  1
  O  O58  1  0.892966  0.012955  0.302242  1
  O  O59  1  0.487341  0.380113  0.289386  1
  O  O60  1  0.303069  0.910031  0.290639  1
  O  O61  1  0.380012  0.289288  0.487045  1
  O  O62  1  0.379892  0.590571  0.892680  1
  O  O63  1  0.289391  0.487333  0.380133  1
  O  O64  1  0.119346  0.012379  0.209340  1
  O  O65  1  0.607229  0.909274  0.119887  1
  O  O66  1  0.210549  0.590706  0.197880  1
  O  O67  1  0.197955  0.210614  0.590726  1
  O  O68  1  0.302058  0.892801  0.012667  1
  O  O69  1  0.012668  0.302120  0.892826  1
  O  O70  1  0.909257  0.119867  0.607199  1
  O  O71  1  0.487211  0.607320  0.197891  1
  O  O72  1  0.893037  0.380608  0.589969  1
  O  O73  1  0.910006  0.290660  0.303039  1
  O  O74  1  0.606967  0.196961  0.487621  1
  O  O75  1  0.590078  0.893298  0.380745  1
  O  O76  1  0.289321  0.302109  0.909429  1
  O  O77  1  0.209334  0.119255  0.012553  1
  O  O78  1  0.012430  0.209361  0.119392  1
  O  O79  1  0.802045  0.789386  0.409274  1
