# generated using pymatgen
data_La6TbPr3(Sn5Ir2)4
_symmetry_space_group_name_H-M   'P 1'
_cell_length_a   14.22503334
_cell_length_b   14.22503334
_cell_length_c   4.70751700
_cell_angle_alpha   90.00000000
_cell_angle_beta   90.00000000
_cell_angle_gamma   90.07849403
_symmetry_Int_Tables_number   1
_chemical_formula_structural   La6TbPr3(Sn5Ir2)4
_chemical_formula_sum   'La6 Tb1 Pr3 Sn20 Ir8'
_cell_volume   952.57257806
_cell_formula_units_Z   1
loop_
 _symmetry_equiv_pos_site_id
 _symmetry_equiv_pos_as_xyz
  1  'x, y, z'
loop_
 _atom_site_type_symbol
 _atom_site_label
 _atom_site_symmetry_multiplicity
 _atom_site_fract_x
 _atom_site_fract_y
 _atom_site_fract_z
 _atom_site_occupancy
  La  La0  1  0.500053  0.500124  0.000000  1
  La  La1  1  0.999876  0.999947  0.000000  1
  La  La2  1  0.887140  0.387294  0.500000  1
  La  La3  1  0.112706  0.612860  0.500000  1
  La  La4  1  0.386950  0.113050  0.500000  1
  La  La5  1  0.613427  0.886573  0.500000  1
  Tb  Tb6  1  0.824398  0.675602  0.500000  1
  Pr  Pr7  1  0.676662  0.177078  0.500000  1
  Pr  Pr8  1  0.322922  0.823338  0.500000  1
  Pr  Pr9  1  0.176640  0.323360  0.500000  1
  Sn  Sn10  1  0.569800  0.069582  0.000000  1
  Sn  Sn11  1  0.430418  0.930200  0.000000  1
  Sn  Sn12  1  0.069107  0.430893  0.000000  1
  Sn  Sn13  1  0.929439  0.570561  0.000000  1
  Sn  Sn14  1  0.655968  0.698372  0.000000  1
  Sn  Sn15  1  0.345540  0.301741  0.000000  1
  Sn  Sn16  1  0.153833  0.801244  0.000000  1
  Sn  Sn17  1  0.845523  0.198394  0.000000  1
  Sn  Sn18  1  0.301606  0.654477  0.000000  1
  Sn  Sn19  1  0.698756  0.346167  0.000000  1
  Sn  Sn20  1  0.198259  0.154460  0.000000  1
  Sn  Sn21  1  0.801628  0.844032  0.000000  1
  Sn  Sn22  1  0.664280  0.507069  0.500000  1
  Sn  Sn23  1  0.336575  0.494644  0.500000  1
  Sn  Sn24  1  0.163624  0.994641  0.500000  1
  Sn  Sn25  1  0.836677  0.005767  0.500000  1
  Sn  Sn26  1  0.494233  0.663323  0.500000  1
  Sn  Sn27  1  0.505359  0.336376  0.500000  1
  Sn  Sn28  1  0.005356  0.163425  0.500000  1
  Sn  Sn29  1  0.992931  0.835720  0.500000  1
  Ir  Ir30  1  0.747049  0.530053  0.000000  1
  Ir  Ir31  1  0.253713  0.471531  0.000000  1
  Ir  Ir32  1  0.246198  0.971234  0.000000  1
  Ir  Ir33  1  0.753838  0.027669  0.000000  1
  Ir  Ir34  1  0.472331  0.746162  0.000000  1
  Ir  Ir35  1  0.528766  0.253802  0.000000  1
  Ir  Ir36  1  0.028469  0.246287  0.000000  1
  Ir  Ir37  1  0.969947  0.752951  0.000000  1
