# generated using pymatgen
data_SrFeAgF6
_symmetry_space_group_name_H-M   'P 1'
_cell_length_a   5.52582100
_cell_length_b   9.68492900
_cell_length_c   10.84606700
_cell_angle_alpha   90.00000000
_cell_angle_beta   90.00000000
_cell_angle_gamma   90.00000000
_symmetry_Int_Tables_number   1
_chemical_formula_structural   SrFeAgF6
_chemical_formula_sum   'Sr4 Fe4 Ag4 F24'
_cell_volume   580.45096388
_cell_formula_units_Z   4
loop_
 _symmetry_equiv_pos_site_id
 _symmetry_equiv_pos_as_xyz
  1  'x, y, z'
loop_
 _atom_site_type_symbol
 _atom_site_label
 _atom_site_symmetry_multiplicity
 _atom_site_fract_x
 _atom_site_fract_y
 _atom_site_fract_z
 _atom_site_occupancy
  Sr  Sr0  1  0.490515  0.817270  0.326813  1
  Sr  Sr1  1  0.509485  0.317270  0.173187  1
  Sr  Sr2  1  0.009485  0.182730  0.826813  1
  Sr  Sr3  1  0.990515  0.682730  0.673187  1
  Fe  Fe4  1  0.036782  0.006126  0.129655  1
  Fe  Fe5  1  0.536782  0.493874  0.870345  1
  Fe  Fe6  1  0.963218  0.506126  0.370345  1
  Fe  Fe7  1  0.463218  0.993874  0.629655  1
  Ag  Ag8  1  0.042313  0.647143  0.076396  1
  Ag  Ag9  1  0.542313  0.852857  0.923604  1
  Ag  Ag10  1  0.457687  0.352857  0.576396  1
  Ag  Ag11  1  0.957687  0.147143  0.423604  1
  F  F12  1  0.208676  0.629770  0.303521  1
  F  F13  1  0.120936  0.498863  0.531603  1
  F  F14  1  0.784629  0.637591  0.903219  1
  F  F15  1  0.715371  0.362409  0.403219  1
  F  F16  1  0.879064  0.998863  0.968397  1
  F  F17  1  0.778233  0.660261  0.445908  1
  F  F18  1  0.333481  0.647559  0.811646  1
  F  F19  1  0.166519  0.352441  0.311646  1
  F  F20  1  0.620936  0.001137  0.468397  1
  F  F21  1  0.379064  0.501137  0.031603  1
  F  F22  1  0.223735  0.022161  0.283046  1
  F  F23  1  0.278233  0.839739  0.554092  1
  F  F24  1  0.221767  0.160261  0.054092  1
  F  F25  1  0.776265  0.522161  0.216954  1
  F  F26  1  0.721767  0.339739  0.945908  1
  F  F27  1  0.276265  0.977839  0.783046  1
  F  F28  1  0.723735  0.477839  0.716954  1
  F  F29  1  0.791324  0.129770  0.196479  1
  F  F30  1  0.215371  0.137591  0.596781  1
  F  F31  1  0.291324  0.370230  0.803521  1
  F  F32  1  0.284629  0.862409  0.096781  1
  F  F33  1  0.708676  0.870230  0.696479  1
  F  F34  1  0.666519  0.147559  0.688354  1
  F  F35  1  0.833481  0.852441  0.188354  1
