# generated using pymatgen
data_Ba5InPd2
_symmetry_space_group_name_H-M   'P 1'
_cell_length_a   10.24337958
_cell_length_b   10.24337871
_cell_length_c   10.24341020
_cell_angle_alpha   128.76670722
_cell_angle_beta   128.76669819
_cell_angle_gamma   75.38595741
_symmetry_Int_Tables_number   1
_chemical_formula_structural   Ba5InPd2
_chemical_formula_sum   'Ba10 In2 Pd4'
_cell_volume   635.91320124
_cell_formula_units_Z   2
loop_
 _symmetry_equiv_pos_site_id
 _symmetry_equiv_pos_as_xyz
  1  'x, y, z'
loop_
 _atom_site_type_symbol
 _atom_site_label
 _atom_site_symmetry_multiplicity
 _atom_site_fract_x
 _atom_site_fract_y
 _atom_site_fract_z
 _atom_site_occupancy
  Ba  Ba0  1  0.500000  0.500000  0.000000  1
  Ba  Ba1  1  0.000000  0.000000  0.000000  1
  Ba  Ba2  1  0.531760  0.031760  0.833105  1
  Ba  Ba3  1  0.198650  0.698650  0.166888  1
  Ba  Ba4  1  0.031761  0.198653  0.500001  1
  Ba  Ba5  1  0.698653  0.531761  0.500001  1
  Ba  Ba6  1  0.468240  0.968240  0.166895  1
  Ba  Ba7  1  0.801350  0.301350  0.833112  1
  Ba  Ba8  1  0.968239  0.801347  0.499999  1
  Ba  Ba9  1  0.301347  0.468239  0.499999  1
  In  In10  1  0.250002  0.249998  0.000000  1
  In  In11  1  0.749998  0.750002  0.000000  1
  Pd  Pd12  1  0.128116  0.628116  0.756233  1
  Pd  Pd13  1  0.871884  0.371884  0.243767  1
  Pd  Pd14  1  0.628114  0.871886  0.500000  1
  Pd  Pd15  1  0.371886  0.128114  0.500000  1
