# generated using pymatgen
data_Rb2Nd10B2Br17
_symmetry_space_group_name_H-M   'P 1'
_cell_length_a   9.38344977
_cell_length_b   10.97738529
_cell_length_c   10.97731000
_cell_angle_alpha   107.02158268
_cell_angle_beta   94.11691645
_cell_angle_gamma   94.11655744
_symmetry_Int_Tables_number   1
_chemical_formula_structural   Rb2Nd10B2Br17
_chemical_formula_sum   'Rb2 Nd10 B2 Br17'
_cell_volume   1073.28679945
_cell_formula_units_Z   1
loop_
 _symmetry_equiv_pos_site_id
 _symmetry_equiv_pos_as_xyz
  1  'x, y, z'
loop_
 _atom_site_type_symbol
 _atom_site_label
 _atom_site_symmetry_multiplicity
 _atom_site_fract_x
 _atom_site_fract_y
 _atom_site_fract_z
 _atom_site_occupancy
  Rb  Rb0  1  0.999889  0.805382  0.194507  1
  Rb  Rb1  1  0.000106  0.194286  0.805823  1
  Nd  Nd2  1  0.436731  0.166744  0.166222  1
  Nd  Nd3  1  0.565121  0.509538  0.208862  1
  Nd  Nd4  1  0.826273  0.291707  0.292391  1
  Nd  Nd5  1  0.316950  0.439897  0.439781  1
  Nd  Nd6  1  0.434733  0.791073  0.490545  1
  Nd  Nd7  1  0.568323  0.211350  0.511019  1
  Nd  Nd8  1  0.683080  0.560189  0.560169  1
  Nd  Nd9  1  0.173745  0.707634  0.708209  1
  Nd  Nd10  1  0.431810  0.488975  0.788693  1
  Nd  Nd11  1  0.563246  0.833710  0.833300  1
  B  B12  1  0.571422  0.351114  0.350790  1
  B  B13  1  0.428591  0.649163  0.648900  1
  Br  Br14  1  0.580045  0.687609  0.022934  1
  Br  Br15  1  0.712488  0.068135  0.068333  1
  Br  Br16  1  0.851800  0.451963  0.119086  1
  Br  Br17  1  0.137476  0.215434  0.215475  1
  Br  Br18  1  0.275094  0.601635  0.258894  1
  Br  Br19  1  0.419952  0.977038  0.312402  1
  Br  Br20  1  0.724949  0.741126  0.398300  1
  Br  Br21  1  0.852477  0.117535  0.451568  1
  Br  Br22  1  0.000027  0.499818  0.500160  1
  Br  Br23  1  0.148255  0.880851  0.548089  1
  Br  Br24  1  0.275282  0.256316  0.599026  1
  Br  Br25  1  0.581898  0.025269  0.689170  1
  Br  Br26  1  0.724598  0.400972  0.743675  1
  Br  Br27  1  0.862504  0.784510  0.784530  1
  Br  Br28  1  0.147560  0.548542  0.882544  1
  Br  Br29  1  0.287494  0.931651  0.931818  1
  Br  Br30  1  0.418084  0.310834  0.974786  1
