# generated using pymatgen
data_La2PrY3Zn4Pd13
_symmetry_space_group_name_H-M   'P 1'
_cell_length_a   8.36872515
_cell_length_b   8.36872532
_cell_length_c   8.37020255
_cell_angle_alpha   109.50963572
_cell_angle_beta   109.50963220
_cell_angle_gamma   109.38802249
_symmetry_Int_Tables_number   1
_chemical_formula_structural   La2PrY3Zn4Pd13
_chemical_formula_sum   'La2 Pr1 Y3 Zn4 Pd13'
_cell_volume   451.30105744
_cell_formula_units_Z   1
loop_
 _symmetry_equiv_pos_site_id
 _symmetry_equiv_pos_as_xyz
  1  'x, y, z'
loop_
 _atom_site_type_symbol
 _atom_site_label
 _atom_site_symmetry_multiplicity
 _atom_site_fract_x
 _atom_site_fract_y
 _atom_site_fract_z
 _atom_site_occupancy
  La  La0  1  0.699692  0.000221  0.700747  1
  La  La1  1  0.000221  0.699692  0.700747  1
  Pr  Pr2  1  0.300228  0.300228  0.001316  1
  Y  Y3  1  0.694983  0.694983  0.001331  1
  Y  Y4  1  0.304434  0.000262  0.305601  1
  Y  Y5  1  0.000262  0.304434  0.305601  1
  Zn  Zn6  1  0.000235  0.000235  0.484956  1
  Zn  Zn7  1  0.000326  0.504956  0.001492  1
  Zn  Zn8  1  0.504956  0.000326  0.001492  1
  Zn  Zn9  1  0.494302  0.494302  0.495389  1
  Pd  Pd10  1  0.331334  0.331334  0.660871  1
  Pd  Pd11  1  0.668745  0.000073  0.329597  1
  Pd  Pd12  1  0.000073  0.668745  0.329597  1
  Pd  Pd13  1  0.669582  0.333585  0.001329  1
  Pd  Pd14  1  0.330508  0.663982  0.331788  1
  Pd  Pd15  1  0.000007  0.333111  0.665205  1
  Pd  Pd16  1  0.333585  0.669582  0.001329  1
  Pd  Pd17  1  0.333111  0.000007  0.665205  1
  Pd  Pd18  1  0.663982  0.330508  0.331788  1
  Pd  Pd19  1  0.667038  0.667038  0.332119  1
  Pd  Pd20  1  0.666478  0.335864  0.667712  1
  Pd  Pd21  1  0.335864  0.666478  0.667712  1
  Pd  Pd22  1  0.000054  0.000054  0.017082  1
