# generated using pymatgen
data_Ti5Ga2WC4
_symmetry_space_group_name_H-M   'P 1'
_cell_length_a   3.07644700
_cell_length_b   3.07644839
_cell_length_c   18.34926200
_cell_angle_alpha   90.00000000
_cell_angle_beta   90.00000000
_cell_angle_gamma   120.00001726
_symmetry_Int_Tables_number   1
_chemical_formula_structural   Ti5Ga2WC4
_chemical_formula_sum   'Ti5 Ga2 W1 C4'
_cell_volume   150.40013638
_cell_formula_units_Z   1
loop_
 _symmetry_equiv_pos_site_id
 _symmetry_equiv_pos_as_xyz
  1  'x, y, z'
loop_
 _atom_site_type_symbol
 _atom_site_label
 _atom_site_symmetry_multiplicity
 _atom_site_fract_x
 _atom_site_fract_y
 _atom_site_fract_z
 _atom_site_occupancy
  Ti  Ti0  1  0.333333  0.666667  0.871113  1
  Ti  Ti1  1  0.333333  0.666667  0.629265  1
  Ti  Ti2  1  0.666667  0.333333  0.129790  1
  Ti  Ti3  1  0.000000  0.000000  0.498494  1
  Ti  Ti4  1  0.000000  0.000000  0.000548  1
  Ga  Ga5  1  0.000000  0.000000  0.749915  1
  Ga  Ga6  1  0.000000  0.000000  0.249240  1
  W  W7  1  0.666667  0.333333  0.369055  1
  C  C8  1  0.333333  0.666667  0.431529  1
  C  C9  1  0.666667  0.333333  0.929614  1
  C  C10  1  0.333333  0.666667  0.070339  1
  C  C11  1  0.666667  0.333333  0.571098  1
