# generated using pymatgen
data_Pr3NdV4F28
_symmetry_space_group_name_H-M   'P 1'
_cell_length_a   5.66269101
_cell_length_b   9.15506405
_cell_length_c   12.18774405
_cell_angle_alpha   62.57932734
_cell_angle_beta   89.99874230
_cell_angle_gamma   89.99433750
_symmetry_Int_Tables_number   1
_chemical_formula_structural   Pr3NdV4F28
_chemical_formula_sum   'Pr3 Nd1 V4 F28'
_cell_volume   560.85291545
_cell_formula_units_Z   1
loop_
 _symmetry_equiv_pos_site_id
 _symmetry_equiv_pos_as_xyz
  1  'x, y, z'
loop_
 _atom_site_type_symbol
 _atom_site_label
 _atom_site_symmetry_multiplicity
 _atom_site_fract_x
 _atom_site_fract_y
 _atom_site_fract_z
 _atom_site_occupancy
  Pr  Pr0  1  0.258367  0.192810  0.731915  1
  Pr  Pr1  1  0.241424  0.193768  0.231880  1
  Pr  Pr2  1  0.741479  0.805951  0.268236  1
  Nd  Nd3  1  0.758922  0.805746  0.768297  1
  V  V4  1  0.753388  0.274894  0.956097  1
  V  V5  1  0.254432  0.725907  0.544469  1
  V  V6  1  0.246412  0.725797  0.042603  1
  V  V7  1  0.746682  0.273663  0.456897  1
  F  F8  1  0.445746  0.708387  0.924172  1
  F  F9  1  0.943968  0.292350  0.575522  1
  F  F10  1  0.555595  0.292386  0.074856  1
  F  F11  1  0.055513  0.707988  0.426086  1
  F  F12  1  0.471361  0.287603  0.542734  1
  F  F13  1  0.971626  0.712865  0.955715  1
  F  F14  1  0.528488  0.712283  0.457742  1
  F  F15  1  0.028489  0.287933  0.042315  1
  F  F16  1  0.761217  0.501175  0.864173  1
  F  F17  1  0.262808  0.499835  0.636455  1
  F  F18  1  0.237274  0.499947  0.134537  1
  F  F19  1  0.738388  0.500027  0.364831  1
  F  F20  1  0.759913  0.050199  0.046188  1
  F  F21  1  0.260525  0.950336  0.454045  1
  F  F22  1  0.239715  0.950593  0.952970  1
  F  F23  1  0.740407  0.049347  0.546983  1
  F  F24  1  0.985463  0.732921  0.635372  1
  F  F25  1  0.483825  0.267424  0.866063  1
  F  F26  1  0.016869  0.267696  0.366760  1
  F  F27  1  0.515232  0.732272  0.133416  1
  F  F28  1  0.048772  0.744245  0.163001  1
  F  F29  1  0.550394  0.255583  0.336087  1
  F  F30  1  0.949833  0.256215  0.835451  1
  F  F31  1  0.453323  0.745316  0.664216  1
  F  F32  1  0.408692  0.969014  0.228408  1
  F  F33  1  0.908801  0.030605  0.271763  1
  F  F34  1  0.589809  0.027912  0.771107  1
  F  F35  1  0.086849  0.969006  0.728637  1
