# generated using pymatgen
data_YTm3NiAg
_symmetry_space_group_name_H-M   'P 1'
_cell_length_a   9.35911358
_cell_length_b   9.35350890
_cell_length_c   9.35350868
_cell_angle_alpha   60.03965228
_cell_angle_beta   59.98017395
_cell_angle_gamma   59.98017873
_symmetry_Int_Tables_number   1
_chemical_formula_structural   YTm3NiAg
_chemical_formula_sum   'Y4 Tm12 Ni4 Ag4'
_cell_volume   578.98663884
_cell_formula_units_Z   4
loop_
 _symmetry_equiv_pos_site_id
 _symmetry_equiv_pos_as_xyz
  1  'x, y, z'
loop_
 _atom_site_type_symbol
 _atom_site_label
 _atom_site_symmetry_multiplicity
 _atom_site_fract_x
 _atom_site_fract_y
 _atom_site_fract_z
 _atom_site_occupancy
  Y  Y0  1  0.813951  0.186049  0.813951  1
  Y  Y1  1  0.186049  0.813951  0.186049  1
  Y  Y2  1  0.813951  0.813951  0.186049  1
  Y  Y3  1  0.186049  0.186049  0.813951  1
  Tm  Tm4  1  0.599760  0.600342  0.600342  1
  Tm  Tm5  1  0.600342  0.599760  0.199555  1
  Tm  Tm6  1  0.600342  0.199555  0.599760  1
  Tm  Tm7  1  0.199555  0.600342  0.600342  1
  Tm  Tm8  1  0.061958  0.438042  0.438042  1
  Tm  Tm9  1  0.438042  0.061958  0.061958  1
  Tm  Tm10  1  0.437989  0.062011  0.437989  1
  Tm  Tm11  1  0.062011  0.437989  0.062011  1
  Tm  Tm12  1  0.437989  0.437989  0.062011  1
  Tm  Tm13  1  0.062011  0.062011  0.437989  1
  Tm  Tm14  1  0.188058  0.811942  0.811942  1
  Tm  Tm15  1  0.811942  0.188058  0.188058  1
  Ni  Ni16  1  0.392979  0.393023  0.393023  1
  Ni  Ni17  1  0.393023  0.392979  0.820976  1
  Ni  Ni18  1  0.393023  0.820976  0.392979  1
  Ni  Ni19  1  0.820976  0.393023  0.393023  1
  Ag  Ag20  1  0.832530  0.831084  0.831084  1
  Ag  Ag21  1  0.831084  0.832530  0.505302  1
  Ag  Ag22  1  0.831084  0.505302  0.832530  1
  Ag  Ag23  1  0.505302  0.831084  0.831084  1
