# generated using pymatgen
data_Tb2Y5Pa(ReB6)4
_symmetry_space_group_name_H-M   'P 1'
_cell_length_a   3.69993600
_cell_length_b   9.19526817
_cell_length_c   11.57453303
_cell_angle_alpha   89.80942674
_cell_angle_beta   90.00000000
_cell_angle_gamma   90.00000000
_symmetry_Int_Tables_number   1
_chemical_formula_structural   Tb2Y5Pa(ReB6)4
_chemical_formula_sum   'Tb2 Y5 Pa1 Re4 B24'
_cell_volume   393.78547043
_cell_formula_units_Z   1
loop_
 _symmetry_equiv_pos_site_id
 _symmetry_equiv_pos_as_xyz
  1  'x, y, z'
loop_
 _atom_site_type_symbol
 _atom_site_label
 _atom_site_symmetry_multiplicity
 _atom_site_fract_x
 _atom_site_fract_y
 _atom_site_fract_z
 _atom_site_occupancy
  Tb  Tb0  1  0.000000  0.178966  0.913059  1
  Tb  Tb1  1  0.000000  0.323553  0.414443  1
  Y  Y2  1  0.000000  0.675918  0.586418  1
  Y  Y3  1  0.000000  0.442419  0.127998  1
  Y  Y4  1  0.000000  0.555262  0.871096  1
  Y  Y5  1  0.000000  0.943343  0.372430  1
  Y  Y6  1  0.000000  0.057281  0.629882  1
  Pa  Pa7  1  0.000000  0.823525  0.085894  1
  Re  Re8  1  0.000000  0.134670  0.177807  1
  Re  Re9  1  0.000000  0.862509  0.824443  1
  Re  Re10  1  0.000000  0.640848  0.317966  1
  Re  Re11  1  0.000000  0.362398  0.678692  1
  B  B12  1  0.500000  0.052077  0.068171  1
  B  B13  1  0.500000  0.945525  0.933209  1
  B  B14  1  0.500000  0.553881  0.431962  1
  B  B15  1  0.500000  0.447234  0.566577  1
  B  B16  1  0.500000  0.247570  0.081470  1
  B  B17  1  0.500000  0.751765  0.919334  1
  B  B18  1  0.500000  0.748027  0.418908  1
  B  B19  1  0.500000  0.251905  0.581230  1
  B  B20  1  0.500000  0.290624  0.233670  1
  B  B21  1  0.500000  0.708829  0.765896  1
  B  B22  1  0.500000  0.791516  0.265262  1
  B  B23  1  0.500000  0.208835  0.734125  1
  B  B24  1  0.500000  0.130897  0.314547  1
  B  B25  1  0.500000  0.869587  0.686675  1
  B  B26  1  0.500000  0.632304  0.185084  1
  B  B27  1  0.500000  0.368779  0.813571  1
  B  B28  1  0.500000  0.483030  0.287437  1
  B  B29  1  0.500000  0.517582  0.711883  1
  B  B30  1  0.500000  0.982438  0.212307  1
  B  B31  1  0.500000  0.017569  0.787668  1
  B  B32  1  0.500000  0.102508  0.471878  1
  B  B33  1  0.500000  0.897494  0.529560  1
  B  B34  1  0.500000  0.606962  0.029589  1
  B  B35  1  0.500000  0.392371  0.969863  1
