# generated using pymatgen
data_Cs2InGa(GeSe4)2
_symmetry_space_group_name_H-M   'P 1'
_cell_length_a   17.88464900
_cell_length_b   7.41189867
_cell_length_c   8.21399323
_cell_angle_alpha   69.90339351
_cell_angle_beta   90.00000000
_cell_angle_gamma   90.00000000
_symmetry_Int_Tables_number   1
_chemical_formula_structural   Cs2InGa(GeSe4)2
_chemical_formula_sum   'Cs4 In2 Ga2 Ge4 Se16'
_cell_volume   1022.54594212
_cell_formula_units_Z   2
loop_
 _symmetry_equiv_pos_site_id
 _symmetry_equiv_pos_as_xyz
  1  'x, y, z'
loop_
 _atom_site_type_symbol
 _atom_site_label
 _atom_site_symmetry_multiplicity
 _atom_site_fract_x
 _atom_site_fract_y
 _atom_site_fract_z
 _atom_site_occupancy
  Cs  Cs0  1  0.396434  0.961643  0.179415  1
  Cs  Cs1  1  0.896434  0.038357  0.820585  1
  Cs  Cs2  1  0.601247  0.518186  0.829262  1
  Cs  Cs3  1  0.101247  0.481814  0.170738  1
  In  In4  1  0.585619  0.170501  0.471032  1
  In  In5  1  0.085619  0.829499  0.528968  1
  Ga  Ga6  1  0.274680  0.595293  0.702670  1
  Ga  Ga7  1  0.774680  0.404707  0.297330  1
  Ge  Ge8  1  0.417206  0.327533  0.540443  1
  Ge  Ge9  1  0.917206  0.672467  0.459557  1
  Ge  Ge10  1  0.727375  0.906287  0.276267  1
  Ge  Ge11  1  0.227375  0.093713  0.723733  1
  Se  Se12  1  0.599858  0.874600  0.368564  1
  Se  Se13  1  0.099858  0.125400  0.631436  1
  Se  Se14  1  0.407951  0.599747  0.631533  1
  Se  Se15  1  0.907951  0.400253  0.368467  1
  Se  Se16  1  0.800751  0.783677  0.538298  1
  Se  Se17  1  0.300751  0.216323  0.461702  1
  Se  Se18  1  0.207936  0.714955  0.433649  1
  Se  Se19  1  0.707936  0.285045  0.566351  1
  Se  Se20  1  0.762882  0.223521  0.097826  1
  Se  Se21  1  0.262882  0.776479  0.902174  1
  Se  Se22  1  0.240707  0.277063  0.909937  1
  Se  Se23  1  0.740707  0.722937  0.090063  1
  Se  Se24  1  0.992916  0.912732  0.257828  1
  Se  Se25  1  0.492916  0.087268  0.742172  1
  Se  Se26  1  0.984435  0.589663  0.728436  1
  Se  Se27  1  0.484435  0.410337  0.271564  1
