# generated using pymatgen
data_DyTm(Tc2P)4
_symmetry_space_group_name_H-M   'P 1'
_cell_length_a   3.94643300
_cell_length_b   7.40192292
_cell_length_c   7.40192292
_cell_angle_alpha   89.83233721
_cell_angle_beta   90.00000000
_cell_angle_gamma   90.00000000
_symmetry_Int_Tables_number   1
_chemical_formula_structural   DyTm(Tc2P)4
_chemical_formula_sum   'Dy1 Tm1 Tc8 P4'
_cell_volume   216.21807248
_cell_formula_units_Z   1
loop_
 _symmetry_equiv_pos_site_id
 _symmetry_equiv_pos_as_xyz
  1  'x, y, z'
loop_
 _atom_site_type_symbol
 _atom_site_label
 _atom_site_symmetry_multiplicity
 _atom_site_fract_x
 _atom_site_fract_y
 _atom_site_fract_z
 _atom_site_occupancy
  Dy  Dy0  1  0.000000  0.500000  0.500000  1
  Tm  Tm1  1  0.500000  0.000000  0.000000  1
  Tc  Tc2  1  0.500000  0.160304  0.583096  1
  Tc  Tc3  1  0.500000  0.839696  0.416904  1
  Tc  Tc4  1  0.000000  0.338398  0.082364  1
  Tc  Tc5  1  0.000000  0.661602  0.917636  1
  Tc  Tc6  1  0.500000  0.583096  0.160304  1
  Tc  Tc7  1  0.500000  0.416904  0.839696  1
  Tc  Tc8  1  0.000000  0.082364  0.338398  1
  Tc  Tc9  1  0.000000  0.917636  0.661602  1
  P  P10  1  0.500000  0.712283  0.712283  1
  P  P11  1  0.500000  0.287717  0.287717  1
  P  P12  1  0.000000  0.788937  0.211063  1
  P  P13  1  0.000000  0.211063  0.788937  1
