# generated using pymatgen
data_TmPa(FeB)8
_symmetry_space_group_name_H-M   'P 1'
_cell_length_a   6.92549100
_cell_length_b   6.92549100
_cell_length_c   3.81415100
_cell_angle_alpha   90.00000000
_cell_angle_beta   90.00000000
_cell_angle_gamma   90.00000000
_symmetry_Int_Tables_number   1
_chemical_formula_structural   TmPa(FeB)8
_chemical_formula_sum   'Tm1 Pa1 Fe8 B8'
_cell_volume   182.93593353
_cell_formula_units_Z   1
loop_
 _symmetry_equiv_pos_site_id
 _symmetry_equiv_pos_as_xyz
  1  'x, y, z'
loop_
 _atom_site_type_symbol
 _atom_site_label
 _atom_site_symmetry_multiplicity
 _atom_site_fract_x
 _atom_site_fract_y
 _atom_site_fract_z
 _atom_site_occupancy
  Tm  Tm0  1  0.500000  0.500000  0.500000  1
  Pa  Pa1  1  0.000000  0.000000  0.000000  1
  Fe  Fe2  1  0.130487  0.382614  0.896723  1
  Fe  Fe3  1  0.869513  0.617386  0.896723  1
  Fe  Fe4  1  0.885888  0.367156  0.392712  1
  Fe  Fe5  1  0.114112  0.632844  0.392712  1
  Fe  Fe6  1  0.367156  0.114112  0.607288  1
  Fe  Fe7  1  0.632844  0.885888  0.607288  1
  Fe  Fe8  1  0.617386  0.130487  0.103277  1
  Fe  Fe9  1  0.382614  0.869513  0.103277  1
  B  B10  1  0.663133  0.795782  0.107559  1
  B  B11  1  0.336867  0.204218  0.107559  1
  B  B12  1  0.297468  0.833680  0.601712  1
  B  B13  1  0.702532  0.166320  0.601712  1
  B  B14  1  0.833680  0.702532  0.398288  1
  B  B15  1  0.166320  0.297468  0.398288  1
  B  B16  1  0.204218  0.663133  0.892441  1
  B  B17  1  0.795782  0.336867  0.892441  1
