# generated using pymatgen
data_LiPu8Zn2Si12Rh
_symmetry_space_group_name_H-M   'P 1'
_cell_length_a   8.22980506
_cell_length_b   8.23012975
_cell_length_c   7.85930612
_cell_angle_alpha   89.99741434
_cell_angle_beta   89.98657473
_cell_angle_gamma   119.99585656
_symmetry_Int_Tables_number   1
_chemical_formula_structural   LiPu8Zn2Si12Rh
_chemical_formula_sum   'Li1 Pu8 Zn2 Si12 Rh1'
_cell_volume   461.02999109
_cell_formula_units_Z   1
loop_
 _symmetry_equiv_pos_site_id
 _symmetry_equiv_pos_as_xyz
  1  'x, y, z'
loop_
 _atom_site_type_symbol
 _atom_site_label
 _atom_site_symmetry_multiplicity
 _atom_site_fract_x
 _atom_site_fract_y
 _atom_site_fract_z
 _atom_site_occupancy
  Li  Li0  1  0.333313  0.666732  0.493480  1
  Pu  Pu1  1  0.000002  0.999977  0.250941  1
  Pu  Pu2  1  0.000022  0.999978  0.748995  1
  Pu  Pu3  1  0.496826  0.503144  0.246404  1
  Pu  Pu4  1  0.496857  0.993748  0.246452  1
  Pu  Pu5  1  0.006273  0.503129  0.246425  1
  Pu  Pu6  1  0.495053  0.504985  0.753443  1
  Pu  Pu7  1  0.495054  0.990095  0.753495  1
  Pu  Pu8  1  0.009859  0.504936  0.753448  1
  Zn  Zn9  1  0.666657  0.333404  0.504742  1
  Zn  Zn10  1  0.666618  0.333342  0.995746  1
  Si  Si11  1  0.165708  0.834327  0.499621  1
  Si  Si12  1  0.165631  0.331389  0.499671  1
  Si  Si13  1  0.668643  0.834391  0.499632  1
  Si  Si14  1  0.835836  0.164202  0.498919  1
  Si  Si15  1  0.835917  0.671778  0.499048  1
  Si  Si16  1  0.328279  0.164148  0.498881  1
  Si  Si17  1  0.835578  0.164423  0.001211  1
  Si  Si18  1  0.835706  0.671223  0.001181  1
  Si  Si19  1  0.328714  0.164264  0.001213  1
  Si  Si20  1  0.163882  0.836033  0.999572  1
  Si  Si21  1  0.163733  0.327569  0.999461  1
  Si  Si22  1  0.672425  0.836221  0.999570  1
  Rh  Rh23  1  0.333416  0.666559  0.008450  1
