# generated using pymatgen
data_Ac2HgPt2
_symmetry_space_group_name_H-M   'P 1'
_cell_length_a   8.17655300
_cell_length_b   8.17655300
_cell_length_c   4.07961400
_cell_angle_alpha   90.00000000
_cell_angle_beta   90.00000000
_cell_angle_gamma   90.00000000
_symmetry_Int_Tables_number   1
_chemical_formula_structural   Ac2HgPt2
_chemical_formula_sum   'Ac4 Hg2 Pt4'
_cell_volume   272.74675094
_cell_formula_units_Z   2
loop_
 _symmetry_equiv_pos_site_id
 _symmetry_equiv_pos_as_xyz
  1  'x, y, z'
loop_
 _atom_site_type_symbol
 _atom_site_label
 _atom_site_symmetry_multiplicity
 _atom_site_fract_x
 _atom_site_fract_y
 _atom_site_fract_z
 _atom_site_occupancy
  Ac  Ac0  1  0.327653  0.172348  0.500001  1
  Ac  Ac1  1  0.827653  0.327653  0.500001  1
  Ac  Ac2  1  0.172348  0.672348  0.500001  1
  Ac  Ac3  1  0.672348  0.827653  0.500001  1
  Hg  Hg4  1  0.000000  0.000000  0.000000  1
  Hg  Hg5  1  0.500000  0.500000  0.000000  1
  Pt  Pt6  1  0.626806  0.126807  0.000000  1
  Pt  Pt7  1  0.126807  0.373193  0.000000  1
  Pt  Pt8  1  0.873194  0.626806  0.000000  1
  Pt  Pt9  1  0.373193  0.873194  0.000000  1
