# generated using pymatgen
data_Ho6CrCo17(Si2P)4
_symmetry_space_group_name_H-M   'P 1'
_cell_length_a   3.72887800
_cell_length_b   10.61510600
_cell_length_c   12.26659100
_cell_angle_alpha   90.00000000
_cell_angle_beta   90.00000000
_cell_angle_gamma   90.00000000
_symmetry_Int_Tables_number   1
_chemical_formula_structural   Ho6CrCo17(Si2P)4
_chemical_formula_sum   'Ho6 Cr1 Co17 Si8 P4'
_cell_volume   485.54154376
_cell_formula_units_Z   1
loop_
 _symmetry_equiv_pos_site_id
 _symmetry_equiv_pos_as_xyz
  1  'x, y, z'
loop_
 _atom_site_type_symbol
 _atom_site_label
 _atom_site_symmetry_multiplicity
 _atom_site_fract_x
 _atom_site_fract_y
 _atom_site_fract_z
 _atom_site_occupancy
  Ho  Ho0  1  0.000000  0.500000  0.525146  1
  Ho  Ho1  1  0.500000  0.000000  0.473140  1
  Ho  Ho2  1  0.500000  0.816758  0.206727  1
  Ho  Ho3  1  0.500000  0.183242  0.206727  1
  Ho  Ho4  1  0.000000  0.682201  0.795183  1
  Ho  Ho5  1  0.000000  0.317799  0.795183  1
  Cr  Cr6  1  0.500000  0.500000  0.149103  1
  Co  Co7  1  0.000000  0.500000  0.990793  1
  Co  Co8  1  0.500000  0.000000  0.018810  1
  Co  Co9  1  0.500000  0.294428  0.427420  1
  Co  Co10  1  0.500000  0.705572  0.427420  1
  Co  Co11  1  0.000000  0.198844  0.565054  1
  Co  Co12  1  0.000000  0.801156  0.565054  1
  Co  Co13  1  0.500000  0.881982  0.706949  1
  Co  Co14  1  0.500000  0.118018  0.706949  1
  Co  Co15  1  0.000000  0.621207  0.288640  1
  Co  Co16  1  0.000000  0.378793  0.288640  1
  Co  Co17  1  0.500000  0.330198  0.997933  1
  Co  Co18  1  0.500000  0.669802  0.997933  1
  Co  Co19  1  0.000000  0.169007  0.008105  1
  Co  Co20  1  0.000000  0.830993  0.008105  1
  Co  Co21  1  0.000000  0.000000  0.848091  1
  Co  Co22  1  0.500000  0.500000  0.699283  1
  Co  Co23  1  0.000000  0.000000  0.304896  1
  Si  Si24  1  0.500000  0.306425  0.614270  1
  Si  Si25  1  0.500000  0.693575  0.614270  1
  Si  Si26  1  0.500000  0.500000  0.884894  1
  Si  Si27  1  0.000000  0.000000  0.119500  1
  Si  Si28  1  0.500000  0.853043  0.892895  1
  Si  Si29  1  0.500000  0.146957  0.892895  1
  Si  Si30  1  0.500000  0.500000  0.344235  1
  Si  Si31  1  0.000000  0.000000  0.659013  1
  P  P32  1  0.000000  0.193015  0.382997  1
  P  P33  1  0.000000  0.806985  0.382997  1
  P  P34  1  0.000000  0.654402  0.105375  1
  P  P35  1  0.000000  0.345598  0.105375  1
