# generated using pymatgen
data_Y8AlHgPd23
_symmetry_space_group_name_H-M   'P 1'
_cell_length_a   8.32903200
_cell_length_b   8.41979000
_cell_length_c   8.41979000
_cell_angle_alpha   90.00000000
_cell_angle_beta   90.00000000
_cell_angle_gamma   90.00000000
_symmetry_Int_Tables_number   1
_chemical_formula_structural   Y8AlHgPd23
_chemical_formula_sum   'Y8 Al1 Hg1 Pd23'
_cell_volume   590.46892986
_cell_formula_units_Z   1
loop_
 _symmetry_equiv_pos_site_id
 _symmetry_equiv_pos_as_xyz
  1  'x, y, z'
loop_
 _atom_site_type_symbol
 _atom_site_label
 _atom_site_symmetry_multiplicity
 _atom_site_fract_x
 _atom_site_fract_y
 _atom_site_fract_z
 _atom_site_occupancy
  Y  Y0  1  0.251674  0.243254  0.243254  1
  Y  Y1  1  0.747778  0.747871  0.747871  1
  Y  Y2  1  0.747778  0.747871  0.252129  1
  Y  Y3  1  0.747778  0.252129  0.747871  1
  Y  Y4  1  0.251674  0.243254  0.756746  1
  Y  Y5  1  0.251674  0.756746  0.243254  1
  Y  Y6  1  0.251674  0.756746  0.756746  1
  Y  Y7  1  0.747778  0.252129  0.252129  1
  Al  Al8  1  0.998881  0.000000  0.000000  1
  Hg  Hg9  1  0.255338  0.500000  0.500000  1
  Pd  Pd10  1  0.258959  0.500000  0.000000  1
  Pd  Pd11  1  0.740645  0.500000  0.000000  1
  Pd  Pd12  1  0.001608  0.257505  0.500000  1
  Pd  Pd13  1  0.501391  0.261016  0.000000  1
  Pd  Pd14  1  0.001608  0.742495  0.500000  1
  Pd  Pd15  1  0.501391  0.738984  0.000000  1
  Pd  Pd16  1  0.501391  0.000000  0.261016  1
  Pd  Pd17  1  0.258959  0.000000  0.500000  1
  Pd  Pd18  1  0.501391  0.000000  0.738984  1
  Pd  Pd19  1  0.740645  0.000000  0.500000  1
  Pd  Pd20  1  0.001608  0.500000  0.257505  1
  Pd  Pd21  1  0.001608  0.500000  0.742495  1
  Pd  Pd22  1  0.747144  0.500000  0.500000  1
  Pd  Pd23  1  0.498527  0.250454  0.500000  1
  Pd  Pd24  1  0.498527  0.749546  0.500000  1
  Pd  Pd25  1  0.498527  0.500000  0.250454  1
  Pd  Pd26  1  0.498527  0.500000  0.749546  1
  Pd  Pd27  1  0.292130  0.000000  0.000000  1
  Pd  Pd28  1  0.709025  0.000000  0.000000  1
  Pd  Pd29  1  0.998590  0.288414  0.000000  1
  Pd  Pd30  1  0.998590  0.711586  0.000000  1
  Pd  Pd31  1  0.998590  0.000000  0.288414  1
  Pd  Pd32  1  0.998590  0.000000  0.711586  1
