# generated using pymatgen
data_Li3Bi4Sb2Pt3
_symmetry_space_group_name_H-M   'P 1'
_cell_length_a   7.56052108
_cell_length_b   7.56051885
_cell_length_c   5.57818294
_cell_angle_alpha   89.90286918
_cell_angle_beta   90.09712785
_cell_angle_gamma   59.94714893
_symmetry_Int_Tables_number   1
_chemical_formula_structural   Li3Bi4Sb2Pt3
_chemical_formula_sum   'Li3 Bi4 Sb2 Pt3'
_cell_volume   275.98957553
_cell_formula_units_Z   1
loop_
 _symmetry_equiv_pos_site_id
 _symmetry_equiv_pos_as_xyz
  1  'x, y, z'
loop_
 _atom_site_type_symbol
 _atom_site_label
 _atom_site_symmetry_multiplicity
 _atom_site_fract_x
 _atom_site_fract_y
 _atom_site_fract_z
 _atom_site_occupancy
  Li  Li0  1  0.146178  0.146178  0.000000  1
  Li  Li1  1  0.500001  0.499999  0.000000  1
  Li  Li2  1  0.853822  0.853822  0.000000  1
  Bi  Bi3  1  0.165306  0.491600  0.269078  1
  Bi  Bi4  1  0.508400  0.834694  0.269078  1
  Bi  Bi5  1  0.491600  0.165306  0.730922  1
  Bi  Bi6  1  0.834694  0.508400  0.730922  1
  Sb  Sb7  1  0.824225  0.175775  0.298104  1
  Sb  Sb8  1  0.175775  0.824225  0.701896  1
  Pt  Pt9  1  0.159344  0.159344  0.499999  1
  Pt  Pt10  1  0.500000  0.500000  0.500000  1
  Pt  Pt11  1  0.840656  0.840656  0.499999  1
