# generated using pymatgen
data_Mn4Cu3(Pd2Au)3
_symmetry_space_group_name_H-M   'P 1'
_cell_length_a   6.78621633
_cell_length_b   6.78923927
_cell_length_c   6.78923844
_cell_angle_alpha   107.10094307
_cell_angle_beta   108.73448063
_cell_angle_gamma   112.64842888
_symmetry_Int_Tables_number   1
_chemical_formula_structural   Mn4Cu3(Pd2Au)3
_chemical_formula_sum   'Mn4 Cu3 Pd6 Au3'
_cell_volume   240.13596150
_cell_formula_units_Z   1
loop_
 _symmetry_equiv_pos_site_id
 _symmetry_equiv_pos_as_xyz
  1  'x, y, z'
loop_
 _atom_site_type_symbol
 _atom_site_label
 _atom_site_symmetry_multiplicity
 _atom_site_fract_x
 _atom_site_fract_y
 _atom_site_fract_z
 _atom_site_occupancy
  Mn  Mn0  1  0.241820  0.238600  0.486121  1
  Mn  Mn1  1  0.758533  0.755165  0.507823  1
  Mn  Mn2  1  0.241820  0.755700  0.003219  1
  Mn  Mn3  1  0.758533  0.250708  0.003369  1
  Cu  Cu4  1  0.497259  0.998595  0.498664  1
  Cu  Cu5  1  0.000432  0.501648  0.498784  1
  Cu  Cu6  1  0.502708  0.501385  0.001323  1
  Pd  Pd7  1  0.259023  0.006381  0.746948  1
  Pd  Pd8  1  0.993222  0.741190  0.252032  1
  Pd  Pd9  1  0.740666  0.991497  0.251325  1
  Pd  Pd10  1  0.259023  0.512075  0.252642  1
  Pd  Pd11  1  0.740666  0.489340  0.749168  1
  Pd  Pd12  1  0.999523  0.998766  0.000757  1
  Au  Au13  1  0.511016  0.258995  0.252019  1
  Au  Au14  1  0.489273  0.741401  0.747874  1
  Au  Au15  1  0.006484  0.258554  0.747931  1
