# generated using pymatgen
data_Ba2TbAg5S6
_symmetry_space_group_name_H-M   'P 1'
_cell_length_a   4.22103100
_cell_length_b   7.34864559
_cell_length_c   11.25862848
_cell_angle_alpha   95.01519572
_cell_angle_beta   90.00000000
_cell_angle_gamma   106.69027594
_symmetry_Int_Tables_number   1
_chemical_formula_structural   Ba2TbAg5S6
_chemical_formula_sum   'Ba2 Tb1 Ag5 S6'
_cell_volume   333.12115944
_cell_formula_units_Z   1
loop_
 _symmetry_equiv_pos_site_id
 _symmetry_equiv_pos_as_xyz
  1  'x, y, z'
loop_
 _atom_site_type_symbol
 _atom_site_label
 _atom_site_symmetry_multiplicity
 _atom_site_fract_x
 _atom_site_fract_y
 _atom_site_fract_z
 _atom_site_occupancy
  Ba  Ba0  1  0.252094  0.504188  0.703201  1
  Ba  Ba1  1  0.747906  0.495812  0.296799  1
  Tb  Tb2  1  0.500000  0.000000  0.500000  1
  Ag  Ag3  1  0.018433  0.036865  0.256269  1
  Ag  Ag4  1  0.981567  0.963135  0.743731  1
  Ag  Ag5  1  0.352207  0.704414  0.038674  1
  Ag  Ag6  1  0.647793  0.295586  0.961326  1
  Ag  Ag7  1  0.000000  0.000000  0.000000  1
  S  S8  1  0.125510  0.251018  0.453734  1
  S  S9  1  0.874490  0.748982  0.546266  1
  S  S10  1  0.157660  0.315319  0.102009  1
  S  S11  1  0.842340  0.684681  0.897991  1
  S  S12  1  0.412908  0.825817  0.265236  1
  S  S13  1  0.587092  0.174183  0.734764  1
