# generated using pymatgen
data_DyLu2Al3Ga2Co
_symmetry_space_group_name_H-M   'P 1'
_cell_length_a   6.84398500
_cell_length_b   6.86565518
_cell_length_c   4.20296200
_cell_angle_alpha   90.00000000
_cell_angle_beta   90.00000000
_cell_angle_gamma   119.89564954
_symmetry_Int_Tables_number   1
_chemical_formula_structural   DyLu2Al3Ga2Co
_chemical_formula_sum   'Dy1 Lu2 Al3 Ga2 Co1'
_cell_volume   171.21146149
_cell_formula_units_Z   1
loop_
 _symmetry_equiv_pos_site_id
 _symmetry_equiv_pos_as_xyz
  1  'x, y, z'
loop_
 _atom_site_type_symbol
 _atom_site_label
 _atom_site_symmetry_multiplicity
 _atom_site_fract_x
 _atom_site_fract_y
 _atom_site_fract_z
 _atom_site_occupancy
  Dy  Dy0  1  0.592079  0.000000  0.000000  1
  Lu  Lu1  1  0.999548  0.594658  0.000000  1
  Lu  Lu2  1  0.404890  0.405342  0.000000  1
  Al  Al3  1  0.228029  0.000000  0.500000  1
  Al  Al4  1  0.001055  0.229020  0.500000  1
  Al  Al5  1  0.772035  0.770980  0.500000  1
  Ga  Ga6  1  0.332220  0.664678  0.500000  1
  Ga  Ga7  1  0.667543  0.335322  0.500000  1
  Co  Co8  1  0.002602  0.000000  0.000000  1
