# generated using pymatgen
data_Ti3Si4MoRh4
_symmetry_space_group_name_H-M   'P 1'
_cell_length_a   3.80296100
_cell_length_b   6.28269489
_cell_length_c   7.26046933
_cell_angle_alpha   90.37156772
_cell_angle_beta   90.00000000
_cell_angle_gamma   90.00000000
_symmetry_Int_Tables_number   1
_chemical_formula_structural   Ti3Si4MoRh4
_chemical_formula_sum   'Ti3 Si4 Mo1 Rh4'
_cell_volume   173.46961063
_cell_formula_units_Z   1
loop_
 _symmetry_equiv_pos_site_id
 _symmetry_equiv_pos_as_xyz
  1  'x, y, z'
loop_
 _atom_site_type_symbol
 _atom_site_label
 _atom_site_symmetry_multiplicity
 _atom_site_fract_x
 _atom_site_fract_y
 _atom_site_fract_z
 _atom_site_occupancy
  Ti  Ti0  1  0.750000  0.525854  0.313832  1
  Ti  Ti1  1  0.250000  0.472248  0.683354  1
  Ti  Ti2  1  0.250000  0.974612  0.822532  1
  Si  Si3  1  0.250000  0.224448  0.371867  1
  Si  Si4  1  0.750000  0.766974  0.621828  1
  Si  Si5  1  0.250000  0.740913  0.123370  1
  Si  Si6  1  0.750000  0.262262  0.884371  1
  Mo  Mo7  1  0.750000  0.025599  0.175734  1
  Rh  Rh8  1  0.750000  0.152814  0.563586  1
  Rh  Rh9  1  0.250000  0.358615  0.064587  1
  Rh  Rh10  1  0.750000  0.650089  0.932730  1
  Rh  Rh11  1  0.250000  0.845572  0.442208  1
