# generated using pymatgen
data_YEr3Ga7Ag5
_symmetry_space_group_name_H-M   'P 1'
_cell_length_a   4.34147500
_cell_length_b   7.00177716
_cell_length_c   10.31622808
_cell_angle_alpha   89.99479152
_cell_angle_beta   90.00000000
_cell_angle_gamma   90.00000000
_symmetry_Int_Tables_number   1
_chemical_formula_structural   YEr3Ga7Ag5
_chemical_formula_sum   'Y1 Er3 Ga7 Ag5'
_cell_volume   313.59311749
_cell_formula_units_Z   1
loop_
 _symmetry_equiv_pos_site_id
 _symmetry_equiv_pos_as_xyz
  1  'x, y, z'
loop_
 _atom_site_type_symbol
 _atom_site_label
 _atom_site_symmetry_multiplicity
 _atom_site_fract_x
 _atom_site_fract_y
 _atom_site_fract_z
 _atom_site_occupancy
  Y  Y0  1  0.000000  0.216283  0.828887  1
  Er  Er1  1  0.500000  0.780906  0.173602  1
  Er  Er2  1  0.500000  0.276988  0.327562  1
  Er  Er3  1  0.000000  0.723529  0.670147  1
  Ga  Ga4  1  0.500000  0.922941  0.845821  1
  Ga  Ga5  1  0.500000  0.427617  0.655786  1
  Ga  Ga6  1  0.000000  0.076704  0.153931  1
  Ga  Ga7  1  0.000000  0.573636  0.343434  1
  Ga  Ga8  1  0.500000  0.202033  0.036087  1
  Ga  Ga9  1  0.000000  0.300419  0.535093  1
  Ga  Ga10  1  0.000000  0.795561  0.964435  1
  Ag  Ag11  1  0.500000  0.541834  0.903963  1
  Ag  Ag12  1  0.500000  0.046954  0.600610  1
  Ag  Ag13  1  0.000000  0.457528  0.097118  1
  Ag  Ag14  1  0.000000  0.961194  0.401358  1
  Ag  Ag15  1  0.500000  0.695875  0.462165  1
