# generated using pymatgen
data_Sr4CeTh3(NpSe5)4
_symmetry_space_group_name_H-M   'P 1'
_cell_length_a   7.92520691
_cell_length_b   8.61495443
_cell_length_c   12.53189935
_cell_angle_alpha   90.02248991
_cell_angle_beta   89.94070323
_cell_angle_gamma   90.05441985
_symmetry_Int_Tables_number   1
_chemical_formula_structural   Sr4CeTh3(NpSe5)4
_chemical_formula_sum   'Sr4 Ce1 Th3 Np4 Se20'
_cell_volume   855.61823241
_cell_formula_units_Z   1
loop_
 _symmetry_equiv_pos_site_id
 _symmetry_equiv_pos_as_xyz
  1  'x, y, z'
loop_
 _atom_site_type_symbol
 _atom_site_label
 _atom_site_symmetry_multiplicity
 _atom_site_fract_x
 _atom_site_fract_y
 _atom_site_fract_z
 _atom_site_occupancy
  Sr  Sr0  1  0.963792  0.503204  0.826582  1
  Sr  Sr1  1  0.463780  0.496316  0.672856  1
  Sr  Sr2  1  0.037008  0.496609  0.174084  1
  Sr  Sr3  1  0.536893  0.504050  0.326435  1
  Ce  Ce4  1  0.522647  0.001309  0.321147  1
  Th  Th5  1  0.024045  0.998932  0.179680  1
  Th  Th6  1  0.475470  0.999254  0.677044  1
  Th  Th7  1  0.975374  0.001071  0.821950  1
  Np  Np8  1  0.560278  0.249853  0.005858  1
  Np  Np9  1  0.937269  0.249654  0.503357  1
  Np  Np10  1  0.439504  0.750076  0.996607  1
  Np  Np11  1  0.061723  0.750030  0.494582  1
  Se  Se12  1  0.836827  0.959775  0.597539  1
  Se  Se13  1  0.833104  0.771448  0.314947  1
  Se  Se14  1  0.669188  0.773468  0.815094  1
  Se  Se15  1  0.168728  0.226891  0.684316  1
  Se  Se16  1  0.548407  0.225038  0.500725  1
  Se  Se17  1  0.047900  0.774038  0.998377  1
  Se  Se18  1  0.451831  0.774774  0.497014  1
  Se  Se19  1  0.951490  0.225532  0.002164  1
  Se  Se20  1  0.191059  0.763418  0.712742  1
  Se  Se21  1  0.690627  0.236575  0.787420  1
  Se  Se22  1  0.808699  0.237013  0.286343  1
  Se  Se23  1  0.662370  0.959879  0.099129  1
  Se  Se24  1  0.830724  0.537411  0.585151  1
  Se  Se25  1  0.330515  0.462827  0.915051  1
  Se  Se26  1  0.170206  0.461995  0.414689  1
  Se  Se27  1  0.670152  0.537655  0.085216  1
  Se  Se28  1  0.309163  0.764367  0.213439  1
  Se  Se29  1  0.336868  0.039798  0.902042  1
  Se  Se30  1  0.164236  0.041001  0.403072  1
  Se  Se31  1  0.330124  0.226740  0.185346  1
