# generated using pymatgen
data_YSc4(Sn3Os)6
_symmetry_space_group_name_H-M   'P 1'
_cell_length_a   9.76773692
_cell_length_b   9.76773713
_cell_length_c   9.76773800
_cell_angle_alpha   59.99999706
_cell_angle_beta   59.99999635
_cell_angle_gamma   60.00000219
_symmetry_Int_Tables_number   1
_chemical_formula_structural   YSc4(Sn3Os)6
_chemical_formula_sum   'Y1 Sc4 Sn18 Os6'
_cell_volume   658.97191743
_cell_formula_units_Z   1
loop_
 _symmetry_equiv_pos_site_id
 _symmetry_equiv_pos_as_xyz
  1  'x, y, z'
loop_
 _atom_site_type_symbol
 _atom_site_label
 _atom_site_symmetry_multiplicity
 _atom_site_fract_x
 _atom_site_fract_y
 _atom_site_fract_z
 _atom_site_occupancy
  Y  Y0  1  0.000000  0.000000  0.000000  1
  Sc  Sc1  1  0.373885  0.373886  0.878346  1
  Sc  Sc2  1  0.373886  0.878345  0.373885  1
  Sc  Sc3  1  0.878345  0.373886  0.373885  1
  Sc  Sc4  1  0.373886  0.373885  0.373885  1
  Sn  Sn5  1  0.592308  0.592308  0.223077  1
  Sn  Sn6  1  0.592308  0.223077  0.592308  1
  Sn  Sn7  1  0.223077  0.592308  0.592308  1
  Sn  Sn8  1  0.592308  0.592308  0.592308  1
  Sn  Sn9  1  0.750000  0.750000  0.750000  1
  Sn  Sn10  1  0.999144  0.352291  0.649423  1
  Sn  Sn11  1  0.999144  0.999144  0.649423  1
  Sn  Sn12  1  0.352291  0.999144  0.649423  1
  Sn  Sn13  1  0.999144  0.649423  0.352291  1
  Sn  Sn14  1  0.352291  0.649423  0.999144  1
  Sn  Sn15  1  0.999144  0.649423  0.999144  1
  Sn  Sn16  1  0.649423  0.999144  0.999144  1
  Sn  Sn17  1  0.649423  0.352291  0.999144  1
  Sn  Sn18  1  0.649423  0.999144  0.352291  1
  Sn  Sn19  1  0.352291  0.999144  0.999144  1
  Sn  Sn20  1  0.999144  0.999144  0.352291  1
  Sn  Sn21  1  0.999144  0.352291  0.999144  1
  Sn  Sn22  1  0.250000  0.250000  0.250000  1
  Os  Os23  1  0.258608  0.258608  0.741392  1
  Os  Os24  1  0.741392  0.258608  0.741392  1
  Os  Os25  1  0.258608  0.741392  0.741392  1
  Os  Os26  1  0.741392  0.741392  0.258608  1
  Os  Os27  1  0.258608  0.741392  0.258608  1
  Os  Os28  1  0.741392  0.258608  0.258608  1
