# generated using pymatgen
data_Tm4Ge3As3Rh7
_symmetry_space_group_name_H-M   'P 1'
_cell_length_a   7.23713131
_cell_length_b   7.23713196
_cell_length_c   7.23713171
_cell_angle_alpha   109.40657939
_cell_angle_beta   109.46464212
_cell_angle_gamma   109.54247648
_symmetry_Int_Tables_number   1
_chemical_formula_structural   Tm4Ge3As3Rh7
_chemical_formula_sum   'Tm4 Ge3 As3 Rh7'
_cell_volume   291.79434736
_cell_formula_units_Z   1
loop_
 _symmetry_equiv_pos_site_id
 _symmetry_equiv_pos_as_xyz
  1  'x, y, z'
loop_
 _atom_site_type_symbol
 _atom_site_label
 _atom_site_symmetry_multiplicity
 _atom_site_fract_x
 _atom_site_fract_y
 _atom_site_fract_z
 _atom_site_occupancy
  Tm  Tm0  1  0.500178  0.499832  0.499952  1
  Tm  Tm1  1  0.000120  0.500168  0.000346  1
  Tm  Tm2  1  0.500178  0.000226  0.000346  1
  Tm  Tm3  1  0.000120  0.999774  0.499952  1
  Ge  Ge4  1  0.001298  0.679855  0.681152  1
  Ge  Ge5  1  0.001298  0.320145  0.321443  1
  Ge  Ge6  1  0.316797  0.000000  0.316797  1
  As  As7  1  0.679704  0.000000  0.679704  1
  As  As8  1  0.684340  0.683595  0.000746  1
  As  As9  1  0.317151  0.316405  0.000746  1
  Rh  Rh10  1  0.749480  0.500000  0.249480  1
  Rh  Rh11  1  0.499283  0.250068  0.749350  1
  Rh  Rh12  1  0.748553  0.249769  0.498783  1
  Rh  Rh13  1  0.249014  0.750231  0.498783  1
  Rh  Rh14  1  0.251839  0.500000  0.751839  1
  Rh  Rh15  1  0.499283  0.749932  0.249215  1
  Rh  Rh16  1  0.001366  0.000000  0.001366  1
