# generated using pymatgen
data_Li2Ho5Co16ReP12
_symmetry_space_group_name_H-M   'P 1'
_cell_length_a   11.99578162
_cell_length_b   11.99578311
_cell_length_c   3.70297800
_cell_angle_alpha   90.00000000
_cell_angle_beta   90.00000000
_cell_angle_gamma   119.62335509
_symmetry_Int_Tables_number   1
_chemical_formula_structural   Li2Ho5Co16ReP12
_chemical_formula_sum   'Li2 Ho5 Co16 Re1 P12'
_cell_volume   463.20658800
_cell_formula_units_Z   1
loop_
 _symmetry_equiv_pos_site_id
 _symmetry_equiv_pos_as_xyz
  1  'x, y, z'
loop_
 _atom_site_type_symbol
 _atom_site_label
 _atom_site_symmetry_multiplicity
 _atom_site_fract_x
 _atom_site_fract_y
 _atom_site_fract_z
 _atom_site_occupancy
  Li  Li0  1  0.561657  0.001409  0.000000  1
  Li  Li1  1  0.001409  0.561657  0.000000  1
  Ho  Ho2  1  0.665328  0.334677  0.000000  1
  Ho  Ho3  1  0.334677  0.665328  0.000000  1
  Ho  Ho4  1  0.814527  0.814527  0.500000  1
  Ho  Ho5  1  0.188455  0.000388  0.500000  1
  Ho  Ho6  1  0.000388  0.188455  0.500000  1
  Co  Co7  1  0.876816  0.357972  0.500000  1
  Co  Co8  1  0.640562  0.516572  0.500000  1
  Co  Co9  1  0.485033  0.130718  0.500000  1
  Co  Co10  1  0.357972  0.876816  0.500000  1
  Co  Co11  1  0.516572  0.640562  0.500000  1
  Co  Co12  1  0.130718  0.485033  0.500000  1
  Co  Co13  1  0.801376  0.178823  0.000000  1
  Co  Co14  1  0.820283  0.621384  0.000000  1
  Co  Co15  1  0.372921  0.196700  0.000000  1
  Co  Co16  1  0.178823  0.801376  0.000000  1
  Co  Co17  1  0.621384  0.820283  0.000000  1
  Co  Co18  1  0.196700  0.372921  0.000000  1
  Co  Co19  1  0.280280  0.280280  0.500000  1
  Co  Co20  1  0.716101  0.999273  0.500000  1
  Co  Co21  1  0.999273  0.716101  0.500000  1
  Co  Co22  1  0.995055  0.995055  0.000000  1
  Re  Re23  1  0.444755  0.444755  0.000000  1
  P  P24  1  0.690688  0.171521  0.500000  1
  P  P25  1  0.830865  0.518540  0.500000  1
  P  P26  1  0.477886  0.313315  0.500000  1
  P  P27  1  0.171521  0.690688  0.500000  1
  P  P28  1  0.518540  0.830865  0.500000  1
  P  P29  1  0.313315  0.477886  0.500000  1
  P  P30  1  0.175231  0.175231  0.000000  1
  P  P31  1  0.816567  0.999222  0.000000  1
  P  P32  1  0.999222  0.816567  0.000000  1
  P  P33  1  0.636724  0.636724  0.000000  1
  P  P34  1  0.367893  0.000483  0.000000  1
  P  P35  1  0.000483  0.367893  0.000000  1
