# generated using pymatgen
data_Ac5Tl3Se
_symmetry_space_group_name_H-M   'P 1'
_cell_length_a   10.10452300
_cell_length_b   10.10452322
_cell_length_c   7.39410800
_cell_angle_alpha   90.00000000
_cell_angle_beta   90.00000000
_cell_angle_gamma   120.00000910
_symmetry_Int_Tables_number   1
_chemical_formula_structural   Ac5Tl3Se
_chemical_formula_sum   'Ac10 Tl6 Se2'
_cell_volume   653.80467944
_cell_formula_units_Z   2
loop_
 _symmetry_equiv_pos_site_id
 _symmetry_equiv_pos_as_xyz
  1  'x, y, z'
loop_
 _atom_site_type_symbol
 _atom_site_label
 _atom_site_symmetry_multiplicity
 _atom_site_fract_x
 _atom_site_fract_y
 _atom_site_fract_z
 _atom_site_occupancy
  Ac  Ac0  1  0.666667  0.333333  0.000000  1
  Ac  Ac1  1  0.333333  0.666667  0.000000  1
  Ac  Ac2  1  0.333333  0.666667  0.500000  1
  Ac  Ac3  1  0.666667  0.333333  0.500000  1
  Ac  Ac4  1  0.748049  0.748049  0.750000  1
  Ac  Ac5  1  0.251951  0.000000  0.750000  1
  Ac  Ac6  1  0.000000  0.251951  0.750000  1
  Ac  Ac7  1  0.251951  0.251951  0.250000  1
  Ac  Ac8  1  0.748049  0.000000  0.250000  1
  Ac  Ac9  1  0.000000  0.748049  0.250000  1
  Tl  Tl10  1  0.396893  0.396893  0.750000  1
  Tl  Tl11  1  0.603107  0.000000  0.750000  1
  Tl  Tl12  1  0.000000  0.603107  0.750000  1
  Tl  Tl13  1  0.603107  0.603107  0.250000  1
  Tl  Tl14  1  0.396893  0.000000  0.250000  1
  Tl  Tl15  1  0.000000  0.396893  0.250000  1
  Se  Se16  1  0.000000  0.000000  0.000000  1
  Se  Se17  1  0.000000  0.000000  0.500000  1
