# generated using pymatgen
data_CePaInRh5
_symmetry_space_group_name_H-M   'P 1'
_cell_length_a   4.19498300
_cell_length_b   5.71671813
_cell_length_c   11.32585900
_cell_angle_alpha   89.51580750
_cell_angle_beta   90.00000000
_cell_angle_gamma   90.00000000
_symmetry_Int_Tables_number   1
_chemical_formula_structural   CePaInRh5
_chemical_formula_sum   'Ce2 Pa2 In2 Rh10'
_cell_volume   271.60178964
_cell_formula_units_Z   2
loop_
 _symmetry_equiv_pos_site_id
 _symmetry_equiv_pos_as_xyz
  1  'x, y, z'
loop_
 _atom_site_type_symbol
 _atom_site_label
 _atom_site_symmetry_multiplicity
 _atom_site_fract_x
 _atom_site_fract_y
 _atom_site_fract_z
 _atom_site_occupancy
  Ce  Ce0  1  0.500000  0.687971  0.862196  1
  Ce  Ce1  1  0.500000  0.312029  0.137804  1
  Pa  Pa2  1  0.500000  0.187122  0.642335  1
  Pa  Pa3  1  0.500000  0.812878  0.357665  1
  In  In4  1  0.000000  0.500000  0.500000  1
  In  In5  1  0.000000  0.000000  0.000000  1
  Rh  Rh6  1  0.500000  0.208906  0.880687  1
  Rh  Rh7  1  0.500000  0.791094  0.119313  1
  Rh  Rh8  1  0.500000  0.713165  0.612983  1
  Rh  Rh9  1  0.500000  0.286835  0.387017  1
  Rh  Rh10  1  0.000000  0.442226  0.744413  1
  Rh  Rh11  1  0.000000  0.557774  0.255587  1
  Rh  Rh12  1  0.000000  0.000000  0.500000  1
  Rh  Rh13  1  0.000000  0.500000  0.000000  1
  Rh  Rh14  1  0.000000  0.053934  0.249731  1
  Rh  Rh15  1  0.000000  0.946066  0.750269  1
