# generated using pymatgen
data_LaYbHo(Si3Pd10)2
_symmetry_space_group_name_H-M   'P 1'
_cell_length_a   8.73762096
_cell_length_b   8.73762104
_cell_length_c   8.73762200
_cell_angle_alpha   60.00000394
_cell_angle_beta   60.00000364
_cell_angle_gamma   60.00000273
_symmetry_Int_Tables_number   1
_chemical_formula_structural   LaYbHo(Si3Pd10)2
_chemical_formula_sum   'La1 Yb1 Ho1 Si6 Pd20'
_cell_volume   471.69871686
_cell_formula_units_Z   1
loop_
 _symmetry_equiv_pos_site_id
 _symmetry_equiv_pos_as_xyz
  1  'x, y, z'
loop_
 _atom_site_type_symbol
 _atom_site_label
 _atom_site_symmetry_multiplicity
 _atom_site_fract_x
 _atom_site_fract_y
 _atom_site_fract_z
 _atom_site_occupancy
  La  La0  1  0.250000  0.250000  0.250000  1
  Yb  Yb1  1  0.750000  0.750000  0.750000  1
  Ho  Ho2  1  0.000000  0.000000  0.000000  1
  Si  Si3  1  0.732077  0.267923  0.267923  1
  Si  Si4  1  0.267923  0.732077  0.732077  1
  Si  Si5  1  0.267923  0.732077  0.267923  1
  Si  Si6  1  0.732077  0.267923  0.732077  1
  Si  Si7  1  0.267923  0.267923  0.732077  1
  Si  Si8  1  0.732077  0.732077  0.267923  1
  Pd  Pd9  1  0.385280  0.385280  0.385280  1
  Pd  Pd10  1  0.616891  0.616891  0.616891  1
  Pd  Pd11  1  0.385280  0.385280  0.844163  1
  Pd  Pd12  1  0.385280  0.844163  0.385280  1
  Pd  Pd13  1  0.616891  0.616891  0.149325  1
  Pd  Pd14  1  0.616891  0.149325  0.616891  1
  Pd  Pd15  1  0.844163  0.385280  0.385280  1
  Pd  Pd16  1  0.149325  0.616891  0.616891  1
  Pd  Pd17  1  0.345146  0.999353  0.999353  1
  Pd  Pd18  1  0.656147  0.999353  0.999353  1
  Pd  Pd19  1  0.999353  0.345146  0.656147  1
  Pd  Pd20  1  0.999353  0.656147  0.345146  1
  Pd  Pd21  1  0.999353  0.345146  0.999353  1
  Pd  Pd22  1  0.656147  0.999353  0.345146  1
  Pd  Pd23  1  0.999353  0.656147  0.999353  1
  Pd  Pd24  1  0.345146  0.999353  0.656147  1
  Pd  Pd25  1  0.999353  0.999353  0.345146  1
  Pd  Pd26  1  0.999353  0.999353  0.656147  1
  Pd  Pd27  1  0.656147  0.345146  0.999353  1
  Pd  Pd28  1  0.345146  0.656147  0.999353  1
