# generated using pymatgen
data_Tb3ErAl18ZnRh5
_symmetry_space_group_name_H-M   'P 1'
_cell_length_a   7.59013630
_cell_length_b   7.59103121
_cell_length_c   9.46047798
_cell_angle_alpha   89.96995977
_cell_angle_beta   90.00872670
_cell_angle_gamma   119.47273641
_symmetry_Int_Tables_number   1
_chemical_formula_structural   Tb3ErAl18ZnRh5
_chemical_formula_sum   'Tb3 Er1 Al18 Zn1 Rh5'
_cell_volume   474.54455945
_cell_formula_units_Z   1
loop_
 _symmetry_equiv_pos_site_id
 _symmetry_equiv_pos_as_xyz
  1  'x, y, z'
loop_
 _atom_site_type_symbol
 _atom_site_label
 _atom_site_symmetry_multiplicity
 _atom_site_fract_x
 _atom_site_fract_y
 _atom_site_fract_z
 _atom_site_occupancy
  Tb  Tb0  1  0.995299  0.675743  0.748991  1
  Tb  Tb1  1  0.004688  0.324157  0.251057  1
  Tb  Tb2  1  0.675528  0.995317  0.748988  1
  Er  Er3  1  0.324172  0.004582  0.250751  1
  Al  Al4  1  0.135639  0.135522  0.757162  1
  Al  Al5  1  0.865036  0.864685  0.242974  1
  Al  Al6  1  0.002258  0.344823  0.579400  1
  Al  Al7  1  0.998307  0.655886  0.420157  1
  Al  Al8  1  0.001457  0.664776  0.073056  1
  Al  Al9  1  0.335836  0.999106  0.927982  1
  Al  Al10  1  0.999099  0.335757  0.927472  1
  Al  Al11  1  0.663691  0.000855  0.072955  1
  Al  Al12  1  0.654631  0.997798  0.420070  1
  Al  Al13  1  0.344641  0.002220  0.578885  1
  Al  Al14  1  0.332785  0.332307  0.051114  1
  Al  Al15  1  0.667264  0.667241  0.949463  1
  Al  Al16  1  0.658135  0.658090  0.556831  1
  Al  Al17  1  0.341799  0.341293  0.442627  1
  Al  Al18  1  0.339225  0.551786  0.751585  1
  Al  Al19  1  0.660280  0.447569  0.248412  1
  Al  Al20  1  0.551757  0.339140  0.751564  1
  Al  Al21  1  0.448151  0.661241  0.248421  1
  Zn  Zn22  1  0.000041  0.999973  0.499974  1
  Rh  Rh23  1  0.671769  0.328042  0.499744  1
  Rh  Rh24  1  0.328214  0.672008  0.499679  1
  Rh  Rh25  1  0.328361  0.671604  0.000179  1
  Rh  Rh26  1  0.671596  0.328377  0.000269  1
  Rh  Rh27  1  0.000340  0.000105  0.000238  1
