# generated using pymatgen
data_La3Er2P12Ru18Pt
_symmetry_space_group_name_H-M   'P 1'
_cell_length_a   12.68792531
_cell_length_b   12.68792677
_cell_length_c   4.02655900
_cell_angle_alpha   90.00000000
_cell_angle_beta   90.00000000
_cell_angle_gamma   120.63570184
_symmetry_Int_Tables_number   1
_chemical_formula_structural   La3Er2P12Ru18Pt
_chemical_formula_sum   'La3 Er2 P12 Ru18 Pt1'
_cell_volume   557.73538285
_cell_formula_units_Z   1
loop_
 _symmetry_equiv_pos_site_id
 _symmetry_equiv_pos_as_xyz
  1  'x, y, z'
loop_
 _atom_site_type_symbol
 _atom_site_label
 _atom_site_symmetry_multiplicity
 _atom_site_fract_x
 _atom_site_fract_y
 _atom_site_fract_z
 _atom_site_occupancy
  La  La0  1  0.182192  0.182192  0.500000  1
  La  La1  1  0.815119  0.997864  0.500000  1
  La  La2  1  0.997864  0.815119  0.500000  1
  Er  Er3  1  0.329651  0.668578  0.000000  1
  Er  Er4  1  0.668578  0.329651  0.000000  1
  P  P5  1  0.806133  0.806133  0.000000  1
  P  P6  1  0.189753  0.001218  0.000000  1
  P  P7  1  0.001218  0.189753  0.000000  1
  P  P8  1  0.176158  0.481657  0.500000  1
  P  P9  1  0.517227  0.702645  0.500000  1
  P  P10  1  0.304623  0.829328  0.500000  1
  P  P11  1  0.702645  0.517227  0.500000  1
  P  P12  1  0.829328  0.304623  0.500000  1
  P  P13  1  0.481657  0.176158  0.500000  1
  P  P14  1  0.367391  0.367391  0.000000  1
  P  P15  1  0.624175  0.000503  0.000000  1
  P  P16  1  0.000503  0.624175  0.000000  1
  Ru  Ru17  1  0.446872  0.002912  0.000000  1
  Ru  Ru18  1  0.002912  0.446872  0.000000  1
  Ru  Ru19  1  0.704512  0.704512  0.500000  1
  Ru  Ru20  1  0.288457  0.002651  0.500000  1
  Ru  Ru21  1  0.002651  0.288457  0.500000  1
  Ru  Ru22  1  0.187959  0.384383  0.000000  1
  Ru  Ru23  1  0.614708  0.801417  0.000000  1
  Ru  Ru24  1  0.195035  0.815895  0.000000  1
  Ru  Ru25  1  0.801417  0.614708  0.000000  1
  Ru  Ru26  1  0.815895  0.195035  0.000000  1
  Ru  Ru27  1  0.384383  0.187959  0.000000  1
  Ru  Ru28  1  0.369526  0.497355  0.500000  1
  Ru  Ru29  1  0.505983  0.878349  0.500000  1
  Ru  Ru30  1  0.128686  0.634324  0.500000  1
  Ru  Ru31  1  0.878349  0.505983  0.500000  1
  Ru  Ru32  1  0.634324  0.128686  0.500000  1
  Ru  Ru33  1  0.497355  0.369526  0.500000  1
  Ru  Ru34  1  0.996807  0.996807  0.000000  1
  Pt  Pt35  1  0.549955  0.549955  0.000000  1
