# generated using pymatgen
data_Tb7Er3AlBi5
_symmetry_space_group_name_H-M   'P 1'
_cell_length_a   9.11632377
_cell_length_b   9.11507643
_cell_length_c   6.41533950
_cell_angle_alpha   90.00138300
_cell_angle_beta   90.03853681
_cell_angle_gamma   119.79508444
_symmetry_Int_Tables_number   1
_chemical_formula_structural   Tb7Er3AlBi5
_chemical_formula_sum   'Tb7 Er3 Al1 Bi5'
_cell_volume   462.61877829
_cell_formula_units_Z   1
loop_
 _symmetry_equiv_pos_site_id
 _symmetry_equiv_pos_as_xyz
  1  'x, y, z'
loop_
 _atom_site_type_symbol
 _atom_site_label
 _atom_site_symmetry_multiplicity
 _atom_site_fract_x
 _atom_site_fract_y
 _atom_site_fract_z
 _atom_site_occupancy
  Tb  Tb0  1  0.659598  0.335555  0.503023  1
  Tb  Tb1  1  0.750016  0.750094  0.750182  1
  Tb  Tb2  1  0.243971  0.012833  0.750243  1
  Tb  Tb3  1  0.012834  0.244091  0.750303  1
  Tb  Tb4  1  0.239995  0.240086  0.249574  1
  Tb  Tb5  1  0.758176  0.000689  0.249908  1
  Tb  Tb6  1  0.000138  0.758098  0.249801  1
  Er  Er7  1  0.659198  0.335366  0.996621  1
  Er  Er8  1  0.335257  0.659049  0.996541  1
  Er  Er9  1  0.335418  0.658787  0.503578  1
  Al  Al10  1  0.396584  0.397738  0.751132  1
  Bi  Bi11  1  0.609904  0.001789  0.750867  1
  Bi  Bi12  1  0.004028  0.611109  0.750866  1
  Bi  Bi13  1  0.606197  0.607316  0.248886  1
  Bi  Bi14  1  0.391498  0.994946  0.249253  1
  Bi  Bi15  1  0.997186  0.392456  0.249222  1
