# generated using pymatgen
data_Yb3TmCdRu
_symmetry_space_group_name_H-M   'P 1'
_cell_length_a   9.78797698
_cell_length_b   9.78797678
_cell_length_c   9.78797800
_cell_angle_alpha   60.00000265
_cell_angle_beta   60.00000331
_cell_angle_gamma   60.00000545
_symmetry_Int_Tables_number   1
_chemical_formula_structural   Yb3TmCdRu
_chemical_formula_sum   'Yb12 Tm4 Cd4 Ru4'
_cell_volume   663.07689330
_cell_formula_units_Z   4
loop_
 _symmetry_equiv_pos_site_id
 _symmetry_equiv_pos_as_xyz
  1  'x, y, z'
loop_
 _atom_site_type_symbol
 _atom_site_label
 _atom_site_symmetry_multiplicity
 _atom_site_fract_x
 _atom_site_fract_y
 _atom_site_fract_z
 _atom_site_occupancy
  Yb  Yb0  1  0.804880  0.195120  0.195120  1
  Yb  Yb1  1  0.195120  0.804880  0.804880  1
  Yb  Yb2  1  0.195120  0.804880  0.195120  1
  Yb  Yb3  1  0.804880  0.195120  0.804880  1
  Yb  Yb4  1  0.195120  0.195120  0.804880  1
  Yb  Yb5  1  0.804880  0.804880  0.195120  1
  Yb  Yb6  1  0.952525  0.547475  0.547475  1
  Yb  Yb7  1  0.547475  0.952525  0.952525  1
  Yb  Yb8  1  0.547475  0.952525  0.547475  1
  Yb  Yb9  1  0.952525  0.547475  0.952525  1
  Yb  Yb10  1  0.547475  0.547475  0.952525  1
  Yb  Yb11  1  0.952525  0.952525  0.547475  1
  Tm  Tm12  1  0.338042  0.338042  0.338042  1
  Tm  Tm13  1  0.338042  0.338042  0.985872  1
  Tm  Tm14  1  0.338042  0.985872  0.338042  1
  Tm  Tm15  1  0.985872  0.338042  0.338042  1
  Cd  Cd16  1  0.579889  0.579889  0.579889  1
  Cd  Cd17  1  0.579889  0.579889  0.260333  1
  Cd  Cd18  1  0.579889  0.260333  0.579889  1
  Cd  Cd19  1  0.260333  0.579889  0.579889  1
  Ru  Ru20  1  0.138997  0.138997  0.138997  1
  Ru  Ru21  1  0.138997  0.138997  0.583009  1
  Ru  Ru22  1  0.138997  0.583009  0.138997  1
  Ru  Ru23  1  0.583009  0.138997  0.138997  1
