# generated using pymatgen
data_Ho3LuAl12(GaIr)6
_symmetry_space_group_name_H-M   'P 1'
_cell_length_a   7.51688205
_cell_length_b   7.51943818
_cell_length_c   9.55124200
_cell_angle_alpha   90.00000000
_cell_angle_beta   90.00000000
_cell_angle_gamma   119.73100035
_symmetry_Int_Tables_number   1
_chemical_formula_structural   Ho3LuAl12(GaIr)6
_chemical_formula_sum   'Ho3 Lu1 Al12 Ga6 Ir6'
_cell_volume   468.79659198
_cell_formula_units_Z   1
loop_
 _symmetry_equiv_pos_site_id
 _symmetry_equiv_pos_as_xyz
  1  'x, y, z'
loop_
 _atom_site_type_symbol
 _atom_site_label
 _atom_site_symmetry_multiplicity
 _atom_site_fract_x
 _atom_site_fract_y
 _atom_site_fract_z
 _atom_site_occupancy
  Ho  Ho0  1  0.997253  0.669824  0.250000  1
  Ho  Ho1  1  0.003065  0.330171  0.750000  1
  Ho  Ho2  1  0.669655  0.997061  0.250000  1
  Lu  Lu3  1  0.329817  0.002742  0.750000  1
  Al  Al4  1  0.002107  0.334442  0.072954  1
  Al  Al5  1  0.998640  0.666083  0.926114  1
  Al  Al6  1  0.998640  0.666083  0.573886  1
  Al  Al7  1  0.334426  0.001978  0.428004  1
  Al  Al8  1  0.002107  0.334442  0.427046  1
  Al  Al9  1  0.664744  0.998179  0.573922  1
  Al  Al10  1  0.664744  0.998179  0.926078  1
  Al  Al11  1  0.334426  0.001978  0.071996  1
  Al  Al12  1  0.334244  0.333635  0.558871  1
  Al  Al13  1  0.665900  0.665938  0.442669  1
  Al  Al14  1  0.665900  0.665938  0.057331  1
  Al  Al15  1  0.334244  0.333635  0.941129  1
  Ga  Ga16  1  0.128668  0.128263  0.250000  1
  Ga  Ga17  1  0.872158  0.871573  0.750000  1
  Ga  Ga18  1  0.338706  0.547443  0.250000  1
  Ga  Ga19  1  0.660613  0.451366  0.750000  1
  Ga  Ga20  1  0.547211  0.338170  0.250000  1
  Ga  Ga21  1  0.452462  0.662318  0.750000  1
  Ir  Ir22  1  0.671809  0.328145  0.999719  1
  Ir  Ir23  1  0.328041  0.671866  0.999648  1
  Ir  Ir24  1  0.328041  0.671866  0.500352  1
  Ir  Ir25  1  0.671809  0.328145  0.500281  1
  Ir  Ir26  1  0.000286  0.000269  0.999539  1
  Ir  Ir27  1  0.000286  0.000269  0.500461  1
