# generated using pymatgen
data_LiTm2Co5(P3Rh2)2
_symmetry_space_group_name_H-M   'P 1'
_cell_length_a   3.72210900
_cell_length_b   10.51415200
_cell_length_c   12.22488900
_cell_angle_alpha   90.00000000
_cell_angle_beta   90.00000000
_cell_angle_gamma   90.00000000
_symmetry_Int_Tables_number   1
_chemical_formula_structural   LiTm2Co5(P3Rh2)2
_chemical_formula_sum   'Li2 Tm4 Co10 P12 Rh8'
_cell_volume   478.41882793
_cell_formula_units_Z   2
loop_
 _symmetry_equiv_pos_site_id
 _symmetry_equiv_pos_as_xyz
  1  'x, y, z'
loop_
 _atom_site_type_symbol
 _atom_site_label
 _atom_site_symmetry_multiplicity
 _atom_site_fract_x
 _atom_site_fract_y
 _atom_site_fract_z
 _atom_site_occupancy
  Li  Li0  1  0.750000  0.293621  0.011478  1
  Li  Li1  1  0.750000  0.206379  0.511478  1
  Tm  Tm2  1  0.250000  0.582234  0.710581  1
  Tm  Tm3  1  0.250000  0.917766  0.210581  1
  Tm  Tm4  1  0.750000  0.420535  0.290313  1
  Tm  Tm5  1  0.750000  0.079465  0.790313  1
  Co  Co6  1  0.750000  0.775712  0.822794  1
  Co  Co7  1  0.750000  0.724288  0.322794  1
  Co  Co8  1  0.250000  0.878065  0.697438  1
  Co  Co9  1  0.250000  0.621935  0.197438  1
  Co  Co10  1  0.750000  0.114725  0.306163  1
  Co  Co11  1  0.750000  0.385275  0.806163  1
  Co  Co12  1  0.250000  0.463349  0.934581  1
  Co  Co13  1  0.250000  0.036651  0.434581  1
  Co  Co14  1  0.750000  0.539285  0.066381  1
  Co  Co15  1  0.750000  0.960715  0.566381  1
  P  P16  1  0.250000  0.431687  0.113163  1
  P  P17  1  0.250000  0.068313  0.613163  1
  P  P18  1  0.750000  0.576238  0.888050  1
  P  P19  1  0.750000  0.923762  0.388050  1
  P  P20  1  0.250000  0.273011  0.865133  1
  P  P21  1  0.250000  0.226989  0.365133  1
  P  P22  1  0.750000  0.727560  0.140865  1
  P  P23  1  0.750000  0.772440  0.640865  1
  P  P24  1  0.250000  0.605549  0.379194  1
  P  P25  1  0.250000  0.894451  0.879194  1
  P  P26  1  0.750000  0.403193  0.617008  1
  P  P27  1  0.750000  0.096807  0.117008  1
  Rh  Rh28  1  0.250000  0.706545  0.983594  1
  Rh  Rh29  1  0.250000  0.793455  0.483594  1
  Rh  Rh30  1  0.250000  0.408701  0.476215  1
  Rh  Rh31  1  0.250000  0.091299  0.976215  1
  Rh  Rh32  1  0.750000  0.599943  0.521023  1
  Rh  Rh33  1  0.750000  0.900057  0.021023  1
  Rh  Rh34  1  0.250000  0.222117  0.176027  1
  Rh  Rh35  1  0.250000  0.277883  0.676027  1
