# generated using pymatgen
data_YbEr3ReRu7
_symmetry_space_group_name_H-M   'P 1'
_cell_length_a   5.18729490
_cell_length_b   5.34873614
_cell_length_c   8.94264000
_cell_angle_alpha   90.00000000
_cell_angle_beta   89.92126832
_cell_angle_gamma   121.03496845
_symmetry_Int_Tables_number   1
_chemical_formula_structural   YbEr3ReRu7
_chemical_formula_sum   'Yb1 Er3 Re1 Ru7'
_cell_volume   212.60012954
_cell_formula_units_Z   1
loop_
 _symmetry_equiv_pos_site_id
 _symmetry_equiv_pos_as_xyz
  1  'x, y, z'
loop_
 _atom_site_type_symbol
 _atom_site_label
 _atom_site_symmetry_multiplicity
 _atom_site_fract_x
 _atom_site_fract_y
 _atom_site_fract_z
 _atom_site_occupancy
  Yb  Yb0  1  0.326518  0.663240  0.434013  1
  Er  Er1  1  0.656139  0.327988  0.562098  1
  Er  Er2  1  0.656985  0.328343  0.934230  1
  Er  Er3  1  0.328085  0.664077  0.071066  1
  Re  Re4  1  0.683070  0.841519  0.749200  1
  Ru  Ru5  1  0.976117  0.988448  0.499395  1
  Ru  Ru6  1  0.976181  0.988373  0.000109  1
  Ru  Ru7  1  0.835952  0.165842  0.249617  1
  Ru  Ru8  1  0.835718  0.669654  0.249578  1
  Ru  Ru9  1  0.359983  0.179716  0.248299  1
  Ru  Ru10  1  0.182469  0.829194  0.751199  1
  Ru  Ru11  1  0.182785  0.353606  0.751197  1
