# generated using pymatgen
data_Dy3HoSi4(NiOs)2
_symmetry_space_group_name_H-M   'P 1'
_cell_length_a   4.24289200
_cell_length_b   6.90592579
_cell_length_c   7.16113705
_cell_angle_alpha   91.76904206
_cell_angle_beta   90.00000000
_cell_angle_gamma   90.00000000
_symmetry_Int_Tables_number   1
_chemical_formula_structural   Dy3HoSi4(NiOs)2
_chemical_formula_sum   'Dy3 Ho1 Si4 Ni2 Os2'
_cell_volume   209.72916599
_cell_formula_units_Z   1
loop_
 _symmetry_equiv_pos_site_id
 _symmetry_equiv_pos_as_xyz
  1  'x, y, z'
loop_
 _atom_site_type_symbol
 _atom_site_label
 _atom_site_symmetry_multiplicity
 _atom_site_fract_x
 _atom_site_fract_y
 _atom_site_fract_z
 _atom_site_occupancy
  Dy  Dy0  1  0.750000  0.012273  0.320436  1
  Dy  Dy1  1  0.250000  0.987922  0.679467  1
  Dy  Dy2  1  0.250000  0.489195  0.800140  1
  Ho  Ho3  1  0.750000  0.511088  0.200376  1
  Si  Si4  1  0.750000  0.695283  0.605000  1
  Si  Si5  1  0.250000  0.305427  0.394197  1
  Si  Si6  1  0.250000  0.800325  0.099236  1
  Si  Si7  1  0.750000  0.199144  0.901735  1
  Ni  Ni8  1  0.250000  0.661634  0.425111  1
  Ni  Ni9  1  0.750000  0.338394  0.573547  1
  Os  Os10  1  0.750000  0.843081  0.929720  1
  Os  Os11  1  0.250000  0.156234  0.071036  1
