# generated using pymatgen
data_Nd4Ga7(GeIr2)3
_symmetry_space_group_name_H-M   'P 1'
_cell_length_a   8.60640405
_cell_length_b   8.67235943
_cell_length_c   8.67235960
_cell_angle_alpha   140.58738560
_cell_angle_beta   108.36972366
_cell_angle_gamma   85.06654828
_symmetry_Int_Tables_number   1
_chemical_formula_structural   Nd4Ga7(GeIr2)3
_chemical_formula_sum   'Nd4 Ga7 Ge3 Ir6'
_cell_volume   376.46412646
_cell_formula_units_Z   1
loop_
 _symmetry_equiv_pos_site_id
 _symmetry_equiv_pos_as_xyz
  1  'x, y, z'
loop_
 _atom_site_type_symbol
 _atom_site_label
 _atom_site_symmetry_multiplicity
 _atom_site_fract_x
 _atom_site_fract_y
 _atom_site_fract_z
 _atom_site_occupancy
  Nd  Nd0  1  0.864167  0.632777  0.231389  1
  Nd  Nd1  1  0.135712  0.364609  0.771103  1
  Nd  Nd2  1  0.408916  0.137371  0.271545  1
  Nd  Nd3  1  0.593348  0.864339  0.729008  1
  Ga  Ga4  1  0.498854  0.752286  0.250356  1
  Ga  Ga5  1  0.498854  0.248498  0.746568  1
  Ga  Ga6  1  0.214990  0.962516  0.749514  1
  Ga  Ga7  1  0.786958  0.533944  0.747536  1
  Ga  Ga8  1  0.786958  0.039422  0.253014  1
  Ga  Ga9  1  0.214990  0.465476  0.252475  1
  Ga  Ga10  1  0.074813  0.908457  0.166356  1
  Ge  Ge11  1  0.928202  0.092968  0.835234  1
  Ge  Ge12  1  0.735527  0.402233  0.333294  1
  Ge  Ge13  1  0.259860  0.593958  0.665902  1
  Ir  Ir14  1  0.997462  0.749046  0.746151  1
  Ir  Ir15  1  0.997462  0.251311  0.248416  1
  Ir  Ir16  1  0.252381  0.853883  0.398499  1
  Ir  Ir17  1  0.749663  0.144803  0.604859  1
  Ir  Ir18  1  0.455305  0.356243  0.099062  1
  Ir  Ir19  1  0.545579  0.645858  0.899720  1
