# generated using pymatgen
data_La7PaRh6
_symmetry_space_group_name_H-M   'P 1'
_cell_length_a   7.62788622
_cell_length_b   7.83382823
_cell_length_c   7.83382827
_cell_angle_alpha   109.99761399
_cell_angle_beta   108.93955360
_cell_angle_gamma   108.93955279
_symmetry_Int_Tables_number   1
_chemical_formula_structural   La7PaRh6
_chemical_formula_sum   'La7 Pa1 Rh6'
_cell_volume   362.69206407
_cell_formula_units_Z   1
loop_
 _symmetry_equiv_pos_site_id
 _symmetry_equiv_pos_as_xyz
  1  'x, y, z'
loop_
 _atom_site_type_symbol
 _atom_site_label
 _atom_site_symmetry_multiplicity
 _atom_site_fract_x
 _atom_site_fract_y
 _atom_site_fract_z
 _atom_site_occupancy
  La  La0  1  0.502094  0.000740  0.610198  1
  La  La1  1  0.386913  0.392094  0.403299  1
  La  La2  1  0.983615  0.096701  0.488795  1
  La  La3  1  0.891896  0.889802  0.890543  1
  La  La4  1  0.001354  0.609457  0.499260  1
  La  La5  1  0.635409  0.500000  0.000000  1
  La  La6  1  0.494820  0.011205  0.107906  1
  Pa  Pa7  1  0.129681  0.500000  0.000000  1
  Rh  Rh8  1  0.904104  0.269895  0.119832  1
  Rh  Rh9  1  0.134209  0.849938  0.230105  1
  Rh  Rh10  1  0.345080  0.604050  0.779554  1
  Rh  Rh11  1  0.241029  0.175504  0.895950  1
  Rh  Rh12  1  0.784272  0.380168  0.650062  1
  Rh  Rh13  1  0.565525  0.720446  0.324496  1
