# generated using pymatgen
data_CsAlSb4
_symmetry_space_group_name_H-M   'P 1'
_cell_length_a   4.32976700
_cell_length_b   10.90774400
_cell_length_c   18.88748500
_cell_angle_alpha   90.00000000
_cell_angle_beta   90.00000000
_cell_angle_gamma   90.00000000
_symmetry_Int_Tables_number   1
_chemical_formula_structural   CsAlSb4
_chemical_formula_sum   'Cs4 Al4 Sb16'
_cell_volume   892.01795300
_cell_formula_units_Z   4
loop_
 _symmetry_equiv_pos_site_id
 _symmetry_equiv_pos_as_xyz
  1  'x, y, z'
loop_
 _atom_site_type_symbol
 _atom_site_label
 _atom_site_symmetry_multiplicity
 _atom_site_fract_x
 _atom_site_fract_y
 _atom_site_fract_z
 _atom_site_occupancy
  Cs  Cs0  1  0.750000  0.181478  0.431289  1
  Cs  Cs1  1  0.250000  0.818522  0.568711  1
  Cs  Cs2  1  0.750000  0.681478  0.068711  1
  Cs  Cs3  1  0.250000  0.318522  0.931289  1
  Al  Al4  1  0.750000  0.319699  0.632154  1
  Al  Al5  1  0.250000  0.680301  0.367846  1
  Al  Al6  1  0.750000  0.819699  0.867846  1
  Al  Al7  1  0.250000  0.180301  0.132154  1
  Sb  Sb8  1  0.750000  0.825068  0.390563  1
  Sb  Sb9  1  0.250000  0.174932  0.609437  1
  Sb  Sb10  1  0.750000  0.325068  0.109437  1
  Sb  Sb11  1  0.250000  0.674932  0.890563  1
  Sb  Sb12  1  0.750000  0.399694  0.767870  1
  Sb  Sb13  1  0.250000  0.600306  0.232130  1
  Sb  Sb14  1  0.750000  0.899694  0.732130  1
  Sb  Sb15  1  0.250000  0.100306  0.267870  1
  Sb  Sb16  1  0.750000  0.526024  0.549303  1
  Sb  Sb17  1  0.250000  0.473976  0.450697  1
  Sb  Sb18  1  0.750000  0.026024  0.950697  1
  Sb  Sb19  1  0.250000  0.973976  0.049303  1
  Sb  Sb20  1  0.750000  0.924253  0.249200  1
  Sb  Sb21  1  0.250000  0.075747  0.750800  1
  Sb  Sb22  1  0.750000  0.424253  0.250800  1
  Sb  Sb23  1  0.250000  0.575747  0.749200  1
