# generated using pymatgen
data_Ba5Rh2O9F
_symmetry_space_group_name_H-M   'P 1'
_cell_length_a   6.11334996
_cell_length_b   6.11335072
_cell_length_c   17.86515800
_cell_angle_alpha   90.00000000
_cell_angle_beta   90.00000000
_cell_angle_gamma   120.30380560
_symmetry_Int_Tables_number   1
_chemical_formula_structural   Ba5Rh2O9F
_chemical_formula_sum   'Ba10 Rh4 O18 F2'
_cell_volume   576.44566734
_cell_formula_units_Z   2
loop_
 _symmetry_equiv_pos_site_id
 _symmetry_equiv_pos_as_xyz
  1  'x, y, z'
loop_
 _atom_site_type_symbol
 _atom_site_label
 _atom_site_symmetry_multiplicity
 _atom_site_fract_x
 _atom_site_fract_y
 _atom_site_fract_z
 _atom_site_occupancy
  Ba  Ba0  1  0.167867  0.832133  0.012198  1
  Ba  Ba1  1  0.832133  0.167867  0.512198  1
  Ba  Ba2  1  0.832214  0.167786  0.746106  1
  Ba  Ba3  1  0.167786  0.832214  0.246106  1
  Ba  Ba4  1  0.498295  0.501705  0.356331  1
  Ba  Ba5  1  0.501705  0.498295  0.856331  1
  Ba  Ba6  1  0.498896  0.501104  0.635751  1
  Ba  Ba7  1  0.833188  0.166812  0.979819  1
  Ba  Ba8  1  0.501104  0.498896  0.135751  1
  Ba  Ba9  1  0.166812  0.833188  0.479819  1
  Rh  Rh10  1  0.171882  0.828118  0.670608  1
  Rh  Rh11  1  0.160315  0.839685  0.821636  1
  Rh  Rh12  1  0.828118  0.171882  0.170608  1
  Rh  Rh13  1  0.839685  0.160315  0.321636  1
  O  O14  1  0.465705  0.010018  0.885148  1
  O  O15  1  0.002610  0.997390  0.880574  1
  O  O16  1  0.684780  0.315220  0.249755  1
  O  O17  1  0.316355  0.133148  0.744313  1
  O  O18  1  0.010018  0.465705  0.385148  1
  O  O19  1  0.989982  0.534295  0.885148  1
  O  O20  1  0.030086  0.515636  0.610442  1
  O  O21  1  0.021374  0.978626  0.605527  1
  O  O22  1  0.515636  0.030086  0.110442  1
  O  O23  1  0.866852  0.683645  0.744313  1
  O  O24  1  0.683645  0.866852  0.244313  1
  O  O25  1  0.133148  0.316355  0.244313  1
  O  O26  1  0.997390  0.002610  0.380574  1
  O  O27  1  0.315220  0.684780  0.749755  1
  O  O28  1  0.484364  0.969914  0.610442  1
  O  O29  1  0.969914  0.484364  0.110442  1
  O  O30  1  0.534295  0.989982  0.385148  1
  O  O31  1  0.978626  0.021374  0.105527  1
  F  F32  1  0.440434  0.559566  0.996090  1
  F  F33  1  0.559566  0.440434  0.496090  1
