# generated using pymatgen
data_Ca5Ga2Pb
_symmetry_space_group_name_H-M   'P 1'
_cell_length_a   9.40421427
_cell_length_b   9.40421392
_cell_length_c   9.40421366
_cell_angle_alpha   128.94608803
_cell_angle_beta   128.94609112
_cell_angle_gamma   75.09733264
_symmetry_Int_Tables_number   1
_chemical_formula_structural   Ca5Ga2Pb
_chemical_formula_sum   'Ca10 Ga4 Pb2'
_cell_volume   489.81913397
_cell_formula_units_Z   2
loop_
 _symmetry_equiv_pos_site_id
 _symmetry_equiv_pos_as_xyz
  1  'x, y, z'
loop_
 _atom_site_type_symbol
 _atom_site_label
 _atom_site_symmetry_multiplicity
 _atom_site_fract_x
 _atom_site_fract_y
 _atom_site_fract_z
 _atom_site_occupancy
  Ca  Ca0  1  0.500000  0.500000  0.000000  1
  Ca  Ca1  1  0.000000  0.000000  0.000000  1
  Ca  Ca2  1  0.538544  0.038544  0.852438  1
  Ca  Ca3  1  0.186106  0.686106  0.147562  1
  Ca  Ca4  1  0.038544  0.186106  0.500000  1
  Ca  Ca5  1  0.686106  0.538544  0.500000  1
  Ca  Ca6  1  0.461456  0.961456  0.147562  1
  Ca  Ca7  1  0.813894  0.313894  0.852438  1
  Ca  Ca8  1  0.961456  0.813894  0.500000  1
  Ca  Ca9  1  0.313894  0.461456  0.500000  1
  Ga  Ga10  1  0.887832  0.387832  0.275666  1
  Ga  Ga11  1  0.112168  0.612168  0.724334  1
  Ga  Ga12  1  0.387832  0.112168  0.500000  1
  Ga  Ga13  1  0.612168  0.887832  0.500000  1
  Pb  Pb14  1  0.250000  0.250000  0.000000  1
  Pb  Pb15  1  0.750000  0.750000  0.000000  1
