# generated using pymatgen
data_Tm12ZnFe4Sb
_symmetry_space_group_name_H-M   'P 1'
_cell_length_a   8.23331940
_cell_length_b   8.23332027
_cell_length_c   8.23332000
_cell_angle_alpha   111.17010979
_cell_angle_beta   110.93254961
_cell_angle_gamma   106.35530914
_symmetry_Int_Tables_number   1
_chemical_formula_structural   Tm12ZnFe4Sb
_chemical_formula_sum   'Tm12 Zn1 Fe4 Sb1'
_cell_volume   428.69007620
_cell_formula_units_Z   1
loop_
 _symmetry_equiv_pos_site_id
 _symmetry_equiv_pos_as_xyz
  1  'x, y, z'
loop_
 _atom_site_type_symbol
 _atom_site_label
 _atom_site_symmetry_multiplicity
 _atom_site_fract_x
 _atom_site_fract_y
 _atom_site_fract_z
 _atom_site_occupancy
  Tm  Tm0  1  0.430862  0.222645  0.208217  1
  Tm  Tm1  1  0.569138  0.777355  0.791783  1
  Tm  Tm2  1  0.014429  0.222645  0.791783  1
  Tm  Tm3  1  0.985571  0.777355  0.208217  1
  Tm  Tm4  1  0.185834  0.285436  0.471271  1
  Tm  Tm5  1  0.814166  0.714564  0.528729  1
  Tm  Tm6  1  0.185834  0.714564  0.900400  1
  Tm  Tm7  1  0.814166  0.285436  0.099600  1
  Tm  Tm8  1  0.311354  0.613038  0.301685  1
  Tm  Tm9  1  0.688646  0.386962  0.698315  1
  Tm  Tm10  1  0.311354  0.009668  0.698315  1
  Tm  Tm11  1  0.688646  0.990332  0.301685  1
  Zn  Zn12  1  0.000000  0.000000  0.000000  1
  Fe  Fe13  1  0.382659  0.000000  0.382659  1
  Fe  Fe14  1  0.617341  0.000000  0.617341  1
  Fe  Fe15  1  0.108963  0.608963  0.500000  1
  Fe  Fe16  1  0.891037  0.391037  0.500000  1
  Sb  Sb17  1  0.500000  0.500000  0.000000  1
