# generated using pymatgen
data_EuHo2Tm(ZnSn)4
_symmetry_space_group_name_H-M   'P 1'
_cell_length_a   4.54807200
_cell_length_b   4.54807296
_cell_length_c   15.88339600
_cell_angle_alpha   90.00000000
_cell_angle_beta   90.00000000
_cell_angle_gamma   119.99999301
_symmetry_Int_Tables_number   1
_chemical_formula_structural   EuHo2Tm(ZnSn)4
_chemical_formula_sum   'Eu1 Ho2 Tm1 Zn4 Sn4'
_cell_volume   284.53046948
_cell_formula_units_Z   1
loop_
 _symmetry_equiv_pos_site_id
 _symmetry_equiv_pos_as_xyz
  1  'x, y, z'
loop_
 _atom_site_type_symbol
 _atom_site_label
 _atom_site_symmetry_multiplicity
 _atom_site_fract_x
 _atom_site_fract_y
 _atom_site_fract_z
 _atom_site_occupancy
  Eu  Eu0  1  0.000000  0.000000  0.999071  1
  Ho  Ho1  1  0.000000  0.000000  0.257379  1
  Ho  Ho2  1  0.000000  0.000000  0.500999  1
  Tm  Tm3  1  0.000000  0.000000  0.742566  1
  Zn  Zn4  1  0.333333  0.666667  0.169795  1
  Zn  Zn5  1  0.666667  0.333333  0.828529  1
  Zn  Zn6  1  0.666667  0.333333  0.657222  1
  Zn  Zn7  1  0.333333  0.666667  0.344439  1
  Sn  Sn8  1  0.333333  0.666667  0.608852  1
  Sn  Sn9  1  0.666667  0.333333  0.392628  1
  Sn  Sn10  1  0.666667  0.333333  0.124285  1
  Sn  Sn11  1  0.333333  0.666667  0.874235  1
