# generated using pymatgen
data_Y2ErSi3P3Pd20
_symmetry_space_group_name_H-M   'P 1'
_cell_length_a   8.68723003
_cell_length_b   8.69125894
_cell_length_c   8.69126000
_cell_angle_alpha   59.99999595
_cell_angle_beta   59.98465325
_cell_angle_gamma   59.98465610
_symmetry_Int_Tables_number   1
_chemical_formula_structural   Y2ErSi3P3Pd20
_chemical_formula_sum   'Y2 Er1 Si3 P3 Pd20'
_cell_volume   463.90704724
_cell_formula_units_Z   1
loop_
 _symmetry_equiv_pos_site_id
 _symmetry_equiv_pos_as_xyz
  1  'x, y, z'
loop_
 _atom_site_type_symbol
 _atom_site_label
 _atom_site_symmetry_multiplicity
 _atom_site_fract_x
 _atom_site_fract_y
 _atom_site_fract_z
 _atom_site_occupancy
  Y  Y0  1  0.751470  0.749510  0.749510  1
  Y  Y1  1  0.251112  0.249629  0.249629  1
  Er  Er2  1  0.998007  0.000664  0.000664  1
  Si  Si3  1  0.735369  0.266048  0.266048  1
  Si  Si4  1  0.735369  0.732535  0.266048  1
  Si  Si5  1  0.735369  0.266048  0.732535  1
  P  P6  1  0.266074  0.735476  0.262974  1
  P  P7  1  0.266074  0.735476  0.735476  1
  P  P8  1  0.266074  0.262974  0.735476  1
  Pd  Pd9  1  0.344341  0.000843  0.000843  1
  Pd  Pd10  1  0.000861  0.655390  0.346130  1
  Pd  Pd11  1  0.344341  0.000843  0.653972  1
  Pd  Pd12  1  0.000861  0.655390  0.997620  1
  Pd  Pd13  1  0.654062  0.344562  0.000688  1
  Pd  Pd14  1  0.613945  0.616760  0.152534  1
  Pd  Pd15  1  0.383106  0.846174  0.385361  1
  Pd  Pd16  1  0.155079  0.614973  0.614973  1
  Pd  Pd17  1  0.654062  0.000688  0.344562  1
  Pd  Pd18  1  0.000861  0.346130  0.655390  1
  Pd  Pd19  1  0.654062  0.000688  0.000688  1
  Pd  Pd20  1  0.000861  0.997620  0.346130  1
  Pd  Pd21  1  0.613945  0.152534  0.616760  1
  Pd  Pd22  1  0.344341  0.653972  0.000843  1
  Pd  Pd23  1  0.383106  0.385361  0.385361  1
  Pd  Pd24  1  0.613945  0.616760  0.616760  1
  Pd  Pd25  1  0.383106  0.385361  0.846174  1
  Pd  Pd26  1  0.000861  0.997620  0.655390  1
  Pd  Pd27  1  0.848477  0.383842  0.383842  1
  Pd  Pd28  1  0.000861  0.346130  0.997620  1
