# generated using pymatgen
data_HfZrBe9Tc
_symmetry_space_group_name_H-M   'P 1'
_cell_length_a   7.55843528
_cell_length_b   7.55843464
_cell_length_c   7.55843500
_cell_angle_alpha   34.72758056
_cell_angle_beta   34.72758760
_cell_angle_gamma   34.72758285
_symmetry_Int_Tables_number   1
_chemical_formula_structural   HfZrBe9Tc
_chemical_formula_sum   'Hf1 Zr1 Be9 Tc1'
_cell_volume   125.06689132
_cell_formula_units_Z   1
loop_
 _symmetry_equiv_pos_site_id
 _symmetry_equiv_pos_as_xyz
  1  'x, y, z'
loop_
 _atom_site_type_symbol
 _atom_site_label
 _atom_site_symmetry_multiplicity
 _atom_site_fract_x
 _atom_site_fract_y
 _atom_site_fract_z
 _atom_site_occupancy
  Hf  Hf0  1  0.856617  0.856617  0.856617  1
  Zr  Zr1  1  0.004013  0.004013  0.004013  1
  Be  Be2  1  0.499057  0.499057  0.499057  1
  Be  Be3  1  0.332661  0.332661  0.332662  1
  Be  Be4  1  0.664045  0.664045  0.664044  1
  Be  Be5  1  0.083121  0.583144  0.583144  1
  Be  Be6  1  0.583144  0.583144  0.083121  1
  Be  Be7  1  0.583144  0.083121  0.583144  1
  Be  Be8  1  0.413899  0.924336  0.413899  1
  Be  Be9  1  0.924336  0.413899  0.413899  1
  Be  Be10  1  0.413899  0.413899  0.924336  1
  Tc  Tc11  1  0.142065  0.142065  0.142065  1
