# generated using pymatgen
data_Er3Lu9Co4CuSn
_symmetry_space_group_name_H-M   'P 1'
_cell_length_a   8.17084940
_cell_length_b   8.17141339
_cell_length_c   8.17401613
_cell_angle_alpha   111.04991390
_cell_angle_beta   110.71064985
_cell_angle_gamma   106.67118505
_symmetry_Int_Tables_number   1
_chemical_formula_structural   Er3Lu9Co4CuSn
_chemical_formula_sum   'Er3 Lu9 Co4 Cu1 Sn1'
_cell_volume   419.46766158
_cell_formula_units_Z   1
loop_
 _symmetry_equiv_pos_site_id
 _symmetry_equiv_pos_as_xyz
  1  'x, y, z'
loop_
 _atom_site_type_symbol
 _atom_site_label
 _atom_site_symmetry_multiplicity
 _atom_site_fract_x
 _atom_site_fract_y
 _atom_site_fract_z
 _atom_site_occupancy
  Er  Er0  1  0.813032  0.711916  0.524800  1
  Er  Er1  1  0.186916  0.711355  0.898146  1
  Er  Er2  1  0.813891  0.287752  0.101511  1
  Lu  Lu3  1  0.313693  0.618628  0.304946  1
  Lu  Lu4  1  0.684700  0.379770  0.693650  1
  Lu  Lu5  1  0.313951  0.008993  0.693678  1
  Lu  Lu6  1  0.686375  0.991302  0.304869  1
  Lu  Lu7  1  0.417008  0.217304  0.200174  1
  Lu  Lu8  1  0.579716  0.780064  0.798192  1
  Lu  Lu9  1  0.018187  0.218594  0.798114  1
  Lu  Lu10  1  0.982937  0.783370  0.200050  1
  Lu  Lu11  1  0.186603  0.288043  0.474545  1
  Co  Co12  1  0.115615  0.613169  0.501005  1
  Co  Co13  1  0.886918  0.384506  0.500792  1
  Co  Co14  1  0.375782  0.000643  0.376580  1
  Co  Co15  1  0.625028  0.999207  0.624422  1
  Cu  Cu16  1  0.999100  0.005437  0.004239  1
  Sn  Sn17  1  0.500549  0.499948  0.000287  1
