# generated using pymatgen
data_Y3Er(AuO3)4
_symmetry_space_group_name_H-M   'P 1'
_cell_length_a   3.82290649
_cell_length_b   12.96490367
_cell_length_c   5.58709700
_cell_angle_alpha   90.00000000
_cell_angle_beta   90.00000000
_cell_angle_gamma   90.05811956
_symmetry_Int_Tables_number   1
_chemical_formula_structural   Y3Er(AuO3)4
_chemical_formula_sum   'Y3 Er1 Au4 O12'
_cell_volume   276.91657883
_cell_formula_units_Z   1
loop_
 _symmetry_equiv_pos_site_id
 _symmetry_equiv_pos_as_xyz
  1  'x, y, z'
loop_
 _atom_site_type_symbol
 _atom_site_label
 _atom_site_symmetry_multiplicity
 _atom_site_fract_x
 _atom_site_fract_y
 _atom_site_fract_z
 _atom_site_occupancy
  Y  Y0  1  0.737729  0.073701  0.249999  1
  Y  Y1  1  0.262104  0.575393  0.249999  1
  Y  Y2  1  0.738501  0.425345  0.749999  1
  Er  Er3  1  0.261829  0.925841  0.749999  1
  Au  Au4  1  0.059668  0.330134  0.249999  1
  Au  Au5  1  0.939748  0.831250  0.249999  1
  Au  Au6  1  0.059467  0.168635  0.749999  1
  Au  Au7  1  0.940773  0.670568  0.749999  1
  O  O8  1  0.793802  0.249321  0.999989  1
  O  O9  1  0.206800  0.751780  0.998882  1
  O  O10  1  0.255576  0.072814  0.999850  1
  O  O11  1  0.745018  0.575117  0.001269  1
  O  O12  1  0.255576  0.072814  0.500150  1
  O  O13  1  0.745018  0.575117  0.498731  1
  O  O14  1  0.793802  0.249321  0.500011  1
  O  O15  1  0.206800  0.751780  0.501118  1
  O  O16  1  0.255423  0.425426  0.501168  1
  O  O17  1  0.743481  0.925113  0.504520  1
  O  O18  1  0.255423  0.425426  0.998831  1
  O  O19  1  0.743481  0.925113  0.995479  1
