# generated using pymatgen
data_Dy6Al13V3Os7
_symmetry_space_group_name_H-M   'P 1'
_cell_length_a   8.95520518
_cell_length_b   8.95520645
_cell_length_c   8.95520724
_cell_angle_alpha   59.49815956
_cell_angle_beta   59.49815227
_cell_angle_gamma   59.49815642
_symmetry_Int_Tables_number   1
_chemical_formula_structural   Dy6Al13V3Os7
_chemical_formula_sum   'Dy6 Al13 V3 Os7'
_cell_volume   502.02633932
_cell_formula_units_Z   1
loop_
 _symmetry_equiv_pos_site_id
 _symmetry_equiv_pos_as_xyz
  1  'x, y, z'
loop_
 _atom_site_type_symbol
 _atom_site_label
 _atom_site_symmetry_multiplicity
 _atom_site_fract_x
 _atom_site_fract_y
 _atom_site_fract_z
 _atom_site_occupancy
  Dy  Dy0  1  0.710143  0.710143  0.286165  1
  Dy  Dy1  1  0.289503  0.712980  0.289503  1
  Dy  Dy2  1  0.712980  0.289503  0.289503  1
  Dy  Dy3  1  0.289503  0.289503  0.712980  1
  Dy  Dy4  1  0.710143  0.286165  0.710143  1
  Dy  Dy5  1  0.286165  0.710143  0.710143  1
  Al  Al6  1  0.881047  0.881047  0.881047  1
  Al  Al7  1  0.121004  0.121004  0.642511  1
  Al  Al8  1  0.121004  0.642511  0.121004  1
  Al  Al9  1  0.642511  0.121004  0.121004  1
  Al  Al10  1  0.120804  0.120804  0.120804  1
  Al  Al11  1  0.669213  0.669213  0.990164  1
  Al  Al12  1  0.669213  0.990164  0.669213  1
  Al  Al13  1  0.990164  0.669213  0.669213  1
  Al  Al14  1  0.668688  0.668688  0.668688  1
  Al  Al15  1  0.331193  0.331193  0.008735  1
  Al  Al16  1  0.331193  0.008735  0.331193  1
  Al  Al17  1  0.008735  0.331193  0.331193  1
  Al  Al18  1  0.331805  0.331805  0.331805  1
  V  V19  1  0.877395  0.877395  0.361140  1
  V  V20  1  0.877395  0.361140  0.877395  1
  V  V21  1  0.361140  0.877395  0.877395  1
  Os  Os22  1  0.004727  0.004727  0.004727  1
  Os  Os23  1  0.997806  0.997806  0.497667  1
  Os  Os24  1  0.502703  0.995648  0.502703  1
  Os  Os25  1  0.995648  0.502703  0.502703  1
  Os  Os26  1  0.502703  0.502703  0.995648  1
  Os  Os27  1  0.997806  0.497667  0.997806  1
  Os  Os28  1  0.497667  0.997806  0.997806  1
