# generated using pymatgen
data_Lu4Al10Si8IrOs5
_symmetry_space_group_name_H-M   'P 1'
_cell_length_a   7.46137200
_cell_length_b   7.42182509
_cell_length_c   9.20735150
_cell_angle_alpha   90.07888799
_cell_angle_beta   90.13016201
_cell_angle_gamma   120.10911752
_symmetry_Int_Tables_number   1
_chemical_formula_structural   Lu4Al10Si8IrOs5
_chemical_formula_sum   'Lu4 Al10 Si8 Ir1 Os5'
_cell_volume   441.07579903
_cell_formula_units_Z   1
loop_
 _symmetry_equiv_pos_site_id
 _symmetry_equiv_pos_as_xyz
  1  'x, y, z'
loop_
 _atom_site_type_symbol
 _atom_site_label
 _atom_site_symmetry_multiplicity
 _atom_site_fract_x
 _atom_site_fract_y
 _atom_site_fract_z
 _atom_site_occupancy
  Lu  Lu0  1  0.997388  0.667275  0.251770  1
  Lu  Lu1  1  0.001679  0.331493  0.748051  1
  Lu  Lu2  1  0.680187  0.006578  0.254884  1
  Lu  Lu3  1  0.321302  0.994448  0.745295  1
  Al  Al4  1  0.660868  0.995178  0.926739  1
  Al  Al5  1  0.340026  0.004530  0.072493  1
  Al  Al6  1  0.336269  0.337281  0.564478  1
  Al  Al7  1  0.661234  0.664877  0.435473  1
  Al  Al8  1  0.661770  0.665478  0.061979  1
  Al  Al9  1  0.338601  0.333931  0.937927  1
  Al  Al10  1  0.333476  0.548305  0.249188  1
  Al  Al11  1  0.668017  0.453962  0.751491  1
  Al  Al12  1  0.546943  0.337078  0.249797  1
  Al  Al13  1  0.451147  0.661627  0.749482  1
  Si  Si14  1  0.130363  0.125522  0.249554  1
  Si  Si15  1  0.870878  0.873784  0.750454  1
  Si  Si16  1  0.002559  0.330299  0.067094  1
  Si  Si17  1  0.997547  0.668884  0.933764  1
  Si  Si18  1  0.993567  0.666132  0.572655  1
  Si  Si19  1  0.333880  0.005708  0.422327  1
  Si  Si20  1  0.010349  0.336996  0.426466  1
  Si  Si21  1  0.663015  0.990636  0.578560  1
  Ir  Ir22  1  0.680476  0.319674  0.500319  1
  Os  Os23  1  0.689308  0.335072  0.002484  1
  Os  Os24  1  0.310931  0.664300  0.997490  1
  Os  Os25  1  0.318707  0.680782  0.499754  1
  Os  Os26  1  0.000188  0.999684  0.000114  1
  Os  Os27  1  0.999323  0.000484  0.499922  1
