# generated using pymatgen
data_Tb6Er9Tm(CdIr)4
_symmetry_space_group_name_H-M   'P 1'
_cell_length_a   9.59107568
_cell_length_b   9.59107659
_cell_length_c   9.59373100
_cell_angle_alpha   59.99084105
_cell_angle_beta   59.99083789
_cell_angle_gamma   59.97178274
_symmetry_Int_Tables_number   1
_chemical_formula_structural   Tb6Er9Tm(CdIr)4
_chemical_formula_sum   'Tb6 Er9 Tm1 Cd4 Ir4'
_cell_volume   623.81296319
_cell_formula_units_Z   1
loop_
 _symmetry_equiv_pos_site_id
 _symmetry_equiv_pos_as_xyz
  1  'x, y, z'
loop_
 _atom_site_type_symbol
 _atom_site_label
 _atom_site_symmetry_multiplicity
 _atom_site_fract_x
 _atom_site_fract_y
 _atom_site_fract_z
 _atom_site_occupancy
  Tb  Tb0  1  0.189043  0.811104  0.810953  1
  Tb  Tb1  1  0.811104  0.189043  0.188901  1
  Tb  Tb2  1  0.811104  0.189043  0.810953  1
  Tb  Tb3  1  0.189043  0.811104  0.188901  1
  Tb  Tb4  1  0.811119  0.811119  0.188881  1
  Tb  Tb5  1  0.188970  0.188970  0.811030  1
  Er  Er6  1  0.598866  0.598866  0.598279  1
  Er  Er7  1  0.598866  0.598866  0.203988  1
  Er  Er8  1  0.599284  0.203454  0.598631  1
  Er  Er9  1  0.203454  0.599284  0.598631  1
  Er  Er10  1  0.061199  0.438049  0.438795  1
  Er  Er11  1  0.438049  0.061199  0.061957  1
  Er  Er12  1  0.438049  0.061199  0.438795  1
  Er  Er13  1  0.061199  0.438049  0.061957  1
  Er  Er14  1  0.438511  0.438511  0.061489  1
  Tm  Tm15  1  0.061579  0.061579  0.438421  1
  Cd  Cd16  1  0.830543  0.830543  0.830544  1
  Cd  Cd17  1  0.830543  0.830543  0.508370  1
  Cd  Cd18  1  0.830622  0.508017  0.830681  1
  Cd  Cd19  1  0.508017  0.830622  0.830681  1
  Ir  Ir20  1  0.391923  0.391923  0.391321  1
  Ir  Ir21  1  0.391923  0.391923  0.824832  1
  Ir  Ir22  1  0.391734  0.825256  0.391505  1
  Ir  Ir23  1  0.825256  0.391734  0.391505  1
