# generated using pymatgen
data_Er12In2FeTc2
_symmetry_space_group_name_H-M   'P 1'
_cell_length_a   8.35784730
_cell_length_b   8.35784865
_cell_length_c   8.35784802
_cell_angle_alpha   108.75299341
_cell_angle_beta   108.75299397
_cell_angle_gamma   110.91742118
_symmetry_Int_Tables_number   1
_chemical_formula_structural   Er12In2FeTc2
_chemical_formula_sum   'Er12 In2 Fe1 Tc2'
_cell_volume   449.21409805
_cell_formula_units_Z   1
loop_
 _symmetry_equiv_pos_site_id
 _symmetry_equiv_pos_as_xyz
  1  'x, y, z'
loop_
 _atom_site_type_symbol
 _atom_site_label
 _atom_site_symmetry_multiplicity
 _atom_site_fract_x
 _atom_site_fract_y
 _atom_site_fract_z
 _atom_site_occupancy
  Er  Er0  1  0.304146  0.304146  0.611127  1
  Er  Er1  1  0.693018  0.693018  0.388873  1
  Er  Er2  1  0.693018  0.304146  0.000000  1
  Er  Er3  1  0.304146  0.693018  0.000000  1
  Er  Er4  1  0.190095  0.430573  0.240478  1
  Er  Er5  1  0.806623  0.569120  0.762497  1
  Er  Er6  1  0.190095  0.949616  0.759522  1
  Er  Er7  1  0.949616  0.190095  0.759522  1
  Er  Er8  1  0.806623  0.044127  0.237503  1
  Er  Er9  1  0.044127  0.806623  0.237503  1
  Er  Er10  1  0.430573  0.190095  0.240478  1
  Er  Er11  1  0.569120  0.806623  0.762497  1
  In  In12  1  0.998462  0.498462  0.500000  1
  In  In13  1  0.498462  0.998462  0.500000  1
  Fe  Fe14  1  0.632249  0.632249  0.000000  1
  Tc  Tc15  1  0.389208  0.389208  0.000000  1
  Tc  Tc16  1  0.000420  0.000420  0.000000  1
