# generated using pymatgen
data_LaBi(SbO4)2
_symmetry_space_group_name_H-M   'P 1'
_cell_length_a   5.18888800
_cell_length_b   5.41586624
_cell_length_c   13.57417884
_cell_angle_alpha   71.13671576
_cell_angle_beta   90.00000000
_cell_angle_gamma   90.00000000
_symmetry_Int_Tables_number   1
_chemical_formula_structural   LaBi(SbO4)2
_chemical_formula_sum   'La2 Bi2 Sb4 O16'
_cell_volume   360.97846920
_cell_formula_units_Z   2
loop_
 _symmetry_equiv_pos_site_id
 _symmetry_equiv_pos_as_xyz
  1  'x, y, z'
loop_
 _atom_site_type_symbol
 _atom_site_label
 _atom_site_symmetry_multiplicity
 _atom_site_fract_x
 _atom_site_fract_y
 _atom_site_fract_z
 _atom_site_occupancy
  La  La0  1  0.201142  0.347233  0.663451  1
  La  La1  1  0.298858  0.347233  0.163451  1
  Bi  Bi2  1  0.785403  0.676553  0.327713  1
  Bi  Bi3  1  0.714597  0.676553  0.827713  1
  Sb  Sb4  1  0.751113  0.918048  0.068088  1
  Sb  Sb5  1  0.748887  0.918048  0.568088  1
  Sb  Sb6  1  0.251490  0.081975  0.930504  1
  Sb  Sb7  1  0.248510  0.081975  0.430504  1
  O  O8  1  0.433799  0.752093  0.030185  1
  O  O9  1  0.066201  0.752093  0.530185  1
  O  O10  1  0.557836  0.243652  0.978533  1
  O  O11  1  0.942164  0.243652  0.478533  1
  O  O12  1  0.604781  0.984377  0.193050  1
  O  O13  1  0.895219  0.984377  0.693050  1
  O  O14  1  0.405327  0.007200  0.810593  1
  O  O15  1  0.094673  0.007200  0.310593  1
  O  O16  1  0.067884  0.136047  0.056881  1
  O  O17  1  0.432116  0.136047  0.556881  1
  O  O18  1  0.932832  0.857391  0.942698  1
  O  O19  1  0.567168  0.857391  0.442698  1
  O  O20  1  0.881235  0.588642  0.168417  1
  O  O21  1  0.618765  0.588642  0.668417  1
  O  O22  1  0.113132  0.406790  0.829888  1
  O  O23  1  0.386868  0.406790  0.329888  1
