# generated using pymatgen
data_NpNiB4
_symmetry_space_group_name_H-M   'P 1'
_cell_length_a   6.79024158
_cell_length_b   6.79019253
_cell_length_c   6.79022256
_cell_angle_alpha   113.04961392
_cell_angle_beta   113.04825604
_cell_angle_gamma   102.53103657
_symmetry_Int_Tables_number   1
_chemical_formula_structural   NpNiB4
_chemical_formula_sum   'Np4 Ni4 B16'
_cell_volume   238.39892140
_cell_formula_units_Z   4
loop_
 _symmetry_equiv_pos_site_id
 _symmetry_equiv_pos_as_xyz
  1  'x, y, z'
loop_
 _atom_site_type_symbol
 _atom_site_label
 _atom_site_symmetry_multiplicity
 _atom_site_fract_x
 _atom_site_fract_y
 _atom_site_fract_z
 _atom_site_occupancy
  Np  Np0  1  0.250002  0.750011  0.500023  1
  Np  Np1  1  0.750022  0.250032  0.500026  1
  Np  Np2  1  0.805850  0.805834  0.999977  1
  Np  Np3  1  0.194178  0.194162  0.999976  1
  Ni  Ni4  1  0.499971  0.725978  0.225994  1
  Ni  Ni5  1  0.725970  0.500007  0.225916  1
  Ni  Ni6  1  0.274073  0.500004  0.774022  1
  Ni  Ni7  1  0.499981  0.274023  0.774026  1
  B  B8  1  0.114290  0.114198  0.536597  1
  B  B9  1  0.577621  0.577699  0.463428  1
  B  B10  1  0.885770  0.885671  0.463348  1
  B  B11  1  0.577606  0.114192  0.999905  1
  B  B12  1  0.114274  0.577690  0.000075  1
  B  B13  1  0.885753  0.422420  0.000079  1
  B  B14  1  0.422328  0.885665  0.999898  1
  B  B15  1  0.422345  0.422428  0.536677  1
  B  B16  1  0.111033  0.276008  0.386991  1
  B  B17  1  0.275931  0.888961  0.164962  1
  B  B18  1  0.723985  0.110965  0.835021  1
  B  B19  1  0.111018  0.724050  0.835019  1
  B  B20  1  0.889018  0.276004  0.164972  1
  B  B21  1  0.889034  0.724054  0.613038  1
  B  B22  1  0.724002  0.888970  0.613042  1
  B  B23  1  0.275945  0.110972  0.386988  1
