# generated using pymatgen
data_Ca5Ho3(OsC2)4
_symmetry_space_group_name_H-M   'P 1'
_cell_length_a   5.14288000
_cell_length_b   6.47055814
_cell_length_c   10.16877618
_cell_angle_alpha   90.27528294
_cell_angle_beta   90.00000000
_cell_angle_gamma   90.00000000
_symmetry_Int_Tables_number   1
_chemical_formula_structural   Ca5Ho3(OsC2)4
_chemical_formula_sum   'Ca5 Ho3 Os4 C8'
_cell_volume   338.38555130
_cell_formula_units_Z   1
loop_
 _symmetry_equiv_pos_site_id
 _symmetry_equiv_pos_as_xyz
  1  'x, y, z'
loop_
 _atom_site_type_symbol
 _atom_site_label
 _atom_site_symmetry_multiplicity
 _atom_site_fract_x
 _atom_site_fract_y
 _atom_site_fract_z
 _atom_site_occupancy
  Ca  Ca0  1  0.250000  0.194323  0.946798  1
  Ca  Ca1  1  0.250000  0.532903  0.222396  1
  Ca  Ca2  1  0.750000  0.465845  0.779129  1
  Ca  Ca3  1  0.750000  0.966942  0.723118  1
  Ca  Ca4  1  0.250000  0.033363  0.279049  1
  Ho  Ho5  1  0.250000  0.683774  0.553609  1
  Ho  Ho6  1  0.750000  0.317409  0.441590  1
  Ho  Ho7  1  0.750000  0.815917  0.059483  1
  Os  Os8  1  0.250000  0.728886  0.853948  1
  Os  Os9  1  0.750000  0.272370  0.143801  1
  Os  Os10  1  0.750000  0.773902  0.359643  1
  Os  Os11  1  0.250000  0.228169  0.642543  1
  C  C12  1  0.250000  0.468136  0.753846  1
  C  C13  1  0.750000  0.537758  0.242113  1
  C  C14  1  0.750000  0.036720  0.260038  1
  C  C15  1  0.250000  0.961587  0.735333  1
  C  C16  1  0.250000  0.797730  0.033241  1
  C  C17  1  0.750000  0.184004  0.969499  1
  C  C18  1  0.750000  0.682956  0.535685  1
  C  C19  1  0.250000  0.317308  0.465138  1
