# generated using pymatgen
data_Tb7Lu(BBr6)2
_symmetry_space_group_name_H-M   'P 1'
_cell_length_a   3.97362000
_cell_length_b   13.23752804
_cell_length_c   13.69961477
_cell_angle_alpha   89.80547874
_cell_angle_beta   90.00000000
_cell_angle_gamma   90.00000000
_symmetry_Int_Tables_number   1
_chemical_formula_structural   Tb7Lu(BBr6)2
_chemical_formula_sum   'Tb7 Lu1 B2 Br12'
_cell_volume   720.60799820
_cell_formula_units_Z   1
loop_
 _symmetry_equiv_pos_site_id
 _symmetry_equiv_pos_as_xyz
  1  'x, y, z'
loop_
 _atom_site_type_symbol
 _atom_site_label
 _atom_site_symmetry_multiplicity
 _atom_site_fract_x
 _atom_site_fract_y
 _atom_site_fract_z
 _atom_site_occupancy
  Tb  Tb0  1  0.000000  0.102251  0.081169  1
  Tb  Tb1  1  0.000000  0.897789  0.918785  1
  Tb  Tb2  1  0.000000  0.600697  0.419969  1
  Tb  Tb3  1  0.500000  0.123144  0.855282  1
  Tb  Tb4  1  0.500000  0.876924  0.144623  1
  Tb  Tb5  1  0.500000  0.621585  0.644652  1
  Tb  Tb6  1  0.500000  0.376738  0.356751  1
  Lu  Lu7  1  0.000000  0.400461  0.579182  1
  B  B8  1  0.500000  0.000199  0.999713  1
  B  B9  1  0.500000  0.498353  0.501340  1
  Br  Br10  1  0.500000  0.273186  0.678504  1
  Br  Br11  1  0.500000  0.731473  0.317972  1
  Br  Br12  1  0.500000  0.767611  0.817262  1
  Br  Br13  1  0.500000  0.232250  0.182821  1
  Br  Br14  1  0.000000  0.260982  0.930750  1
  Br  Br15  1  0.000000  0.739165  0.068888  1
  Br  Br16  1  0.000000  0.480504  0.240253  1
  Br  Br17  1  0.000000  0.515699  0.758506  1
  Br  Br18  1  0.000000  0.980469  0.260507  1
  Br  Br19  1  0.000000  0.019982  0.739255  1
  Br  Br20  1  0.000000  0.240622  0.435096  1
  Br  Br21  1  0.000000  0.759917  0.568718  1
