# generated using pymatgen
data_Dy5Er3Ga3Co
_symmetry_space_group_name_H-M   'P 1'
_cell_length_a   9.98205400
_cell_length_b   9.98205407
_cell_length_c   6.91669300
_cell_angle_alpha   90.00000000
_cell_angle_beta   90.00000000
_cell_angle_gamma   119.99999315
_symmetry_Int_Tables_number   1
_chemical_formula_structural   Dy5Er3Ga3Co
_chemical_formula_sum   'Dy10 Er6 Ga6 Co2'
_cell_volume   596.85521689
_cell_formula_units_Z   2
loop_
 _symmetry_equiv_pos_site_id
 _symmetry_equiv_pos_as_xyz
  1  'x, y, z'
loop_
 _atom_site_type_symbol
 _atom_site_label
 _atom_site_symmetry_multiplicity
 _atom_site_fract_x
 _atom_site_fract_y
 _atom_site_fract_z
 _atom_site_occupancy
  Dy  Dy0  1  0.333333  0.666667  0.827207  1
  Dy  Dy1  1  0.666667  0.333333  0.327207  1
  Dy  Dy2  1  0.463336  0.536664  0.207568  1
  Dy  Dy3  1  0.073328  0.536664  0.207568  1
  Dy  Dy4  1  0.463336  0.926672  0.207568  1
  Dy  Dy5  1  0.536664  0.463336  0.707568  1
  Dy  Dy6  1  0.926672  0.463336  0.707568  1
  Dy  Dy7  1  0.536664  0.073328  0.707568  1
  Dy  Dy8  1  0.000000  0.000000  0.231536  1
  Dy  Dy9  1  0.000000  0.000000  0.731536  1
  Er  Er10  1  0.172709  0.827291  0.510636  1
  Er  Er11  1  0.654581  0.827291  0.510636  1
  Er  Er12  1  0.172709  0.345419  0.510636  1
  Er  Er13  1  0.827291  0.172709  0.010636  1
  Er  Er14  1  0.345419  0.172709  0.010636  1
  Er  Er15  1  0.827291  0.654581  0.010636  1
  Ga  Ga16  1  0.163256  0.836744  0.959747  1
  Ga  Ga17  1  0.673489  0.836744  0.959747  1
  Ga  Ga18  1  0.163256  0.326511  0.959747  1
  Ga  Ga19  1  0.836744  0.163256  0.459747  1
  Ga  Ga20  1  0.326511  0.163256  0.459747  1
  Ga  Ga21  1  0.836744  0.673489  0.459747  1
  Co  Co22  1  0.333333  0.666667  0.444822  1
  Co  Co23  1  0.666667  0.333333  0.944822  1
