# generated using pymatgen
data_KTm3(SbAu)4
_symmetry_space_group_name_H-M   'P 1'
_cell_length_a   4.60850900
_cell_length_b   4.60850936
_cell_length_c   17.19193300
_cell_angle_alpha   90.00000000
_cell_angle_beta   90.00000000
_cell_angle_gamma   120.00000456
_symmetry_Int_Tables_number   1
_chemical_formula_structural   KTm3(SbAu)4
_chemical_formula_sum   'K1 Tm3 Sb4 Au4'
_cell_volume   316.21046294
_cell_formula_units_Z   1
loop_
 _symmetry_equiv_pos_site_id
 _symmetry_equiv_pos_as_xyz
  1  'x, y, z'
loop_
 _atom_site_type_symbol
 _atom_site_label
 _atom_site_symmetry_multiplicity
 _atom_site_fract_x
 _atom_site_fract_y
 _atom_site_fract_z
 _atom_site_occupancy
  K  K0  1  0.000000  0.000000  0.250000  1
  Tm  Tm1  1  0.000000  0.000000  0.513118  1
  Tm  Tm2  1  0.000000  0.000000  0.986882  1
  Tm  Tm3  1  0.000000  0.000000  0.750000  1
  Sb  Sb4  1  0.333333  0.666667  0.391613  1
  Sb  Sb5  1  0.666667  0.333333  0.615849  1
  Sb  Sb6  1  0.666667  0.333333  0.884151  1
  Sb  Sb7  1  0.333333  0.666667  0.108387  1
  Au  Au8  1  0.666667  0.333333  0.436673  1
  Au  Au9  1  0.333333  0.666667  0.667581  1
  Au  Au10  1  0.333333  0.666667  0.832419  1
  Au  Au11  1  0.666667  0.333333  0.063327  1
