# generated using pymatgen
data_TbDyLu6(CdPt)2
_symmetry_space_group_name_H-M   'P 1'
_cell_length_a   9.53391013
_cell_length_b   9.52192923
_cell_length_c   9.52201609
_cell_angle_alpha   60.08295848
_cell_angle_beta   59.95806251
_cell_angle_gamma   59.95898570
_symmetry_Int_Tables_number   1
_chemical_formula_structural   TbDyLu6(CdPt)2
_chemical_formula_sum   'Tb2 Dy2 Lu12 Cd4 Pt4'
_cell_volume   611.23550213
_cell_formula_units_Z   2
loop_
 _symmetry_equiv_pos_site_id
 _symmetry_equiv_pos_as_xyz
  1  'x, y, z'
loop_
 _atom_site_type_symbol
 _atom_site_label
 _atom_site_symmetry_multiplicity
 _atom_site_fract_x
 _atom_site_fract_y
 _atom_site_fract_z
 _atom_site_occupancy
  Tb  Tb0  1  0.564908  0.935092  0.564908  1
  Tb  Tb1  1  0.935092  0.564907  0.935092  1
  Dy  Dy2  1  0.564848  0.564848  0.935152  1
  Dy  Dy3  1  0.935152  0.935152  0.564847  1
  Lu  Lu4  1  0.352952  0.352206  0.352139  1
  Lu  Lu5  1  0.352206  0.352952  0.942704  1
  Lu  Lu6  1  0.352139  0.942704  0.352952  1
  Lu  Lu7  1  0.942704  0.352139  0.352206  1
  Lu  Lu8  1  0.811206  0.188794  0.188794  1
  Lu  Lu9  1  0.188794  0.811206  0.811206  1
  Lu  Lu10  1  0.188551  0.811449  0.188551  1
  Lu  Lu11  1  0.811449  0.188551  0.811449  1
  Lu  Lu12  1  0.188540  0.188540  0.811460  1
  Lu  Lu13  1  0.811460  0.811460  0.188540  1
  Lu  Lu14  1  0.938906  0.561094  0.561094  1
  Lu  Lu15  1  0.561094  0.938906  0.938906  1
  Cd  Cd16  1  0.583227  0.580876  0.580919  1
  Cd  Cd17  1  0.580876  0.583227  0.254978  1
  Cd  Cd18  1  0.580919  0.254978  0.583227  1
  Cd  Cd19  1  0.254978  0.580919  0.580876  1
  Pt  Pt20  1  0.144567  0.142477  0.142547  1
  Pt  Pt21  1  0.142477  0.144567  0.570409  1
  Pt  Pt22  1  0.142547  0.570409  0.144567  1
  Pt  Pt23  1  0.570409  0.142547  0.142477  1
