# generated using pymatgen
data_LiSm2Si3As3Pd20
_symmetry_space_group_name_H-M   'P 1'
_cell_length_a   8.75718835
_cell_length_b   8.79112059
_cell_length_c   8.82650346
_cell_angle_alpha   59.61224704
_cell_angle_beta   59.99300806
_cell_angle_gamma   60.39475431
_symmetry_Int_Tables_number   1
_chemical_formula_structural   LiSm2Si3As3Pd20
_chemical_formula_sum   'Li1 Sm2 Si3 As3 Pd20'
_cell_volume   480.44329018
_cell_formula_units_Z   1
loop_
 _symmetry_equiv_pos_site_id
 _symmetry_equiv_pos_as_xyz
  1  'x, y, z'
loop_
 _atom_site_type_symbol
 _atom_site_label
 _atom_site_symmetry_multiplicity
 _atom_site_fract_x
 _atom_site_fract_y
 _atom_site_fract_z
 _atom_site_occupancy
  Li  Li0  1  0.999230  0.000770  0.999230  1
  Sm  Sm1  1  0.249878  0.250122  0.249878  1
  Sm  Sm2  1  0.749878  0.750122  0.749878  1
  Si  Si3  1  0.736040  0.263960  0.736040  1
  Si  Si4  1  0.263198  0.263196  0.736804  1
  Si  Si5  1  0.736804  0.736802  0.263198  1
  As  As6  1  0.737888  0.262112  0.261445  1
  As  As7  1  0.261445  0.738555  0.737888  1
  As  As8  1  0.262078  0.737922  0.262078  1
  Pd  Pd9  1  0.382166  0.380929  0.390124  1
  Pd  Pd10  1  0.620074  0.612145  0.613845  1
  Pd  Pd11  1  0.387855  0.379926  0.846062  1
  Pd  Pd12  1  0.390124  0.846778  0.382166  1
  Pd  Pd13  1  0.619071  0.617834  0.153222  1
  Pd  Pd14  1  0.613845  0.153938  0.620074  1
  Pd  Pd15  1  0.846062  0.386155  0.387855  1
  Pd  Pd16  1  0.153222  0.609876  0.619071  1
  Pd  Pd17  1  0.348345  0.006104  0.993896  1
  Pd  Pd18  1  0.655453  0.999636  0.000364  1
  Pd  Pd19  1  0.000364  0.344547  0.655453  1
  Pd  Pd20  1  0.993896  0.651655  0.348345  1
  Pd  Pd21  1  0.005644  0.347996  0.991882  1
  Pd  Pd22  1  0.652004  0.994356  0.345522  1
  Pd  Pd23  1  0.991882  0.654478  0.005644  1
  Pd  Pd24  1  0.345522  0.008118  0.652004  1
  Pd  Pd25  1  0.000599  0.999401  0.349351  1
  Pd  Pd26  1  0.993143  0.006857  0.654940  1
  Pd  Pd27  1  0.654940  0.345060  0.993143  1
  Pd  Pd28  1  0.349351  0.650649  0.000599  1
