# generated using pymatgen
data_Ba2DyAg5Se6
_symmetry_space_group_name_H-M   'P 1'
_cell_length_a   4.38502300
_cell_length_b   7.61912006
_cell_length_c   11.60775554
_cell_angle_alpha   94.09378558
_cell_angle_beta   90.00000000
_cell_angle_gamma   106.72416498
_symmetry_Int_Tables_number   1
_chemical_formula_structural   Ba2DyAg5Se6
_chemical_formula_sum   'Ba2 Dy1 Ag5 Se6'
_cell_volume   370.37786836
_cell_formula_units_Z   1
loop_
 _symmetry_equiv_pos_site_id
 _symmetry_equiv_pos_as_xyz
  1  'x, y, z'
loop_
 _atom_site_type_symbol
 _atom_site_label
 _atom_site_symmetry_multiplicity
 _atom_site_fract_x
 _atom_site_fract_y
 _atom_site_fract_z
 _atom_site_occupancy
  Ba  Ba0  1  0.253464  0.506928  0.703766  1
  Ba  Ba1  1  0.746536  0.493072  0.296234  1
  Dy  Dy2  1  0.500000  0.000000  0.500000  1
  Ag  Ag3  1  0.019164  0.038328  0.253939  1
  Ag  Ag4  1  0.980836  0.961672  0.746061  1
  Ag  Ag5  1  0.354178  0.708356  0.037366  1
  Ag  Ag6  1  0.645822  0.291644  0.962634  1
  Ag  Ag7  1  0.000000  0.000000  0.000000  1
  Se  Se8  1  0.127128  0.254254  0.453980  1
  Se  Se9  1  0.872872  0.745746  0.546020  1
  Se  Se10  1  0.159010  0.318019  0.101617  1
  Se  Se11  1  0.840990  0.681981  0.898383  1
  Se  Se12  1  0.412698  0.825397  0.264302  1
  Se  Se13  1  0.587302  0.174603  0.735698  1
