# generated using pymatgen
data_ThCo2GeP
_symmetry_space_group_name_H-M   'P 1'
_cell_length_a   4.02802300
_cell_length_b   4.02802300
_cell_length_c   9.60779400
_cell_angle_alpha   90.00000000
_cell_angle_beta   90.00000000
_cell_angle_gamma   90.00000000
_symmetry_Int_Tables_number   1
_chemical_formula_structural   ThCo2GeP
_chemical_formula_sum   'Th2 Co4 Ge2 P2'
_cell_volume   155.88616258
_cell_formula_units_Z   2
loop_
 _symmetry_equiv_pos_site_id
 _symmetry_equiv_pos_as_xyz
  1  'x, y, z'
loop_
 _atom_site_type_symbol
 _atom_site_label
 _atom_site_symmetry_multiplicity
 _atom_site_fract_x
 _atom_site_fract_y
 _atom_site_fract_z
 _atom_site_occupancy
  Th  Th0  1  0.000000  0.500000  0.239659  1
  Th  Th1  1  0.500000  0.000000  0.760341  1
  Co  Co2  1  0.000000  0.000000  0.000000  1
  Co  Co3  1  0.500000  0.500000  0.000000  1
  Co  Co4  1  0.000000  0.500000  0.639240  1
  Co  Co5  1  0.500000  0.000000  0.360760  1
  Ge  Ge6  1  0.000000  0.000000  0.500000  1
  Ge  Ge7  1  0.500000  0.500000  0.500000  1
  P  P8  1  0.000000  0.500000  0.873906  1
  P  P9  1  0.500000  0.000000  0.126094  1
