# generated using pymatgen
data_HfSc2Ti3(GaPt)6
_symmetry_space_group_name_H-M   'P 1'
_cell_length_a   7.19094055
_cell_length_b   7.18354918
_cell_length_c   6.75887700
_cell_angle_alpha   90.00000000
_cell_angle_beta   90.00000000
_cell_angle_gamma   119.97679736
_symmetry_Int_Tables_number   1
_chemical_formula_structural   HfSc2Ti3(GaPt)6
_chemical_formula_sum   'Hf1 Sc2 Ti3 Ga6 Pt6'
_cell_volume   302.43457233
_cell_formula_units_Z   1
loop_
 _symmetry_equiv_pos_site_id
 _symmetry_equiv_pos_as_xyz
  1  'x, y, z'
loop_
 _atom_site_type_symbol
 _atom_site_label
 _atom_site_symmetry_multiplicity
 _atom_site_fract_x
 _atom_site_fract_y
 _atom_site_fract_z
 _atom_site_occupancy
  Hf  Hf0  1  0.605364  0.010680  0.250000  1
  Sc  Sc1  1  0.402306  0.393213  0.250000  1
  Sc  Sc2  1  0.991881  0.598427  0.250000  1
  Ti  Ti3  1  0.612951  0.992197  0.750000  1
  Ti  Ti4  1  0.382307  0.387086  0.750000  1
  Ti  Ti5  1  0.007222  0.618857  0.750000  1
  Ga  Ga6  1  0.272345  0.001032  0.995906  1
  Ga  Ga7  1  0.272345  0.001032  0.504094  1
  Ga  Ga8  1  0.002241  0.277629  0.509600  1
  Ga  Ga9  1  0.002241  0.277629  0.990400  1
  Ga  Ga10  1  0.725904  0.721124  0.990379  1
  Ga  Ga11  1  0.725904  0.721124  0.509621  1
  Pt  Pt12  1  0.666036  0.329264  0.533270  1
  Pt  Pt13  1  0.000983  0.999953  0.750000  1
  Pt  Pt14  1  0.666036  0.329264  0.966730  1
  Pt  Pt15  1  0.336614  0.670577  0.988420  1
  Pt  Pt16  1  0.336614  0.670577  0.511580  1
  Pt  Pt17  1  0.990706  0.000334  0.250000  1
