# generated using pymatgen
data_Sr12Ta3RhO22
_symmetry_space_group_name_H-M   'P 1'
_cell_length_a   6.04187828
_cell_length_b   6.02425276
_cell_length_c   23.95827200
_cell_angle_alpha   58.52025922
_cell_angle_beta   59.04667969
_cell_angle_gamma   59.99685435
_symmetry_Int_Tables_number   1
_chemical_formula_structural   Sr12Ta3RhO22
_chemical_formula_sum   'Sr12 Ta3 Rh1 O22'
_cell_volume   604.99523923
_cell_formula_units_Z   1
loop_
 _symmetry_equiv_pos_site_id
 _symmetry_equiv_pos_as_xyz
  1  'x, y, z'
loop_
 _atom_site_type_symbol
 _atom_site_label
 _atom_site_symmetry_multiplicity
 _atom_site_fract_x
 _atom_site_fract_y
 _atom_site_fract_z
 _atom_site_occupancy
  Sr  Sr0  1  0.115443  0.334022  0.077065  1
  Sr  Sr1  1  0.441758  0.613901  0.108201  1
  Sr  Sr2  1  0.181611  0.356653  0.291229  1
  Sr  Sr3  1  0.367005  0.543077  0.388261  1
  Sr  Sr4  1  0.631045  0.801427  0.204297  1
  Sr  Sr5  1  0.217433  0.239981  0.581359  1
  Sr  Sr6  1  0.506876  0.512558  0.608805  1
  Sr  Sr7  1  0.224812  0.298523  0.790838  1
  Sr  Sr8  1  0.647475  0.859871  0.420310  1
  Sr  Sr9  1  0.457836  0.475633  0.888430  1
  Sr  Sr10  1  0.683935  0.742034  0.706919  1
  Sr  Sr11  1  0.729360  0.765096  0.915081  1
  Ta  Ta12  1  0.001192  0.048463  0.997633  1
  Ta  Ta13  1  0.906239  0.080093  0.248720  1
  Ta  Ta14  1  0.934743  0.967871  0.499144  1
  Rh  Rh15  1  0.965643  0.011876  0.748407  1
  O  O16  1  0.087421  0.378954  0.183593  1
  O  O17  1  0.209223  0.846105  0.191663  1
  O  O18  1  0.812951  0.377052  0.025509  1
  O  O19  1  0.785177  0.833163  0.078477  1
  O  O20  1  0.688631  0.230066  0.187607  1
  O  O21  1  0.607377  0.330746  0.300892  1
  O  O22  1  0.144727  0.189458  0.418357  1
  O  O23  1  0.111774  0.929327  0.312816  1
  O  O24  1  0.733648  0.774029  0.314532  1
  O  O25  1  0.606333  0.160822  0.470490  1
  O  O26  1  0.727010  0.065290  0.579966  1
  O  O27  1  0.146219  0.788421  0.685747  1
  O  O28  1  0.263114  0.711440  0.528357  1
  O  O29  1  0.329778  0.046519  0.998046  1
  O  O30  1  0.934483  0.638118  0.499480  1
  O  O31  1  0.756457  0.324732  0.684642  1
  O  O32  1  0.254782  0.187493  0.694457  1
  O  O33  1  0.782734  0.228581  0.810513  1
  O  O34  1  0.255501  0.722149  0.968166  1
  O  O35  1  0.187644  0.706706  0.810691  1
  O  O36  1  0.660772  0.849061  0.804472  1
  O  O37  1  0.897342  0.262182  0.917050  1
