# generated using pymatgen
data_Dy8MgCdNiOs
_symmetry_space_group_name_H-M   'P 1'
_cell_length_a   9.61349160
_cell_length_b   9.61349119
_cell_length_c   9.72725000
_cell_angle_alpha   59.60778123
_cell_angle_beta   59.60778267
_cell_angle_gamma   59.24366691
_symmetry_Int_Tables_number   1
_chemical_formula_structural   Dy8MgCdNiOs
_chemical_formula_sum   'Dy16 Mg2 Cd2 Ni2 Os2'
_cell_volume   628.23553488
_cell_formula_units_Z   2
loop_
 _symmetry_equiv_pos_site_id
 _symmetry_equiv_pos_as_xyz
  1  'x, y, z'
loop_
 _atom_site_type_symbol
 _atom_site_label
 _atom_site_symmetry_multiplicity
 _atom_site_fract_x
 _atom_site_fract_y
 _atom_site_fract_z
 _atom_site_occupancy
  Dy  Dy0  1  0.599943  0.599943  0.591952  1
  Dy  Dy1  1  0.599943  0.599943  0.208165  1
  Dy  Dy2  1  0.600253  0.209454  0.595147  1
  Dy  Dy3  1  0.209454  0.600253  0.595147  1
  Dy  Dy4  1  0.061817  0.435393  0.439546  1
  Dy  Dy5  1  0.435393  0.061817  0.063244  1
  Dy  Dy6  1  0.435393  0.061817  0.439546  1
  Dy  Dy7  1  0.061817  0.435393  0.063244  1
  Dy  Dy8  1  0.438869  0.438869  0.061131  1
  Dy  Dy9  1  0.061574  0.061574  0.438426  1
  Dy  Dy10  1  0.190693  0.806312  0.817021  1
  Dy  Dy11  1  0.806312  0.190693  0.185974  1
  Dy  Dy12  1  0.806312  0.190693  0.817021  1
  Dy  Dy13  1  0.190693  0.806312  0.185974  1
  Dy  Dy14  1  0.817527  0.817527  0.182473  1
  Dy  Dy15  1  0.191212  0.191212  0.808788  1
  Mg  Mg16  1  0.824364  0.824364  0.832309  1
  Mg  Mg17  1  0.824364  0.824364  0.518961  1
  Cd  Cd18  1  0.830628  0.505748  0.831812  1
  Cd  Cd19  1  0.505748  0.830628  0.831812  1
  Ni  Ni20  1  0.391968  0.826767  0.390633  1
  Ni  Ni21  1  0.826767  0.391968  0.390633  1
  Os  Os22  1  0.394477  0.394477  0.386664  1
  Os  Os23  1  0.394477  0.394477  0.824382  1
