# generated using pymatgen
data_Ho2Fe3Co9As7
_symmetry_space_group_name_H-M   'P 1'
_cell_length_a   3.75076700
_cell_length_b   9.33974574
_cell_length_c   9.33974700
_cell_angle_alpha   120.00000092
_cell_angle_beta   90.00000000
_cell_angle_gamma   90.00000000
_symmetry_Int_Tables_number   1
_chemical_formula_structural   Ho2Fe3Co9As7
_chemical_formula_sum   'Ho2 Fe3 Co9 As7'
_cell_volume   283.34847486
_cell_formula_units_Z   1
loop_
 _symmetry_equiv_pos_site_id
 _symmetry_equiv_pos_as_xyz
  1  'x, y, z'
loop_
 _atom_site_type_symbol
 _atom_site_label
 _atom_site_symmetry_multiplicity
 _atom_site_fract_x
 _atom_site_fract_y
 _atom_site_fract_z
 _atom_site_occupancy
  Ho  Ho0  1  0.000000  0.666667  0.333333  1
  Ho  Ho1  1  0.500000  0.333333  0.666667  1
  Fe  Fe2  1  0.500000  0.783034  0.903630  1
  Fe  Fe3  1  0.500000  0.120596  0.216966  1
  Fe  Fe4  1  0.500000  0.096370  0.879404  1
  Co  Co5  1  0.000000  0.568251  0.942136  1
  Co  Co6  1  0.000000  0.373885  0.431749  1
  Co  Co7  1  0.000000  0.057864  0.626115  1
  Co  Co8  1  0.000000  0.879900  0.157010  1
  Co  Co9  1  0.000000  0.277109  0.120100  1
  Co  Co10  1  0.000000  0.842990  0.722891  1
  Co  Co11  1  0.500000  0.950016  0.382051  1
  Co  Co12  1  0.500000  0.432035  0.049984  1
  Co  Co13  1  0.500000  0.617949  0.567965  1
  As  As14  1  0.000000  0.000000  0.000000  1
  As  As15  1  0.500000  0.708558  0.113737  1
  As  As16  1  0.500000  0.405179  0.291442  1
  As  As17  1  0.500000  0.886263  0.594821  1
  As  As18  1  0.000000  0.589550  0.705626  1
  As  As19  1  0.000000  0.116076  0.410450  1
  As  As20  1  0.000000  0.294374  0.883924  1
