# generated using pymatgen
data_Ca2La4PuO12
_symmetry_space_group_name_H-M   'P 1'
_cell_length_a   6.76811520
_cell_length_b   6.80823022
_cell_length_c   6.90568100
_cell_angle_alpha   98.24655768
_cell_angle_beta   99.55470369
_cell_angle_gamma   97.88344516
_symmetry_Int_Tables_number   1
_chemical_formula_structural   Ca2La4PuO12
_chemical_formula_sum   'Ca2 La4 Pu1 O12'
_cell_volume   306.29399480
_cell_formula_units_Z   1
loop_
 _symmetry_equiv_pos_site_id
 _symmetry_equiv_pos_as_xyz
  1  'x, y, z'
loop_
 _atom_site_type_symbol
 _atom_site_label
 _atom_site_symmetry_multiplicity
 _atom_site_fract_x
 _atom_site_fract_y
 _atom_site_fract_z
 _atom_site_occupancy
  Ca  Ca0  1  0.147011  0.310170  0.604366  1
  Ca  Ca1  1  0.394683  0.858128  0.682394  1
  La  La2  1  0.686860  0.387580  0.849198  1
  La  La3  1  0.308694  0.607714  0.135285  1
  La  La4  1  0.607551  0.149767  0.320106  1
  La  La5  1  0.861152  0.688859  0.398384  1
  Pu  Pu6  1  0.997325  0.999961  0.001678  1
  O  O7  1  0.059100  0.291415  0.966428  1
  O  O8  1  0.029889  0.927706  0.717164  1
  O  O9  1  0.395837  0.567079  0.820216  1
  O  O10  1  0.184642  0.593356  0.430116  1
  O  O11  1  0.703045  0.030117  0.931467  1
  O  O12  1  0.437951  0.176674  0.594544  1
  O  O13  1  0.567567  0.822199  0.404573  1
  O  O14  1  0.290680  0.969378  0.077247  1
  O  O15  1  0.828013  0.406979  0.563835  1
  O  O16  1  0.598173  0.439760  0.172680  1
  O  O17  1  0.965052  0.066787  0.289992  1
  O  O18  1  0.936775  0.706371  0.040328  1
