# generated using pymatgen
data_Sm6YRhI12
_symmetry_space_group_name_H-M   'P 1'
_cell_length_a   9.93594672
_cell_length_b   9.93594703
_cell_length_c   9.93594738
_cell_angle_alpha   106.95940913
_cell_angle_beta   106.95941827
_cell_angle_gamma   106.95941900
_symmetry_Int_Tables_number   1
_chemical_formula_structural   Sm6YRhI12
_chemical_formula_sum   'Sm6 Y1 Rh1 I12'
_cell_volume   817.81139667
_cell_formula_units_Z   1
loop_
 _symmetry_equiv_pos_site_id
 _symmetry_equiv_pos_as_xyz
  1  'x, y, z'
loop_
 _atom_site_type_symbol
 _atom_site_label
 _atom_site_symmetry_multiplicity
 _atom_site_fract_x
 _atom_site_fract_y
 _atom_site_fract_z
 _atom_site_occupancy
  Sm  Sm0  1  0.903469  0.976625  0.700421  1
  Sm  Sm1  1  0.976625  0.700421  0.903469  1
  Sm  Sm2  1  0.700421  0.903469  0.976625  1
  Sm  Sm3  1  0.096531  0.023375  0.299579  1
  Sm  Sm4  1  0.023375  0.299579  0.096531  1
  Sm  Sm5  1  0.299579  0.096531  0.023375  1
  Y  Y6  1  0.500000  0.500000  0.500000  1
  Rh  Rh7  1  0.000000  0.000000  0.000000  1
  I  I8  1  0.534425  0.834549  0.611391  1
  I  I9  1  0.834549  0.611391  0.534425  1
  I  I10  1  0.611391  0.534425  0.834549  1
  I  I11  1  0.465575  0.165451  0.388609  1
  I  I12  1  0.165451  0.388609  0.465575  1
  I  I13  1  0.388609  0.465575  0.165451  1
  I  I14  1  0.676730  0.225552  0.070981  1
  I  I15  1  0.225552  0.070981  0.676730  1
  I  I16  1  0.070981  0.676730  0.225552  1
  I  I17  1  0.323270  0.774448  0.929019  1
  I  I18  1  0.774448  0.929019  0.323270  1
  I  I19  1  0.929019  0.323270  0.774448  1
