# generated using pymatgen
data_Y3Tl2InRh2Au
_symmetry_space_group_name_H-M   'P 1'
_cell_length_a   7.83403767
_cell_length_b   7.84094111
_cell_length_c   3.81393300
_cell_angle_alpha   90.00000000
_cell_angle_beta   90.00000000
_cell_angle_gamma   120.01756047
_symmetry_Int_Tables_number   1
_chemical_formula_structural   Y3Tl2InRh2Au
_chemical_formula_sum   'Y3 Tl2 In1 Rh2 Au1'
_cell_volume   202.85263926
_cell_formula_units_Z   1
loop_
 _symmetry_equiv_pos_site_id
 _symmetry_equiv_pos_as_xyz
  1  'x, y, z'
loop_
 _atom_site_type_symbol
 _atom_site_label
 _atom_site_symmetry_multiplicity
 _atom_site_fract_x
 _atom_site_fract_y
 _atom_site_fract_z
 _atom_site_occupancy
  Y  Y0  1  0.979991  0.589884  0.500000  1
  Y  Y1  1  0.410906  0.391593  0.500000  1
  Y  Y2  1  0.608533  0.019204  0.500000  1
  Tl  Tl3  1  0.996210  0.259620  0.000000  1
  Tl  Tl4  1  0.262446  0.002373  0.000000  1
  In  In5  1  0.741872  0.738332  0.000000  1
  Rh  Rh6  1  0.991488  0.991418  0.500000  1
  Rh  Rh7  1  0.667843  0.340142  0.000000  1
  Au  Au8  1  0.340714  0.667433  0.000000  1
