# generated using pymatgen
data_Tm10ZnIn8Ru3
_symmetry_space_group_name_H-M   'P 1'
_cell_length_a   3.57768200
_cell_length_b   8.00370429
_cell_length_c   18.17988165
_cell_angle_alpha   90.16594704
_cell_angle_beta   90.00000000
_cell_angle_gamma   90.00000000
_symmetry_Int_Tables_number   1
_chemical_formula_structural   Tm10ZnIn8Ru3
_chemical_formula_sum   'Tm10 Zn1 In8 Ru3'
_cell_volume   520.57343336
_cell_formula_units_Z   1
loop_
 _symmetry_equiv_pos_site_id
 _symmetry_equiv_pos_as_xyz
  1  'x, y, z'
loop_
 _atom_site_type_symbol
 _atom_site_label
 _atom_site_symmetry_multiplicity
 _atom_site_fract_x
 _atom_site_fract_y
 _atom_site_fract_z
 _atom_site_occupancy
  Tm  Tm0  1  0.000000  0.116207  0.414025  1
  Tm  Tm1  1  0.000000  0.882166  0.589801  1
  Tm  Tm2  1  0.000000  0.381906  0.909972  1
  Tm  Tm3  1  0.000000  0.623863  0.081249  1
  Tm  Tm4  1  0.000000  0.224107  0.223511  1
  Tm  Tm5  1  0.000000  0.754833  0.778384  1
  Tm  Tm6  1  0.000000  0.254748  0.721459  1
  Tm  Tm7  1  0.000000  0.765367  0.280767  1
  Tm  Tm8  1  0.000000  0.000146  0.999490  1
  Tm  Tm9  1  0.000000  0.500496  0.499672  1
  Zn  Zn10  1  0.500000  0.522744  0.199226  1
  In  In11  1  0.500000  0.423060  0.351365  1
  In  In12  1  0.500000  0.568243  0.649826  1
  In  In13  1  0.500000  0.068795  0.849995  1
  In  In14  1  0.500000  0.930111  0.148352  1
  In  In15  1  0.500000  0.294839  0.066222  1
  In  In16  1  0.500000  0.704702  0.931229  1
  In  In17  1  0.500000  0.207088  0.568254  1
  In  In18  1  0.500000  0.793141  0.432219  1
  Ru  Ru19  1  0.500000  0.025519  0.304474  1
  Ru  Ru20  1  0.500000  0.978406  0.697241  1
  Ru  Ru21  1  0.500000  0.479513  0.803265  1
