# generated using pymatgen
data_La17Tm(MgIr6)2
_symmetry_space_group_name_H-M   'P 1'
_cell_length_a   11.36731900
_cell_length_b   11.36731900
_cell_length_c   6.44427000
_cell_angle_alpha   90.00000000
_cell_angle_beta   90.00000000
_cell_angle_gamma   90.00000000
_symmetry_Int_Tables_number   1
_chemical_formula_structural   La17Tm(MgIr6)2
_chemical_formula_sum   'La17 Tm1 Mg2 Ir12'
_cell_volume   832.70241370
_cell_formula_units_Z   1
loop_
 _symmetry_equiv_pos_site_id
 _symmetry_equiv_pos_as_xyz
  1  'x, y, z'
loop_
 _atom_site_type_symbol
 _atom_site_label
 _atom_site_symmetry_multiplicity
 _atom_site_fract_x
 _atom_site_fract_y
 _atom_site_fract_z
 _atom_site_occupancy
  La  La0  1  0.280498  0.086503  0.389509  1
  La  La1  1  0.285458  0.912760  0.885500  1
  La  La2  1  0.714542  0.087240  0.885500  1
  La  La3  1  0.719502  0.913497  0.389509  1
  La  La4  1  0.587270  0.783167  0.889520  1
  La  La5  1  0.587855  0.208878  0.383984  1
  La  La6  1  0.412145  0.791122  0.383984  1
  La  La7  1  0.412730  0.216833  0.889520  1
  La  La8  1  0.208878  0.412145  0.616016  1
  La  La9  1  0.216833  0.587270  0.110480  1
  La  La10  1  0.783167  0.412730  0.110480  1
  La  La11  1  0.791122  0.587855  0.616016  1
  La  La12  1  0.912760  0.714542  0.114500  1
  La  La13  1  0.913497  0.280498  0.610491  1
  La  La14  1  0.086503  0.719502  0.610491  1
  La  La15  1  0.087240  0.285458  0.114500  1
  La  La16  1  0.500000  0.500000  0.500000  1
  Tm  Tm17  1  0.000000  0.000000  0.000000  1
  Mg  Mg18  1  0.000000  0.000000  0.500000  1
  Mg  Mg19  1  0.500000  0.500000  0.000000  1
  Ir  Ir20  1  0.851544  0.148667  0.244501  1
  Ir  Ir21  1  0.851333  0.851544  0.755499  1
  Ir  Ir22  1  0.148667  0.148456  0.755499  1
  Ir  Ir23  1  0.148456  0.851333  0.244501  1
  Ir  Ir24  1  0.654539  0.346070  0.747095  1
  Ir  Ir25  1  0.653930  0.654539  0.252905  1
  Ir  Ir26  1  0.346070  0.345461  0.252905  1
  Ir  Ir27  1  0.345461  0.653930  0.747095  1
  Ir  Ir28  1  0.500000  0.000000  0.115526  1
  Ir  Ir29  1  0.500000  0.000000  0.617687  1
  Ir  Ir30  1  0.000000  0.500000  0.884474  1
  Ir  Ir31  1  0.000000  0.500000  0.382313  1
