# generated using pymatgen
data_YbZr2Sc(Al3Ir)6
_symmetry_space_group_name_H-M   'P 1'
_cell_length_a   7.49689645
_cell_length_b   7.49377468
_cell_length_c   9.34096200
_cell_angle_alpha   90.00000000
_cell_angle_beta   90.00000000
_cell_angle_gamma   119.67002913
_symmetry_Int_Tables_number   1
_chemical_formula_structural   YbZr2Sc(Al3Ir)6
_chemical_formula_sum   'Yb1 Zr2 Sc1 Al18 Ir6'
_cell_volume   455.97268786
_cell_formula_units_Z   1
loop_
 _symmetry_equiv_pos_site_id
 _symmetry_equiv_pos_as_xyz
  1  'x, y, z'
loop_
 _atom_site_type_symbol
 _atom_site_label
 _atom_site_symmetry_multiplicity
 _atom_site_fract_x
 _atom_site_fract_y
 _atom_site_fract_z
 _atom_site_occupancy
  Yb  Yb0  1  0.329064  0.006590  0.750000  1
  Zr  Zr1  1  0.995861  0.673918  0.250000  1
  Zr  Zr2  1  0.005763  0.327388  0.750000  1
  Sc  Sc3  1  0.670186  0.993349  0.250000  1
  Al  Al4  1  0.124284  0.123708  0.250000  1
  Al  Al5  1  0.871096  0.875278  0.750000  1
  Al  Al6  1  0.997143  0.333942  0.077379  1
  Al  Al7  1  0.000543  0.663578  0.924848  1
  Al  Al8  1  0.000543  0.663578  0.575152  1
  Al  Al9  1  0.336289  0.999461  0.421074  1
  Al  Al10  1  0.997143  0.333942  0.422621  1
  Al  Al11  1  0.666150  0.001306  0.575034  1
  Al  Al12  1  0.666150  0.001306  0.924966  1
  Al  Al13  1  0.336289  0.999461  0.078926  1
  Al  Al14  1  0.331397  0.332674  0.555130  1
  Al  Al15  1  0.668589  0.668777  0.441953  1
  Al  Al16  1  0.668589  0.668777  0.058047  1
  Al  Al17  1  0.331397  0.332674  0.944870  1
  Al  Al18  1  0.337301  0.552251  0.250000  1
  Al  Al19  1  0.666390  0.451811  0.750000  1
  Al  Al20  1  0.556002  0.342558  0.250000  1
  Al  Al21  1  0.444178  0.653535  0.750000  1
  Ir  Ir22  1  0.673529  0.329155  0.000538  1
  Ir  Ir23  1  0.327420  0.671745  0.002105  1
  Ir  Ir24  1  0.327420  0.671745  0.497895  1
  Ir  Ir25  1  0.673529  0.329155  0.499462  1
  Ir  Ir26  1  0.998876  0.999170  0.001172  1
  Ir  Ir27  1  0.998876  0.999170  0.498828  1
