# generated using pymatgen
data_Pa3Ga4Ge
_symmetry_space_group_name_H-M   'P 1'
_cell_length_a   7.86233897
_cell_length_b   7.86233917
_cell_length_c   7.86233904
_cell_angle_alpha   120.28177997
_cell_angle_beta   120.28178533
_cell_angle_gamma   89.51263004
_symmetry_Int_Tables_number   1
_chemical_formula_structural   Pa3Ga4Ge
_chemical_formula_sum   'Pa6 Ga8 Ge2'
_cell_volume   342.19179752
_cell_formula_units_Z   2
loop_
 _symmetry_equiv_pos_site_id
 _symmetry_equiv_pos_as_xyz
  1  'x, y, z'
loop_
 _atom_site_type_symbol
 _atom_site_label
 _atom_site_symmetry_multiplicity
 _atom_site_fract_x
 _atom_site_fract_y
 _atom_site_fract_z
 _atom_site_occupancy
  Pa  Pa0  1  0.658650  0.158650  0.817301  1
  Pa  Pa1  1  0.341350  0.841350  0.182699  1
  Pa  Pa2  1  0.158650  0.341350  0.500000  1
  Pa  Pa3  1  0.841350  0.658650  0.500000  1
  Pa  Pa4  1  0.750000  0.750000  0.000000  1
  Pa  Pa5  1  0.250000  0.250000  0.000000  1
  Ga  Ga6  1  0.331138  0.831138  0.785982  1
  Ga  Ga7  1  0.668862  0.168862  0.214018  1
  Ga  Ga8  1  0.045156  0.545156  0.214018  1
  Ga  Ga9  1  0.831138  0.045156  0.500000  1
  Ga  Ga10  1  0.454844  0.668862  0.500000  1
  Ga  Ga11  1  0.954844  0.454844  0.785982  1
  Ga  Ga12  1  0.168862  0.954844  0.500000  1
  Ga  Ga13  1  0.545156  0.331138  0.500000  1
  Ge  Ge14  1  0.500000  0.500000  0.000000  1
  Ge  Ge15  1  0.000000  0.000000  0.000000  1
