# generated using pymatgen
data_TbY3Bi6Rh7
_symmetry_space_group_name_H-M   'P 1'
_cell_length_a   7.79919774
_cell_length_b   7.79753897
_cell_length_c   7.79753902
_cell_angle_alpha   109.46690755
_cell_angle_beta   109.47553714
_cell_angle_gamma   109.47553736
_symmetry_Int_Tables_number   1
_chemical_formula_structural   TbY3Bi6Rh7
_chemical_formula_sum   'Tb1 Y3 Bi6 Rh7'
_cell_volume   365.02280008
_cell_formula_units_Z   1
loop_
 _symmetry_equiv_pos_site_id
 _symmetry_equiv_pos_as_xyz
  1  'x, y, z'
loop_
 _atom_site_type_symbol
 _atom_site_label
 _atom_site_symmetry_multiplicity
 _atom_site_fract_x
 _atom_site_fract_y
 _atom_site_fract_z
 _atom_site_occupancy
  Tb  Tb0  1  0.500000  0.000000  0.000000  1
  Y  Y1  1  0.000000  0.500000  0.000000  1
  Y  Y2  1  0.000000  0.000000  0.500000  1
  Y  Y3  1  0.500000  0.500000  0.500000  1
  Bi  Bi4  1  0.000077  0.314442  0.314442  1
  Bi  Bi5  1  0.685635  0.000000  0.685558  1
  Bi  Bi6  1  0.685635  0.685558  0.000000  1
  Bi  Bi7  1  0.999923  0.685558  0.685558  1
  Bi  Bi8  1  0.314365  0.000000  0.314442  1
  Bi  Bi9  1  0.314365  0.314442  0.000000  1
  Rh  Rh10  1  0.000000  0.000000  0.000000  1
  Rh  Rh11  1  0.500000  0.749996  0.250004  1
  Rh  Rh12  1  0.750004  0.500008  0.250004  1
  Rh  Rh13  1  0.249996  0.749996  0.499992  1
  Rh  Rh14  1  0.249996  0.499992  0.749996  1
  Rh  Rh15  1  0.500000  0.250004  0.749996  1
  Rh  Rh16  1  0.750004  0.250004  0.500008  1
