# generated using pymatgen
data_NdBi(IO4)2
_symmetry_space_group_name_H-M   'P 1'
_cell_length_a   5.73404085
_cell_length_b   5.79705800
_cell_length_c   11.21511193
_cell_angle_alpha   90.00000000
_cell_angle_beta   89.12214266
_cell_angle_gamma   90.00000000
_symmetry_Int_Tables_number   1
_chemical_formula_structural   NdBi(IO4)2
_chemical_formula_sum   'Nd2 Bi2 I4 O16'
_cell_volume   372.75292796
_cell_formula_units_Z   2
loop_
 _symmetry_equiv_pos_site_id
 _symmetry_equiv_pos_as_xyz
  1  'x, y, z'
loop_
 _atom_site_type_symbol
 _atom_site_label
 _atom_site_symmetry_multiplicity
 _atom_site_fract_x
 _atom_site_fract_y
 _atom_site_fract_z
 _atom_site_occupancy
  Nd  Nd0  1  0.497136  0.312371  0.884012  1
  Nd  Nd1  1  0.502864  0.812371  0.115988  1
  Bi  Bi2  1  0.015232  0.813790  0.901133  1
  Bi  Bi3  1  0.984768  0.313790  0.098867  1
  I  I4  1  0.007160  0.330601  0.635592  1
  I  I5  1  0.992840  0.830601  0.364408  1
  I  I6  1  0.497180  0.823952  0.636473  1
  I  I7  1  0.502820  0.323952  0.363527  1
  O  O8  1  0.242059  0.064090  0.006684  1
  O  O9  1  0.757941  0.564090  0.993316  1
  O  O10  1  0.252056  0.568596  0.003840  1
  O  O11  1  0.747944  0.068596  0.996160  1
  O  O12  1  0.135800  0.417102  0.778915  1
  O  O13  1  0.864200  0.917102  0.221085  1
  O  O14  1  0.381626  0.935353  0.780427  1
  O  O15  1  0.618374  0.435353  0.219573  1
  O  O16  1  0.831384  0.099600  0.709520  1
  O  O17  1  0.168616  0.599600  0.290480  1
  O  O18  1  0.638468  0.572208  0.710344  1
  O  O19  1  0.361532  0.072208  0.289656  1
  O  O20  1  0.246518  0.164740  0.563504  1
  O  O21  1  0.753482  0.664740  0.436496  1
  O  O22  1  0.247538  0.674418  0.569314  1
  O  O23  1  0.752462  0.174418  0.430686  1
