# generated using pymatgen
data_Li2HoLu5(Co4P3)4
_symmetry_space_group_name_H-M   'P 1'
_cell_length_a   3.68952400
_cell_length_b   10.53189000
_cell_length_c   12.10520200
_cell_angle_alpha   90.00000000
_cell_angle_beta   90.00000000
_cell_angle_gamma   90.00000000
_symmetry_Int_Tables_number   1
_chemical_formula_structural   Li2HoLu5(Co4P3)4
_chemical_formula_sum   'Li2 Ho1 Lu5 Co16 P12'
_cell_volume   470.37983469
_cell_formula_units_Z   1
loop_
 _symmetry_equiv_pos_site_id
 _symmetry_equiv_pos_as_xyz
  1  'x, y, z'
loop_
 _atom_site_type_symbol
 _atom_site_label
 _atom_site_symmetry_multiplicity
 _atom_site_fract_x
 _atom_site_fract_y
 _atom_site_fract_z
 _atom_site_occupancy
  Li  Li0  1  0.500000  0.500000  0.153022  1
  Li  Li1  1  0.000000  0.000000  0.845338  1
  Ho  Ho2  1  0.000000  0.500000  0.523619  1
  Lu  Lu3  1  0.500000  0.000000  0.476145  1
  Lu  Lu4  1  0.500000  0.820725  0.206320  1
  Lu  Lu5  1  0.500000  0.179275  0.206320  1
  Lu  Lu6  1  0.000000  0.679498  0.794131  1
  Lu  Lu7  1  0.000000  0.320502  0.794131  1
  Co  Co8  1  0.500000  0.500000  0.705114  1
  Co  Co9  1  0.000000  0.000000  0.296229  1
  Co  Co10  1  0.000000  0.500000  0.987053  1
  Co  Co11  1  0.500000  0.000000  0.013094  1
  Co  Co12  1  0.500000  0.332579  0.996969  1
  Co  Co13  1  0.500000  0.667421  0.996969  1
  Co  Co14  1  0.000000  0.166989  0.002989  1
  Co  Co15  1  0.000000  0.833011  0.002989  1
  Co  Co16  1  0.500000  0.295798  0.431555  1
  Co  Co17  1  0.500000  0.704202  0.431555  1
  Co  Co18  1  0.000000  0.202511  0.568784  1
  Co  Co19  1  0.000000  0.797489  0.568784  1
  Co  Co20  1  0.500000  0.877877  0.706589  1
  Co  Co21  1  0.500000  0.122123  0.706589  1
  Co  Co22  1  0.000000  0.622563  0.293100  1
  Co  Co23  1  0.000000  0.377437  0.293100  1
  P  P24  1  0.500000  0.500000  0.884459  1
  P  P25  1  0.000000  0.000000  0.116079  1
  P  P26  1  0.500000  0.500000  0.346274  1
  P  P27  1  0.000000  0.000000  0.651788  1
  P  P28  1  0.500000  0.310609  0.617344  1
  P  P29  1  0.500000  0.689391  0.617344  1
  P  P30  1  0.000000  0.188506  0.383262  1
  P  P31  1  0.000000  0.811494  0.383262  1
  P  P32  1  0.500000  0.842424  0.891844  1
  P  P33  1  0.500000  0.157576  0.891844  1
  P  P34  1  0.000000  0.658026  0.108007  1
  P  P35  1  0.000000  0.341974  0.108007  1
