# generated using pymatgen
data_Nd3HoSc6(Si5Ir2)4
_symmetry_space_group_name_H-M   'P 1'
_cell_length_a   12.53335902
_cell_length_b   12.53335856
_cell_length_c   4.18974500
_cell_angle_alpha   90.00000000
_cell_angle_beta   90.00000000
_cell_angle_gamma   90.13810414
_symmetry_Int_Tables_number   1
_chemical_formula_structural   Nd3HoSc6(Si5Ir2)4
_chemical_formula_sum   'Nd3 Ho1 Sc6 Si20 Ir8'
_cell_volume   658.14452697
_cell_formula_units_Z   1
loop_
 _symmetry_equiv_pos_site_id
 _symmetry_equiv_pos_as_xyz
  1  'x, y, z'
loop_
 _atom_site_type_symbol
 _atom_site_label
 _atom_site_symmetry_multiplicity
 _atom_site_fract_x
 _atom_site_fract_y
 _atom_site_fract_z
 _atom_site_occupancy
  Nd  Nd0  1  0.115589  0.615808  0.500000  1
  Nd  Nd1  1  0.884192  0.384411  0.500000  1
  Nd  Nd2  1  0.615304  0.884696  0.500000  1
  Ho  Ho3  1  0.384587  0.115413  0.500000  1
  Sc  Sc4  1  0.673816  0.174620  0.500000  1
  Sc  Sc5  1  0.325380  0.826184  0.500000  1
  Sc  Sc6  1  0.175059  0.324941  0.500000  1
  Sc  Sc7  1  0.825611  0.674389  0.500000  1
  Sc  Sc8  1  0.000806  0.000329  0.000000  1
  Sc  Sc9  1  0.499671  0.499194  0.000000  1
  Si  Si10  1  0.568032  0.068756  0.000000  1
  Si  Si11  1  0.431244  0.931968  0.000000  1
  Si  Si12  1  0.069244  0.430756  0.000000  1
  Si  Si13  1  0.930576  0.569424  0.000000  1
  Si  Si14  1  0.200894  0.164989  0.000000  1
  Si  Si15  1  0.800429  0.835072  0.000000  1
  Si  Si16  1  0.165565  0.801430  0.000000  1
  Si  Si17  1  0.698570  0.334435  0.000000  1
  Si  Si18  1  0.834895  0.199612  0.000000  1
  Si  Si19  1  0.300388  0.665105  0.000000  1
  Si  Si20  1  0.664928  0.699571  0.000000  1
  Si  Si21  1  0.335011  0.299106  0.000000  1
  Si  Si22  1  0.009192  0.150216  0.500000  1
  Si  Si23  1  0.991715  0.850533  0.500000  1
  Si  Si24  1  0.151813  0.992168  0.500000  1
  Si  Si25  1  0.507832  0.348187  0.500000  1
  Si  Si26  1  0.850094  0.010201  0.500000  1
  Si  Si27  1  0.489799  0.649906  0.500000  1
  Si  Si28  1  0.649467  0.508285  0.500000  1
  Si  Si29  1  0.349784  0.490808  0.500000  1
  Ir  Ir30  1  0.022680  0.241619  0.000000  1
  Ir  Ir31  1  0.978053  0.758923  0.000000  1
  Ir  Ir32  1  0.244383  0.979743  0.000000  1
  Ir  Ir33  1  0.520257  0.255617  0.000000  1
  Ir  Ir34  1  0.757622  0.021946  0.000000  1
  Ir  Ir35  1  0.478054  0.742378  0.000000  1
  Ir  Ir36  1  0.741077  0.521947  0.000000  1
  Ir  Ir37  1  0.258381  0.477320  0.000000  1
