# generated using pymatgen
data_Pr8SiGeBr12
_symmetry_space_group_name_H-M   'P 1'
_cell_length_a   4.25219600
_cell_length_b   13.86432212
_cell_length_c   14.68276312
_cell_angle_alpha   90.01484860
_cell_angle_beta   90.00000000
_cell_angle_gamma   90.00000000
_symmetry_Int_Tables_number   1
_chemical_formula_structural   Pr8SiGeBr12
_chemical_formula_sum   'Pr8 Si1 Ge1 Br12'
_cell_volume   865.60487247
_cell_formula_units_Z   1
loop_
 _symmetry_equiv_pos_site_id
 _symmetry_equiv_pos_as_xyz
  1  'x, y, z'
loop_
 _atom_site_type_symbol
 _atom_site_label
 _atom_site_symmetry_multiplicity
 _atom_site_fract_x
 _atom_site_fract_y
 _atom_site_fract_z
 _atom_site_occupancy
  Pr  Pr0  1  0.500000  0.119500  0.339806  1
  Pr  Pr1  1  0.500000  0.880500  0.660194  1
  Pr  Pr2  1  0.500000  0.618983  0.159510  1
  Pr  Pr3  1  0.500000  0.381017  0.840490  1
  Pr  Pr4  1  0.000000  0.120553  0.580063  1
  Pr  Pr5  1  0.000000  0.879447  0.419937  1
  Pr  Pr6  1  0.000000  0.619887  0.920394  1
  Pr  Pr7  1  0.000000  0.380113  0.079606  1
  Si  Si8  1  0.500000  0.500000  0.000000  1
  Ge  Ge9  1  0.500000  0.000000  0.500000  1
  Br  Br10  1  0.500000  0.243497  0.162074  1
  Br  Br11  1  0.500000  0.756503  0.837926  1
  Br  Br12  1  0.500000  0.743474  0.337923  1
  Br  Br13  1  0.500000  0.256526  0.662077  1
  Br  Br14  1  0.000000  0.253823  0.411234  1
  Br  Br15  1  0.000000  0.746177  0.588766  1
  Br  Br16  1  0.000000  0.753819  0.088809  1
  Br  Br17  1  0.000000  0.246181  0.911191  1
  Br  Br18  1  0.000000  0.001984  0.244754  1
  Br  Br19  1  0.000000  0.998016  0.755246  1
  Br  Br20  1  0.000000  0.502027  0.255259  1
  Br  Br21  1  0.000000  0.497973  0.744741  1
