# generated using pymatgen
data_Dy5Tm5(In2Te)2
_symmetry_space_group_name_H-M   'P 1'
_cell_length_a   8.91933100
_cell_length_b   8.95051838
_cell_length_c   6.53795900
_cell_angle_alpha   90.00000000
_cell_angle_beta   90.00000000
_cell_angle_gamma   119.77370808
_symmetry_Int_Tables_number   1
_chemical_formula_structural   Dy5Tm5(In2Te)2
_chemical_formula_sum   'Dy5 Tm5 In4 Te2'
_cell_volume   453.04265335
_cell_formula_units_Z   1
loop_
 _symmetry_equiv_pos_site_id
 _symmetry_equiv_pos_as_xyz
  1  'x, y, z'
loop_
 _atom_site_type_symbol
 _atom_site_label
 _atom_site_symmetry_multiplicity
 _atom_site_fract_x
 _atom_site_fract_y
 _atom_site_fract_z
 _atom_site_occupancy
  Dy  Dy0  1  0.237211  0.999695  0.250000  1
  Dy  Dy1  1  0.760517  0.999762  0.750000  1
  Dy  Dy2  1  0.998335  0.237307  0.250000  1
  Dy  Dy3  1  0.241315  0.235075  0.750000  1
  Dy  Dy4  1  0.005684  0.765529  0.750000  1
  Tm  Tm5  1  0.332033  0.666744  0.004161  1
  Tm  Tm6  1  0.665312  0.333738  0.495866  1
  Tm  Tm7  1  0.665312  0.333738  0.004134  1
  Tm  Tm8  1  0.332033  0.666744  0.495839  1
  Tm  Tm9  1  0.761059  0.762195  0.250000  1
  In  In10  1  0.601907  0.999135  0.250000  1
  In  In11  1  0.401790  0.999672  0.750000  1
  In  In12  1  0.997232  0.603614  0.250000  1
  In  In13  1  0.395526  0.397379  0.250000  1
  Te  Te14  1  0.605205  0.605613  0.750000  1
  Te  Te15  1  0.999530  0.394060  0.750000  1
