# generated using pymatgen
data_Tb3CrFe5(CoP2)3
_symmetry_space_group_name_H-M   'P 1'
_cell_length_a   3.72008300
_cell_length_b   10.54985300
_cell_length_c   12.26955000
_cell_angle_alpha   90.00000000
_cell_angle_beta   90.00000000
_cell_angle_gamma   90.00000000
_symmetry_Int_Tables_number   1
_chemical_formula_structural   Tb3CrFe5(CoP2)3
_chemical_formula_sum   'Tb6 Cr2 Fe10 Co6 P12'
_cell_volume   481.53479350
_cell_formula_units_Z   2
loop_
 _symmetry_equiv_pos_site_id
 _symmetry_equiv_pos_as_xyz
  1  'x, y, z'
loop_
 _atom_site_type_symbol
 _atom_site_label
 _atom_site_symmetry_multiplicity
 _atom_site_fract_x
 _atom_site_fract_y
 _atom_site_fract_z
 _atom_site_occupancy
  Tb  Tb0  1  0.000000  0.500000  0.523686  1
  Tb  Tb1  1  0.500000  0.000000  0.476314  1
  Tb  Tb2  1  0.500000  0.820488  0.206690  1
  Tb  Tb3  1  0.500000  0.179512  0.206690  1
  Tb  Tb4  1  0.000000  0.679512  0.793310  1
  Tb  Tb5  1  0.000000  0.320488  0.793310  1
  Cr  Cr6  1  0.500000  0.500000  0.152027  1
  Cr  Cr7  1  0.000000  0.000000  0.847973  1
  Fe  Fe8  1  0.000000  0.500000  0.989232  1
  Fe  Fe9  1  0.500000  0.000000  0.010768  1
  Fe  Fe10  1  0.500000  0.328525  0.996535  1
  Fe  Fe11  1  0.500000  0.671475  0.996535  1
  Fe  Fe12  1  0.000000  0.171475  0.003465  1
  Fe  Fe13  1  0.000000  0.828525  0.003465  1
  Fe  Fe14  1  0.500000  0.298196  0.429752  1
  Fe  Fe15  1  0.500000  0.701804  0.429752  1
  Fe  Fe16  1  0.000000  0.201804  0.570248  1
  Fe  Fe17  1  0.000000  0.798196  0.570248  1
  Co  Co18  1  0.500000  0.500000  0.700798  1
  Co  Co19  1  0.000000  0.000000  0.299202  1
  Co  Co20  1  0.500000  0.880826  0.709169  1
  Co  Co21  1  0.500000  0.119174  0.709169  1
  Co  Co22  1  0.000000  0.619174  0.290831  1
  Co  Co23  1  0.000000  0.380826  0.290831  1
  P  P24  1  0.500000  0.500000  0.884949  1
  P  P25  1  0.000000  0.000000  0.115051  1
  P  P26  1  0.500000  0.500000  0.344509  1
  P  P27  1  0.000000  0.000000  0.655491  1
  P  P28  1  0.500000  0.306482  0.613225  1
  P  P29  1  0.500000  0.693518  0.613225  1
  P  P30  1  0.000000  0.193518  0.386775  1
  P  P31  1  0.000000  0.806482  0.386775  1
  P  P32  1  0.500000  0.848596  0.890223  1
  P  P33  1  0.500000  0.151404  0.890223  1
  P  P34  1  0.000000  0.651404  0.109777  1
  P  P35  1  0.000000  0.348596  0.109777  1
