# generated using pymatgen
data_Dy16In4IrPt2Rh
_symmetry_space_group_name_H-M   'P 1'
_cell_length_a   9.68558213
_cell_length_b   9.68313877
_cell_length_c   9.69520206
_cell_angle_alpha   60.08911595
_cell_angle_beta   60.03285786
_cell_angle_gamma   59.99166751
_symmetry_Int_Tables_number   1
_chemical_formula_structural   Dy16In4IrPt2Rh
_chemical_formula_sum   'Dy16 In4 Ir1 Pt2 Rh1'
_cell_volume   643.51083066
_cell_formula_units_Z   1
loop_
 _symmetry_equiv_pos_site_id
 _symmetry_equiv_pos_as_xyz
  1  'x, y, z'
loop_
 _atom_site_type_symbol
 _atom_site_label
 _atom_site_symmetry_multiplicity
 _atom_site_fract_x
 _atom_site_fract_y
 _atom_site_fract_z
 _atom_site_occupancy
  Dy  Dy0  1  0.690774  0.309283  0.309168  1
  Dy  Dy1  1  0.687253  0.693093  0.309583  1
  Dy  Dy2  1  0.310071  0.693093  0.309582  1
  Dy  Dy3  1  0.938835  0.936976  0.561831  1
  Dy  Dy4  1  0.150352  0.145849  0.553448  1
  Dy  Dy5  1  0.562357  0.936976  0.561831  1
  Dy  Dy6  1  0.153821  0.149709  0.148839  1
  Dy  Dy7  1  0.309993  0.309547  0.693533  1
  Dy  Dy8  1  0.939262  0.560808  0.560668  1
  Dy  Dy9  1  0.561760  0.561384  0.936927  1
  Dy  Dy10  1  0.562582  0.937925  0.936910  1
  Dy  Dy11  1  0.939928  0.561383  0.936928  1
  Dy  Dy12  1  0.150605  0.553380  0.145409  1
  Dy  Dy13  1  0.310453  0.688981  0.690113  1
  Dy  Dy14  1  0.686926  0.309547  0.693533  1
  Dy  Dy15  1  0.547630  0.149709  0.148839  1
  In  In16  1  0.916812  0.917663  0.248714  1
  In  In17  1  0.249245  0.917052  0.917026  1
  In  In18  1  0.916780  0.248797  0.917644  1
  In  In19  1  0.916677  0.917054  0.917025  1
  Ir  Ir20  1  0.357095  0.359077  0.926734  1
  Pt  Pt21  1  0.355640  0.358113  0.358310  1
  Pt  Pt22  1  0.927937  0.358113  0.358310  1
  Rh  Rh23  1  0.357212  0.926485  0.359092  1
