# generated using pymatgen
data_YbCe4Ir2Os
_symmetry_space_group_name_H-M   'P 1'
_cell_length_a   11.05040900
_cell_length_b   11.05040900
_cell_length_c   6.25877300
_cell_angle_alpha   90.00000000
_cell_angle_beta   90.00000000
_cell_angle_gamma   90.00000000
_symmetry_Int_Tables_number   1
_chemical_formula_structural   YbCe4Ir2Os
_chemical_formula_sum   'Yb4 Ce16 Ir8 Os4'
_cell_volume   764.26840370
_cell_formula_units_Z   4
loop_
 _symmetry_equiv_pos_site_id
 _symmetry_equiv_pos_as_xyz
  1  'x, y, z'
loop_
 _atom_site_type_symbol
 _atom_site_label
 _atom_site_symmetry_multiplicity
 _atom_site_fract_x
 _atom_site_fract_y
 _atom_site_fract_z
 _atom_site_occupancy
  Yb  Yb0  1  0.000000  0.000000  0.500000  1
  Yb  Yb1  1  0.000000  0.000000  0.000000  1
  Yb  Yb2  1  0.500000  0.500000  0.000000  1
  Yb  Yb3  1  0.500000  0.500000  0.500000  1
  Ce  Ce4  1  0.289619  0.089237  0.379161  1
  Ce  Ce5  1  0.289619  0.910763  0.879161  1
  Ce  Ce6  1  0.710381  0.089237  0.879161  1
  Ce  Ce7  1  0.710381  0.910763  0.379161  1
  Ce  Ce8  1  0.589237  0.789619  0.879161  1
  Ce  Ce9  1  0.589237  0.210381  0.379161  1
  Ce  Ce10  1  0.410763  0.789619  0.379161  1
  Ce  Ce11  1  0.410763  0.210381  0.879161  1
  Ce  Ce12  1  0.210381  0.410763  0.620839  1
  Ce  Ce13  1  0.210381  0.589237  0.120839  1
  Ce  Ce14  1  0.789619  0.410763  0.120839  1
  Ce  Ce15  1  0.789619  0.589237  0.620839  1
  Ce  Ce16  1  0.910763  0.710381  0.120839  1
  Ce  Ce17  1  0.910763  0.289619  0.620839  1
  Ce  Ce18  1  0.089237  0.710381  0.620839  1
  Ce  Ce19  1  0.089237  0.289619  0.120839  1
  Ir  Ir20  1  0.839442  0.160558  0.250000  1
  Ir  Ir21  1  0.839442  0.839442  0.750000  1
  Ir  Ir22  1  0.160558  0.160558  0.750000  1
  Ir  Ir23  1  0.160558  0.839442  0.250000  1
  Ir  Ir24  1  0.660558  0.339442  0.750000  1
  Ir  Ir25  1  0.660558  0.660558  0.250000  1
  Ir  Ir26  1  0.339442  0.339442  0.250000  1
  Ir  Ir27  1  0.339442  0.660558  0.750000  1
  Os  Os28  1  0.500000  0.000000  0.119824  1
  Os  Os29  1  0.500000  0.000000  0.619824  1
  Os  Os30  1  0.000000  0.500000  0.880176  1
  Os  Os31  1  0.000000  0.500000  0.380176  1
