# generated using pymatgen
data_Mo(S4F3)2
_symmetry_space_group_name_H-M   'P 1'
_cell_length_a   8.06234820
_cell_length_b   8.09315531
_cell_length_c   12.14177453
_cell_angle_alpha   97.96990525
_cell_angle_beta   100.37356708
_cell_angle_gamma   90.42890863
_symmetry_Int_Tables_number   1
_chemical_formula_structural   Mo(S4F3)2
_chemical_formula_sum   'Mo2 S16 F12'
_cell_volume   771.34361848
_cell_formula_units_Z   2
loop_
 _symmetry_equiv_pos_site_id
 _symmetry_equiv_pos_as_xyz
  1  'x, y, z'
loop_
 _atom_site_type_symbol
 _atom_site_label
 _atom_site_symmetry_multiplicity
 _atom_site_fract_x
 _atom_site_fract_y
 _atom_site_fract_z
 _atom_site_occupancy
  Mo  Mo0  1  0.711671  0.220473  0.901319  1
  Mo  Mo1  1  0.288329  0.779527  0.098681  1
  S  S2  1  0.449175  0.753916  0.666228  1
  S  S3  1  0.550825  0.246084  0.333772  1
  S  S4  1  0.280271  0.903616  0.581715  1
  S  S5  1  0.719729  0.096384  0.418285  1
  S  S6  1  0.102258  0.976750  0.679638  1
  S  S7  1  0.897742  0.023250  0.320362  1
  S  S8  1  0.889357  0.823993  0.626571  1
  S  S9  1  0.110643  0.176007  0.373429  1
  S  S10  1  0.896321  0.638847  0.728319  1
  S  S11  1  0.103679  0.361153  0.271681  1
  S  S12  1  0.989430  0.426833  0.650224  1
  S  S13  1  0.010570  0.573167  0.349776  1
  S  S14  1  0.242888  0.417111  0.715837  1
  S  S15  1  0.757112  0.582889  0.284163  1
  S  S16  1  0.619439  0.493004  0.391848  1
  S  S17  1  0.380561  0.506996  0.608152  1
  F  F18  1  0.748255  0.248310  0.059249  1
  F  F19  1  0.251745  0.751690  0.940751  1
  F  F20  1  0.671460  0.191109  0.742618  1
  F  F21  1  0.328540  0.808891  0.257382  1
  F  F22  1  0.488787  0.148574  0.896845  1
  F  F23  1  0.511213  0.851426  0.103155  1
  F  F24  1  0.643325  0.441407  0.902262  1
  F  F25  1  0.356675  0.558593  0.097738  1
  F  F26  1  0.934184  0.293025  0.905167  1
  F  F27  1  0.065816  0.706975  0.094833  1
  F  F28  1  0.782364  0.000177  0.898244  1
  F  F29  1  0.217636  0.999823  0.101756  1
