# generated using pymatgen
data_Ho3Tm2Fe3(P3Ru4)4
_symmetry_space_group_name_H-M   'P 1'
_cell_length_a   12.47924900
_cell_length_b   12.47965139
_cell_length_c   3.88765400
_cell_angle_alpha   90.00000000
_cell_angle_beta   90.00000000
_cell_angle_gamma   119.99893605
_symmetry_Int_Tables_number   1
_chemical_formula_structural   Ho3Tm2Fe3(P3Ru4)4
_chemical_formula_sum   'Ho3 Tm2 Fe3 P12 Ru16'
_cell_volume   524.34097543
_cell_formula_units_Z   1
loop_
 _symmetry_equiv_pos_site_id
 _symmetry_equiv_pos_as_xyz
  1  'x, y, z'
loop_
 _atom_site_type_symbol
 _atom_site_label
 _atom_site_symmetry_multiplicity
 _atom_site_fract_x
 _atom_site_fract_y
 _atom_site_fract_z
 _atom_site_occupancy
  Ho  Ho0  1  0.181662  0.000000  0.500000  1
  Ho  Ho1  1  0.666690  0.333301  0.000000  1
  Ho  Ho2  1  0.333388  0.666699  0.000000  1
  Tm  Tm3  1  0.999967  0.181509  0.500000  1
  Tm  Tm4  1  0.818457  0.818491  0.500000  1
  Fe  Fe5  1  0.999837  0.716760  0.500000  1
  Fe  Fe6  1  0.283078  0.283240  0.500000  1
  Fe  Fe7  1  0.717022  0.000000  0.500000  1
  P  P8  1  0.999759  0.813738  0.000000  1
  P  P9  1  0.186021  0.186262  0.000000  1
  P  P10  1  0.813905  0.000000  0.000000  1
  P  P11  1  0.689927  0.162949  0.500000  1
  P  P12  1  0.837018  0.526884  0.500000  1
  P  P13  1  0.473057  0.310111  0.500000  1
  P  P14  1  0.162946  0.689889  0.500000  1
  P  P15  1  0.526978  0.837051  0.500000  1
  P  P16  1  0.310134  0.473116  0.500000  1
  P  P17  1  0.999986  0.372892  0.000000  1
  P  P18  1  0.627094  0.627108  0.000000  1
  P  P19  1  0.373064  0.000000  0.000000  1
  Ru  Ru20  1  0.999970  0.558004  0.000000  1
  Ru  Ru21  1  0.441966  0.441996  0.000000  1
  Ru  Ru22  1  0.558035  0.000000  0.000000  1
  Ru  Ru23  1  0.807491  0.181645  0.000000  1
  Ru  Ru24  1  0.818310  0.625760  0.000000  1
  Ru  Ru25  1  0.374698  0.193120  0.000000  1
  Ru  Ru26  1  0.181579  0.806880  0.000000  1
  Ru  Ru27  1  0.625847  0.818355  0.000000  1
  Ru  Ru28  1  0.192551  0.374240  0.000000  1
  Ru  Ru29  1  0.873640  0.363144  0.500000  1
  Ru  Ru30  1  0.636822  0.510457  0.500000  1
  Ru  Ru31  1  0.489674  0.126422  0.500000  1
  Ru  Ru32  1  0.363252  0.873578  0.500000  1
  Ru  Ru33  1  0.510497  0.636856  0.500000  1
  Ru  Ru34  1  0.126365  0.489543  0.500000  1
  Ru  Ru35  1  0.999316  0.000000  0.000000  1
