# generated using pymatgen
data_BaAc3(CdIn)4
_symmetry_space_group_name_H-M   'P 1'
_cell_length_a   5.13480900
_cell_length_b   8.27133892
_cell_length_c   8.59893100
_cell_angle_alpha   89.88410385
_cell_angle_beta   90.00000000
_cell_angle_gamma   90.00000000
_symmetry_Int_Tables_number   1
_chemical_formula_structural   BaAc3(CdIn)4
_chemical_formula_sum   'Ba1 Ac3 Cd4 In4'
_cell_volume   365.21086217
_cell_formula_units_Z   1
loop_
 _symmetry_equiv_pos_site_id
 _symmetry_equiv_pos_as_xyz
  1  'x, y, z'
loop_
 _atom_site_type_symbol
 _atom_site_label
 _atom_site_symmetry_multiplicity
 _atom_site_fract_x
 _atom_site_fract_y
 _atom_site_fract_z
 _atom_site_occupancy
  Ba  Ba0  1  0.750000  0.498906  0.789179  1
  Ac  Ac1  1  0.250000  0.001346  0.285548  1
  Ac  Ac2  1  0.250000  0.500556  0.216062  1
  Ac  Ac3  1  0.750000  0.999244  0.714067  1
  Cd  Cd4  1  0.750000  0.189863  0.086462  1
  Cd  Cd5  1  0.750000  0.693220  0.413240  1
  Cd  Cd6  1  0.250000  0.809942  0.915014  1
  Cd  Cd7  1  0.250000  0.307045  0.583267  1
  In  In8  1  0.750000  0.298170  0.410887  1
  In  In9  1  0.250000  0.194494  0.912897  1
  In  In10  1  0.750000  0.802022  0.088757  1
  In  In11  1  0.250000  0.705196  0.584621  1
