# generated using pymatgen
data_ScNb5(Ir8Rh)2
_symmetry_space_group_name_H-M   'P 1'
_cell_length_a   5.57683571
_cell_length_b   5.57771923
_cell_length_c   13.54482206
_cell_angle_alpha   89.97083953
_cell_angle_beta   90.02371549
_cell_angle_gamma   119.98764372
_symmetry_Int_Tables_number   1
_chemical_formula_structural   ScNb5(Ir8Rh)2
_chemical_formula_sum   'Sc1 Nb5 Ir16 Rh2'
_cell_volume   364.92400462
_cell_formula_units_Z   1
loop_
 _symmetry_equiv_pos_site_id
 _symmetry_equiv_pos_as_xyz
  1  'x, y, z'
loop_
 _atom_site_type_symbol
 _atom_site_label
 _atom_site_symmetry_multiplicity
 _atom_site_fract_x
 _atom_site_fract_y
 _atom_site_fract_z
 _atom_site_occupancy
  Sc  Sc0  1  0.999817  0.999909  0.250072  1
  Nb  Nb1  1  0.001498  0.001109  0.749954  1
  Nb  Nb2  1  0.333185  0.666513  0.408549  1
  Nb  Nb3  1  0.665942  0.332813  0.586921  1
  Nb  Nb4  1  0.666070  0.333066  0.912800  1
  Nb  Nb5  1  0.333162  0.666542  0.091654  1
  Ir  Ir6  1  0.503519  0.496200  0.250286  1
  Ir  Ir7  1  0.503310  0.006854  0.249978  1
  Ir  Ir8  1  0.992682  0.496296  0.249986  1
  Ir  Ir9  1  0.495366  0.503248  0.749552  1
  Ir  Ir10  1  0.495213  0.992655  0.750064  1
  Ir  Ir11  1  0.166068  0.331802  0.916949  1
  Ir  Ir12  1  0.669117  0.834682  0.916234  1
  Ir  Ir13  1  0.166346  0.834372  0.917038  1
  Ir  Ir14  1  0.832888  0.665593  0.080925  1
  Ir  Ir15  1  0.334936  0.167414  0.080538  1
  Ir  Ir16  1  0.832765  0.167330  0.080903  1
  Ir  Ir17  1  0.833194  0.666277  0.419032  1
  Ir  Ir18  1  0.334219  0.167063  0.419420  1
  Ir  Ir19  1  0.832919  0.167269  0.419522  1
  Ir  Ir20  1  0.166618  0.331553  0.582991  1
  Ir  Ir21  1  0.669013  0.834196  0.583760  1
  Rh  Rh22  1  0.005638  0.503407  0.749994  1
  Rh  Rh23  1  0.166514  0.833840  0.582876  1
