# generated using pymatgen
data_Er6Tm2B24MoOs3
_symmetry_space_group_name_H-M   'P 1'
_cell_length_a   3.62923700
_cell_length_b   9.12088104
_cell_length_c   11.50381919
_cell_angle_alpha   89.91725037
_cell_angle_beta   90.00000000
_cell_angle_gamma   90.00000000
_symmetry_Int_Tables_number   1
_chemical_formula_structural   Er6Tm2B24MoOs3
_chemical_formula_sum   'Er6 Tm2 B24 Mo1 Os3'
_cell_volume   380.79717298
_cell_formula_units_Z   1
loop_
 _symmetry_equiv_pos_site_id
 _symmetry_equiv_pos_as_xyz
  1  'x, y, z'
loop_
 _atom_site_type_symbol
 _atom_site_label
 _atom_site_symmetry_multiplicity
 _atom_site_fract_x
 _atom_site_fract_y
 _atom_site_fract_z
 _atom_site_occupancy
  Er  Er0  1  0.000000  0.321921  0.413161  1
  Er  Er1  1  0.000000  0.677443  0.584839  1
  Er  Er2  1  0.000000  0.820137  0.087430  1
  Er  Er3  1  0.000000  0.177932  0.914602  1
  Er  Er4  1  0.000000  0.944936  0.372741  1
  Er  Er5  1  0.000000  0.057501  0.628391  1
  Tm  Tm6  1  0.000000  0.443405  0.126739  1
  Tm  Tm7  1  0.000000  0.556709  0.871467  1
  B  B8  1  0.500000  0.551007  0.435658  1
  B  B9  1  0.500000  0.446242  0.567885  1
  B  B10  1  0.500000  0.053442  0.066740  1
  B  B11  1  0.500000  0.946380  0.933408  1
  B  B12  1  0.500000  0.750717  0.421840  1
  B  B13  1  0.500000  0.252040  0.580924  1
  B  B14  1  0.500000  0.248710  0.080094  1
  B  B15  1  0.500000  0.751111  0.919187  1
  B  B16  1  0.500000  0.794348  0.264499  1
  B  B17  1  0.500000  0.208658  0.734550  1
  B  B18  1  0.500000  0.291039  0.232947  1
  B  B19  1  0.500000  0.709010  0.765775  1
  B  B20  1  0.500000  0.631446  0.182951  1
  B  B21  1  0.500000  0.368457  0.815153  1
  B  B22  1  0.500000  0.131397  0.313875  1
  B  B23  1  0.500000  0.869371  0.685615  1
  B  B24  1  0.500000  0.982887  0.212572  1
  B  B25  1  0.500000  0.017650  0.788101  1
  B  B26  1  0.500000  0.478035  0.286495  1
  B  B27  1  0.500000  0.517050  0.713114  1
  B  B28  1  0.500000  0.604948  0.027650  1
  B  B29  1  0.500000  0.394540  0.970090  1
  B  B30  1  0.500000  0.106467  0.471062  1
  B  B31  1  0.500000  0.896344  0.530282  1
  Mo  Mo32  1  0.000000  0.637268  0.321156  1
  Os  Os33  1  0.000000  0.361407  0.680520  1
  Os  Os34  1  0.000000  0.137685  0.177282  1
  Os  Os35  1  0.000000  0.862359  0.821209  1
