# generated using pymatgen
data_Ho19Tm(Bi2Sb)4
_symmetry_space_group_name_H-M   'P 1'
_cell_length_a   8.15493570
_cell_length_b   9.43442002
_cell_length_c   11.94466106
_cell_angle_alpha   89.99646705
_cell_angle_beta   90.02845846
_cell_angle_gamma   89.99930406
_symmetry_Int_Tables_number   1
_chemical_formula_structural   Ho19Tm(Bi2Sb)4
_chemical_formula_sum   'Ho19 Tm1 Bi8 Sb4'
_cell_volume   918.98733174
_cell_formula_units_Z   1
loop_
 _symmetry_equiv_pos_site_id
 _symmetry_equiv_pos_as_xyz
  1  'x, y, z'
loop_
 _atom_site_type_symbol
 _atom_site_label
 _atom_site_symmetry_multiplicity
 _atom_site_fract_x
 _atom_site_fract_y
 _atom_site_fract_z
 _atom_site_occupancy
  Ho  Ho0  1  0.354089  0.749652  0.213876  1
  Ho  Ho1  1  0.853461  0.749675  0.285823  1
  Ho  Ho2  1  0.646046  0.249839  0.785913  1
  Ho  Ho3  1  0.146092  0.249952  0.714080  1
  Ho  Ho4  1  0.188815  0.936711  0.441809  1
  Ho  Ho5  1  0.311327  0.063309  0.941944  1
  Ho  Ho6  1  0.811048  0.436803  0.558160  1
  Ho  Ho7  1  0.310907  0.436869  0.941840  1
  Ho  Ho8  1  0.811142  0.063257  0.558133  1
  Ho  Ho9  1  0.688950  0.936603  0.058054  1
  Ho  Ho10  1  0.188885  0.563281  0.441870  1
  Ho  Ho11  1  0.473099  0.249799  0.488180  1
  Ho  Ho12  1  0.972908  0.249963  0.011737  1
  Ho  Ho13  1  0.526937  0.750061  0.511748  1
  Ho  Ho14  1  0.026551  0.749865  0.988332  1
  Ho  Ho15  1  0.316120  0.250000  0.217576  1
  Ho  Ho16  1  0.816201  0.249963  0.282410  1
  Ho  Ho17  1  0.683799  0.749824  0.782563  1
  Ho  Ho18  1  0.183821  0.749984  0.717654  1
  Tm  Tm19  1  0.688921  0.564172  0.058159  1
  Bi  Bi20  1  0.566113  0.996005  0.325362  1
  Bi  Bi21  1  0.065925  0.503916  0.174453  1
  Bi  Bi22  1  0.434046  0.496057  0.674669  1
  Bi  Bi23  1  0.933869  0.003817  0.825468  1
  Bi  Bi24  1  0.433975  0.003832  0.674591  1
  Bi  Bi25  1  0.933984  0.495969  0.825551  1
  Bi  Bi26  1  0.566222  0.503907  0.325283  1
  Bi  Bi27  1  0.066052  0.995961  0.174509  1
  Sb  Sb28  1  0.406594  0.749686  0.958430  1
  Sb  Sb29  1  0.906386  0.750066  0.541646  1
  Sb  Sb30  1  0.594038  0.251167  0.041898  1
  Sb  Sb31  1  0.093678  0.250034  0.458278  1
