# generated using pymatgen
data_Ca3Ac(SbPt)4
_symmetry_space_group_name_H-M   'P 1'
_cell_length_a   4.69192400
_cell_length_b   7.59026412
_cell_length_c   8.01843211
_cell_angle_alpha   90.01961933
_cell_angle_beta   90.00000000
_cell_angle_gamma   90.00000000
_symmetry_Int_Tables_number   1
_chemical_formula_structural   Ca3Ac(SbPt)4
_chemical_formula_sum   'Ca3 Ac1 Sb4 Pt4'
_cell_volume   285.55994400
_cell_formula_units_Z   1
loop_
 _symmetry_equiv_pos_site_id
 _symmetry_equiv_pos_as_xyz
  1  'x, y, z'
loop_
 _atom_site_type_symbol
 _atom_site_label
 _atom_site_symmetry_multiplicity
 _atom_site_fract_x
 _atom_site_fract_y
 _atom_site_fract_z
 _atom_site_occupancy
  Ca  Ca0  1  0.250000  0.008291  0.297112  1
  Ca  Ca1  1  0.750000  0.492416  0.803806  1
  Ca  Ca2  1  0.250000  0.509576  0.198732  1
  Ac  Ac3  1  0.750000  0.992750  0.694251  1
  Sb  Sb4  1  0.750000  0.318735  0.405105  1
  Sb  Sb5  1  0.250000  0.195265  0.917576  1
  Sb  Sb6  1  0.250000  0.676038  0.589099  1
  Sb  Sb7  1  0.750000  0.814400  0.093969  1
  Pt  Pt8  1  0.250000  0.797470  0.919261  1
  Pt  Pt9  1  0.250000  0.303363  0.583211  1
  Pt  Pt10  1  0.750000  0.694844  0.412733  1
  Pt  Pt11  1  0.750000  0.196852  0.085145  1
