# generated using pymatgen
data_Li6MnV5Rh12
_symmetry_space_group_name_H-M   'P 1'
_cell_length_a   4.19206601
_cell_length_b   5.93287900
_cell_length_c   12.55902804
_cell_angle_alpha   90.00000000
_cell_angle_beta   90.00877608
_cell_angle_gamma   90.00000000
_symmetry_Int_Tables_number   1
_chemical_formula_structural   Li6MnV5Rh12
_chemical_formula_sum   'Li6 Mn1 V5 Rh12'
_cell_volume   312.35583898
_cell_formula_units_Z   1
loop_
 _symmetry_equiv_pos_site_id
 _symmetry_equiv_pos_as_xyz
  1  'x, y, z'
loop_
 _atom_site_type_symbol
 _atom_site_label
 _atom_site_symmetry_multiplicity
 _atom_site_fract_x
 _atom_site_fract_y
 _atom_site_fract_z
 _atom_site_occupancy
  Li  Li0  1  0.000000  0.000000  0.000000  1
  Li  Li1  1  0.499529  0.500000  0.165174  1
  Li  Li2  1  0.999712  0.000000  0.333962  1
  Li  Li3  1  0.499999  0.500000  0.500000  1
  Li  Li4  1  0.000289  0.000000  0.666038  1
  Li  Li5  1  0.500471  0.500000  0.834826  1
  Mn  Mn6  1  0.000000  0.500000  0.000000  1
  V  V7  1  0.499604  0.000000  0.164278  1
  V  V8  1  0.999659  0.500000  0.332789  1
  V  V9  1  0.499999  0.000000  0.500000  1
  V  V10  1  0.000342  0.500000  0.667211  1
  V  V11  1  0.500396  0.000000  0.835722  1
  Rh  Rh12  1  0.499999  0.247381  0.000000  1
  Rh  Rh13  1  0.499999  0.752617  0.000000  1
  Rh  Rh14  1  0.999643  0.248147  0.169707  1
  Rh  Rh15  1  0.999643  0.751853  0.169707  1
  Rh  Rh16  1  0.499753  0.250847  0.333942  1
  Rh  Rh17  1  0.499753  0.749153  0.333942  1
  Rh  Rh18  1  0.000000  0.249270  0.500000  1
  Rh  Rh19  1  0.000000  0.750728  0.500000  1
  Rh  Rh20  1  0.500248  0.250847  0.666057  1
  Rh  Rh21  1  0.500248  0.749153  0.666057  1
  Rh  Rh22  1  0.000358  0.248147  0.830293  1
  Rh  Rh23  1  0.000358  0.751853  0.830293  1
