# generated using pymatgen
data_YbSnRuPbO7
_symmetry_space_group_name_H-M   'P 1'
_cell_length_a   7.39469511
_cell_length_b   7.39469448
_cell_length_c   7.32309900
_cell_angle_alpha   60.31976021
_cell_angle_beta   60.31976303
_cell_angle_gamma   60.06756056
_symmetry_Int_Tables_number   1
_chemical_formula_structural   YbSnRuPbO7
_chemical_formula_sum   'Yb2 Sn2 Ru2 Pb2 O14'
_cell_volume   284.65970677
_cell_formula_units_Z   2
loop_
 _symmetry_equiv_pos_site_id
 _symmetry_equiv_pos_as_xyz
  1  'x, y, z'
loop_
 _atom_site_type_symbol
 _atom_site_label
 _atom_site_symmetry_multiplicity
 _atom_site_fract_x
 _atom_site_fract_y
 _atom_site_fract_z
 _atom_site_occupancy
  Yb  Yb0  1  0.625000  0.125000  0.125000  1
  Yb  Yb1  1  0.125000  0.625000  0.125000  1
  Sn  Sn2  1  0.625000  0.625000  0.625000  1
  Sn  Sn3  1  0.625000  0.625000  0.125000  1
  Ru  Ru4  1  0.125000  0.625000  0.625000  1
  Ru  Ru5  1  0.625000  0.125000  0.625000  1
  Pb  Pb6  1  0.125000  0.125000  0.125000  1
  Pb  Pb7  1  0.125000  0.125000  0.625000  1
  O  O8  1  0.003897  0.003897  0.996103  1
  O  O9  1  0.246103  0.246103  0.253897  1
  O  O10  1  0.304930  0.304930  0.695070  1
  O  O11  1  0.535510  0.535510  0.964490  1
  O  O12  1  0.710270  0.285795  0.699066  1
  O  O13  1  0.710270  0.285795  0.304869  1
  O  O14  1  0.285795  0.710270  0.699066  1
  O  O15  1  0.285795  0.710270  0.304869  1
  O  O16  1  0.714490  0.714490  0.285510  1
  O  O17  1  0.964205  0.539730  0.550934  1
  O  O18  1  0.539730  0.964205  0.945131  1
  O  O19  1  0.945070  0.945070  0.554930  1
  O  O20  1  0.964205  0.539730  0.945131  1
  O  O21  1  0.539730  0.964205  0.550934  1
