# generated using pymatgen
data_HoPu2(GaNi)3
_symmetry_space_group_name_H-M   'P 1'
_cell_length_a   6.81006300
_cell_length_b   6.97357232
_cell_length_c   3.86554000
_cell_angle_alpha   90.00000000
_cell_angle_beta   90.00000000
_cell_angle_gamma   119.22735918
_symmetry_Int_Tables_number   1
_chemical_formula_structural   HoPu2(GaNi)3
_chemical_formula_sum   'Ho1 Pu2 Ga3 Ni3'
_cell_volume   160.20502078
_cell_formula_units_Z   1
loop_
 _symmetry_equiv_pos_site_id
 _symmetry_equiv_pos_as_xyz
  1  'x, y, z'
loop_
 _atom_site_type_symbol
 _atom_site_label
 _atom_site_symmetry_multiplicity
 _atom_site_fract_x
 _atom_site_fract_y
 _atom_site_fract_z
 _atom_site_occupancy
  Ho  Ho0  1  0.415535  0.000000  0.500000  1
  Pu  Pu1  1  0.002139  0.420924  0.500000  1
  Pu  Pu2  1  0.581215  0.579076  0.500000  1
  Ga  Ga3  1  0.755071  0.000000  0.000000  1
  Ga  Ga4  1  0.002958  0.761618  0.000000  1
  Ga  Ga5  1  0.241339  0.238382  0.000000  1
  Ni  Ni6  1  0.333135  0.660499  0.000000  1
  Ni  Ni7  1  0.672637  0.339501  0.000000  1
  Ni  Ni8  1  0.995970  0.000000  0.500000  1
