# generated using pymatgen
data_Cs4Ta2PdS8
_symmetry_space_group_name_H-M   'P 1'
_cell_length_a   13.94359200
_cell_length_b   7.82120437
_cell_length_c   9.93065881
_cell_angle_alpha   83.96712836
_cell_angle_beta   90.00000000
_cell_angle_gamma   90.00000000
_symmetry_Int_Tables_number   1
_chemical_formula_structural   Cs4Ta2PdS8
_chemical_formula_sum   'Cs8 Ta4 Pd2 S16'
_cell_volume   1076.99689291
_cell_formula_units_Z   2
loop_
 _symmetry_equiv_pos_site_id
 _symmetry_equiv_pos_as_xyz
  1  'x, y, z'
loop_
 _atom_site_type_symbol
 _atom_site_label
 _atom_site_symmetry_multiplicity
 _atom_site_fract_x
 _atom_site_fract_y
 _atom_site_fract_z
 _atom_site_occupancy
  Cs  Cs0  1  0.134518  0.825468  0.678481  1
  Cs  Cs1  1  0.634518  0.174532  0.821519  1
  Cs  Cs2  1  0.865482  0.174532  0.321519  1
  Cs  Cs3  1  0.365482  0.825468  0.178481  1
  Cs  Cs4  1  0.346941  0.281095  0.538505  1
  Cs  Cs5  1  0.846941  0.718905  0.961495  1
  Cs  Cs6  1  0.653059  0.718905  0.461495  1
  Cs  Cs7  1  0.153059  0.281095  0.038505  1
  Ta  Ta8  1  0.426650  0.748057  0.769080  1
  Ta  Ta9  1  0.926650  0.251943  0.730920  1
  Ta  Ta10  1  0.573350  0.251943  0.230920  1
  Ta  Ta11  1  0.073350  0.748057  0.269080  1
  Pd  Pd12  1  0.000000  0.500000  0.500000  1
  Pd  Pd13  1  0.500000  0.500000  0.000000  1
  S  S14  1  0.084124  0.306123  0.663531  1
  S  S15  1  0.584124  0.693877  0.836469  1
  S  S16  1  0.915876  0.693877  0.336469  1
  S  S17  1  0.415876  0.306123  0.163531  1
  S  S18  1  0.404701  0.741447  0.544058  1
  S  S19  1  0.904701  0.258553  0.955942  1
  S  S20  1  0.595299  0.258553  0.455942  1
  S  S21  1  0.095299  0.741447  0.044058  1
  S  S22  1  0.152584  0.523719  0.390935  1
  S  S23  1  0.652584  0.476281  0.109065  1
  S  S24  1  0.847416  0.476281  0.609065  1
  S  S25  1  0.347416  0.523719  0.890935  1
  S  S26  1  0.374011  0.001799  0.831576  1
  S  S27  1  0.874011  0.998201  0.668424  1
  S  S28  1  0.625989  0.998201  0.168424  1
  S  S29  1  0.125989  0.001799  0.331576  1
