# generated using pymatgen
data_Pr3ZnCd2IrPd2
_symmetry_space_group_name_H-M   'P 1'
_cell_length_a   7.65202052
_cell_length_b   7.65518456
_cell_length_c   4.03898800
_cell_angle_alpha   90.00000000
_cell_angle_beta   90.00000000
_cell_angle_gamma   119.60672021
_symmetry_Int_Tables_number   1
_chemical_formula_structural   Pr3ZnCd2IrPd2
_chemical_formula_sum   'Pr3 Zn1 Cd2 Ir1 Pd2'
_cell_volume   205.70387257
_cell_formula_units_Z   1
loop_
 _symmetry_equiv_pos_site_id
 _symmetry_equiv_pos_as_xyz
  1  'x, y, z'
loop_
 _atom_site_type_symbol
 _atom_site_label
 _atom_site_symmetry_multiplicity
 _atom_site_fract_x
 _atom_site_fract_y
 _atom_site_fract_z
 _atom_site_occupancy
  Pr  Pr0  1  0.573394  0.988593  0.500000  1
  Pr  Pr1  1  0.402271  0.410618  0.500000  1
  Pr  Pr2  1  0.016626  0.602830  0.500000  1
  Zn  Zn3  1  0.249000  0.996696  0.000000  1
  Cd  Cd4  1  0.751408  0.752135  0.000000  1
  Cd  Cd5  1  0.996114  0.246720  0.000000  1
  Ir  Ir6  1  0.332064  0.672905  0.000000  1
  Pd  Pd7  1  0.019977  0.001090  0.500000  1
  Pd  Pd8  1  0.659146  0.328412  0.000000  1
