# generated using pymatgen
data_Er2NpO6
_symmetry_space_group_name_H-M   'P 1'
_cell_length_a   5.49536300
_cell_length_b   7.79151880
_cell_length_c   11.77376385
_cell_angle_alpha   73.72937919
_cell_angle_beta   90.00000000
_cell_angle_gamma   90.00000000
_symmetry_Int_Tables_number   1
_chemical_formula_structural   Er2NpO6
_chemical_formula_sum   'Er8 Np4 O24'
_cell_volume   483.92942083
_cell_formula_units_Z   4
loop_
 _symmetry_equiv_pos_site_id
 _symmetry_equiv_pos_as_xyz
  1  'x, y, z'
loop_
 _atom_site_type_symbol
 _atom_site_label
 _atom_site_symmetry_multiplicity
 _atom_site_fract_x
 _atom_site_fract_y
 _atom_site_fract_z
 _atom_site_occupancy
  Er  Er0  1  0.185765  0.205815  0.420478  1
  Er  Er1  1  0.185765  0.794185  0.079522  1
  Er  Er2  1  0.814235  0.794185  0.579522  1
  Er  Er3  1  0.814235  0.205815  0.920478  1
  Er  Er4  1  0.697368  0.500000  0.250000  1
  Er  Er5  1  0.302632  0.500000  0.750000  1
  Er  Er6  1  0.744519  0.000000  0.250000  1
  Er  Er7  1  0.255481  0.000000  0.750000  1
  Np  Np8  1  0.256545  0.278894  0.113743  1
  Np  Np9  1  0.256545  0.721106  0.386257  1
  Np  Np10  1  0.743455  0.721106  0.886257  1
  Np  Np11  1  0.743455  0.278894  0.613743  1
  O  O12  1  0.450882  0.198031  0.275237  1
  O  O13  1  0.450882  0.801969  0.224763  1
  O  O14  1  0.549118  0.801969  0.724763  1
  O  O15  1  0.549118  0.198031  0.775237  1
  O  O16  1  0.044231  0.053660  0.104162  1
  O  O17  1  0.044231  0.946340  0.395838  1
  O  O18  1  0.955769  0.946340  0.895838  1
  O  O19  1  0.955769  0.053660  0.604162  1
  O  O20  1  0.962249  0.287923  0.232636  1
  O  O21  1  0.962249  0.712077  0.267364  1
  O  O22  1  0.037751  0.712077  0.767364  1
  O  O23  1  0.037751  0.287923  0.732636  1
  O  O24  1  0.873069  0.371759  0.444062  1
  O  O25  1  0.873069  0.628241  0.055938  1
  O  O26  1  0.126931  0.628241  0.555938  1
  O  O27  1  0.126931  0.371759  0.944062  1
  O  O28  1  0.611571  0.520169  0.616982  1
  O  O29  1  0.611571  0.479831  0.883018  1
  O  O30  1  0.388429  0.479831  0.383018  1
  O  O31  1  0.388429  0.520169  0.116982  1
  O  O32  1  0.442435  0.151680  0.569121  1
  O  O33  1  0.442435  0.848320  0.930879  1
  O  O34  1  0.557565  0.848320  0.430879  1
  O  O35  1  0.557565  0.151680  0.069121  1
