# generated using pymatgen
data_Dy3Y(Al3Ir)6
_symmetry_space_group_name_H-M   'P 1'
_cell_length_a   7.55524873
_cell_length_b   7.55564033
_cell_length_c   9.48079600
_cell_angle_alpha   90.00000000
_cell_angle_beta   90.00000000
_cell_angle_gamma   119.40470207
_symmetry_Int_Tables_number   1
_chemical_formula_structural   Dy3Y(Al3Ir)6
_chemical_formula_sum   'Dy3 Y1 Al18 Ir6'
_cell_volume   471.48677043
_cell_formula_units_Z   1
loop_
 _symmetry_equiv_pos_site_id
 _symmetry_equiv_pos_as_xyz
  1  'x, y, z'
loop_
 _atom_site_type_symbol
 _atom_site_label
 _atom_site_symmetry_multiplicity
 _atom_site_fract_x
 _atom_site_fract_y
 _atom_site_fract_z
 _atom_site_occupancy
  Dy  Dy0  1  0.005456  0.329172  0.250000  1
  Dy  Dy1  1  0.670824  0.994536  0.750000  1
  Dy  Dy2  1  0.329142  0.005443  0.250000  1
  Y  Y3  1  0.994479  0.670718  0.750000  1
  Al  Al4  1  0.128822  0.129035  0.750000  1
  Al  Al5  1  0.871081  0.871114  0.250000  1
  Al  Al6  1  0.001056  0.334974  0.573443  1
  Al  Al7  1  0.998985  0.664963  0.426148  1
  Al  Al8  1  0.998985  0.664963  0.073852  1
  Al  Al9  1  0.335069  0.001107  0.926550  1
  Al  Al10  1  0.001056  0.334974  0.926557  1
  Al  Al11  1  0.664972  0.998996  0.073702  1
  Al  Al12  1  0.664972  0.998996  0.426298  1
  Al  Al13  1  0.335069  0.001107  0.573450  1
  Al  Al14  1  0.333489  0.333487  0.051520  1
  Al  Al15  1  0.666468  0.666522  0.948801  1
  Al  Al16  1  0.666468  0.666522  0.551199  1
  Al  Al17  1  0.333489  0.333487  0.448480  1
  Al  Al18  1  0.339499  0.548023  0.750000  1
  Al  Al19  1  0.660689  0.451983  0.250000  1
  Al  Al20  1  0.547792  0.339001  0.750000  1
  Al  Al21  1  0.452040  0.660736  0.250000  1
  Ir  Ir22  1  0.671674  0.328247  0.499920  1
  Ir  Ir23  1  0.328349  0.671732  0.499898  1
  Ir  Ir24  1  0.328349  0.671732  0.000102  1
  Ir  Ir25  1  0.671674  0.328247  0.000080  1
  Ir  Ir26  1  0.000025  0.000093  0.499871  1
  Ir  Ir27  1  0.000025  0.000093  0.000129  1
