# generated using pymatgen
data_Nd10GaPb5Se2
_symmetry_space_group_name_H-M   'P 1'
_cell_length_a   9.46282000
_cell_length_b   9.46282029
_cell_length_c   7.02995600
_cell_angle_alpha   90.00000000
_cell_angle_beta   90.00000000
_cell_angle_gamma   119.91598252
_symmetry_Int_Tables_number   1
_chemical_formula_structural   Nd10GaPb5Se2
_chemical_formula_sum   'Nd10 Ga1 Pb5 Se2'
_cell_volume   545.62149130
_cell_formula_units_Z   1
loop_
 _symmetry_equiv_pos_site_id
 _symmetry_equiv_pos_as_xyz
  1  'x, y, z'
loop_
 _atom_site_type_symbol
 _atom_site_label
 _atom_site_symmetry_multiplicity
 _atom_site_fract_x
 _atom_site_fract_y
 _atom_site_fract_z
 _atom_site_occupancy
  Nd  Nd0  1  0.747058  0.747058  0.750000  1
  Nd  Nd1  1  0.254663  0.011343  0.750000  1
  Nd  Nd2  1  0.011343  0.254663  0.750000  1
  Nd  Nd3  1  0.247860  0.247860  0.250000  1
  Nd  Nd4  1  0.749961  0.001277  0.250000  1
  Nd  Nd5  1  0.001277  0.749961  0.250000  1
  Nd  Nd6  1  0.658683  0.335546  0.996553  1
  Nd  Nd7  1  0.335546  0.658683  0.996553  1
  Nd  Nd8  1  0.335546  0.658683  0.503447  1
  Nd  Nd9  1  0.658683  0.335546  0.503447  1
  Ga  Ga10  1  0.398833  0.398833  0.750000  1
  Pb  Pb11  1  0.604746  0.002227  0.750000  1
  Pb  Pb12  1  0.002227  0.604746  0.750000  1
  Pb  Pb13  1  0.602260  0.602260  0.250000  1
  Pb  Pb14  1  0.397393  0.997887  0.250000  1
  Pb  Pb15  1  0.997887  0.397393  0.250000  1
  Se  Se16  1  0.998017  0.998017  0.999704  1
  Se  Se17  1  0.998017  0.998017  0.500296  1
