# generated using pymatgen
data_Th14Re4IrAu
_symmetry_space_group_name_H-M   'P 1'
_cell_length_a   10.13254079
_cell_length_b   10.10248046
_cell_length_c   6.32475554
_cell_angle_alpha   90.24099989
_cell_angle_beta   89.62713396
_cell_angle_gamma   119.64884646
_symmetry_Int_Tables_number   1
_chemical_formula_structural   Th14Re4IrAu
_chemical_formula_sum   'Th14 Re4 Ir1 Au1'
_cell_volume   562.64849466
_cell_formula_units_Z   1
loop_
 _symmetry_equiv_pos_site_id
 _symmetry_equiv_pos_as_xyz
  1  'x, y, z'
loop_
 _atom_site_type_symbol
 _atom_site_label
 _atom_site_symmetry_multiplicity
 _atom_site_fract_x
 _atom_site_fract_y
 _atom_site_fract_z
 _atom_site_occupancy
  Th  Th0  1  0.473127  0.545018  0.288739  1
  Th  Th1  1  0.067854  0.543339  0.283037  1
  Th  Th2  1  0.916204  0.459408  0.793587  1
  Th  Th3  1  0.264544  0.122497  0.505502  1
  Th  Th4  1  0.544075  0.081785  0.798246  1
  Th  Th5  1  0.751810  0.877288  0.003441  1
  Th  Th6  1  0.665371  0.332528  0.281630  1
  Th  Th7  1  0.126551  0.875934  0.001392  1
  Th  Th8  1  0.457998  0.916236  0.292489  1
  Th  Th9  1  0.546195  0.464906  0.795153  1
  Th  Th10  1  0.859303  0.117529  0.505752  1
  Th  Th11  1  0.123266  0.243696  0.016123  1
  Th  Th12  1  0.872887  0.750230  0.502600  1
  Th  Th13  1  0.338793  0.675864  0.801124  1
  Re  Re14  1  0.816839  0.628472  0.053574  1
  Re  Re15  1  0.819893  0.189424  0.052011  1
  Re  Re16  1  0.617920  0.806892  0.555674  1
  Re  Re17  1  0.370137  0.188277  0.048998  1
  Ir  Ir18  1  0.182852  0.805668  0.548920  1
  Au  Au19  1  0.184379  0.375009  0.556011  1
