# generated using pymatgen
data_Hf2Ti4Ga2P
_symmetry_space_group_name_H-M   'P 1'
_cell_length_a   7.06243824
_cell_length_b   7.06561418
_cell_length_c   3.56730900
_cell_angle_alpha   90.00000000
_cell_angle_beta   90.00000000
_cell_angle_gamma   120.01486047
_symmetry_Int_Tables_number   1
_chemical_formula_structural   Hf2Ti4Ga2P
_chemical_formula_sum   'Hf2 Ti4 Ga2 P1'
_cell_volume   154.13841558
_cell_formula_units_Z   1
loop_
 _symmetry_equiv_pos_site_id
 _symmetry_equiv_pos_as_xyz
  1  'x, y, z'
loop_
 _atom_site_type_symbol
 _atom_site_label
 _atom_site_symmetry_multiplicity
 _atom_site_fract_x
 _atom_site_fract_y
 _atom_site_fract_z
 _atom_site_occupancy
  Hf  Hf0  1  0.606791  0.999442  0.000000  1
  Hf  Hf1  1  0.393209  0.392651  0.000000  1
  Ti  Ti2  1  0.000000  0.247189  0.500000  1
  Ti  Ti3  1  0.243772  0.995603  0.500000  1
  Ti  Ti4  1  0.756228  0.751831  0.500000  1
  Ti  Ti5  1  0.000000  0.610424  0.000000  1
  Ga  Ga6  1  0.673806  0.339225  0.500000  1
  Ga  Ga7  1  0.326194  0.665421  0.500000  1
  P  P8  1  0.000000  0.998215  0.000000  1
