# generated using pymatgen
data_MnAg3(SeO4)4
_symmetry_space_group_name_H-M   'P 1'
_cell_length_a   5.32498053
_cell_length_b   7.48644193
_cell_length_c   9.30467421
_cell_angle_alpha   90.10766808
_cell_angle_beta   90.73512255
_cell_angle_gamma   85.51924841
_symmetry_Int_Tables_number   1
_chemical_formula_structural   MnAg3(SeO4)4
_chemical_formula_sum   'Mn1 Ag3 Se4 O16'
_cell_volume   369.76801857
_cell_formula_units_Z   1
loop_
 _symmetry_equiv_pos_site_id
 _symmetry_equiv_pos_as_xyz
  1  'x, y, z'
loop_
 _atom_site_type_symbol
 _atom_site_label
 _atom_site_symmetry_multiplicity
 _atom_site_fract_x
 _atom_site_fract_y
 _atom_site_fract_z
 _atom_site_occupancy
  Mn  Mn0  1  0.500000  0.500000  0.500000  1
  Ag  Ag1  1  0.000000  0.000000  0.000000  1
  Ag  Ag2  1  0.500000  0.000000  0.500000  1
  Ag  Ag3  1  0.000000  0.500000  0.000000  1
  Se  Se4  1  0.534585  0.760363  0.811062  1
  Se  Se5  1  0.042260  0.275312  0.681314  1
  Se  Se6  1  0.465415  0.239637  0.188938  1
  Se  Se7  1  0.957740  0.724688  0.318686  1
  O  O8  1  0.202064  0.448744  0.635489  1
  O  O9  1  0.674380  0.564329  0.873104  1
  O  O10  1  0.829304  0.926161  0.369437  1
  O  O11  1  0.325268  0.055461  0.146029  1
  O  O12  1  0.797936  0.551256  0.364511  1
  O  O13  1  0.325620  0.435671  0.126896  1
  O  O14  1  0.170696  0.073839  0.630563  1
  O  O15  1  0.674732  0.944539  0.853971  1
  O  O16  1  0.236260  0.768565  0.861875  1
  O  O17  1  0.744889  0.300645  0.622667  1
  O  O18  1  0.763740  0.231435  0.138125  1
  O  O19  1  0.255111  0.699355  0.377333  1
  O  O20  1  0.556218  0.740262  0.625468  1
  O  O21  1  0.053537  0.263169  0.867696  1
  O  O22  1  0.443782  0.259738  0.374532  1
  O  O23  1  0.946463  0.736831  0.132304  1
