# generated using pymatgen
data_Tb2BeOsSe
_symmetry_space_group_name_H-M   'P 1'
_cell_length_a   3.95106500
_cell_length_b   3.95106294
_cell_length_c   15.45529300
_cell_angle_alpha   90.00000000
_cell_angle_beta   90.00000000
_cell_angle_gamma   120.00002558
_symmetry_Int_Tables_number   1
_chemical_formula_structural   Tb2BeOsSe
_chemical_formula_sum   'Tb4 Be2 Os2 Se2'
_cell_volume   208.94687752
_cell_formula_units_Z   2
loop_
 _symmetry_equiv_pos_site_id
 _symmetry_equiv_pos_as_xyz
  1  'x, y, z'
loop_
 _atom_site_type_symbol
 _atom_site_label
 _atom_site_symmetry_multiplicity
 _atom_site_fract_x
 _atom_site_fract_y
 _atom_site_fract_z
 _atom_site_occupancy
  Tb  Tb0  1  0.333333  0.666667  0.373821  1
  Tb  Tb1  1  0.666667  0.333333  0.626179  1
  Tb  Tb2  1  0.666667  0.333333  0.873821  1
  Tb  Tb3  1  0.333333  0.666667  0.126179  1
  Be  Be4  1  0.000000  0.000000  0.250000  1
  Be  Be5  1  0.000000  0.000000  0.750000  1
  Os  Os6  1  0.333333  0.666667  0.750000  1
  Os  Os7  1  0.666667  0.333333  0.250000  1
  Se  Se8  1  0.000000  0.000000  0.500000  1
  Se  Se9  1  0.000000  0.000000  0.000000  1
