# generated using pymatgen
data_Pr(MoC)4
_symmetry_space_group_name_H-M   'P 1'
_cell_length_a   6.20216596
_cell_length_b   6.20216754
_cell_length_c   6.20216718
_cell_angle_alpha   94.25249143
_cell_angle_beta   94.25249145
_cell_angle_gamma   148.39665798
_symmetry_Int_Tables_number   1
_chemical_formula_structural   Pr(MoC)4
_chemical_formula_sum   'Pr1 Mo4 C4'
_cell_volume   120.29871719
_cell_formula_units_Z   1
loop_
 _symmetry_equiv_pos_site_id
 _symmetry_equiv_pos_as_xyz
  1  'x, y, z'
loop_
 _atom_site_type_symbol
 _atom_site_label
 _atom_site_symmetry_multiplicity
 _atom_site_fract_x
 _atom_site_fract_y
 _atom_site_fract_z
 _atom_site_occupancy
  Pr  Pr0  1  0.000000  0.000000  0.000000  1
  Mo  Mo1  1  0.819062  0.368495  0.187556  1
  Mo  Mo2  1  0.631506  0.819062  0.450567  1
  Mo  Mo3  1  0.368495  0.180939  0.549434  1
  Mo  Mo4  1  0.180939  0.631506  0.812444  1
  C  C5  1  0.399426  0.741804  0.141229  1
  C  C6  1  0.741804  0.600575  0.342378  1
  C  C7  1  0.258197  0.399426  0.657623  1
  C  C8  1  0.600575  0.258197  0.858772  1
