# generated using pymatgen
data_Sc4Si6Ir4Pd3
_symmetry_space_group_name_H-M   'P 1'
_cell_length_a   7.00795893
_cell_length_b   7.00795954
_cell_length_c   7.01716000
_cell_angle_alpha   109.49781467
_cell_angle_beta   109.49781643
_cell_angle_gamma   109.44461816
_symmetry_Int_Tables_number   1
_chemical_formula_structural   Sc4Si6Ir4Pd3
_chemical_formula_sum   'Sc4 Si6 Ir4 Pd3'
_cell_volume   265.20392297
_cell_formula_units_Z   1
loop_
 _symmetry_equiv_pos_site_id
 _symmetry_equiv_pos_as_xyz
  1  'x, y, z'
loop_
 _atom_site_type_symbol
 _atom_site_label
 _atom_site_symmetry_multiplicity
 _atom_site_fract_x
 _atom_site_fract_y
 _atom_site_fract_z
 _atom_site_occupancy
  Sc  Sc0  1  0.000000  0.000000  0.500000  1
  Sc  Sc1  1  0.008592  0.504296  0.004296  1
  Sc  Sc2  1  0.495704  0.991408  0.995704  1
  Sc  Sc3  1  0.495704  0.504296  0.500000  1
  Si  Si4  1  0.680597  0.686866  0.999869  1
  Si  Si5  1  0.313134  0.993731  0.313003  1
  Si  Si6  1  0.006269  0.319403  0.319272  1
  Si  Si7  1  0.313134  0.319403  0.000131  1
  Si  Si8  1  0.680597  0.993731  0.680728  1
  Si  Si9  1  0.006269  0.686866  0.686997  1
  Ir  Ir10  1  0.248648  0.497297  0.748648  1
  Ir  Ir11  1  0.248648  0.751352  0.500000  1
  Ir  Ir12  1  0.502703  0.751352  0.251352  1
  Ir  Ir13  1  0.000000  0.000000  0.000000  1
  Pd  Pd14  1  0.748501  0.251499  0.500000  1
  Pd  Pd15  1  0.748501  0.497002  0.248501  1
  Pd  Pd16  1  0.502998  0.251499  0.751499  1
