# generated using pymatgen
data_Tb3Dy(AlRe3)2
_symmetry_space_group_name_H-M   'P 1'
_cell_length_a   9.39210151
_cell_length_b   9.39210139
_cell_length_c   9.33319509
_cell_angle_alpha   34.18612101
_cell_angle_beta   34.18611973
_cell_angle_gamma   33.12656607
_symmetry_Int_Tables_number   1
_chemical_formula_structural   Tb3Dy(AlRe3)2
_chemical_formula_sum   'Tb3 Dy1 Al2 Re6'
_cell_volume   227.28170202
_cell_formula_units_Z   1
loop_
 _symmetry_equiv_pos_site_id
 _symmetry_equiv_pos_as_xyz
  1  'x, y, z'
loop_
 _atom_site_type_symbol
 _atom_site_label
 _atom_site_symmetry_multiplicity
 _atom_site_fract_x
 _atom_site_fract_y
 _atom_site_fract_z
 _atom_site_occupancy
  Tb  Tb0  1  0.183150  0.183150  0.194293  1
  Tb  Tb1  1  0.816826  0.816826  0.805659  1
  Tb  Tb2  1  0.316880  0.316880  0.305670  1
  Dy  Dy3  1  0.682999  0.682999  0.694627  1
  Al  Al4  1  0.249907  0.249907  0.749901  1
  Al  Al5  1  0.750056  0.750056  0.250160  1
  Re  Re6  1  0.000029  0.000029  0.999976  1
  Re  Re7  1  0.500030  0.500030  0.499932  1
  Re  Re8  1  0.749762  0.249942  0.250002  1
  Re  Re9  1  0.250319  0.750099  0.749888  1
  Re  Re10  1  0.249942  0.749762  0.250002  1
  Re  Re11  1  0.750099  0.250319  0.749888  1
