# generated using pymatgen
data_DyY2Tm5(Si3Rh)4
_symmetry_space_group_name_H-M   'P 1'
_cell_length_a   8.14510200
_cell_length_b   8.13809697
_cell_length_c   7.81690900
_cell_angle_alpha   90.00000000
_cell_angle_beta   90.00000000
_cell_angle_gamma   119.97154899
_symmetry_Int_Tables_number   1
_chemical_formula_structural   DyY2Tm5(Si3Rh)4
_chemical_formula_sum   'Dy1 Y2 Tm5 Si12 Rh4'
_cell_volume   448.85856129
_cell_formula_units_Z   1
loop_
 _symmetry_equiv_pos_site_id
 _symmetry_equiv_pos_as_xyz
  1  'x, y, z'
loop_
 _atom_site_type_symbol
 _atom_site_label
 _atom_site_symmetry_multiplicity
 _atom_site_fract_x
 _atom_site_fract_y
 _atom_site_fract_z
 _atom_site_occupancy
  Dy  Dy0  1  0.018656  0.509328  0.750000  1
  Y  Y1  1  0.000314  0.000157  0.250000  1
  Y  Y2  1  0.999697  0.999849  0.750000  1
  Tm  Tm3  1  0.509000  0.490916  0.250000  1
  Tm  Tm4  1  0.509000  0.018084  0.250000  1
  Tm  Tm5  1  0.981900  0.490950  0.250000  1
  Tm  Tm6  1  0.491511  0.509027  0.750000  1
  Tm  Tm7  1  0.491511  0.982484  0.750000  1
  Si  Si8  1  0.167711  0.832966  0.499330  1
  Si  Si9  1  0.167711  0.334746  0.499330  1
  Si  Si10  1  0.665158  0.832579  0.500272  1
  Si  Si11  1  0.832476  0.167195  0.499250  1
  Si  Si12  1  0.832476  0.665280  0.499250  1
  Si  Si13  1  0.334416  0.167208  0.499463  1
  Si  Si14  1  0.832476  0.167195  0.000750  1
  Si  Si15  1  0.832476  0.665280  0.000750  1
  Si  Si16  1  0.334416  0.167208  0.000537  1
  Si  Si17  1  0.167711  0.832966  0.000670  1
  Si  Si18  1  0.167711  0.334746  0.000670  1
  Si  Si19  1  0.665158  0.832579  0.999728  1
  Rh  Rh20  1  0.334166  0.667084  0.463052  1
  Rh  Rh21  1  0.665092  0.332545  0.533092  1
  Rh  Rh22  1  0.665092  0.332545  0.966908  1
  Rh  Rh23  1  0.334166  0.667084  0.036948  1
