# generated using pymatgen
data_Tb5Dy5Y6Cd4(NiRu)2
_symmetry_space_group_name_H-M   'P 1'
_cell_length_a   9.54479747
_cell_length_b   9.55578658
_cell_length_c   9.55578600
_cell_angle_alpha   60.07605521
_cell_angle_beta   60.03803078
_cell_angle_gamma   60.03803096
_symmetry_Int_Tables_number   1
_chemical_formula_structural   Tb5Dy5Y6Cd4(NiRu)2
_chemical_formula_sum   'Tb5 Dy5 Y6 Cd4 Ni2 Ru2'
_cell_volume   616.99732061
_cell_formula_units_Z   1
loop_
 _symmetry_equiv_pos_site_id
 _symmetry_equiv_pos_as_xyz
  1  'x, y, z'
loop_
 _atom_site_type_symbol
 _atom_site_label
 _atom_site_symmetry_multiplicity
 _atom_site_fract_x
 _atom_site_fract_y
 _atom_site_fract_z
 _atom_site_occupancy
  Tb  Tb0  1  0.597412  0.598964  0.597004  1
  Tb  Tb1  1  0.598725  0.600373  0.204889  1
  Tb  Tb2  1  0.602826  0.202385  0.597550  1
  Tb  Tb3  1  0.205078  0.601307  0.597160  1
  Tb  Tb4  1  0.060516  0.438821  0.438640  1
  Dy  Dy5  1  0.437951  0.061158  0.062520  1
  Dy  Dy6  1  0.439057  0.060267  0.438044  1
  Dy  Dy7  1  0.061310  0.438008  0.061363  1
  Dy  Dy8  1  0.439503  0.437428  0.060900  1
  Dy  Dy9  1  0.061650  0.060788  0.438782  1
  Y  Y10  1  0.187157  0.809401  0.815712  1
  Y  Y11  1  0.808905  0.187825  0.188419  1
  Y  Y12  1  0.808945  0.188258  0.815372  1
  Y  Y13  1  0.186973  0.809427  0.188626  1
  Y  Y14  1  0.814147  0.813752  0.186775  1
  Y  Y15  1  0.188663  0.189838  0.811500  1
  Cd  Cd16  1  0.830505  0.830250  0.830613  1
  Cd  Cd17  1  0.830536  0.830504  0.507546  1
  Cd  Cd18  1  0.831045  0.507086  0.830545  1
  Cd  Cd19  1  0.508028  0.830678  0.830201  1
  Ni  Ni20  1  0.391704  0.825737  0.391096  1
  Ni  Ni21  1  0.824708  0.392037  0.391411  1
  Ru  Ru22  1  0.392527  0.392738  0.390476  1
  Ru  Ru23  1  0.392130  0.392973  0.824854  1
