# generated using pymatgen
data_Sc20CdNi2Ag5
_symmetry_space_group_name_H-M   'P 1'
_cell_length_a   8.84025657
_cell_length_b   8.82157644
_cell_length_c   8.98515900
_cell_angle_alpha   90.00000000
_cell_angle_beta   90.00000000
_cell_angle_gamma   119.93011665
_symmetry_Int_Tables_number   1
_chemical_formula_structural   Sc20CdNi2Ag5
_chemical_formula_sum   'Sc20 Cd1 Ni2 Ag5'
_cell_volume   607.25746965
_cell_formula_units_Z   1
loop_
 _symmetry_equiv_pos_site_id
 _symmetry_equiv_pos_as_xyz
  1  'x, y, z'
loop_
 _atom_site_type_symbol
 _atom_site_label
 _atom_site_symmetry_multiplicity
 _atom_site_fract_x
 _atom_site_fract_y
 _atom_site_fract_z
 _atom_site_occupancy
  Sc  Sc0  1  0.004084  0.002042  0.495336  1
  Sc  Sc1  1  0.004084  0.002042  0.004664  1
  Sc  Sc2  1  0.542570  0.456908  0.250000  1
  Sc  Sc3  1  0.542570  0.085661  0.250000  1
  Sc  Sc4  1  0.914213  0.457106  0.250000  1
  Sc  Sc5  1  0.451545  0.537155  0.750000  1
  Sc  Sc6  1  0.451545  0.914391  0.750000  1
  Sc  Sc7  1  0.085591  0.542796  0.750000  1
  Sc  Sc8  1  0.209666  0.789707  0.440600  1
  Sc  Sc9  1  0.209666  0.419960  0.440600  1
  Sc  Sc10  1  0.579836  0.789918  0.440416  1
  Sc  Sc11  1  0.790486  0.210793  0.558463  1
  Sc  Sc12  1  0.790486  0.579692  0.558463  1
  Sc  Sc13  1  0.420503  0.210251  0.558545  1
  Sc  Sc14  1  0.790486  0.210793  0.941537  1
  Sc  Sc15  1  0.790486  0.579692  0.941537  1
  Sc  Sc16  1  0.420503  0.210251  0.941455  1
  Sc  Sc17  1  0.209666  0.789707  0.059400  1
  Sc  Sc18  1  0.209666  0.419960  0.059400  1
  Sc  Sc19  1  0.579836  0.789918  0.059584  1
  Cd  Cd20  1  0.770806  0.885402  0.750000  1
  Ni  Ni21  1  0.333511  0.666756  0.250000  1
  Ni  Ni22  1  0.666603  0.333301  0.750000  1
  Ag  Ag23  1  0.883447  0.116277  0.250000  1
  Ag  Ag24  1  0.883447  0.767171  0.250000  1
  Ag  Ag25  1  0.233656  0.116829  0.250000  1
  Ag  Ag26  1  0.115521  0.884420  0.750000  1
  Ag  Ag27  1  0.115521  0.231100  0.750000  1
