# generated using pymatgen
data_YbHf4Co16(P4W)3
_symmetry_space_group_name_H-M   'P 1'
_cell_length_a   11.87712900
_cell_length_b   11.87712924
_cell_length_c   3.64567700
_cell_angle_alpha   90.00000000
_cell_angle_beta   90.00000000
_cell_angle_gamma   119.99999656
_symmetry_Int_Tables_number   1
_chemical_formula_structural   YbHf4Co16(P4W)3
_chemical_formula_sum   'Yb1 Hf4 Co16 P12 W3'
_cell_volume   445.38110734
_cell_formula_units_Z   1
loop_
 _symmetry_equiv_pos_site_id
 _symmetry_equiv_pos_as_xyz
  1  'x, y, z'
loop_
 _atom_site_type_symbol
 _atom_site_label
 _atom_site_symmetry_multiplicity
 _atom_site_fract_x
 _atom_site_fract_y
 _atom_site_fract_z
 _atom_site_occupancy
  Yb  Yb0  1  0.333333  0.666667  0.000000  1
  Hf  Hf1  1  0.666667  0.333333  0.000000  1
  Hf  Hf2  1  0.821176  0.821662  0.500000  1
  Hf  Hf3  1  0.178338  0.999514  0.500000  1
  Hf  Hf4  1  0.000486  0.178824  0.500000  1
  Co  Co5  1  0.193788  0.366731  0.000000  1
  Co  Co6  1  0.172943  0.806212  0.000000  1
  Co  Co7  1  0.821718  0.628062  0.000000  1
  Co  Co8  1  0.806344  0.178282  0.000000  1
  Co  Co9  1  0.371938  0.193656  0.000000  1
  Co  Co10  1  0.125029  0.477292  0.500000  1
  Co  Co11  1  0.352263  0.874971  0.500000  1
  Co  Co12  1  0.522708  0.647737  0.500000  1
  Co  Co13  1  0.646658  0.515173  0.500000  1
  Co  Co14  1  0.868515  0.353342  0.500000  1
  Co  Co15  1  0.484827  0.131485  0.500000  1
  Co  Co16  1  0.000000  0.000000  0.000000  1
  Co  Co17  1  0.721854  0.002463  0.500000  1
  Co  Co18  1  0.997537  0.719390  0.500000  1
  Co  Co19  1  0.633269  0.827057  0.000000  1
  Co  Co20  1  0.280610  0.278146  0.500000  1
  P  P21  1  0.644651  0.646376  0.000000  1
  P  P22  1  0.353624  0.998276  0.000000  1
  P  P23  1  0.001724  0.355349  0.000000  1
  P  P24  1  0.482770  0.314663  0.500000  1
  P  P25  1  0.685337  0.168107  0.500000  1
  P  P26  1  0.831893  0.517230  0.500000  1
  P  P27  1  0.519191  0.834975  0.500000  1
  P  P28  1  0.165025  0.684216  0.500000  1
  P  P29  1  0.826909  0.001791  0.000000  1
  P  P30  1  0.998209  0.825117  0.000000  1
  P  P31  1  0.315784  0.480809  0.500000  1
  P  P32  1  0.174883  0.173091  0.000000  1
  W  W33  1  0.448552  0.447862  0.000000  1
  W  W34  1  0.552138  0.000690  0.000000  1
  W  W35  1  0.999310  0.551448  0.000000  1
