# generated using pymatgen
data_LaSm3(Ni7P4)2
_symmetry_space_group_name_H-M   'P 1'
_cell_length_a   3.77005600
_cell_length_b   9.26622197
_cell_length_c   10.46106531
_cell_angle_alpha   89.91089004
_cell_angle_beta   90.00000000
_cell_angle_gamma   90.00000000
_symmetry_Int_Tables_number   1
_chemical_formula_structural   LaSm3(Ni7P4)2
_chemical_formula_sum   'La1 Sm3 Ni14 P8'
_cell_volume   365.44825182
_cell_formula_units_Z   1
loop_
 _symmetry_equiv_pos_site_id
 _symmetry_equiv_pos_as_xyz
  1  'x, y, z'
loop_
 _atom_site_type_symbol
 _atom_site_label
 _atom_site_symmetry_multiplicity
 _atom_site_fract_x
 _atom_site_fract_y
 _atom_site_fract_z
 _atom_site_occupancy
  La  La0  1  0.500000  0.437811  0.500066  1
  Sm  Sm1  1  0.500000  0.059337  0.281981  1
  Sm  Sm2  1  0.000000  0.941079  0.783648  1
  Sm  Sm3  1  0.000000  0.565747  0.999574  1
  Ni  Ni4  1  0.500000  0.304502  0.073374  1
  Ni  Ni5  1  0.500000  0.749543  0.402324  1
  Ni  Ni6  1  0.500000  0.417426  0.808028  1
  Ni  Ni7  1  0.500000  0.058345  0.978754  1
  Ni  Ni8  1  0.500000  0.684960  0.765452  1
  Ni  Ni9  1  0.000000  0.271302  0.671728  1
  Ni  Ni10  1  0.000000  0.253988  0.903780  1
  Ni  Ni11  1  0.000000  0.697885  0.579989  1
  Ni  Ni12  1  0.500000  0.093374  0.586466  1
  Ni  Ni13  1  0.000000  0.315190  0.259848  1
  Ni  Ni14  1  0.000000  0.583994  0.298125  1
  Ni  Ni15  1  0.000000  0.903671  0.085390  1
  Ni  Ni16  1  0.000000  0.939200  0.478163  1
  Ni  Ni17  1  0.500000  0.726215  0.169679  1
  P  P18  1  0.000000  0.818323  0.287661  1
  P  P19  1  0.000000  0.183261  0.468826  1
  P  P20  1  0.500000  0.182635  0.788815  1
  P  P21  1  0.000000  0.155300  0.090476  1
  P  P22  1  0.500000  0.478196  0.212590  1
  P  P23  1  0.500000  0.812968  0.967745  1
  P  P24  1  0.500000  0.842748  0.591786  1
  P  P25  1  0.000000  0.523004  0.721132  1
