# generated using pymatgen
data_Tm2Lu4FeCoSi6
_symmetry_space_group_name_H-M   'P 1'
_cell_length_a   5.53010165
_cell_length_b   5.53010231
_cell_length_c   13.23159336
_cell_angle_alpha   70.47915809
_cell_angle_beta   70.47915734
_cell_angle_gamma   43.64367645
_symmetry_Int_Tables_number   1
_chemical_formula_structural   Tm2Lu4FeCoSi6
_chemical_formula_sum   'Tm2 Lu4 Fe1 Co1 Si6'
_cell_volume   260.55852871
_cell_formula_units_Z   1
loop_
 _symmetry_equiv_pos_site_id
 _symmetry_equiv_pos_as_xyz
  1  'x, y, z'
loop_
 _atom_site_type_symbol
 _atom_site_label
 _atom_site_symmetry_multiplicity
 _atom_site_fract_x
 _atom_site_fract_y
 _atom_site_fract_z
 _atom_site_occupancy
  Tm  Tm0  1  0.398925  0.398925  0.919418  1
  Tm  Tm1  1  0.600369  0.600369  0.081833  1
  Lu  Lu2  1  0.747604  0.747604  0.770849  1
  Lu  Lu3  1  0.251701  0.251701  0.229019  1
  Lu  Lu4  1  0.524801  0.524801  0.620461  1
  Lu  Lu5  1  0.476885  0.476885  0.379165  1
  Fe  Fe6  1  0.247863  0.247863  0.582833  1
  Co  Co7  1  0.752468  0.752468  0.415709  1
  Si  Si8  1  0.139090  0.139090  0.456472  1
  Si  Si9  1  0.859024  0.859024  0.543953  1
  Si  Si10  1  0.116082  0.116082  0.924309  1
  Si  Si11  1  0.883697  0.883697  0.076125  1
  Si  Si12  1  0.053635  0.053635  0.757531  1
  Si  Si13  1  0.947855  0.947855  0.242323  1
