# generated using pymatgen
data_Ho6Al25Os7
_symmetry_space_group_name_H-M   'P 1'
_cell_length_a   8.85225538
_cell_length_b   8.85225474
_cell_length_c   9.54052908
_cell_angle_alpha   90.14764190
_cell_angle_beta   89.85235951
_cell_angle_gamma   119.94981041
_symmetry_Int_Tables_number   1
_chemical_formula_structural   Ho6Al25Os7
_chemical_formula_sum   'Ho6 Al25 Os7'
_cell_volume   647.78132680
_cell_formula_units_Z   1
loop_
 _symmetry_equiv_pos_site_id
 _symmetry_equiv_pos_as_xyz
  1  'x, y, z'
loop_
 _atom_site_type_symbol
 _atom_site_label
 _atom_site_symmetry_multiplicity
 _atom_site_fract_x
 _atom_site_fract_y
 _atom_site_fract_z
 _atom_site_occupancy
  Ho  Ho0  1  0.191935  0.386007  0.246161  1
  Ho  Ho1  1  0.808065  0.613993  0.753839  1
  Ho  Ho2  1  0.613993  0.808065  0.246161  1
  Ho  Ho3  1  0.386007  0.191935  0.753839  1
  Ho  Ho4  1  0.194555  0.805445  0.255403  1
  Ho  Ho5  1  0.805445  0.194555  0.744597  1
  Al  Al6  1  0.327225  0.672775  0.022978  1
  Al  Al7  1  0.672775  0.327225  0.977022  1
  Al  Al8  1  0.666075  0.333925  0.518713  1
  Al  Al9  1  0.333925  0.666075  0.481287  1
  Al  Al10  1  0.162474  0.325576  0.571914  1
  Al  Al11  1  0.837526  0.674424  0.428086  1
  Al  Al12  1  0.674424  0.837526  0.571914  1
  Al  Al13  1  0.851729  0.678264  0.082113  1
  Al  Al14  1  0.325576  0.162474  0.428086  1
  Al  Al15  1  0.148271  0.321736  0.917887  1
  Al  Al16  1  0.162926  0.837074  0.576182  1
  Al  Al17  1  0.321736  0.148271  0.082113  1
  Al  Al18  1  0.837074  0.162926  0.423818  1
  Al  Al19  1  0.678264  0.851729  0.917887  1
  Al  Al20  1  0.836835  0.163165  0.077289  1
  Al  Al21  1  0.163165  0.836835  0.922711  1
  Al  Al22  1  0.562120  0.121186  0.249644  1
  Al  Al23  1  0.437880  0.878814  0.750356  1
  Al  Al24  1  0.878814  0.437880  0.249644  1
  Al  Al25  1  0.121186  0.562120  0.750356  1
  Al  Al26  1  0.565229  0.434771  0.258214  1
  Al  Al27  1  0.434771  0.565229  0.741786  1
  Al  Al28  1  0.998924  0.001076  0.250751  1
  Al  Al29  1  0.001076  0.998924  0.749249  1
  Al  Al30  1  0.500000  0.500000  0.000000  1
  Os  Os31  1  0.500000  0.000000  0.000000  1
  Os  Os32  1  0.000000  0.500000  0.000000  1
  Os  Os33  1  0.500000  0.000000  0.500000  1
  Os  Os34  1  0.000000  0.500000  0.500000  1
  Os  Os35  1  0.500000  0.500000  0.500000  1
  Os  Os36  1  0.000000  0.000000  0.000000  1
  Os  Os37  1  0.000000  0.000000  0.500000  1
