# generated using pymatgen
data_Er4Pa(FeB3)2
_symmetry_space_group_name_H-M   'P 1'
_cell_length_a   5.40795197
_cell_length_b   5.40795058
_cell_length_c   7.87596165
_cell_angle_alpha   69.92071916
_cell_angle_beta   69.92072752
_cell_angle_gamma   59.99998009
_symmetry_Int_Tables_number   1
_chemical_formula_structural   Er4Pa(FeB3)2
_chemical_formula_sum   'Er4 Pa1 Fe2 B6'
_cell_volume   183.13557898
_cell_formula_units_Z   1
loop_
 _symmetry_equiv_pos_site_id
 _symmetry_equiv_pos_as_xyz
  1  'x, y, z'
loop_
 _atom_site_type_symbol
 _atom_site_label
 _atom_site_symmetry_multiplicity
 _atom_site_fract_x
 _atom_site_fract_y
 _atom_site_fract_z
 _atom_site_occupancy
  Er  Er0  1  0.253987  0.253987  0.238042  1
  Er  Er1  1  0.746013  0.746013  0.761958  1
  Er  Er2  1  0.413094  0.413094  0.760716  1
  Er  Er3  1  0.586906  0.586906  0.239284  1
  Pa  Pa4  1  0.000000  0.000000  0.000000  1
  Fe  Fe5  1  0.108007  0.108007  0.675981  1
  Fe  Fe6  1  0.891993  0.891993  0.324019  1
  B  B7  1  0.167492  0.832508  0.500000  1
  B  B8  1  0.832508  0.500000  0.500000  1
  B  B9  1  0.500000  0.167492  0.500000  1
  B  B10  1  0.167492  0.500000  0.500000  1
  B  B11  1  0.500000  0.832508  0.500000  1
  B  B12  1  0.832508  0.167492  0.500000  1
