# generated using pymatgen
data_Ge2BF7
_symmetry_space_group_name_H-M   'P 1'
_cell_length_a   5.45317522
_cell_length_b   5.58364287
_cell_length_c   6.53089718
_cell_angle_alpha   91.32502197
_cell_angle_beta   90.03061108
_cell_angle_gamma   121.45290265
_symmetry_Int_Tables_number   1
_chemical_formula_structural   Ge2BF7
_chemical_formula_sum   'Ge2 B1 F7'
_cell_volume   169.57457349
_cell_formula_units_Z   1
loop_
 _symmetry_equiv_pos_site_id
 _symmetry_equiv_pos_as_xyz
  1  'x, y, z'
loop_
 _atom_site_type_symbol
 _atom_site_label
 _atom_site_symmetry_multiplicity
 _atom_site_fract_x
 _atom_site_fract_y
 _atom_site_fract_z
 _atom_site_occupancy
  Ge  Ge0  1  0.098520  0.273111  0.114322  1
  Ge  Ge1  1  0.763955  0.584295  0.751001  1
  B  B2  1  0.464635  0.933747  0.453514  1
  F  F3  1  0.183007  0.695709  0.441078  1
  F  F4  1  0.389477  0.436892  0.889211  1
  F  F5  1  0.496791  0.081696  0.643812  1
  F  F6  1  0.908465  0.443486  0.974423  1
  F  F7  1  0.891298  0.934604  0.946260  1
  F  F8  1  0.516159  0.112187  0.288655  1
  F  F9  1  0.667250  0.846435  0.449623  1
