# generated using pymatgen
data_Zr3Sc3(Ti2Sn3)2
_symmetry_space_group_name_H-M   'P 1'
_cell_length_a   8.35411100
_cell_length_b   8.34870963
_cell_length_c   5.66613200
_cell_angle_alpha   90.00000000
_cell_angle_beta   90.00000000
_cell_angle_gamma   120.02139997
_symmetry_Int_Tables_number   1
_chemical_formula_structural   Zr3Sc3(Ti2Sn3)2
_chemical_formula_sum   'Zr3 Sc3 Ti4 Sn6'
_cell_volume   342.17102073
_cell_formula_units_Z   1
loop_
 _symmetry_equiv_pos_site_id
 _symmetry_equiv_pos_as_xyz
  1  'x, y, z'
loop_
 _atom_site_type_symbol
 _atom_site_label
 _atom_site_symmetry_multiplicity
 _atom_site_fract_x
 _atom_site_fract_y
 _atom_site_fract_z
 _atom_site_occupancy
  Zr  Zr0  1  0.998015  0.239340  0.250000  1
  Zr  Zr1  1  0.758675  0.760660  0.250000  1
  Zr  Zr2  1  0.758771  0.000000  0.750000  1
  Sc  Sc3  1  0.239573  0.000000  0.250000  1
  Sc  Sc4  1  0.238945  0.241328  0.750000  1
  Sc  Sc5  1  0.997617  0.758672  0.750000  1
  Ti  Ti6  1  0.335541  0.666562  0.000645  1
  Ti  Ti7  1  0.668980  0.333438  0.499355  1
  Ti  Ti8  1  0.668980  0.333438  0.000645  1
  Ti  Ti9  1  0.335541  0.666562  0.499355  1
  Sn  Sn10  1  0.598450  0.000000  0.250000  1
  Sn  Sn11  1  0.600764  0.599024  0.750000  1
  Sn  Sn12  1  0.001740  0.400976  0.750000  1
  Sn  Sn13  1  0.001473  0.602414  0.250000  1
  Sn  Sn14  1  0.399059  0.397586  0.250000  1
  Sn  Sn15  1  0.397876  0.000000  0.750000  1
