# generated using pymatgen
data_Ca4YbIr2
_symmetry_space_group_name_H-M   'P 1'
_cell_length_a   8.50387542
_cell_length_b   8.50387549
_cell_length_c   7.66206802
_cell_angle_alpha   82.61312499
_cell_angle_beta   82.61311923
_cell_angle_gamma   44.32254684
_symmetry_Int_Tables_number   1
_chemical_formula_structural   Ca4YbIr2
_chemical_formula_sum   'Ca8 Yb2 Ir4'
_cell_volume   383.39182340
_cell_formula_units_Z   2
loop_
 _symmetry_equiv_pos_site_id
 _symmetry_equiv_pos_as_xyz
  1  'x, y, z'
loop_
 _atom_site_type_symbol
 _atom_site_label
 _atom_site_symmetry_multiplicity
 _atom_site_fract_x
 _atom_site_fract_y
 _atom_site_fract_z
 _atom_site_occupancy
  Ca  Ca0  1  0.032011  0.794664  0.919611  1
  Ca  Ca1  1  0.205336  0.967989  0.580389  1
  Ca  Ca2  1  0.967989  0.205336  0.080389  1
  Ca  Ca3  1  0.794664  0.032011  0.419611  1
  Ca  Ca4  1  0.366227  0.198420  0.823211  1
  Ca  Ca5  1  0.801580  0.633773  0.676789  1
  Ca  Ca6  1  0.633773  0.801580  0.176789  1
  Ca  Ca7  1  0.198420  0.366227  0.323211  1
  Yb  Yb8  1  0.575044  0.424956  0.750000  1
  Yb  Yb9  1  0.424956  0.575044  0.250000  1
  Ir  Ir10  1  0.183997  0.599276  0.581650  1
  Ir  Ir11  1  0.400724  0.816003  0.918350  1
  Ir  Ir12  1  0.816003  0.400724  0.418350  1
  Ir  Ir13  1  0.599276  0.183997  0.081650  1
