# generated using pymatgen
data_LuSi(GeRh2)3
_symmetry_space_group_name_H-M   'P 1'
_cell_length_a   7.17485300
_cell_length_b   7.17485501
_cell_length_c   3.80953000
_cell_angle_alpha   90.00000000
_cell_angle_beta   90.00000000
_cell_angle_gamma   119.99999534
_symmetry_Int_Tables_number   1
_chemical_formula_structural   LuSi(GeRh2)3
_chemical_formula_sum   'Lu1 Si1 Ge3 Rh6'
_cell_volume   169.83538770
_cell_formula_units_Z   1
loop_
 _symmetry_equiv_pos_site_id
 _symmetry_equiv_pos_as_xyz
  1  'x, y, z'
loop_
 _atom_site_type_symbol
 _atom_site_label
 _atom_site_symmetry_multiplicity
 _atom_site_fract_x
 _atom_site_fract_y
 _atom_site_fract_z
 _atom_site_occupancy
  Lu  Lu0  1  0.333333  0.666667  0.000000  1
  Si  Si1  1  0.666667  0.333333  0.000000  1
  Ge  Ge2  1  0.725212  0.862606  0.500000  1
  Ge  Ge3  1  0.137394  0.274788  0.500000  1
  Ge  Ge4  1  0.137394  0.862606  0.500000  1
  Rh  Rh5  1  0.271831  0.135915  0.000000  1
  Rh  Rh6  1  0.864085  0.728169  0.000000  1
  Rh  Rh7  1  0.864085  0.135915  0.000000  1
  Rh  Rh8  1  0.931247  0.465623  0.500000  1
  Rh  Rh9  1  0.534377  0.068753  0.500000  1
  Rh  Rh10  1  0.534377  0.465623  0.500000  1
