# generated using pymatgen
data_Nd5Tl2Os
_symmetry_space_group_name_H-M   'P 1'
_cell_length_a   12.32885200
_cell_length_b   12.32885200
_cell_length_c   6.33040900
_cell_angle_alpha   90.00000000
_cell_angle_beta   90.00000000
_cell_angle_gamma   90.00000000
_symmetry_Int_Tables_number   1
_chemical_formula_structural   Nd5Tl2Os
_chemical_formula_sum   'Nd20 Tl8 Os4'
_cell_volume   962.22591331
_cell_formula_units_Z   4
loop_
 _symmetry_equiv_pos_site_id
 _symmetry_equiv_pos_as_xyz
  1  'x, y, z'
loop_
 _atom_site_type_symbol
 _atom_site_label
 _atom_site_symmetry_multiplicity
 _atom_site_fract_x
 _atom_site_fract_y
 _atom_site_fract_z
 _atom_site_occupancy
  Nd  Nd0  1  0.075633  0.304523  0.212998  1
  Nd  Nd1  1  0.804523  0.424367  0.212998  1
  Nd  Nd2  1  0.195477  0.575633  0.212998  1
  Nd  Nd3  1  0.924367  0.695477  0.212998  1
  Nd  Nd4  1  0.424367  0.804523  0.287002  1
  Nd  Nd5  1  0.575633  0.195477  0.287002  1
  Nd  Nd6  1  0.304523  0.075633  0.287002  1
  Nd  Nd7  1  0.695477  0.924367  0.287002  1
  Nd  Nd8  1  0.424367  0.195477  0.787002  1
  Nd  Nd9  1  0.695477  0.075633  0.787002  1
  Nd  Nd10  1  0.304523  0.924367  0.787002  1
  Nd  Nd11  1  0.575633  0.804523  0.787002  1
  Nd  Nd12  1  0.075633  0.695477  0.712998  1
  Nd  Nd13  1  0.924367  0.304523  0.712998  1
  Nd  Nd14  1  0.195477  0.424367  0.712998  1
  Nd  Nd15  1  0.804523  0.575633  0.712998  1
  Nd  Nd16  1  0.000000  0.000000  0.000000  1
  Nd  Nd17  1  0.500000  0.500000  0.000000  1
  Nd  Nd18  1  0.500000  0.500000  0.500000  1
  Nd  Nd19  1  0.000000  0.000000  0.500000  1
  Tl  Tl20  1  0.161907  0.838093  0.250000  1
  Tl  Tl21  1  0.338093  0.338093  0.250000  1
  Tl  Tl22  1  0.661907  0.661907  0.250000  1
  Tl  Tl23  1  0.838093  0.161907  0.250000  1
  Tl  Tl24  1  0.338093  0.661907  0.750000  1
  Tl  Tl25  1  0.161907  0.161907  0.750000  1
  Tl  Tl26  1  0.838093  0.838093  0.750000  1
  Tl  Tl27  1  0.661907  0.338093  0.750000  1
  Os  Os28  1  0.000000  0.500000  0.460750  1
  Os  Os29  1  0.500000  0.000000  0.039250  1
  Os  Os30  1  0.500000  0.000000  0.539250  1
  Os  Os31  1  0.000000  0.500000  0.960750  1
