# generated using pymatgen
data_Tb3Ag2Hg3Ir
_symmetry_space_group_name_H-M   'P 1'
_cell_length_a   8.03315500
_cell_length_b   8.03315635
_cell_length_c   3.70065200
_cell_angle_alpha   90.00000000
_cell_angle_beta   90.00000000
_cell_angle_gamma   120.00000678
_symmetry_Int_Tables_number   1
_chemical_formula_structural   Tb3Ag2Hg3Ir
_chemical_formula_sum   'Tb3 Ag2 Hg3 Ir1'
_cell_volume   206.81461022
_cell_formula_units_Z   1
loop_
 _symmetry_equiv_pos_site_id
 _symmetry_equiv_pos_as_xyz
  1  'x, y, z'
loop_
 _atom_site_type_symbol
 _atom_site_label
 _atom_site_symmetry_multiplicity
 _atom_site_fract_x
 _atom_site_fract_y
 _atom_site_fract_z
 _atom_site_occupancy
  Tb  Tb0  1  0.417351  0.381870  0.000000  1
  Tb  Tb1  1  0.618130  0.035481  0.000000  1
  Tb  Tb2  1  0.964519  0.582649  0.000000  1
  Ag  Ag3  1  0.000000  0.000000  0.000000  1
  Ag  Ag4  1  0.333333  0.666667  0.500000  1
  Hg  Hg5  1  0.011853  0.281780  0.500000  1
  Hg  Hg6  1  0.718220  0.730073  0.500000  1
  Hg  Hg7  1  0.269927  0.988147  0.500000  1
  Ir  Ir8  1  0.666667  0.333333  0.500000  1
