# generated using pymatgen
data_Ba3Al10PdO20
_symmetry_space_group_name_H-M   'P 1'
_cell_length_a   9.74635669
_cell_length_b   9.74635727
_cell_length_c   5.09095021
_cell_angle_alpha   75.59829292
_cell_angle_beta   75.59829779
_cell_angle_gamma   71.96082185
_symmetry_Int_Tables_number   1
_chemical_formula_structural   Ba3Al10PdO20
_chemical_formula_sum   'Ba3 Al10 Pd1 O20'
_cell_volume   437.56748179
_cell_formula_units_Z   1
loop_
 _symmetry_equiv_pos_site_id
 _symmetry_equiv_pos_as_xyz
  1  'x, y, z'
loop_
 _atom_site_type_symbol
 _atom_site_label
 _atom_site_symmetry_multiplicity
 _atom_site_fract_x
 _atom_site_fract_y
 _atom_site_fract_z
 _atom_site_occupancy
  Ba  Ba0  1  0.000000  0.000000  0.000000  1
  Ba  Ba1  1  0.277296  0.277296  0.745767  1
  Ba  Ba2  1  0.722704  0.722704  0.254233  1
  Al  Al3  1  0.848914  0.422849  0.834991  1
  Al  Al4  1  0.577151  0.151086  0.165009  1
  Al  Al5  1  0.151086  0.577151  0.165009  1
  Al  Al6  1  0.422849  0.848914  0.834991  1
  Al  Al7  1  0.365066  0.634934  0.500000  1
  Al  Al8  1  0.634934  0.365066  0.500000  1
  Al  Al9  1  0.992632  0.712830  0.661132  1
  Al  Al10  1  0.287170  0.007368  0.338868  1
  Al  Al11  1  0.007368  0.287170  0.338868  1
  Al  Al12  1  0.712830  0.992632  0.661132  1
  Pd  Pd13  1  0.500000  0.500000  0.000000  1
  O  O14  1  0.554919  0.304066  0.880894  1
  O  O15  1  0.695934  0.445081  0.119106  1
  O  O16  1  0.445081  0.695934  0.119106  1
  O  O17  1  0.304066  0.554919  0.880894  1
  O  O18  1  0.709968  0.013889  0.998774  1
  O  O19  1  0.986111  0.290032  0.001226  1
  O  O20  1  0.290032  0.986111  0.001226  1
  O  O21  1  0.013889  0.709968  0.998774  1
  O  O22  1  0.436101  0.436101  0.405165  1
  O  O23  1  0.563899  0.563899  0.594835  1
  O  O24  1  0.893407  0.893407  0.534211  1
  O  O25  1  0.106593  0.106593  0.465789  1
  O  O26  1  0.881940  0.595227  0.692378  1
  O  O27  1  0.404773  0.118060  0.307622  1
  O  O28  1  0.118060  0.404773  0.307622  1
  O  O29  1  0.595227  0.881940  0.692378  1
  O  O30  1  0.169264  0.658767  0.434601  1
  O  O31  1  0.341233  0.830736  0.565399  1
  O  O32  1  0.830736  0.341233  0.565399  1
  O  O33  1  0.658767  0.169264  0.434601  1
