# generated using pymatgen
data_Nd10Sn20Pd5Rh3
_symmetry_space_group_name_H-M   'P 1'
_cell_length_a   14.28345688
_cell_length_b   14.30003631
_cell_length_c   4.64379000
_cell_angle_alpha   90.00000000
_cell_angle_beta   90.00000000
_cell_angle_gamma   90.00438799
_symmetry_Int_Tables_number   1
_chemical_formula_structural   Nd10Sn20Pd5Rh3
_chemical_formula_sum   'Nd10 Sn20 Pd5 Rh3'
_cell_volume   948.51245746
_cell_formula_units_Z   1
loop_
 _symmetry_equiv_pos_site_id
 _symmetry_equiv_pos_as_xyz
  1  'x, y, z'
loop_
 _atom_site_type_symbol
 _atom_site_label
 _atom_site_symmetry_multiplicity
 _atom_site_fract_x
 _atom_site_fract_y
 _atom_site_fract_z
 _atom_site_occupancy
  Nd  Nd0  1  0.501500  0.497201  0.000000  1
  Nd  Nd1  1  0.000911  0.999406  0.000000  1
  Nd  Nd2  1  0.679108  0.181956  0.500000  1
  Nd  Nd3  1  0.319138  0.819819  0.500000  1
  Nd  Nd4  1  0.178210  0.318364  0.500000  1
  Nd  Nd5  1  0.820909  0.680633  0.500000  1
  Nd  Nd6  1  0.894006  0.391892  0.500000  1
  Nd  Nd7  1  0.105464  0.608902  0.500000  1
  Nd  Nd8  1  0.393288  0.109259  0.500000  1
  Nd  Nd9  1  0.607750  0.892443  0.500000  1
  Sn  Sn10  1  0.567779  0.072675  0.000000  1
  Sn  Sn11  1  0.432134  0.932121  0.000000  1
  Sn  Sn12  1  0.067550  0.428508  0.000000  1
  Sn  Sn13  1  0.932674  0.571655  0.000000  1
  Sn  Sn14  1  0.652022  0.702587  0.000000  1
  Sn  Sn15  1  0.348861  0.295532  0.000000  1
  Sn  Sn16  1  0.149430  0.796270  0.000000  1
  Sn  Sn17  1  0.849828  0.203672  0.000000  1
  Sn  Sn18  1  0.297485  0.651366  0.000000  1
  Sn  Sn19  1  0.700193  0.348124  0.000000  1
  Sn  Sn20  1  0.199341  0.151319  0.000000  1
  Sn  Sn21  1  0.800630  0.849280  0.000000  1
  Sn  Sn22  1  0.663350  0.500511  0.500000  1
  Sn  Sn23  1  0.338173  0.495350  0.500000  1
  Sn  Sn24  1  0.162034  0.997266  0.500000  1
  Sn  Sn25  1  0.838302  0.004635  0.500000  1
  Sn  Sn26  1  0.497589  0.661230  0.500000  1
  Sn  Sn27  1  0.503911  0.336246  0.500000  1
  Sn  Sn28  1  0.004871  0.162803  0.500000  1
  Sn  Sn29  1  0.994368  0.836765  0.500000  1
  Pd  Pd30  1  0.745724  0.532842  0.000000  1
  Pd  Pd31  1  0.254849  0.466781  0.000000  1
  Pd  Pd32  1  0.244922  0.966327  0.000000  1
  Pd  Pd33  1  0.754508  0.033146  0.000000  1
  Pd  Pd34  1  0.466930  0.745303  0.000000  1
  Rh  Rh35  1  0.532861  0.257774  0.000000  1
  Rh  Rh36  1  0.032807  0.243112  0.000000  1
  Rh  Rh37  1  0.966584  0.756925  0.000000  1
