# generated using pymatgen
data_Y3Sn2HgRh3
_symmetry_space_group_name_H-M   'P 1'
_cell_length_a   7.72755000
_cell_length_b   7.59785138
_cell_length_c   3.83033100
_cell_angle_alpha   90.00000000
_cell_angle_beta   90.00000000
_cell_angle_gamma   120.56631046
_symmetry_Int_Tables_number   1
_chemical_formula_structural   Y3Sn2HgRh3
_chemical_formula_sum   'Y3 Sn2 Hg1 Rh3'
_cell_volume   193.63900894
_cell_formula_units_Z   1
loop_
 _symmetry_equiv_pos_site_id
 _symmetry_equiv_pos_as_xyz
  1  'x, y, z'
loop_
 _atom_site_type_symbol
 _atom_site_label
 _atom_site_symmetry_multiplicity
 _atom_site_fract_x
 _atom_site_fract_y
 _atom_site_fract_z
 _atom_site_occupancy
  Y  Y0  1  0.406614  0.000000  0.500000  1
  Y  Y1  1  0.001192  0.399498  0.500000  1
  Y  Y2  1  0.601694  0.600502  0.500000  1
  Sn  Sn3  1  0.003714  0.739281  0.000000  1
  Sn  Sn4  1  0.264433  0.260719  0.000000  1
  Hg  Hg5  1  0.731246  0.000000  0.000000  1
  Rh  Rh6  1  0.315803  0.654044  0.000000  1
  Rh  Rh7  1  0.661760  0.345956  0.000000  1
  Rh  Rh8  1  0.013544  0.000000  0.500000  1
