# generated using pymatgen
data_Tb3P6PbN13
_symmetry_space_group_name_H-M   'P 1'
_cell_length_a   7.35863454
_cell_length_b   7.33150421
_cell_length_c   7.33150500
_cell_angle_alpha   109.39614122
_cell_angle_beta   109.54620726
_cell_angle_gamma   109.54619740
_symmetry_Int_Tables_number   1
_chemical_formula_structural   Tb3P6PbN13
_chemical_formula_sum   'Tb3 P6 Pb1 N13'
_cell_volume   304.19972108
_cell_formula_units_Z   1
loop_
 _symmetry_equiv_pos_site_id
 _symmetry_equiv_pos_as_xyz
  1  'x, y, z'
loop_
 _atom_site_type_symbol
 _atom_site_label
 _atom_site_symmetry_multiplicity
 _atom_site_fract_x
 _atom_site_fract_y
 _atom_site_fract_z
 _atom_site_occupancy
  Tb  Tb0  1  0.012420  0.000000  0.682989  1
  Tb  Tb1  1  0.012420  0.682989  0.000000  1
  Tb  Tb2  1  0.329432  0.317011  0.317011  1
  P  P3  1  0.243668  0.751960  0.508587  1
  P  P4  1  0.735081  0.243373  0.491413  1
  P  P5  1  0.735081  0.491413  0.243373  1
  P  P6  1  0.243668  0.508587  0.751960  1
  P  P7  1  0.491709  0.756627  0.248040  1
  P  P8  1  0.491709  0.248040  0.756627  1
  Pb  Pb9  1  0.782318  0.000000  0.000000  1
  N  N10  1  0.111269  0.000000  0.000000  1
  N  N11  1  0.662162  0.281574  0.281574  1
  N  N12  1  0.286213  0.715850  0.299516  1
  N  N13  1  0.283878  0.575150  0.575150  1
  N  N14  1  0.570365  0.583666  0.284150  1
  N  N15  1  0.380588  0.718426  0.000000  1
  N  N16  1  0.986698  0.700484  0.416334  1
  N  N17  1  0.570365  0.284150  0.583666  1
  N  N18  1  0.708728  0.000000  0.424850  1
  N  N19  1  0.380588  0.000000  0.718426  1
  N  N20  1  0.708728  0.424850  0.000000  1
  N  N21  1  0.286213  0.299516  0.715850  1
  N  N22  1  0.986698  0.416334  0.700484  1
