# generated using pymatgen
data_Hf4Mn3Si4Au
_symmetry_space_group_name_H-M   'P 1'
_cell_length_a   3.77899100
_cell_length_b   6.56149112
_cell_length_c   7.62703463
_cell_angle_alpha   89.59928273
_cell_angle_beta   90.00000000
_cell_angle_gamma   90.00000000
_symmetry_Int_Tables_number   1
_chemical_formula_structural   Hf4Mn3Si4Au
_chemical_formula_sum   'Hf4 Mn3 Si4 Au1'
_cell_volume   189.11392127
_cell_formula_units_Z   1
loop_
 _symmetry_equiv_pos_site_id
 _symmetry_equiv_pos_as_xyz
  1  'x, y, z'
loop_
 _atom_site_type_symbol
 _atom_site_label
 _atom_site_symmetry_multiplicity
 _atom_site_fract_x
 _atom_site_fract_y
 _atom_site_fract_z
 _atom_site_occupancy
  Hf  Hf0  1  0.250000  0.967463  0.319037  1
  Hf  Hf1  1  0.250000  0.477332  0.173513  1
  Hf  Hf2  1  0.750000  0.020281  0.684351  1
  Hf  Hf3  1  0.750000  0.531530  0.829884  1
  Mn  Mn4  1  0.250000  0.861237  0.936132  1
  Mn  Mn5  1  0.750000  0.649432  0.436002  1
  Mn  Mn6  1  0.750000  0.138030  0.059414  1
  Si  Si7  1  0.250000  0.738838  0.630518  1
  Si  Si8  1  0.250000  0.225878  0.888206  1
  Si  Si9  1  0.750000  0.264867  0.358783  1
  Si  Si10  1  0.750000  0.772432  0.120265  1
  Au  Au11  1  0.250000  0.352679  0.563896  1
