# generated using pymatgen
data_KHo10(C2Br9)2
_symmetry_space_group_name_H-M   'P 1'
_cell_length_a   10.59369808
_cell_length_b   10.68007738
_cell_length_c   10.79956500
_cell_angle_alpha   113.44641437
_cell_angle_beta   87.53355120
_cell_angle_gamma   118.82552655
_symmetry_Int_Tables_number   1
_chemical_formula_structural   KHo10(C2Br9)2
_chemical_formula_sum   'K1 Ho10 C4 Br18'
_cell_volume   965.11379282
_cell_formula_units_Z   1
loop_
 _symmetry_equiv_pos_site_id
 _symmetry_equiv_pos_as_xyz
  1  'x, y, z'
loop_
 _atom_site_type_symbol
 _atom_site_label
 _atom_site_symmetry_multiplicity
 _atom_site_fract_x
 _atom_site_fract_y
 _atom_site_fract_z
 _atom_site_occupancy
  K  K0  1  0.500000  0.000000  0.500000  1
  Ho  Ho1  1  0.662862  0.717351  0.702674  1
  Ho  Ho2  1  0.282587  0.364619  0.011613  1
  Ho  Ho3  1  0.093319  0.406421  0.300656  1
  Ho  Ho4  1  0.959324  0.035805  0.333195  1
  Ho  Ho5  1  0.906681  0.593579  0.699344  1
  Ho  Ho6  1  0.111725  0.941768  0.001061  1
  Ho  Ho7  1  0.040676  0.964195  0.666805  1
  Ho  Ho8  1  0.337138  0.282649  0.297326  1
  Ho  Ho9  1  0.717413  0.635381  0.988387  1
  Ho  Ho10  1  0.888275  0.058232  0.998939  1
  C  C11  1  0.157282  0.227913  0.122842  1
  C  C12  1  0.842718  0.772087  0.877158  1
  C  C13  1  0.922565  0.852088  0.795862  1
  C  C14  1  0.077435  0.147912  0.204138  1
  Br  Br15  1  0.450090  0.530082  0.832641  1
  Br  Br16  1  0.384263  0.038955  0.159848  1
  Br  Br17  1  0.776294  0.857099  0.500924  1
  Br  Br18  1  0.837249  0.311712  0.154354  1
  Br  Br19  1  0.549910  0.469918  0.167359  1
  Br  Br20  1  0.223706  0.142901  0.499076  1
  Br  Br21  1  0.316825  0.099286  0.828340  1
  Br  Br22  1  0.683175  0.900714  0.171660  1
  Br  Br23  1  0.974945  0.759504  0.172956  1
  Br  Br24  1  0.931927  0.301762  0.501596  1
  Br  Br25  1  0.025055  0.240496  0.827044  1
  Br  Br26  1  0.068073  0.698238  0.498404  1
  Br  Br27  1  0.261910  0.625950  0.188499  1
  Br  Br28  1  0.738090  0.374050  0.811501  1
  Br  Br29  1  0.638607  0.432225  0.498478  1
  Br  Br30  1  0.162751  0.688288  0.845646  1
  Br  Br31  1  0.615737  0.961045  0.840152  1
  Br  Br32  1  0.361393  0.567775  0.501522  1
