# generated using pymatgen
data_Pr3Nd9Os3Au
_symmetry_space_group_name_H-M   'P 1'
_cell_length_a   6.60172861
_cell_length_b   7.52390500
_cell_length_c   9.80529369
_cell_angle_alpha   90.06628036
_cell_angle_beta   90.10372270
_cell_angle_gamma   90.43971107
_symmetry_Int_Tables_number   1
_chemical_formula_structural   Pr3Nd9Os3Au
_chemical_formula_sum   'Pr3 Nd9 Os3 Au1'
_cell_volume   487.02110071
_cell_formula_units_Z   1
loop_
 _symmetry_equiv_pos_site_id
 _symmetry_equiv_pos_as_xyz
  1  'x, y, z'
loop_
 _atom_site_type_symbol
 _atom_site_label
 _atom_site_symmetry_multiplicity
 _atom_site_fract_x
 _atom_site_fract_y
 _atom_site_fract_z
 _atom_site_occupancy
  Pr  Pr0  1  0.342073  0.667718  0.059345  1
  Pr  Pr1  1  0.856152  0.521214  0.250225  1
  Pr  Pr2  1  0.622657  0.045299  0.250111  1
  Nd  Nd3  1  0.171000  0.187726  0.443075  1
  Nd  Nd4  1  0.674132  0.322218  0.568813  1
  Nd  Nd5  1  0.824383  0.827550  0.928757  1
  Nd  Nd6  1  0.674420  0.321833  0.931049  1
  Nd  Nd7  1  0.824224  0.827283  0.571031  1
  Nd  Nd8  1  0.342177  0.666883  0.440432  1
  Nd  Nd9  1  0.170686  0.187600  0.056879  1
  Nd  Nd10  1  0.138174  0.463517  0.749843  1
  Nd  Nd11  1  0.355839  0.958685  0.749861  1
  Os  Os12  1  0.435926  0.383715  0.250871  1
  Os  Os13  1  0.950914  0.114601  0.749934  1
  Os  Os14  1  0.554257  0.614721  0.749111  1
  Au  Au15  1  0.062986  0.889438  0.250662  1
