# generated using pymatgen
data_TmZrB(Ir2Rh)2
_symmetry_space_group_name_H-M   'P 1'
_cell_length_a   5.76490733
_cell_length_b   5.77429862
_cell_length_c   5.76323597
_cell_angle_alpha   60.16506459
_cell_angle_beta   59.99040913
_cell_angle_gamma   60.05378218
_symmetry_Int_Tables_number   1
_chemical_formula_structural   TmZrB(Ir2Rh)2
_chemical_formula_sum   'Tm1 Zr1 B1 Ir4 Rh2'
_cell_volume   135.87103381
_cell_formula_units_Z   1
loop_
 _symmetry_equiv_pos_site_id
 _symmetry_equiv_pos_as_xyz
  1  'x, y, z'
loop_
 _atom_site_type_symbol
 _atom_site_label
 _atom_site_symmetry_multiplicity
 _atom_site_fract_x
 _atom_site_fract_y
 _atom_site_fract_z
 _atom_site_occupancy
  Tm  Tm0  1  0.749927  0.750072  0.750074  1
  Zr  Zr1  1  0.250097  0.249740  0.250065  1
  B  B2  1  0.999982  0.000072  0.999964  1
  Ir  Ir3  1  0.742155  0.257464  0.258225  1
  Ir  Ir4  1  0.258531  0.258310  0.741676  1
  Ir  Ir5  1  0.741483  0.258310  0.741676  1
  Ir  Ir6  1  0.257800  0.741818  0.742583  1
  Rh  Rh7  1  0.742257  0.742107  0.257869  1
  Rh  Rh8  1  0.257767  0.742107  0.257869  1
