# generated using pymatgen
data_GdNbCrB6
_symmetry_space_group_name_H-M   'P 1'
_cell_length_a   3.41783900
_cell_length_b   8.94424500
_cell_length_c   11.31675100
_cell_angle_alpha   90.00000000
_cell_angle_beta   90.00000000
_cell_angle_gamma   90.00000000
_symmetry_Int_Tables_number   1
_chemical_formula_structural   GdNbCrB6
_chemical_formula_sum   'Gd4 Nb4 Cr4 B24'
_cell_volume   345.95295796
_cell_formula_units_Z   4
loop_
 _symmetry_equiv_pos_site_id
 _symmetry_equiv_pos_as_xyz
  1  'x, y, z'
loop_
 _atom_site_type_symbol
 _atom_site_label
 _atom_site_symmetry_multiplicity
 _atom_site_fract_x
 _atom_site_fract_y
 _atom_site_fract_z
 _atom_site_occupancy
  Gd  Gd0  1  0.000000  0.822560  0.085575  1
  Gd  Gd1  1  0.000000  0.177440  0.914425  1
  Gd  Gd2  1  0.000000  0.322560  0.414425  1
  Gd  Gd3  1  0.000000  0.677440  0.585575  1
  Nb  Nb4  1  0.000000  0.445043  0.127683  1
  Nb  Nb5  1  0.000000  0.554957  0.872317  1
  Nb  Nb6  1  0.000000  0.945043  0.372317  1
  Nb  Nb7  1  0.000000  0.054957  0.627683  1
  Cr  Cr8  1  0.000000  0.144461  0.183604  1
  Cr  Cr9  1  0.000000  0.855539  0.816396  1
  Cr  Cr10  1  0.000000  0.644461  0.316396  1
  Cr  Cr11  1  0.000000  0.355539  0.683604  1
  B  B12  1  0.500000  0.055026  0.068106  1
  B  B13  1  0.500000  0.944974  0.931894  1
  B  B14  1  0.500000  0.555026  0.431894  1
  B  B15  1  0.500000  0.444974  0.568106  1
  B  B16  1  0.500000  0.253728  0.082848  1
  B  B17  1  0.500000  0.746272  0.917152  1
  B  B18  1  0.500000  0.753728  0.417152  1
  B  B19  1  0.500000  0.246272  0.582848  1
  B  B20  1  0.500000  0.296719  0.236147  1
  B  B21  1  0.500000  0.703281  0.763853  1
  B  B22  1  0.500000  0.796719  0.263853  1
  B  B23  1  0.500000  0.203281  0.736147  1
  B  B24  1  0.500000  0.129801  0.317648  1
  B  B25  1  0.500000  0.870199  0.682352  1
  B  B26  1  0.500000  0.629801  0.182352  1
  B  B27  1  0.500000  0.370199  0.817648  1
  B  B28  1  0.500000  0.482438  0.286235  1
  B  B29  1  0.500000  0.517562  0.713765  1
  B  B30  1  0.500000  0.982438  0.213765  1
  B  B31  1  0.500000  0.017562  0.786235  1
  B  B32  1  0.500000  0.098770  0.473955  1
  B  B33  1  0.500000  0.901230  0.526045  1
  B  B34  1  0.500000  0.598770  0.026045  1
  B  B35  1  0.500000  0.401230  0.973955  1
