# generated using pymatgen
data_Zn3Co5(Mo3N)4
_symmetry_space_group_name_H-M   'P 1'
_cell_length_a   6.71876081
_cell_length_b   6.70970329
_cell_length_c   6.71082751
_cell_angle_alpha   90.27617580
_cell_angle_beta   89.89187550
_cell_angle_gamma   89.84941234
_symmetry_Int_Tables_number   1
_chemical_formula_structural   Zn3Co5(Mo3N)4
_chemical_formula_sum   'Zn3 Co5 Mo12 N4'
_cell_volume   302.52498161
_cell_formula_units_Z   1
loop_
 _symmetry_equiv_pos_site_id
 _symmetry_equiv_pos_as_xyz
  1  'x, y, z'
loop_
 _atom_site_type_symbol
 _atom_site_label
 _atom_site_symmetry_multiplicity
 _atom_site_fract_x
 _atom_site_fract_y
 _atom_site_fract_z
 _atom_site_occupancy
  Zn  Zn0  1  0.069793  0.063359  0.070359  1
  Zn  Zn1  1  0.320790  0.184878  0.819023  1
  Zn  Zn2  1  0.815888  0.320603  0.182086  1
  Co  Co3  1  0.185336  0.815702  0.321434  1
  Co  Co4  1  0.434272  0.929587  0.567519  1
  Co  Co5  1  0.570998  0.435693  0.929092  1
  Co  Co6  1  0.935806  0.570146  0.434742  1
  Co  Co7  1  0.684458  0.682714  0.682199  1
  Mo  Mo8  1  0.128557  0.201013  0.454785  1
  Mo  Mo9  1  0.384585  0.786098  0.946138  1
  Mo  Mo10  1  0.873013  0.698797  0.044219  1
  Mo  Mo11  1  0.202399  0.466792  0.130221  1
  Mo  Mo12  1  0.792851  0.941890  0.381238  1
  Mo  Mo13  1  0.044622  0.869345  0.689995  1
  Mo  Mo14  1  0.450552  0.118484  0.213556  1
  Mo  Mo15  1  0.299592  0.556403  0.621511  1
  Mo  Mo16  1  0.943906  0.386246  0.785905  1
  Mo  Mo17  1  0.543022  0.629740  0.305302  1
  Mo  Mo18  1  0.696012  0.039375  0.870506  1
  Mo  Mo19  1  0.626756  0.303588  0.551023  1
  N  N20  1  0.375192  0.375623  0.376617  1
  N  N21  1  0.624837  0.872576  0.125583  1
  N  N22  1  0.123690  0.627543  0.872141  1
  N  N23  1  0.873071  0.123807  0.624806  1
