# generated using pymatgen
data_KV2F11
_symmetry_space_group_name_H-M   'P 1'
_cell_length_a   5.22932400
_cell_length_b   5.57212420
_cell_length_c   15.30831097
_cell_angle_alpha   74.02022314
_cell_angle_beta   90.00000000
_cell_angle_gamma   90.00000000
_symmetry_Int_Tables_number   1
_chemical_formula_structural   KV2F11
_chemical_formula_sum   'K2 V4 F22'
_cell_volume   428.82409231
_cell_formula_units_Z   2
loop_
 _symmetry_equiv_pos_site_id
 _symmetry_equiv_pos_as_xyz
  1  'x, y, z'
loop_
 _atom_site_type_symbol
 _atom_site_label
 _atom_site_symmetry_multiplicity
 _atom_site_fract_x
 _atom_site_fract_y
 _atom_site_fract_z
 _atom_site_occupancy
  K  K0  1  0.315305  0.500000  0.250000  1
  K  K1  1  0.684695  0.500000  0.750000  1
  V  V2  1  0.755692  0.865726  0.379906  1
  V  V3  1  0.755692  0.134274  0.120094  1
  V  V4  1  0.244308  0.865726  0.879906  1
  V  V5  1  0.244308  0.134274  0.620094  1
  F  F6  1  0.408585  0.868560  0.603486  1
  F  F7  1  0.132943  0.249372  0.508892  1
  F  F8  1  0.591415  0.131440  0.396514  1
  F  F9  1  0.867057  0.249372  0.008892  1
  F  F10  1  0.408585  0.131440  0.896514  1
  F  F11  1  0.867057  0.750628  0.491108  1
  F  F12  1  0.591415  0.868560  0.103486  1
  F  F13  1  0.132943  0.750628  0.991108  1
  F  F14  1  0.463010  0.689825  0.397724  1
  F  F15  1  0.621199  0.000000  0.250000  1
  F  F16  1  0.033789  0.946625  0.159609  1
  F  F17  1  0.378801  0.000000  0.750000  1
  F  F18  1  0.891401  0.623402  0.336199  1
  F  F19  1  0.536990  0.689825  0.897724  1
  F  F20  1  0.108599  0.376598  0.663801  1
  F  F21  1  0.033789  0.053375  0.340391  1
  F  F22  1  0.108599  0.623402  0.836199  1
  F  F23  1  0.536990  0.310175  0.602276  1
  F  F24  1  0.966211  0.053375  0.840391  1
  F  F25  1  0.891401  0.376598  0.163801  1
  F  F26  1  0.966211  0.946625  0.659609  1
  F  F27  1  0.463010  0.310175  0.102276  1
