# generated using pymatgen
data_Gd5Ir3
_symmetry_space_group_name_H-M   'P 1'
_cell_length_a   10.96053000
_cell_length_b   10.96053000
_cell_length_c   6.39869500
_cell_angle_alpha   90.00000000
_cell_angle_beta   90.00000000
_cell_angle_gamma   90.00000000
_symmetry_Int_Tables_number   1
_chemical_formula_structural   Gd5Ir3
_chemical_formula_sum   'Gd20 Ir12'
_cell_volume   768.69582059
_cell_formula_units_Z   4
loop_
 _symmetry_equiv_pos_site_id
 _symmetry_equiv_pos_as_xyz
  1  'x, y, z'
loop_
 _atom_site_type_symbol
 _atom_site_label
 _atom_site_symmetry_multiplicity
 _atom_site_fract_x
 _atom_site_fract_y
 _atom_site_fract_z
 _atom_site_occupancy
  Gd  Gd0  1  0.290942  0.088398  0.378531  1
  Gd  Gd1  1  0.290942  0.911602  0.878531  1
  Gd  Gd2  1  0.709058  0.088398  0.878531  1
  Gd  Gd3  1  0.709058  0.911602  0.378531  1
  Gd  Gd4  1  0.588398  0.790942  0.878531  1
  Gd  Gd5  1  0.588398  0.209058  0.378531  1
  Gd  Gd6  1  0.411602  0.790942  0.378531  1
  Gd  Gd7  1  0.411602  0.209058  0.878531  1
  Gd  Gd8  1  0.209058  0.411602  0.621469  1
  Gd  Gd9  1  0.209058  0.588398  0.121469  1
  Gd  Gd10  1  0.790942  0.411602  0.121469  1
  Gd  Gd11  1  0.790942  0.588398  0.621469  1
  Gd  Gd12  1  0.911602  0.709058  0.121469  1
  Gd  Gd13  1  0.911602  0.290942  0.621469  1
  Gd  Gd14  1  0.088398  0.709058  0.621469  1
  Gd  Gd15  1  0.088398  0.290942  0.121469  1
  Gd  Gd16  1  0.000000  0.000000  0.500000  1
  Gd  Gd17  1  0.000000  0.000000  0.000000  1
  Gd  Gd18  1  0.500000  0.500000  0.000000  1
  Gd  Gd19  1  0.500000  0.500000  0.500000  1
  Ir  Ir20  1  0.846248  0.153752  0.250000  1
  Ir  Ir21  1  0.846248  0.846248  0.750000  1
  Ir  Ir22  1  0.153752  0.153752  0.750000  1
  Ir  Ir23  1  0.153752  0.846248  0.250000  1
  Ir  Ir24  1  0.653752  0.346248  0.750000  1
  Ir  Ir25  1  0.653752  0.653752  0.250000  1
  Ir  Ir26  1  0.346248  0.346248  0.250000  1
  Ir  Ir27  1  0.346248  0.653752  0.750000  1
  Ir  Ir28  1  0.500000  0.000000  0.120823  1
  Ir  Ir29  1  0.500000  0.000000  0.620823  1
  Ir  Ir30  1  0.000000  0.500000  0.879177  1
  Ir  Ir31  1  0.000000  0.500000  0.379177  1
