# generated using pymatgen
data_Pr3AlCd2Pt3
_symmetry_space_group_name_H-M   'P 1'
_cell_length_a   7.74410665
_cell_length_b   7.56444138
_cell_length_c   4.06292100
_cell_angle_alpha   90.00000000
_cell_angle_beta   90.00000000
_cell_angle_gamma   119.23546336
_symmetry_Int_Tables_number   1
_chemical_formula_structural   Pr3AlCd2Pt3
_chemical_formula_sum   'Pr3 Al1 Cd2 Pt3'
_cell_volume   207.68814240
_cell_formula_units_Z   1
loop_
 _symmetry_equiv_pos_site_id
 _symmetry_equiv_pos_as_xyz
  1  'x, y, z'
loop_
 _atom_site_type_symbol
 _atom_site_label
 _atom_site_symmetry_multiplicity
 _atom_site_fract_x
 _atom_site_fract_y
 _atom_site_fract_z
 _atom_site_occupancy
  Pr  Pr0  1  0.410777  0.409321  0.500000  1
  Pr  Pr1  1  0.589223  0.998544  0.500000  1
  Pr  Pr2  1  0.000000  0.581877  0.500000  1
  Al  Al3  1  0.000000  0.245908  0.000000  1
  Cd  Cd4  1  0.756956  0.754471  0.000000  1
  Cd  Cd5  1  0.243044  0.997513  0.000000  1
  Pt  Pt6  1  0.683130  0.326369  0.000000  1
  Pt  Pt7  1  0.316870  0.643239  0.000000  1
  Pt  Pt8  1  0.000000  0.042758  0.500000  1
