# generated using pymatgen
data_YHo3Se3N2
_symmetry_space_group_name_H-M   'P 1'
_cell_length_a   6.93703943
_cell_length_b   6.93703922
_cell_length_c   10.25505240
_cell_angle_alpha   52.35038397
_cell_angle_beta   52.35038380
_cell_angle_gamma   32.83281223
_symmetry_Int_Tables_number   1
_chemical_formula_structural   YHo3Se3N2
_chemical_formula_sum   'Y1 Ho3 Se3 N2'
_cell_volume   206.30616112
_cell_formula_units_Z   1
loop_
 _symmetry_equiv_pos_site_id
 _symmetry_equiv_pos_as_xyz
  1  'x, y, z'
loop_
 _atom_site_type_symbol
 _atom_site_label
 _atom_site_symmetry_multiplicity
 _atom_site_fract_x
 _atom_site_fract_y
 _atom_site_fract_z
 _atom_site_occupancy
  Y  Y0  1  0.441203  0.441203  0.848463  1
  Ho  Ho1  1  0.241206  0.241206  0.640432  1
  Ho  Ho2  1  0.759275  0.759276  0.359067  1
  Ho  Ho3  1  0.557972  0.557972  0.152372  1
  Se  Se4  1  0.000520  0.000520  0.000511  1
  Se  Se5  1  0.831205  0.831205  0.773328  1
  Se  Se6  1  0.167573  0.167573  0.226833  1
  N  N7  1  0.352716  0.352716  0.362513  1
  N  N8  1  0.648329  0.648329  0.636480  1
