# generated using pymatgen
data_HoTmNbIr3
_symmetry_space_group_name_H-M   'P 1'
_cell_length_a   5.61572434
_cell_length_b   5.61572545
_cell_length_c   5.23785200
_cell_angle_alpha   57.58339730
_cell_angle_beta   57.58340219
_cell_angle_gamma   59.99999592
_symmetry_Int_Tables_number   1
_chemical_formula_structural   HoTmNbIr3
_chemical_formula_sum   'Ho1 Tm1 Nb1 Ir3'
_cell_volume   112.35193606
_cell_formula_units_Z   1
loop_
 _symmetry_equiv_pos_site_id
 _symmetry_equiv_pos_as_xyz
  1  'x, y, z'
loop_
 _atom_site_type_symbol
 _atom_site_label
 _atom_site_symmetry_multiplicity
 _atom_site_fract_x
 _atom_site_fract_y
 _atom_site_fract_z
 _atom_site_occupancy
  Ho  Ho0  1  0.751125  0.751125  0.746623  1
  Tm  Tm1  1  0.497793  0.497793  0.506623  1
  Nb  Nb2  1  0.125193  0.125193  0.624422  1
  Ir  Ir3  1  0.625109  0.125389  0.124111  1
  Ir  Ir4  1  0.125389  0.125389  0.124111  1
  Ir  Ir5  1  0.125389  0.625109  0.124111  1
