# generated using pymatgen
data_Ta8Ga6BMo2
_symmetry_space_group_name_H-M   'P 1'
_cell_length_a   7.72939800
_cell_length_b   7.72939711
_cell_length_c   5.24626400
_cell_angle_alpha   90.00000000
_cell_angle_beta   90.00000000
_cell_angle_gamma   120.00000380
_symmetry_Int_Tables_number   1
_chemical_formula_structural   Ta8Ga6BMo2
_chemical_formula_sum   'Ta8 Ga6 B1 Mo2'
_cell_volume   271.43887540
_cell_formula_units_Z   1
loop_
 _symmetry_equiv_pos_site_id
 _symmetry_equiv_pos_as_xyz
  1  'x, y, z'
loop_
 _atom_site_type_symbol
 _atom_site_label
 _atom_site_symmetry_multiplicity
 _atom_site_fract_x
 _atom_site_fract_y
 _atom_site_fract_z
 _atom_site_occupancy
  Ta  Ta0  1  0.666667  0.333333  0.000000  1
  Ta  Ta1  1  0.333333  0.666667  0.000000  1
  Ta  Ta2  1  0.000000  0.762046  0.238915  1
  Ta  Ta3  1  0.237954  0.237954  0.238915  1
  Ta  Ta4  1  0.762046  0.000000  0.238915  1
  Ta  Ta5  1  0.000000  0.237954  0.761085  1
  Ta  Ta6  1  0.762046  0.762046  0.761085  1
  Ta  Ta7  1  0.237954  0.000000  0.761085  1
  Ga  Ga8  1  0.000000  0.402238  0.262009  1
  Ga  Ga9  1  0.597762  0.597762  0.262009  1
  Ga  Ga10  1  0.402238  0.000000  0.262009  1
  Ga  Ga11  1  0.000000  0.597762  0.737991  1
  Ga  Ga12  1  0.402238  0.402238  0.737991  1
  Ga  Ga13  1  0.597762  0.000000  0.737991  1
  B  B14  1  0.000000  0.000000  0.500000  1
  Mo  Mo15  1  0.333333  0.666667  0.500000  1
  Mo  Mo16  1  0.666667  0.333333  0.500000  1
