# generated using pymatgen
data_Mg3P7PbN12
_symmetry_space_group_name_H-M   'P 1'
_cell_length_a   7.33650051
_cell_length_b   7.33650157
_cell_length_c   7.33650008
_cell_angle_alpha   109.38604581
_cell_angle_beta   109.38604863
_cell_angle_gamma   109.38603121
_symmetry_Int_Tables_number   1
_chemical_formula_structural   Mg3P7PbN12
_chemical_formula_sum   'Mg3 P7 Pb1 N12'
_cell_volume   304.93487686
_cell_formula_units_Z   1
loop_
 _symmetry_equiv_pos_site_id
 _symmetry_equiv_pos_as_xyz
  1  'x, y, z'
loop_
 _atom_site_type_symbol
 _atom_site_label
 _atom_site_symmetry_multiplicity
 _atom_site_fract_x
 _atom_site_fract_y
 _atom_site_fract_z
 _atom_site_occupancy
  Mg  Mg0  1  0.004488  0.642904  0.004488  1
  Mg  Mg1  1  0.642904  0.004488  0.004488  1
  Mg  Mg2  1  0.004488  0.004488  0.642904  1
  P  P3  1  0.507786  0.255649  0.759328  1
  P  P4  1  0.507786  0.759328  0.255649  1
  P  P5  1  0.759328  0.255649  0.507786  1
  P  P6  1  0.255649  0.507786  0.759328  1
  P  P7  1  0.759328  0.507786  0.255649  1
  P  P8  1  0.255649  0.759328  0.507786  1
  P  P9  1  0.931999  0.931999  0.931999  1
  Pb  Pb10  1  0.297634  0.297634  0.297634  1
  N  N11  1  0.005683  0.728999  0.431818  1
  N  N12  1  0.287700  0.717517  0.287700  1
  N  N13  1  0.289391  0.578828  0.578828  1
  N  N14  1  0.578828  0.578828  0.289391  1
  N  N15  1  0.578828  0.289391  0.578828  1
  N  N16  1  0.728999  0.005683  0.431818  1
  N  N17  1  0.431818  0.005683  0.728999  1
  N  N18  1  0.728999  0.431818  0.005683  1
  N  N19  1  0.287700  0.287700  0.717517  1
  N  N20  1  0.717517  0.287700  0.287700  1
  N  N21  1  0.005683  0.431818  0.728999  1
  N  N22  1  0.431818  0.728999  0.005683  1
