# generated using pymatgen
data_V2Ir5Os
_symmetry_space_group_name_H-M   'P 1'
_cell_length_a   5.47420904
_cell_length_b   5.47420915
_cell_length_c   4.35348500
_cell_angle_alpha   90.00000000
_cell_angle_beta   90.00000000
_cell_angle_gamma   120.19641910
_symmetry_Int_Tables_number   1
_chemical_formula_structural   V2Ir5Os
_chemical_formula_sum   'V2 Ir5 Os1'
_cell_volume   112.75802597
_cell_formula_units_Z   1
loop_
 _symmetry_equiv_pos_site_id
 _symmetry_equiv_pos_as_xyz
  1  'x, y, z'
loop_
 _atom_site_type_symbol
 _atom_site_label
 _atom_site_symmetry_multiplicity
 _atom_site_fract_x
 _atom_site_fract_y
 _atom_site_fract_z
 _atom_site_occupancy
  V  V0  1  0.332329  0.667671  0.749999  1
  V  V1  1  0.667613  0.332387  0.250001  1
  Ir  Ir2  1  0.166485  0.335669  0.250001  1
  Ir  Ir3  1  0.664330  0.833514  0.250001  1
  Ir  Ir4  1  0.167277  0.832721  0.250001  1
  Ir  Ir5  1  0.834999  0.664981  0.749999  1
  Ir  Ir6  1  0.335022  0.165003  0.749999  1
  Os  Os7  1  0.831945  0.168057  0.749999  1
