# generated using pymatgen
data_Pr17Sm3Sn7Sb9
_symmetry_space_group_name_H-M   'P 1'
_cell_length_a   8.34154300
_cell_length_b   8.40960990
_cell_length_c   15.88636700
_cell_angle_alpha   90.00000000
_cell_angle_beta   90.00000000
_cell_angle_gamma   90.12774632
_symmetry_Int_Tables_number   1
_chemical_formula_structural   Pr17Sm3Sn7Sb9
_chemical_formula_sum   'Pr17 Sm3 Sn7 Sb9'
_cell_volume   1114.41193666
_cell_formula_units_Z   1
loop_
 _symmetry_equiv_pos_site_id
 _symmetry_equiv_pos_as_xyz
  1  'x, y, z'
loop_
 _atom_site_type_symbol
 _atom_site_label
 _atom_site_symmetry_multiplicity
 _atom_site_fract_x
 _atom_site_fract_y
 _atom_site_fract_z
 _atom_site_occupancy
  Pr  Pr0  1  0.387202  0.838474  0.882251  1
  Pr  Pr1  1  0.889174  0.661980  0.619017  1
  Pr  Pr2  1  0.610627  0.163618  0.382255  1
  Pr  Pr3  1  0.110312  0.337082  0.118792  1
  Pr  Pr4  1  0.610627  0.163618  0.117745  1
  Pr  Pr5  1  0.110312  0.337082  0.381208  1
  Pr  Pr6  1  0.387202  0.838474  0.617749  1
  Pr  Pr7  1  0.889174  0.661980  0.880983  1
  Pr  Pr8  1  0.548758  0.324883  0.892987  1
  Pr  Pr9  1  0.046973  0.174495  0.604112  1
  Pr  Pr10  1  0.453638  0.675777  0.394675  1
  Pr  Pr11  1  0.952498  0.825116  0.105242  1
  Pr  Pr12  1  0.453638  0.675777  0.105325  1
  Pr  Pr13  1  0.952498  0.825116  0.394758  1
  Pr  Pr14  1  0.548758  0.324883  0.607013  1
  Pr  Pr15  1  0.046973  0.174495  0.895888  1
  Pr  Pr16  1  0.215984  0.496575  0.750000  1
  Sm  Sm17  1  0.715581  0.003133  0.750000  1
  Sm  Sm18  1  0.782270  0.504145  0.250000  1
  Sm  Sm19  1  0.282445  0.997491  0.250000  1
  Sn  Sn20  1  0.086654  0.880392  0.750000  1
  Sn  Sn21  1  0.413356  0.377822  0.250000  1
  Sn  Sn22  1  0.912092  0.122323  0.250000  1
  Sn  Sn23  1  0.349217  0.136711  0.750000  1
  Sn  Sn24  1  0.854441  0.353735  0.750000  1
  Sn  Sn25  1  0.649941  0.861478  0.250000  1
  Sn  Sn26  1  0.150297  0.640268  0.250000  1
  Sb  Sb27  1  0.269363  0.020757  0.048043  1
  Sb  Sb28  1  0.769999  0.479341  0.453029  1
  Sb  Sb29  1  0.729206  0.978261  0.547949  1
  Sb  Sb30  1  0.231964  0.520573  0.953536  1
  Sb  Sb31  1  0.729206  0.978261  0.952051  1
  Sb  Sb32  1  0.231964  0.520573  0.546464  1
  Sb  Sb33  1  0.269363  0.020757  0.451957  1
  Sb  Sb34  1  0.769999  0.479341  0.046971  1
  Sb  Sb35  1  0.588290  0.625209  0.750000  1
