# generated using pymatgen
data_YbHo2(Al2Ni3)3
_symmetry_space_group_name_H-M   'P 1'
_cell_length_a   8.89079400
_cell_length_b   8.89079223
_cell_length_c   3.88127500
_cell_angle_alpha   90.00000000
_cell_angle_beta   90.00000000
_cell_angle_gamma   119.99999914
_symmetry_Int_Tables_number   1
_chemical_formula_structural   YbHo2(Al2Ni3)3
_chemical_formula_sum   'Yb1 Ho2 Al6 Ni9'
_cell_volume   265.69663826
_cell_formula_units_Z   1
loop_
 _symmetry_equiv_pos_site_id
 _symmetry_equiv_pos_as_xyz
  1  'x, y, z'
loop_
 _atom_site_type_symbol
 _atom_site_label
 _atom_site_symmetry_multiplicity
 _atom_site_fract_x
 _atom_site_fract_y
 _atom_site_fract_z
 _atom_site_occupancy
  Yb  Yb0  1  0.000000  0.000000  0.000000  1
  Ho  Ho1  1  0.666667  0.333333  0.500000  1
  Ho  Ho2  1  0.333333  0.666667  0.500000  1
  Al  Al3  1  0.682211  0.682211  0.500000  1
  Al  Al4  1  0.317789  0.000000  0.500000  1
  Al  Al5  1  0.000000  0.317789  0.500000  1
  Al  Al6  1  0.317789  0.317789  0.500000  1
  Al  Al7  1  0.682211  0.000000  0.500000  1
  Al  Al8  1  0.000000  0.682211  0.500000  1
  Ni  Ni9  1  0.500000  0.500000  0.000000  1
  Ni  Ni10  1  0.500000  0.000000  0.000000  1
  Ni  Ni11  1  0.000000  0.500000  0.000000  1
  Ni  Ni12  1  0.819683  0.180317  0.000000  1
  Ni  Ni13  1  0.819683  0.639367  0.000000  1
  Ni  Ni14  1  0.360633  0.180317  0.000000  1
  Ni  Ni15  1  0.180317  0.819683  0.000000  1
  Ni  Ni16  1  0.639367  0.819683  0.000000  1
  Ni  Ni17  1  0.180317  0.360633  0.000000  1
