# generated using pymatgen
data_LaNdY4IrI10
_symmetry_space_group_name_H-M   'P 1'
_cell_length_a   7.85003987
_cell_length_b   9.88734265
_cell_length_c   9.88011641
_cell_angle_alpha   106.76220810
_cell_angle_beta   95.83742144
_cell_angle_gamma   105.21563310
_symmetry_Int_Tables_number   1
_chemical_formula_structural   LaNdY4IrI10
_chemical_formula_sum   'La1 Nd1 Y4 Ir1 I10'
_cell_volume   695.34945561
_cell_formula_units_Z   1
loop_
 _symmetry_equiv_pos_site_id
 _symmetry_equiv_pos_as_xyz
  1  'x, y, z'
loop_
 _atom_site_type_symbol
 _atom_site_label
 _atom_site_symmetry_multiplicity
 _atom_site_fract_x
 _atom_site_fract_y
 _atom_site_fract_z
 _atom_site_occupancy
  La  La0  1  0.117647  0.043957  0.760771  1
  Nd  Nd1  1  0.882979  0.956351  0.235666  1
  Y  Y2  1  0.970626  0.287515  0.087697  1
  Y  Y3  1  0.029600  0.713156  0.914103  1
  Y  Y4  1  0.348898  0.125701  0.164269  1
  Y  Y5  1  0.651192  0.873768  0.835111  1
  Ir  Ir6  1  0.001087  0.000718  0.997639  1
  I  I7  1  0.347870  0.447095  0.269774  1
  I  I8  1  0.652876  0.552663  0.730425  1
  I  I9  1  0.263300  0.087558  0.454711  1
  I  I10  1  0.730425  0.910231  0.541821  1
  I  I11  1  0.082488  0.380776  0.826996  1
  I  I12  1  0.915811  0.623676  0.176532  1
  I  I13  1  0.449643  0.818656  0.089891  1
  I  I14  1  0.554668  0.183103  0.913258  1
  I  I15  1  0.773338  0.258436  0.341880  1
  I  I16  1  0.227550  0.736639  0.659456  1
