# generated using pymatgen
data_Sc6Mn5Al14FeSi10
_symmetry_space_group_name_H-M   'P 1'
_cell_length_a   8.30069397
_cell_length_b   8.30069419
_cell_length_c   8.94651124
_cell_angle_alpha   89.83531350
_cell_angle_beta   90.16468829
_cell_angle_gamma   119.83770535
_symmetry_Int_Tables_number   1
_chemical_formula_structural   Sc6Mn5Al14FeSi10
_chemical_formula_sum   'Sc6 Mn5 Al14 Fe1 Si10'
_cell_volume   534.71046531
_cell_formula_units_Z   1
loop_
 _symmetry_equiv_pos_site_id
 _symmetry_equiv_pos_as_xyz
  1  'x, y, z'
loop_
 _atom_site_type_symbol
 _atom_site_label
 _atom_site_symmetry_multiplicity
 _atom_site_fract_x
 _atom_site_fract_y
 _atom_site_fract_z
 _atom_site_occupancy
  Sc  Sc0  1  0.200686  0.799314  0.250274  1
  Sc  Sc1  1  0.199489  0.400075  0.250353  1
  Sc  Sc2  1  0.599925  0.800511  0.250353  1
  Sc  Sc3  1  0.799314  0.200686  0.749726  1
  Sc  Sc4  1  0.800511  0.599925  0.749647  1
  Sc  Sc5  1  0.400075  0.199489  0.749647  1
  Mn  Mn6  1  0.500000  0.500000  0.500000  1
  Mn  Mn7  1  0.500000  0.000000  0.500000  1
  Mn  Mn8  1  0.000000  0.500000  0.500000  1
  Mn  Mn9  1  0.500000  0.000000  0.000000  1
  Mn  Mn10  1  0.000000  0.500000  0.000000  1
  Al  Al11  1  0.163247  0.836753  0.920943  1
  Al  Al12  1  0.163909  0.326107  0.921593  1
  Al  Al13  1  0.673893  0.836091  0.921593  1
  Al  Al14  1  0.836753  0.163247  0.079057  1
  Al  Al15  1  0.836091  0.673893  0.078407  1
  Al  Al16  1  0.326107  0.163909  0.078407  1
  Al  Al17  1  0.836443  0.163557  0.421049  1
  Al  Al18  1  0.836355  0.673353  0.420802  1
  Al  Al19  1  0.326647  0.163645  0.420802  1
  Al  Al20  1  0.163557  0.836443  0.578951  1
  Al  Al21  1  0.163645  0.326647  0.579198  1
  Al  Al22  1  0.673353  0.836355  0.579198  1
  Al  Al23  1  0.000049  0.999951  0.249511  1
  Al  Al24  1  0.999951  0.000049  0.750489  1
  Fe  Fe25  1  0.500000  0.500000  0.000000  1
  Si  Si26  1  0.560034  0.439966  0.249962  1
  Si  Si27  1  0.559976  0.120024  0.249568  1
  Si  Si28  1  0.879976  0.440024  0.249568  1
  Si  Si29  1  0.439966  0.560034  0.750038  1
  Si  Si30  1  0.440024  0.879976  0.750432  1
  Si  Si31  1  0.120024  0.559976  0.750432  1
  Si  Si32  1  0.333524  0.666476  0.460962  1
  Si  Si33  1  0.666476  0.333524  0.539038  1
  Si  Si34  1  0.666815  0.333185  0.959880  1
  Si  Si35  1  0.333185  0.666815  0.040120  1
