# generated using pymatgen
data_Ti20Si9Sb7
_symmetry_space_group_name_H-M   'P 1'
_cell_length_a   6.83842407
_cell_length_b   6.78705497
_cell_length_c   13.45674578
_cell_angle_alpha   90.06275733
_cell_angle_beta   87.95206188
_cell_angle_gamma   89.74394401
_symmetry_Int_Tables_number   1
_chemical_formula_structural   Ti20Si9Sb7
_chemical_formula_sum   'Ti20 Si9 Sb7'
_cell_volume   624.15906429
_cell_formula_units_Z   1
loop_
 _symmetry_equiv_pos_site_id
 _symmetry_equiv_pos_as_xyz
  1  'x, y, z'
loop_
 _atom_site_type_symbol
 _atom_site_label
 _atom_site_symmetry_multiplicity
 _atom_site_fract_x
 _atom_site_fract_y
 _atom_site_fract_z
 _atom_site_occupancy
  Ti  Ti0  1  0.222244  0.003018  0.752723  1
  Ti  Ti1  1  0.777807  0.996294  0.246814  1
  Ti  Ti2  1  0.278660  0.498639  0.242762  1
  Ti  Ti3  1  0.721189  0.500653  0.753137  1
  Ti  Ti4  1  0.070524  0.672443  0.626969  1
  Ti  Ti5  1  0.930847  0.327040  0.371100  1
  Ti  Ti6  1  0.428931  0.171500  0.369968  1
  Ti  Ti7  1  0.963008  0.331072  0.110080  1
  Ti  Ti8  1  0.570892  0.831004  0.630553  1
  Ti  Ti9  1  0.060862  0.667261  0.891890  1
  Ti  Ti10  1  0.553523  0.824736  0.883433  1
  Ti  Ti11  1  0.444149  0.186388  0.114881  1
  Ti  Ti12  1  0.397234  0.336783  0.632791  1
  Ti  Ti13  1  0.601169  0.663952  0.365988  1
  Ti  Ti14  1  0.099920  0.834523  0.366062  1
  Ti  Ti15  1  0.604203  0.664328  0.132174  1
  Ti  Ti16  1  0.897436  0.164137  0.633681  1
  Ti  Ti17  1  0.375339  0.343182  0.873637  1
  Ti  Ti18  1  0.890280  0.168113  0.868120  1
  Ti  Ti19  1  0.119132  0.819782  0.129163  1
  Si  Si20  1  0.094551  0.383518  0.752275  1
  Si  Si21  1  0.903894  0.616258  0.245830  1
  Si  Si22  1  0.403161  0.882049  0.246872  1
  Si  Si23  1  0.594009  0.122737  0.755130  1
  Si  Si24  1  0.350118  0.636218  0.754404  1
  Si  Si25  1  0.652057  0.363520  0.245126  1
  Si  Si26  1  0.146375  0.131692  0.244205  1
  Si  Si27  1  0.854250  0.864098  0.755737  1
  Si  Si28  1  0.281946  0.520847  0.042079  1
  Sb  Sb29  1  0.244459  0.004500  0.540169  1
  Sb  Sb30  1  0.755371  0.994964  0.459358  1
  Sb  Sb31  1  0.256449  0.504140  0.457153  1
  Sb  Sb32  1  0.778064  0.976224  0.038501  1
  Sb  Sb33  1  0.742329  0.495794  0.540731  1
  Sb  Sb34  1  0.223556  0.022821  0.963201  1
  Sb  Sb35  1  0.712060  0.475769  0.963308  1
