# generated using pymatgen
data_Tb4Sn5SbRh7
_symmetry_space_group_name_H-M   'P 1'
_cell_length_a   7.62572987
_cell_length_b   7.62573135
_cell_length_c   7.62573020
_cell_angle_alpha   109.27431878
_cell_angle_beta   109.27432510
_cell_angle_gamma   109.86573860
_symmetry_Int_Tables_number   1
_chemical_formula_structural   Tb4Sn5SbRh7
_chemical_formula_sum   'Tb4 Sn5 Sb1 Rh7'
_cell_volume   341.35558566
_cell_formula_units_Z   1
loop_
 _symmetry_equiv_pos_site_id
 _symmetry_equiv_pos_as_xyz
  1  'x, y, z'
loop_
 _atom_site_type_symbol
 _atom_site_label
 _atom_site_symmetry_multiplicity
 _atom_site_fract_x
 _atom_site_fract_y
 _atom_site_fract_z
 _atom_site_occupancy
  Tb  Tb0  1  0.496194  0.998624  0.000000  1
  Tb  Tb1  1  0.998624  0.496194  0.000000  1
  Tb  Tb2  1  0.998624  0.998624  0.502430  1
  Tb  Tb3  1  0.496194  0.496194  0.497570  1
  Sn  Sn4  1  0.997379  0.314283  0.316904  1
  Sn  Sn5  1  0.680475  0.997379  0.683096  1
  Sn  Sn6  1  0.690208  0.690208  0.000000  1
  Sn  Sn7  1  0.997379  0.680475  0.683096  1
  Sn  Sn8  1  0.314283  0.997379  0.316904  1
  Sb  Sb9  1  0.321277  0.321277  0.000000  1
  Rh  Rh10  1  0.007964  0.007964  0.000000  1
  Rh  Rh11  1  0.501247  0.749903  0.248656  1
  Rh  Rh12  1  0.749903  0.501247  0.248656  1
  Rh  Rh13  1  0.248206  0.748206  0.500000  1
  Rh  Rh14  1  0.252592  0.501247  0.751344  1
  Rh  Rh15  1  0.501247  0.252592  0.751344  1
  Rh  Rh16  1  0.748206  0.248206  0.500000  1
