# generated using pymatgen
data_Ho4Lu16Bi11Sb
_symmetry_space_group_name_H-M   'P 1'
_cell_length_a   8.13763921
_cell_length_b   9.37467500
_cell_length_c   11.82638530
_cell_angle_alpha   90.00000000
_cell_angle_beta   90.02593814
_cell_angle_gamma   90.00000000
_symmetry_Int_Tables_number   1
_chemical_formula_structural   Ho4Lu16Bi11Sb
_chemical_formula_sum   'Ho4 Lu16 Bi11 Sb1'
_cell_volume   902.20791182
_cell_formula_units_Z   1
loop_
 _symmetry_equiv_pos_site_id
 _symmetry_equiv_pos_as_xyz
  1  'x, y, z'
loop_
 _atom_site_type_symbol
 _atom_site_label
 _atom_site_symmetry_multiplicity
 _atom_site_fract_x
 _atom_site_fract_y
 _atom_site_fract_z
 _atom_site_occupancy
  Ho  Ho0  1  0.313835  0.250000  0.217512  1
  Ho  Ho1  1  0.813866  0.250000  0.282509  1
  Ho  Ho2  1  0.683163  0.750000  0.784285  1
  Ho  Ho3  1  0.187372  0.750000  0.718730  1
  Lu  Lu4  1  0.353698  0.750000  0.215908  1
  Lu  Lu5  1  0.853244  0.750000  0.281571  1
  Lu  Lu6  1  0.646877  0.250000  0.781683  1
  Lu  Lu7  1  0.146894  0.250000  0.718353  1
  Lu  Lu8  1  0.690131  0.568717  0.059262  1
  Lu  Lu9  1  0.192269  0.932736  0.439807  1
  Lu  Lu10  1  0.308644  0.064302  0.940079  1
  Lu  Lu11  1  0.807721  0.432856  0.560090  1
  Lu  Lu12  1  0.308644  0.435698  0.940079  1
  Lu  Lu13  1  0.807721  0.067144  0.560090  1
  Lu  Lu14  1  0.690131  0.931283  0.059262  1
  Lu  Lu15  1  0.192269  0.567264  0.439807  1
  Lu  Lu16  1  0.477151  0.250000  0.489473  1
  Lu  Lu17  1  0.977552  0.250000  0.010479  1
  Lu  Lu18  1  0.522801  0.750000  0.510637  1
  Lu  Lu19  1  0.025919  0.750000  0.989301  1
  Bi  Bi20  1  0.903078  0.750000  0.541229  1
  Bi  Bi21  1  0.597090  0.250000  0.041085  1
  Bi  Bi22  1  0.097032  0.250000  0.458910  1
  Bi  Bi23  1  0.566235  0.995005  0.325873  1
  Bi  Bi24  1  0.066171  0.504844  0.174115  1
  Bi  Bi25  1  0.433779  0.495052  0.674102  1
  Bi  Bi26  1  0.933620  0.004816  0.825906  1
  Bi  Bi27  1  0.433779  0.004948  0.674102  1
  Bi  Bi28  1  0.933620  0.495184  0.825906  1
  Bi  Bi29  1  0.566235  0.504995  0.325873  1
  Bi  Bi30  1  0.066171  0.995156  0.174115  1
  Sb  Sb31  1  0.403290  0.750000  0.959869  1
