# generated using pymatgen
data_CsRb4Eu3Cl12
_symmetry_space_group_name_H-M   'P 1'
_cell_length_a   4.42048700
_cell_length_b   13.74177591
_cell_length_c   13.74177500
_cell_angle_alpha   120.00000023
_cell_angle_beta   90.00000000
_cell_angle_gamma   90.00000000
_symmetry_Int_Tables_number   1
_chemical_formula_structural   CsRb4Eu3Cl12
_chemical_formula_sum   'Cs1 Rb4 Eu3 Cl12'
_cell_volume   722.91368102
_cell_formula_units_Z   1
loop_
 _symmetry_equiv_pos_site_id
 _symmetry_equiv_pos_as_xyz
  1  'x, y, z'
loop_
 _atom_site_type_symbol
 _atom_site_label
 _atom_site_symmetry_multiplicity
 _atom_site_fract_x
 _atom_site_fract_y
 _atom_site_fract_z
 _atom_site_occupancy
  Cs  Cs0  1  0.000000  0.666667  0.333333  1
  Rb  Rb1  1  0.000000  0.333333  0.666667  1
  Rb  Rb2  1  0.000000  0.287545  0.288939  1
  Rb  Rb3  1  0.000000  0.001394  0.712455  1
  Rb  Rb4  1  0.000000  0.711061  0.998606  1
  Eu  Eu5  1  0.500000  0.671989  0.673472  1
  Eu  Eu6  1  0.500000  0.001484  0.328011  1
  Eu  Eu7  1  0.500000  0.326528  0.998516  1
  Cl  Cl8  1  0.000000  0.806885  0.808456  1
  Cl  Cl9  1  0.000000  0.001572  0.193115  1
  Cl  Cl10  1  0.000000  0.191544  0.998428  1
  Cl  Cl11  1  0.000000  0.540104  0.539858  1
  Cl  Cl12  1  0.000000  0.999753  0.459896  1
  Cl  Cl13  1  0.000000  0.460142  0.000247  1
  Cl  Cl14  1  0.500000  0.766397  0.199866  1
  Cl  Cl15  1  0.500000  0.433468  0.233603  1
  Cl  Cl16  1  0.500000  0.557319  0.794705  1
  Cl  Cl17  1  0.500000  0.800134  0.566532  1
  Cl  Cl18  1  0.500000  0.205295  0.762613  1
  Cl  Cl19  1  0.500000  0.237387  0.442681  1
