# generated using pymatgen
data_Ba8Si16H
_symmetry_space_group_name_H-M   'P 1'
_cell_length_a   6.77699200
_cell_length_b   9.11025158
_cell_length_c   11.50681018
_cell_angle_alpha   89.97137994
_cell_angle_beta   90.00000000
_cell_angle_gamma   90.00000000
_symmetry_Int_Tables_number   1
_chemical_formula_structural   Ba8Si16H
_chemical_formula_sum   'Ba8 Si16 H1'
_cell_volume   710.43154642
_cell_formula_units_Z   1
loop_
 _symmetry_equiv_pos_site_id
 _symmetry_equiv_pos_as_xyz
  1  'x, y, z'
loop_
 _atom_site_type_symbol
 _atom_site_label
 _atom_site_symmetry_multiplicity
 _atom_site_fract_x
 _atom_site_fract_y
 _atom_site_fract_z
 _atom_site_occupancy
  Ba  Ba0  1  0.500000  0.012019  0.692112  1
  Ba  Ba1  1  0.000000  0.487773  0.195231  1
  Ba  Ba2  1  0.000000  0.986556  0.309378  1
  Ba  Ba3  1  0.500000  0.509882  0.814515  1
  Ba  Ba4  1  0.500000  0.841294  0.096966  1
  Ba  Ba5  1  0.000000  0.654089  0.594734  1
  Ba  Ba6  1  0.000000  0.148899  0.905933  1
  Ba  Ba7  1  0.500000  0.348044  0.411091  1
  Si  Si8  1  0.500000  0.409539  0.099674  1
  Si  Si9  1  0.000000  0.086524  0.594943  1
  Si  Si10  1  0.000000  0.583848  0.912222  1
  Si  Si11  1  0.500000  0.910750  0.409411  1
  Si  Si12  1  0.500000  0.191208  0.970461  1
  Si  Si13  1  0.000000  0.302095  0.468572  1
  Si  Si14  1  0.000000  0.800954  0.036476  1
  Si  Si15  1  0.500000  0.696478  0.536704  1
  Si  Si16  1  0.302193  0.196916  0.142466  1
  Si  Si17  1  0.177507  0.306502  0.649959  1
  Si  Si18  1  0.822199  0.802884  0.854802  1
  Si  Si19  1  0.678515  0.691128  0.355816  1
  Si  Si20  1  0.177801  0.802884  0.854802  1
  Si  Si21  1  0.321485  0.691128  0.355816  1
  Si  Si22  1  0.697807  0.196916  0.142466  1
  Si  Si23  1  0.822493  0.306502  0.649959  1
  H  H24  1  0.500000  0.119286  0.220389  1
