# generated using pymatgen
data_Ba4AgH12Rh
_symmetry_space_group_name_H-M   'P 1'
_cell_length_a   8.05686107
_cell_length_b   8.05686105
_cell_length_c   5.95296644
_cell_angle_alpha   90.03142080
_cell_angle_beta   90.03142599
_cell_angle_gamma   136.59474660
_symmetry_Int_Tables_number   1
_chemical_formula_structural   Ba4AgH12Rh
_chemical_formula_sum   'Ba4 Ag1 H12 Rh1'
_cell_volume   265.53322166
_cell_formula_units_Z   1
loop_
 _symmetry_equiv_pos_site_id
 _symmetry_equiv_pos_as_xyz
  1  'x, y, z'
loop_
 _atom_site_type_symbol
 _atom_site_label
 _atom_site_symmetry_multiplicity
 _atom_site_fract_x
 _atom_site_fract_y
 _atom_site_fract_z
 _atom_site_occupancy
  Ba  Ba0  1  0.354892  0.645108  0.000000  1
  Ba  Ba1  1  0.855543  0.144457  0.500000  1
  Ba  Ba2  1  0.645108  0.354892  0.000000  1
  Ba  Ba3  1  0.144457  0.855543  0.500000  1
  Ag  Ag4  1  0.000000  0.000000  0.000000  1
  H  H5  1  0.000185  0.499356  0.250591  1
  H  H6  1  0.500644  0.999815  0.749409  1
  H  H7  1  0.999815  0.500644  0.749409  1
  H  H8  1  0.499356  0.000185  0.250591  1
  H  H9  1  0.115895  0.884105  0.000000  1
  H  H10  1  0.612573  0.387427  0.500000  1
  H  H11  1  0.884105  0.115895  0.000000  1
  H  H12  1  0.387427  0.612573  0.500000  1
  H  H13  1  0.701375  0.701375  0.299302  1
  H  H14  1  0.298625  0.298625  0.700698  1
  H  H15  1  0.699732  0.699732  0.703081  1
  H  H16  1  0.300268  0.300268  0.296919  1
  Rh  Rh17  1  0.500000  0.500000  0.500000  1
