# generated using pymatgen
data_NaY4(Ga2Pt)10
_symmetry_space_group_name_H-M   'P 1'
_cell_length_a   4.25175608
_cell_length_b   10.98226625
_cell_length_c   13.79738952
_cell_angle_alpha   81.20815628
_cell_angle_beta   80.78456866
_cell_angle_gamma   78.60930665
_symmetry_Int_Tables_number   1
_chemical_formula_structural   NaY4(Ga2Pt)10
_chemical_formula_sum   'Na1 Y4 Ga20 Pt10'
_cell_volume   618.50224498
_cell_formula_units_Z   1
loop_
 _symmetry_equiv_pos_site_id
 _symmetry_equiv_pos_as_xyz
  1  'x, y, z'
loop_
 _atom_site_type_symbol
 _atom_site_label
 _atom_site_symmetry_multiplicity
 _atom_site_fract_x
 _atom_site_fract_y
 _atom_site_fract_z
 _atom_site_occupancy
  Na  Na0  1  0.500000  0.500000  0.500000  1
  Y  Y1  1  0.123419  0.089604  0.662930  1
  Y  Y2  1  0.876581  0.910396  0.337070  1
  Y  Y3  1  0.772480  0.632189  0.821747  1
  Y  Y4  1  0.227520  0.367811  0.178253  1
  Ga  Ga5  1  0.009653  0.070017  0.910713  1
  Ga  Ga6  1  0.990347  0.929983  0.089287  1
  Ga  Ga7  1  0.063811  0.675901  0.194261  1
  Ga  Ga8  1  0.936189  0.324099  0.805739  1
  Ga  Ga9  1  0.109370  0.332306  0.453264  1
  Ga  Ga10  1  0.890630  0.667694  0.546736  1
  Ga  Ga11  1  0.199051  0.605792  0.991873  1
  Ga  Ga12  1  0.800949  0.394208  0.008127  1
  Ga  Ga13  1  0.257511  0.782748  0.700191  1
  Ga  Ga14  1  0.742489  0.217252  0.299809  1
  Ga  Ga15  1  0.303325  0.897170  0.496087  1
  Ga  Ga16  1  0.696675  0.102830  0.503913  1
  Ga  Ga17  1  0.384203  0.521172  0.706878  1
  Ga  Ga18  1  0.615797  0.478828  0.293122  1
  Ga  Ga19  1  0.397899  0.202730  0.001955  1
  Ga  Ga20  1  0.602101  0.797270  0.998045  1
  Ga  Ga21  1  0.539752  0.280966  0.635766  1
  Ga  Ga22  1  0.460248  0.719034  0.364234  1
  Ga  Ga23  1  0.637604  0.935069  0.792662  1
  Ga  Ga24  1  0.362396  0.064931  0.207338  1
  Pt  Pt25  1  0.030185  0.573001  0.372304  1
  Pt  Pt26  1  0.969815  0.426999  0.627696  1
  Pt  Pt27  1  0.141445  0.834973  0.886726  1
  Pt  Pt28  1  0.858555  0.165027  0.113274  1
  Pt  Pt29  1  0.244376  0.122615  0.390611  1
  Pt  Pt30  1  0.755624  0.877385  0.609389  1
  Pt  Pt31  1  0.345895  0.419892  0.892664  1
  Pt  Pt32  1  0.654105  0.580108  0.107336  1
  Pt  Pt33  1  0.507469  0.168803  0.818321  1
  Pt  Pt34  1  0.492531  0.831197  0.181679  1
