# generated using pymatgen
data_CeY3(TmBi)6
_symmetry_space_group_name_H-M   'P 1'
_cell_length_a   8.25992400
_cell_length_b   9.45357600
_cell_length_c   12.10251900
_cell_angle_alpha   90.00000000
_cell_angle_beta   90.00000000
_cell_angle_gamma   90.00000000
_symmetry_Int_Tables_number   1
_chemical_formula_structural   CeY3(TmBi)6
_chemical_formula_sum   'Ce2 Y6 Tm12 Bi12'
_cell_volume   945.03511157
_cell_formula_units_Z   2
loop_
 _symmetry_equiv_pos_site_id
 _symmetry_equiv_pos_as_xyz
  1  'x, y, z'
loop_
 _atom_site_type_symbol
 _atom_site_label
 _atom_site_symmetry_multiplicity
 _atom_site_fract_x
 _atom_site_fract_y
 _atom_site_fract_z
 _atom_site_occupancy
  Ce  Ce0  1  0.183896  0.750000  0.722559  1
  Ce  Ce1  1  0.683896  0.750000  0.777441  1
  Y  Y2  1  0.814086  0.250000  0.282126  1
  Y  Y3  1  0.314086  0.250000  0.217874  1
  Y  Y4  1  0.353053  0.750000  0.216971  1
  Y  Y5  1  0.853053  0.750000  0.283029  1
  Y  Y6  1  0.648330  0.250000  0.784762  1
  Y  Y7  1  0.148330  0.250000  0.715238  1
  Tm  Tm8  1  0.023478  0.750000  0.988843  1
  Tm  Tm9  1  0.523478  0.750000  0.511157  1
  Tm  Tm10  1  0.976583  0.250000  0.011960  1
  Tm  Tm11  1  0.476583  0.250000  0.488040  1
  Tm  Tm12  1  0.307673  0.434017  0.940713  1
  Tm  Tm13  1  0.807673  0.065983  0.559287  1
  Tm  Tm14  1  0.692503  0.934134  0.059964  1
  Tm  Tm15  1  0.192503  0.565866  0.440036  1
  Tm  Tm16  1  0.692503  0.565866  0.059964  1
  Tm  Tm17  1  0.192503  0.934134  0.440036  1
  Tm  Tm18  1  0.307673  0.065983  0.940713  1
  Tm  Tm19  1  0.807673  0.434017  0.559287  1
  Bi  Bi20  1  0.434918  0.007842  0.670669  1
  Bi  Bi21  1  0.934918  0.492158  0.829331  1
  Bi  Bi22  1  0.565674  0.503746  0.327535  1
  Bi  Bi23  1  0.065674  0.996254  0.172465  1
  Bi  Bi24  1  0.565674  0.996254  0.327535  1
  Bi  Bi25  1  0.065674  0.503746  0.172465  1
  Bi  Bi26  1  0.434918  0.492158  0.670669  1
  Bi  Bi27  1  0.934918  0.007842  0.829331  1
  Bi  Bi28  1  0.404751  0.750000  0.960738  1
  Bi  Bi29  1  0.904751  0.750000  0.539262  1
  Bi  Bi30  1  0.594286  0.250000  0.042762  1
  Bi  Bi31  1  0.094286  0.250000  0.457238  1
