# generated using pymatgen
data_Lu4AlSiB4(RuRh4)2
_symmetry_space_group_name_H-M   'P 1'
_cell_length_a   9.35348700
_cell_length_b   9.35348700
_cell_length_c   3.18100300
_cell_angle_alpha   90.00000000
_cell_angle_beta   90.00000000
_cell_angle_gamma   90.00000000
_symmetry_Int_Tables_number   1
_chemical_formula_structural   Lu4AlSiB4(RuRh4)2
_chemical_formula_sum   'Lu4 Al1 Si1 B4 Ru2 Rh8'
_cell_volume   278.29869679
_cell_formula_units_Z   1
loop_
 _symmetry_equiv_pos_site_id
 _symmetry_equiv_pos_as_xyz
  1  'x, y, z'
loop_
 _atom_site_type_symbol
 _atom_site_label
 _atom_site_symmetry_multiplicity
 _atom_site_fract_x
 _atom_site_fract_y
 _atom_site_fract_z
 _atom_site_occupancy
  Lu  Lu0  1  0.825947  0.325097  0.000000  1
  Lu  Lu1  1  0.325097  0.174053  0.000000  1
  Lu  Lu2  1  0.674903  0.825947  0.000000  1
  Lu  Lu3  1  0.174053  0.674903  0.000000  1
  Al  Al4  1  0.500000  0.500000  0.000000  1
  Si  Si5  1  0.000000  0.000000  0.000000  1
  B  B6  1  0.621865  0.121148  0.000000  1
  B  B7  1  0.121148  0.378135  0.000000  1
  B  B8  1  0.878852  0.621865  0.000000  1
  B  B9  1  0.378135  0.878852  0.000000  1
  Ru  Ru10  1  0.500000  0.000000  0.500000  1
  Ru  Ru11  1  0.000000  0.500000  0.500000  1
  Rh  Rh12  1  0.068851  0.211909  0.500000  1
  Rh  Rh13  1  0.211909  0.931149  0.500000  1
  Rh  Rh14  1  0.788091  0.068851  0.500000  1
  Rh  Rh15  1  0.931149  0.788091  0.500000  1
  Rh  Rh16  1  0.427093  0.716700  0.500000  1
  Rh  Rh17  1  0.572907  0.283300  0.500000  1
  Rh  Rh18  1  0.716700  0.572907  0.500000  1
  Rh  Rh19  1  0.283300  0.427093  0.500000  1
