# generated using pymatgen
data_Tb2Tc15Ge2C3
_symmetry_space_group_name_H-M   'P 1'
_cell_length_a   6.93965753
_cell_length_b   6.96796392
_cell_length_c   6.93965700
_cell_angle_alpha   82.21630172
_cell_angle_beta   82.89280240
_cell_angle_gamma   82.21630228
_symmetry_Int_Tables_number   1
_chemical_formula_structural   Tb2Tc15Ge2C3
_chemical_formula_sum   'Tb2 Tc15 Ge2 C3'
_cell_volume   327.51028576
_cell_formula_units_Z   1
loop_
 _symmetry_equiv_pos_site_id
 _symmetry_equiv_pos_as_xyz
  1  'x, y, z'
loop_
 _atom_site_type_symbol
 _atom_site_label
 _atom_site_symmetry_multiplicity
 _atom_site_fract_x
 _atom_site_fract_y
 _atom_site_fract_z
 _atom_site_occupancy
  Tb  Tb0  1  0.654917  0.654567  0.654917  1
  Tb  Tb1  1  0.345083  0.345433  0.345083  1
  Tc  Tc2  1  0.000000  0.500000  0.000000  1
  Tc  Tc3  1  0.723711  0.277526  0.003259  1
  Tc  Tc4  1  0.996741  0.722474  0.276289  1
  Tc  Tc5  1  0.276752  0.000000  0.723248  1
  Tc  Tc6  1  0.003259  0.277526  0.723711  1
  Tc  Tc7  1  0.723248  0.000000  0.276752  1
  Tc  Tc8  1  0.276289  0.722474  0.996741  1
  Tc  Tc9  1  0.354455  0.353494  0.850927  1
  Tc  Tc10  1  0.850927  0.353494  0.354455  1
  Tc  Tc11  1  0.347015  0.857088  0.347015  1
  Tc  Tc12  1  0.645545  0.646506  0.149073  1
  Tc  Tc13  1  0.149073  0.646506  0.645545  1
  Tc  Tc14  1  0.652985  0.142912  0.652985  1
  Tc  Tc15  1  0.902468  0.900786  0.902468  1
  Tc  Tc16  1  0.097532  0.099214  0.097532  1
  Ge  Ge17  1  0.000000  0.000000  0.500000  1
  Ge  Ge18  1  0.500000  0.000000  0.000000  1
  C  C19  1  0.500000  0.500000  0.000000  1
  C  C20  1  0.000000  0.500000  0.500000  1
  C  C21  1  0.500000  0.000000  0.500000  1
