# generated using pymatgen
data_Dy3LuGaCo4
_symmetry_space_group_name_H-M   'P 1'
_cell_length_a   5.46748026
_cell_length_b   5.46748041
_cell_length_c   8.86318800
_cell_angle_alpha   70.74502873
_cell_angle_beta   70.74503930
_cell_angle_gamma   43.29777760
_symmetry_Int_Tables_number   1
_chemical_formula_structural   Dy3LuGaCo4
_chemical_formula_sum   'Dy3 Lu1 Ga1 Co4'
_cell_volume   169.87933247
_cell_formula_units_Z   1
loop_
 _symmetry_equiv_pos_site_id
 _symmetry_equiv_pos_as_xyz
  1  'x, y, z'
loop_
 _atom_site_type_symbol
 _atom_site_label
 _atom_site_symmetry_multiplicity
 _atom_site_fract_x
 _atom_site_fract_y
 _atom_site_fract_z
 _atom_site_occupancy
  Dy  Dy0  1  0.746156  0.746156  0.662106  1
  Dy  Dy1  1  0.253849  0.253849  0.336797  1
  Dy  Dy2  1  0.390688  0.390688  0.886770  1
  Lu  Lu3  1  0.607128  0.607128  0.115040  1
  Ga  Ga4  1  0.500123  0.500123  0.499138  1
  Co  Co5  1  0.037922  0.037922  0.645693  1
  Co  Co6  1  0.963130  0.963130  0.353119  1
  Co  Co7  1  0.094391  0.094391  0.881835  1
  Co  Co8  1  0.906613  0.906613  0.119503  1
