# generated using pymatgen
data_Ta23Si8Mo
_symmetry_space_group_name_H-M   'P 1'
_cell_length_a   10.22084338
_cell_length_b   10.21250176
_cell_length_c   5.20036288
_cell_angle_alpha   90.03774777
_cell_angle_beta   90.05499262
_cell_angle_gamma   90.02302324
_symmetry_Int_Tables_number   1
_chemical_formula_structural   Ta23Si8Mo
_chemical_formula_sum   'Ta23 Si8 Mo1'
_cell_volume   542.81544734
_cell_formula_units_Z   1
loop_
 _symmetry_equiv_pos_site_id
 _symmetry_equiv_pos_as_xyz
  1  'x, y, z'
loop_
 _atom_site_type_symbol
 _atom_site_label
 _atom_site_symmetry_multiplicity
 _atom_site_fract_x
 _atom_site_fract_y
 _atom_site_fract_z
 _atom_site_occupancy
  Ta  Ta0  1  0.400494  0.085289  0.029161  1
  Ta  Ta1  1  0.711385  0.809078  0.508264  1
  Ta  Ta2  1  0.900963  0.585308  0.472163  1
  Ta  Ta3  1  0.853940  0.017804  0.774203  1
  Ta  Ta4  1  0.017770  0.145712  0.226967  1
  Ta  Ta5  1  0.786041  0.688761  0.986620  1
  Ta  Ta6  1  0.286921  0.187522  0.513823  1
  Ta  Ta7  1  0.687435  0.213579  0.013713  1
  Ta  Ta8  1  0.414019  0.897829  0.531177  1
  Ta  Ta9  1  0.811554  0.287737  0.486172  1
  Ta  Ta10  1  0.354842  0.517842  0.725988  1
  Ta  Ta11  1  0.645787  0.481799  0.725128  1
  Ta  Ta12  1  0.145770  0.981538  0.772887  1
  Ta  Ta13  1  0.213410  0.312526  0.987089  1
  Ta  Ta14  1  0.913757  0.400571  0.971857  1
  Ta  Ta15  1  0.315096  0.785842  0.016239  1
  Ta  Ta16  1  0.600310  0.914008  0.024718  1
  Ta  Ta17  1  0.087027  0.600747  0.971173  1
  Ta  Ta18  1  0.101281  0.414389  0.471081  1
  Ta  Ta19  1  0.982105  0.854114  0.226336  1
  Ta  Ta20  1  0.187542  0.713113  0.488478  1
  Ta  Ta21  1  0.481957  0.355036  0.274363  1
  Ta  Ta22  1  0.585508  0.099980  0.529258  1
  Si  Si23  1  0.970238  0.794658  0.721016  1
  Si  Si24  1  0.205866  0.970442  0.279074  1
  Si  Si25  1  0.794212  0.028612  0.279558  1
  Si  Si26  1  0.470647  0.294715  0.779456  1
  Si  Si27  1  0.297050  0.531032  0.220745  1
  Si  Si28  1  0.028994  0.205523  0.720952  1
  Si  Si29  1  0.703376  0.474800  0.223036  1
  Si  Si30  1  0.529375  0.703178  0.778727  1
  Mo  Mo31  1  0.515330  0.646916  0.270578  1
