# generated using pymatgen
data_Re3Tc2Pt2W
_symmetry_space_group_name_H-M   'P 1'
_cell_length_a   5.61978600
_cell_length_b   5.60651382
_cell_length_c   4.43952900
_cell_angle_alpha   90.00000000
_cell_angle_beta   90.00000000
_cell_angle_gamma   120.07833986
_symmetry_Int_Tables_number   1
_chemical_formula_structural   Re3Tc2Pt2W
_chemical_formula_sum   'Re3 Tc2 Pt2 W1'
_cell_volume   121.04220563
_cell_formula_units_Z   1
loop_
 _symmetry_equiv_pos_site_id
 _symmetry_equiv_pos_as_xyz
  1  'x, y, z'
loop_
 _atom_site_type_symbol
 _atom_site_label
 _atom_site_symmetry_multiplicity
 _atom_site_fract_x
 _atom_site_fract_y
 _atom_site_fract_z
 _atom_site_occupancy
  Re  Re0  1  0.683856  0.842088  0.250000  1
  Re  Re1  1  0.158231  0.842088  0.250000  1
  Re  Re2  1  0.842060  0.684120  0.750000  1
  Tc  Tc3  1  0.315716  0.155139  0.750000  1
  Tc  Tc4  1  0.839423  0.155139  0.750000  1
  Pt  Pt5  1  0.333824  0.667648  0.750000  1
  Pt  Pt6  1  0.666616  0.333230  0.250000  1
  W  W7  1  0.160274  0.320548  0.250000  1
