# generated using pymatgen
data_ZrGa4(Fe3Ge)2
_symmetry_space_group_name_H-M   'P 1'
_cell_length_a   4.97960708
_cell_length_b   6.48711975
_cell_length_c   6.48712028
_cell_angle_alpha   80.25587117
_cell_angle_beta   67.43028879
_cell_angle_gamma   67.43030039
_symmetry_Int_Tables_number   1
_chemical_formula_structural   ZrGa4(Fe3Ge)2
_chemical_formula_sum   'Zr1 Ga4 Fe6 Ge2'
_cell_volume   178.62710362
_cell_formula_units_Z   1
loop_
 _symmetry_equiv_pos_site_id
 _symmetry_equiv_pos_as_xyz
  1  'x, y, z'
loop_
 _atom_site_type_symbol
 _atom_site_label
 _atom_site_symmetry_multiplicity
 _atom_site_fract_x
 _atom_site_fract_y
 _atom_site_fract_z
 _atom_site_occupancy
  Zr  Zr0  1  0.000000  0.000000  0.000000  1
  Ga  Ga1  1  0.338406  0.661594  0.661594  1
  Ga  Ga2  1  0.661594  0.338406  0.338406  1
  Ga  Ga3  1  0.328148  0.171852  0.171852  1
  Ga  Ga4  1  0.671852  0.828148  0.828148  1
  Fe  Fe5  1  0.500000  0.246709  0.753291  1
  Fe  Fe6  1  0.500000  0.753291  0.246709  1
  Fe  Fe7  1  0.000000  0.500000  0.000000  1
  Fe  Fe8  1  0.500000  0.500000  0.000000  1
  Fe  Fe9  1  0.000000  0.000000  0.500000  1
  Fe  Fe10  1  0.500000  0.000000  0.500000  1
  Ge  Ge11  1  0.000000  0.660071  0.339929  1
  Ge  Ge12  1  0.000000  0.339929  0.660071  1
