# generated using pymatgen
data_LaY2Si4(PPd10)2
_symmetry_space_group_name_H-M   'P 1'
_cell_length_a   8.74292327
_cell_length_b   8.74292372
_cell_length_c   8.74101400
_cell_angle_alpha   60.00721777
_cell_angle_beta   60.00721610
_cell_angle_gamma   59.98555165
_symmetry_Int_Tables_number   1
_chemical_formula_structural   LaY2Si4(PPd10)2
_chemical_formula_sum   'La1 Y2 Si4 P2 Pd20'
_cell_volume   472.45460380
_cell_formula_units_Z   1
loop_
 _symmetry_equiv_pos_site_id
 _symmetry_equiv_pos_as_xyz
  1  'x, y, z'
loop_
 _atom_site_type_symbol
 _atom_site_label
 _atom_site_symmetry_multiplicity
 _atom_site_fract_x
 _atom_site_fract_y
 _atom_site_fract_z
 _atom_site_occupancy
  La  La0  1  0.250000  0.250000  0.250000  1
  Y  Y1  1  0.750000  0.750000  0.750000  1
  Y  Y2  1  0.000000  0.000000  0.000000  1
  Si  Si3  1  0.734657  0.265343  0.734657  1
  Si  Si4  1  0.265343  0.734657  0.265343  1
  Si  Si5  1  0.265343  0.734657  0.734657  1
  Si  Si6  1  0.734657  0.265343  0.265343  1
  P  P7  1  0.735225  0.735225  0.264775  1
  P  P8  1  0.264775  0.264775  0.735225  1
  Pd  Pd9  1  0.616584  0.616584  0.614942  1
  Pd  Pd10  1  0.385654  0.385654  0.387736  1
  Pd  Pd11  1  0.151889  0.614942  0.616584  1
  Pd  Pd12  1  0.614942  0.151889  0.616584  1
  Pd  Pd13  1  0.840955  0.387736  0.385654  1
  Pd  Pd14  1  0.387736  0.840955  0.385654  1
  Pd  Pd15  1  0.616584  0.616584  0.151889  1
  Pd  Pd16  1  0.385654  0.385654  0.840955  1
  Pd  Pd17  1  0.998773  0.998773  0.654446  1
  Pd  Pd18  1  0.998773  0.998773  0.348009  1
  Pd  Pd19  1  0.348009  0.654446  0.998773  1
  Pd  Pd20  1  0.654446  0.348009  0.998773  1
  Pd  Pd21  1  0.997459  0.655589  0.000268  1
  Pd  Pd22  1  0.655589  0.997459  0.346685  1
  Pd  Pd23  1  0.000268  0.346685  0.997459  1
  Pd  Pd24  1  0.346685  0.000268  0.655589  1
  Pd  Pd25  1  0.655589  0.997459  0.000268  1
  Pd  Pd26  1  0.346685  0.000268  0.997459  1
  Pd  Pd27  1  0.997459  0.655589  0.346685  1
  Pd  Pd28  1  0.000268  0.346685  0.655589  1
