# generated using pymatgen
data_La4CdCoSi6
_symmetry_space_group_name_H-M   'P 1'
_cell_length_a   8.30896800
_cell_length_b   8.30896768
_cell_length_c   4.40010600
_cell_angle_alpha   90.00000000
_cell_angle_beta   90.00000000
_cell_angle_gamma   120.00000127
_symmetry_Int_Tables_number   1
_chemical_formula_structural   La4CdCoSi6
_chemical_formula_sum   'La4 Cd1 Co1 Si6'
_cell_volume   263.08005333
_cell_formula_units_Z   1
loop_
 _symmetry_equiv_pos_site_id
 _symmetry_equiv_pos_as_xyz
  1  'x, y, z'
loop_
 _atom_site_type_symbol
 _atom_site_label
 _atom_site_symmetry_multiplicity
 _atom_site_fract_x
 _atom_site_fract_y
 _atom_site_fract_z
 _atom_site_occupancy
  La  La0  1  0.508785  0.491215  0.000000  1
  La  La1  1  0.982429  0.491215  0.000000  1
  La  La2  1  0.508785  0.017571  0.000000  1
  La  La3  1  0.000000  0.000000  0.000000  1
  Cd  Cd4  1  0.333333  0.666667  0.500000  1
  Co  Co5  1  0.666667  0.333333  0.500000  1
  Si  Si6  1  0.825793  0.651585  0.500000  1
  Si  Si7  1  0.157006  0.842994  0.500000  1
  Si  Si8  1  0.685986  0.842994  0.500000  1
  Si  Si9  1  0.157006  0.314014  0.500000  1
  Si  Si10  1  0.825793  0.174207  0.500000  1
  Si  Si11  1  0.348415  0.174207  0.500000  1
