# generated using pymatgen
data_Nd2HfAlPt2
_symmetry_space_group_name_H-M   'P 1'
_cell_length_a   4.53314200
_cell_length_b   7.43858800
_cell_length_c   8.01263200
_cell_angle_alpha   90.00000000
_cell_angle_beta   90.00000000
_cell_angle_gamma   90.00000000
_symmetry_Int_Tables_number   1
_chemical_formula_structural   Nd2HfAlPt2
_chemical_formula_sum   'Nd4 Hf2 Al2 Pt4'
_cell_volume   270.18735873
_cell_formula_units_Z   2
loop_
 _symmetry_equiv_pos_site_id
 _symmetry_equiv_pos_as_xyz
  1  'x, y, z'
loop_
 _atom_site_type_symbol
 _atom_site_label
 _atom_site_symmetry_multiplicity
 _atom_site_fract_x
 _atom_site_fract_y
 _atom_site_fract_z
 _atom_site_occupancy
  Nd  Nd0  1  0.750000  0.452323  0.175246  1
  Nd  Nd1  1  0.250000  0.047677  0.675246  1
  Nd  Nd2  1  0.750000  0.986094  0.326448  1
  Nd  Nd3  1  0.250000  0.513906  0.826448  1
  Hf  Hf4  1  0.750000  0.868043  0.935542  1
  Hf  Hf5  1  0.250000  0.631957  0.435542  1
  Al  Al6  1  0.750000  0.359997  0.566578  1
  Al  Al7  1  0.250000  0.140003  0.066578  1
  Pt  Pt8  1  0.750000  0.716750  0.613720  1
  Pt  Pt9  1  0.750000  0.220318  0.882466  1
  Pt  Pt10  1  0.250000  0.279682  0.382466  1
  Pt  Pt11  1  0.250000  0.783250  0.113720  1
