# generated using pymatgen
data_Nb16O37F3
_symmetry_space_group_name_H-M   'P 1'
_cell_length_a   3.85703220
_cell_length_b   14.81483732
_cell_length_c   14.81483700
_cell_angle_alpha   89.02905109
_cell_angle_beta   82.52031248
_cell_angle_gamma   82.52031391
_symmetry_Int_Tables_number   1
_chemical_formula_structural   Nb16O37F3
_chemical_formula_sum   'Nb16 O37 F3'
_cell_volume   832.19412926
_cell_formula_units_Z   1
loop_
 _symmetry_equiv_pos_site_id
 _symmetry_equiv_pos_as_xyz
  1  'x, y, z'
loop_
 _atom_site_type_symbol
 _atom_site_label
 _atom_site_symmetry_multiplicity
 _atom_site_fract_x
 _atom_site_fract_y
 _atom_site_fract_z
 _atom_site_occupancy
  Nb  Nb0  1  0.266730  0.599804  0.866887  1
  Nb  Nb1  1  0.996675  0.874858  0.133627  1
  Nb  Nb2  1  0.996750  0.405197  0.600645  1
  Nb  Nb3  1  0.402302  0.594895  0.599651  1
  Nb  Nb4  1  0.864928  0.869233  0.401153  1
  Nb  Nb5  1  0.599791  0.400251  0.400810  1
  Nb  Nb6  1  0.129151  0.143985  0.597574  1
  Nb  Nb7  1  0.128186  0.865053  0.870794  1
  Nb  Nb8  1  0.002725  0.125293  0.867678  1
  Nb  Nb9  1  0.871606  0.135334  0.130502  1
  Nb  Nb10  1  0.856475  0.413919  0.870610  1
  Nb  Nb11  1  0.000517  0.599951  0.399717  1
  Nb  Nb12  1  0.734835  0.130873  0.400865  1
  Nb  Nb13  1  0.732878  0.400233  0.133886  1
  Nb  Nb14  1  0.272621  0.856631  0.597803  1
  Nb  Nb15  1  0.143171  0.586161  0.130177  1
  O  O16  1  0.348089  0.440482  0.861435  1
  O  O17  1  0.794174  0.999683  0.410641  1
  O  O18  1  0.791461  0.277646  0.137437  1
  O  O19  1  0.208794  0.722318  0.861824  1
  O  O20  1  0.790165  0.557899  0.862763  1
  O  O21  1  0.210168  0.139498  0.439947  1
  O  O22  1  0.931823  0.137268  0.998921  1
  O  O23  1  0.498220  0.147691  0.856023  1
  O  O24  1  0.069309  0.998564  0.863136  1
  O  O25  1  0.932175  0.412702  0.723790  1
  O  O26  1  0.500633  0.566317  0.432420  1
  O  O27  1  0.204935  0.591764  0.001233  1
  O  O28  1  0.930729  0.001399  0.136679  1
  O  O29  1  0.502390  0.852171  0.142669  1
  O  O30  1  0.932062  0.721984  0.415382  1
  O  O31  1  0.649869  0.138109  0.562808  1
  O  O32  1  0.788272  0.861894  0.562002  1
  O  O33  1  0.645848  0.854871  0.854304  1
  O  O34  1  0.347789  0.585426  0.723234  1
  O  O35  1  0.066768  0.588560  0.276426  1
  O  O36  1  0.652474  0.413411  0.277173  1
  O  O37  1  0.934155  0.564971  0.567380  1
  O  O38  1  0.066215  0.279467  0.586685  1
  O  O39  1  0.068400  0.862357  0.000815  1
  O  O40  1  0.929300  0.860978  0.277683  1
  O  O41  1  0.350121  0.860204  0.439157  1
  O  O42  1  0.790134  0.138404  0.278244  1
  O  O43  1  0.499457  0.434229  0.566602  1
  O  O44  1  0.072100  0.138227  0.720426  1
  O  O45  1  0.652588  0.278075  0.415262  1
  O  O46  1  0.794743  0.408346  0.999303  1
  O  O47  1  0.209616  0.442145  0.137820  1
  O  O48  1  0.066612  0.434232  0.431830  1
  O  O49  1  0.210478  0.861823  0.719829  1
  O  O50  1  0.347432  0.720328  0.586618  1
  O  O51  1  0.651811  0.559566  0.138723  1
  O  O52  1  0.354382  0.145386  0.144702  1
  F  F53  1  0.071516  0.719980  0.139890  1
  F  F54  1  0.206815  0.000104  0.586570  1
  F  F55  1  0.928641  0.279850  0.859835  1
