# generated using pymatgen
data_Tm6ScCr3(ReN4)6
_symmetry_space_group_name_H-M   'P 1'
_cell_length_a   10.93250995
_cell_length_b   10.93250829
_cell_length_c   10.93250800
_cell_angle_alpha   109.57794857
_cell_angle_beta   109.57795104
_cell_angle_gamma   109.57794703
_symmetry_Int_Tables_number   1
_chemical_formula_structural   Tm6ScCr3(ReN4)6
_chemical_formula_sum   'Tm12 Sc2 Cr6 Re12 N48'
_cell_volume   1001.86579192
_cell_formula_units_Z   2
loop_
 _symmetry_equiv_pos_site_id
 _symmetry_equiv_pos_as_xyz
  1  'x, y, z'
loop_
 _atom_site_type_symbol
 _atom_site_label
 _atom_site_symmetry_multiplicity
 _atom_site_fract_x
 _atom_site_fract_y
 _atom_site_fract_z
 _atom_site_occupancy
  Tm  Tm0  1  0.250000  0.377648  0.122352  1
  Tm  Tm1  1  0.375212  0.750000  0.124788  1
  Tm  Tm2  1  0.377648  0.122352  0.250000  1
  Tm  Tm3  1  0.875212  0.624788  0.250000  1
  Tm  Tm4  1  0.750000  0.124788  0.375212  1
  Tm  Tm5  1  0.122352  0.250000  0.377648  1
  Tm  Tm6  1  0.877648  0.750000  0.622351  1
  Tm  Tm7  1  0.250000  0.875212  0.624788  1
  Tm  Tm8  1  0.124788  0.375212  0.750000  1
  Tm  Tm9  1  0.622351  0.877648  0.750000  1
  Tm  Tm10  1  0.624788  0.250000  0.875212  1
  Tm  Tm11  1  0.750000  0.622351  0.877648  1
  Sc  Sc12  1  0.000000  0.000000  0.000000  1
  Sc  Sc13  1  0.499999  0.499999  0.499999  1
  Cr  Cr14  1  0.499999  0.000000  0.000000  1
  Cr  Cr15  1  0.000000  0.499999  0.000000  1
  Cr  Cr16  1  0.500000  0.500000  0.000000  1
  Cr  Cr17  1  0.000000  0.000000  0.499999  1
  Cr  Cr18  1  0.500000  0.000000  0.500000  1
  Cr  Cr19  1  0.000000  0.500000  0.500000  1
  Re  Re20  1  0.874567  0.253063  0.126908  1
  Re  Re21  1  0.746938  0.873092  0.125433  1
  Re  Re22  1  0.625432  0.373092  0.246938  1
  Re  Re23  1  0.126908  0.874567  0.253063  1
  Re  Re24  1  0.246938  0.625432  0.373092  1
  Re  Re25  1  0.626908  0.753062  0.374567  1
  Re  Re26  1  0.373092  0.246938  0.625432  1
  Re  Re27  1  0.753062  0.374567  0.626908  1
  Re  Re28  1  0.873092  0.125433  0.746938  1
  Re  Re29  1  0.374567  0.626908  0.753062  1
  Re  Re30  1  0.253063  0.126908  0.874567  1
  Re  Re31  1  0.125433  0.746938  0.873092  1
  N  N32  1  0.215492  0.125103  0.024242  1
  N  N33  1  0.316977  0.902691  0.023115  1
  N  N34  1  0.703292  0.682890  0.087737  1
  N  N35  1  0.880472  0.403520  0.085732  1
  N  N36  1  0.619529  0.414268  0.096481  1
  N  N37  1  0.976884  0.683022  0.097308  1
  N  N38  1  0.024242  0.215492  0.125103  1
  N  N39  1  0.596480  0.914268  0.119528  1
  N  N40  1  0.476885  0.597309  0.183022  1
  N  N41  1  0.203292  0.587737  0.182890  1
  N  N42  1  0.125103  0.024242  0.215492  1
  N  N43  1  0.587737  0.182890  0.203292  1
  N  N44  1  0.475758  0.374898  0.284509  1
  N  N45  1  0.317109  0.912263  0.296708  1
  N  N46  1  0.912263  0.296708  0.317109  1
  N  N47  1  0.902691  0.023115  0.316977  1
  N  N48  1  0.284509  0.475758  0.374898  1
  N  N49  1  0.585732  0.903520  0.380471  1
  N  N50  1  0.816978  0.523115  0.402692  1
  N  N51  1  0.085732  0.880472  0.403520  1
  N  N52  1  0.817110  0.796707  0.412263  1
  N  N53  1  0.096481  0.619529  0.414268  1
  N  N54  1  0.597309  0.183022  0.476885  1
  N  N55  1  0.374898  0.284509  0.475758  1
  N  N56  1  0.402692  0.816978  0.523115  1
  N  N57  1  0.625103  0.715491  0.524242  1
  N  N58  1  0.182890  0.203292  0.587737  1
  N  N59  1  0.903520  0.380471  0.585732  1
  N  N60  1  0.183022  0.476885  0.597309  1
  N  N61  1  0.914268  0.119528  0.596480  1
  N  N62  1  0.414268  0.096481  0.619529  1
  N  N63  1  0.715491  0.524242  0.625103  1
  N  N64  1  0.087737  0.703292  0.682890  1
  N  N65  1  0.097308  0.976884  0.683022  1
  N  N66  1  0.682890  0.087737  0.703292  1
  N  N67  1  0.524242  0.625103  0.715491  1
  N  N68  1  0.874898  0.975758  0.784509  1
  N  N69  1  0.412263  0.817110  0.796707  1
  N  N70  1  0.523115  0.402692  0.816978  1
  N  N71  1  0.796707  0.412263  0.817110  1
  N  N72  1  0.403520  0.085732  0.880472  1
  N  N73  1  0.975758  0.784509  0.874898  1
  N  N74  1  0.380471  0.585732  0.903520  1
  N  N75  1  0.023115  0.316977  0.902691  1
  N  N76  1  0.296708  0.317109  0.912263  1
  N  N77  1  0.119528  0.596480  0.914268  1
  N  N78  1  0.683022  0.097308  0.976884  1
  N  N79  1  0.784509  0.874898  0.975758  1
