# generated using pymatgen
data_AcLa3(Er3Pt4)2
_symmetry_space_group_name_H-M   'P 1'
_cell_length_a   7.62664800
_cell_length_b   7.68446503
_cell_length_c   14.69161900
_cell_angle_alpha   90.00516704
_cell_angle_beta   90.00000000
_cell_angle_gamma   90.00000000
_symmetry_Int_Tables_number   1
_chemical_formula_structural   AcLa3(Er3Pt4)2
_chemical_formula_sum   'Ac2 La6 Er12 Pt16'
_cell_volume   861.02744863
_cell_formula_units_Z   2
loop_
 _symmetry_equiv_pos_site_id
 _symmetry_equiv_pos_as_xyz
  1  'x, y, z'
loop_
 _atom_site_type_symbol
 _atom_site_label
 _atom_site_symmetry_multiplicity
 _atom_site_fract_x
 _atom_site_fract_y
 _atom_site_fract_z
 _atom_site_occupancy
  Ac  Ac0  1  0.500608  0.673280  0.404345  1
  Ac  Ac1  1  0.000608  0.826720  0.095655  1
  La  La2  1  0.997615  0.824232  0.404178  1
  La  La3  1  0.497615  0.675768  0.095822  1
  La  La4  1  0.502653  0.323332  0.596497  1
  La  La5  1  0.002653  0.176668  0.903503  1
  La  La6  1  0.003157  0.175548  0.596375  1
  La  La7  1  0.503157  0.324452  0.903625  1
  Er  Er8  1  0.676099  0.997528  0.250108  1
  Er  Er9  1  0.176099  0.502472  0.249892  1
  Er  Er10  1  0.823025  0.495606  0.750071  1
  Er  Er11  1  0.323025  0.004394  0.749929  1
  Er  Er12  1  0.658680  0.833947  0.624025  1
  Er  Er13  1  0.158680  0.666053  0.875975  1
  Er  Er14  1  0.842845  0.331948  0.376638  1
  Er  Er15  1  0.342845  0.168052  0.123362  1
  Er  Er16  1  0.340490  0.165620  0.376524  1
  Er  Er17  1  0.840490  0.334380  0.123476  1
  Er  Er18  1  0.158908  0.665318  0.624203  1
  Er  Er19  1  0.658908  0.834682  0.875797  1
  Pt  Pt20  1  0.810112  0.635074  0.251347  1
  Pt  Pt21  1  0.310112  0.864926  0.248653  1
  Pt  Pt22  1  0.689719  0.136795  0.749455  1
  Pt  Pt23  1  0.189719  0.363205  0.750545  1
  Pt  Pt24  1  0.544392  0.369427  0.249383  1
  Pt  Pt25  1  0.044392  0.130573  0.250617  1
  Pt  Pt26  1  0.955055  0.871145  0.749625  1
  Pt  Pt27  1  0.455055  0.628855  0.750375  1
  Pt  Pt28  1  0.825030  0.536557  0.544854  1
  Pt  Pt29  1  0.325030  0.963443  0.955146  1
  Pt  Pt30  1  0.676505  0.038615  0.455189  1
  Pt  Pt31  1  0.176505  0.461385  0.044811  1
  Pt  Pt32  1  0.173095  0.459938  0.456050  1
  Pt  Pt33  1  0.673095  0.040062  0.043950  1
  Pt  Pt34  1  0.322012  0.963214  0.544451  1
  Pt  Pt35  1  0.822012  0.536786  0.955549  1
