# generated using pymatgen
data_TmLu3(Ni2Sn)2
_symmetry_space_group_name_H-M   'P 1'
_cell_length_a   7.33061504
_cell_length_b   7.33061504
_cell_length_c   3.50868000
_cell_angle_alpha   90.00000000
_cell_angle_beta   90.00000000
_cell_angle_gamma   89.98776021
_symmetry_Int_Tables_number   1
_chemical_formula_structural   TmLu3(Ni2Sn)2
_chemical_formula_sum   'Tm1 Lu3 Ni4 Sn2'
_cell_volume   188.54914994
_cell_formula_units_Z   1
loop_
 _symmetry_equiv_pos_site_id
 _symmetry_equiv_pos_as_xyz
  1  'x, y, z'
loop_
 _atom_site_type_symbol
 _atom_site_label
 _atom_site_symmetry_multiplicity
 _atom_site_fract_x
 _atom_site_fract_y
 _atom_site_fract_z
 _atom_site_occupancy
  Tm  Tm0  1  0.830457  0.669543  0.500000  1
  Lu  Lu1  1  0.668963  0.169220  0.500000  1
  Lu  Lu2  1  0.330780  0.831037  0.500000  1
  Lu  Lu3  1  0.169160  0.330840  0.500000  1
  Ni  Ni4  1  0.877217  0.374749  0.000000  1
  Ni  Ni5  1  0.125251  0.622783  0.000000  1
  Ni  Ni6  1  0.375879  0.124121  0.000000  1
  Ni  Ni7  1  0.621991  0.878009  0.000000  1
  Sn  Sn8  1  0.499534  0.499232  0.000000  1
  Sn  Sn9  1  0.000768  0.000466  0.000000  1
